MODEL 1
REMARK VINA RESULT: -7.450001568      0.000      0.000
REMARK  14 active torsions:
REMARK  status: ('A' for Active; 'I' for Inactive)
REMARK    1  A    between atoms: C2_2  and  N1_3 
REMARK    2  A    between atoms: C2_2  and  C3_7 
REMARK       I    between atoms: C3_7  and  N2_9 
REMARK    3  A    between atoms: N2_9  and  N3_11 
REMARK       I    between atoms: N3_11  and  C5_13 
REMARK    4  A    between atoms: C5_13  and  C6_15 
REMARK    5  A    between atoms: C6_15  and  O3_16 
REMARK    6  A    between atoms: O3_16  and  C7_17 
REMARK    7  A    between atoms: C7_17  and  C8_19 
REMARK       I    between atoms: N4_21  and  C10_22 
REMARK    8  A    between atoms: C10_22  and  C11_24 
REMARK    9  A    between atoms: C11_24  and  C12_25 
REMARK   10  A    between atoms: C12_25  and  N5_26 
REMARK   11  A    between atoms: C12_25  and  C15_41 
REMARK   12  A    between atoms: N5_26  and  C13_28 
REMARK   13  A    between atoms: C13_28  and  N6_29 
REMARK   14  A    between atoms: C13_28  and  C14_33 
ROOT
HETATM    1  C8  UNL     1      -9.084   5.687   1.948  1.00  0.00     0.139 A 
HETATM    2  C9  UNL     1      -8.852   4.338   2.116  1.00  0.00     0.154 A 
HETATM    3  N4  UNL     1      -9.702   3.606   1.340  1.00  0.00    -0.213 N 
HETATM    4  C10 UNL     1      -9.739   2.173   1.224  1.00  0.00     0.263 C 
HETATM    5  O5  UNL     1     -10.582   1.718   0.455  1.00  0.00    -0.267 OA
HETATM    6  N12 UNL     1     -10.431   4.516   0.719  1.00  0.00    -0.012 NA
HETATM    7  N13 UNL     1     -10.080   5.747   1.066  1.00  0.00    -0.277 N 
ATOM      8  H13 UNL     1     -10.506   6.605   0.712  1.00  0.00     0.184 HD
ENDROOT
BRANCH   4   9
HETATM    9  C11 UNL     1      -8.791   1.448   2.015  1.00  0.00     0.083 C 
BRANCH   9  10
HETATM   10  C12 UNL     1      -7.366   1.332   1.690  1.00  0.00     0.197 C 
BRANCH  10  11
HETATM   11  N5  UNL     1      -7.052   0.807   0.406  1.00  0.00    -0.374 N 
ATOM     12  H5  UNL     1      -7.262  -0.165   0.176  1.00  0.00     0.156 HD
BRANCH  11  13
HETATM   13  C13 UNL     1      -6.441   1.661  -0.547  1.00  0.00     0.349 C 
BRANCH  13  14
HETATM   14  N6  UNL     1      -5.465   2.472   0.209  1.00  0.00    -0.051 N 
ATOM     15  H63 UNL     1      -5.892   3.221   0.756  1.00  0.00     0.277 HD
ATOM     16  H62 UNL     1      -5.041   1.975   0.993  1.00  0.00     0.277 HD
ATOM     17  H61 UNL     1      -4.789   2.804  -0.478  1.00  0.00     0.277 HD
ENDBRANCH  13  14
BRANCH  13  18
HETATM   18  C14 UNL     1      -7.386   2.597  -1.206  1.00  0.00     0.160 A 
HETATM   19  N7  UNL     1      -8.486   2.367  -1.932  1.00  0.00    -0.267 N 
HETATM   20  N8  UNL     1      -9.023   3.518  -2.324  1.00  0.00    -0.005 NA
ATOM     21  H7  UNL     1      -8.858   1.444  -2.153  1.00  0.00     0.185 HD
HETATM   22  N9  UNL     1      -8.270   4.513  -1.856  1.00  0.00    -0.225 N 
HETATM   23  N10 UNL     1      -7.285   3.950  -1.184  1.00  0.00    -0.272 N 
ATOM     24  H9  UNL     1      -8.424   5.512  -1.992  1.00  0.00     0.205 HD
ATOM     25  H10 UNL     1      -6.544   4.465  -0.708  1.00  0.00     0.189 HD
ENDBRANCH  13  18
ENDBRANCH  11  13
ENDBRANCH  10  11
BRANCH  10  26
HETATM   26  C15 UNL     1      -6.713   0.479   2.708  1.00  0.00     0.257 C 
HETATM   27  N11 UNL     1      -7.444  -0.453   3.455  1.00  0.00    -0.060 NA
HETATM   28  O6  UNL     1      -5.485   0.598   2.908  1.00  0.00    -0.274 OA
ENDBRANCH  10  26
ENDBRANCH   9  10
ENDBRANCH   4   9
BRANCH   1  29
HETATM   29  C7  UNL     1      -8.322   6.733   2.625  1.00  0.00     0.312 C 
HETATM   30  O4  UNL     1      -7.856   7.737   2.007  1.00  0.00    -0.258 OA
BRANCH  29  31
HETATM   31  O3  UNL     1      -8.071   6.668   3.983  1.00  0.00    -0.307 OA
BRANCH  31  32
HETATM   32  C6  UNL     1      -7.201   5.846   4.663  1.00  0.00     0.283 C 
BRANCH  32  33
HETATM   33  C5  UNL     1      -6.016   5.357   3.960  1.00  0.00     0.262 C 
HETATM   34  N3  UNL     1      -5.613   4.012   4.157  1.00  0.00    -0.261 N 
HETATM   35  C4  UNL     1      -6.345   3.160   5.071  1.00  0.00     0.181 C 
HETATM   36  O2  UNL     1      -5.324   6.067   3.180  1.00  0.00    -0.269 OA
BRANCH  34  37
HETATM   37  N2  UNL     1      -4.515   3.477   3.495  1.00  0.00    -0.264 N 
HETATM   38  C3  UNL     1      -3.214   3.656   4.039  1.00  0.00     0.266 C 
HETATM   39  O1  UNL     1      -3.061   4.305   5.123  1.00  0.00    -0.269 OA
ATOM     40  H2  UNL     1      -4.642   2.959   2.625  1.00  0.00     0.190 HD
BRANCH  38  41
HETATM   41  C2  UNL     1      -2.048   3.096   3.348  1.00  0.00     0.272 C 
HETATM   42  C1  UNL     1      -0.842   3.211   4.261  1.00  0.00     0.050 C 
BRANCH  41  43
HETATM   43  N1  UNL     1      -1.777   3.810   2.120  1.00  0.00    -0.067 N 
ATOM     44  H13 UNL     1      -2.135   4.765   2.139  1.00  0.00     0.275 HD
ATOM     45  H12 UNL     1      -0.788   4.032   2.010  1.00  0.00     0.275 HD
ATOM     46  H11 UNL     1      -2.145   3.272   1.336  1.00  0.00     0.275 HD
ENDBRANCH  41  43
ENDBRANCH  38  41
ENDBRANCH  34  37
ENDBRANCH  32  33
ENDBRANCH  31  32
ENDBRANCH  29  31
ENDBRANCH   1  29
TORSDOF 14
ENDMDL
MODEL 2
REMARK VINA RESULT: -7.073483095      2.329      6.608
REMARK  14 active torsions:
REMARK  status: ('A' for Active; 'I' for Inactive)
REMARK    1  A    between atoms: C2_2  and  N1_3 
REMARK    2  A    between atoms: C2_2  and  C3_7 
REMARK       I    between atoms: C3_7  and  N2_9 
REMARK    3  A    between atoms: N2_9  and  N3_11 
REMARK       I    between atoms: N3_11  and  C5_13 
REMARK    4  A    between atoms: C5_13  and  C6_15 
REMARK    5  A    between atoms: C6_15  and  O3_16 
REMARK    6  A    between atoms: O3_16  and  C7_17 
REMARK    7  A    between atoms: C7_17  and  C8_19 
REMARK       I    between atoms: N4_21  and  C10_22 
REMARK    8  A    between atoms: C10_22  and  C11_24 
REMARK    9  A    between atoms: C11_24  and  C12_25 
REMARK   10  A    between atoms: C12_25  and  N5_26 
REMARK   11  A    between atoms: C12_25  and  C15_41 
REMARK   12  A    between atoms: N5_26  and  C13_28 
REMARK   13  A    between atoms: C13_28  and  N6_29 
REMARK   14  A    between atoms: C13_28  and  C14_33 
ROOT
HETATM    1  C8  UNL     1      -6.987   3.924  -0.058  1.00  0.00     0.139 A 
HETATM    2  C9  UNL     1      -6.020   3.740   0.908  1.00  0.00     0.154 A 
HETATM    3  N4  UNL     1      -6.061   4.747   1.825  1.00  0.00    -0.213 N 
HETATM    4  C10 UNL     1      -5.230   4.882   2.992  1.00  0.00     0.263 C 
HETATM    5  O5  UNL     1      -5.445   5.867   3.693  1.00  0.00    -0.267 OA
HETATM    6  N12 UNL     1      -7.045   5.522   1.404  1.00  0.00    -0.012 NA
HETATM    7  N13 UNL     1      -7.601   5.051   0.296  1.00  0.00    -0.277 N 
ATOM      8  H13 UNL     1      -8.376   5.485  -0.207  1.00  0.00     0.184 HD
ENDROOT
BRANCH   4   9
HETATM    9  C11 UNL     1      -4.257   3.852   3.199  1.00  0.00     0.083 C 
BRANCH   9  10
HETATM   10  C12 UNL     1      -3.838   3.369   4.517  1.00  0.00     0.197 C 
BRANCH  10  11
HETATM   11  N5  UNL     1      -2.498   3.656   4.898  1.00  0.00    -0.374 N 
ATOM     12  H5  UNL     1      -2.300   4.321   5.645  1.00  0.00     0.156 HD
BRANCH  11  13
HETATM   13  C13 UNL     1      -1.441   2.996   4.217  1.00  0.00     0.349 C 
BRANCH  13  14
HETATM   14  N6  UNL     1      -0.673   2.287   5.260  1.00  0.00    -0.051 N 
ATOM     15  H63 UNL     1      -1.237   2.006   6.063  1.00  0.00     0.277 HD
ATOM     16  H62 UNL     1      -0.378   1.350   4.985  1.00  0.00     0.277 HD
ATOM     17  H61 UNL     1       0.101   2.905   5.501  1.00  0.00     0.277 HD
ENDBRANCH  13  14
BRANCH  13  18
HETATM   18  C14 UNL     1      -0.509   3.918   3.523  1.00  0.00     0.160 A 
HETATM   19  N7  UNL     1       0.668   4.429   3.904  1.00  0.00    -0.267 N 
HETATM   20  N8  UNL     1       1.155   5.216   2.950  1.00  0.00    -0.005 NA
ATOM     21  H7  UNL     1       1.124   4.243   4.797  1.00  0.00     0.185 HD
HETATM   22  N9  UNL     1       0.292   5.227   1.934  1.00  0.00    -0.225 N 
HETATM   23  N10 UNL     1      -0.707   4.443   2.286  1.00  0.00    -0.272 N 
ATOM     24  H9  UNL     1       0.386   5.740   1.058  1.00  0.00     0.205 HD
ATOM     25  H10 UNL     1      -1.524   4.254   1.705  1.00  0.00     0.189 HD
ENDBRANCH  13  18
ENDBRANCH  11  13
ENDBRANCH  10  11
BRANCH  10  26
HETATM   26  C15 UNL     1      -4.025   1.901   4.569  1.00  0.00     0.257 C 
HETATM   27  N11 UNL     1      -3.797   1.178   5.746  1.00  0.00    -0.060 NA
HETATM   28  O6  UNL     1      -4.390   1.295   3.538  1.00  0.00    -0.274 OA
ENDBRANCH  10  26
ENDBRANCH   9  10
ENDBRANCH   4   9
BRANCH   1  29
HETATM   29  C7  UNL     1      -7.212   3.001  -1.168  1.00  0.00     0.312 C 
HETATM   30  O4  UNL     1      -6.283   2.285  -1.649  1.00  0.00    -0.258 OA
BRANCH  29  31
HETATM   31  O3  UNL     1      -8.460   2.873  -1.748  1.00  0.00    -0.307 OA
BRANCH  31  32
HETATM   32  C6  UNL     1      -9.605   2.318  -1.222  1.00  0.00     0.283 C 
BRANCH  32  33
HETATM   33  C5  UNL     1      -9.466   1.283  -0.199  1.00  0.00     0.262 C 
HETATM   34  N3  UNL     1      -9.830   1.593   1.137  1.00  0.00    -0.261 N 
HETATM   35  C4  UNL     1     -10.290   2.923   1.476  1.00  0.00     0.181 C 
HETATM   36  O2  UNL     1      -9.039   0.119  -0.433  1.00  0.00    -0.269 OA
BRANCH  34  37
HETATM   37  N2  UNL     1      -9.752   0.646   2.150  1.00  0.00    -0.264 N 
HETATM   38  C3  UNL     1      -8.595   0.596   2.974  1.00  0.00     0.266 C 
HETATM   39  O1  UNL     1      -7.639   1.412   2.779  1.00  0.00    -0.269 OA
ATOM     40  H2  UNL     1     -10.520  -0.008   2.302  1.00  0.00     0.190 HD
BRANCH  38  41
HETATM   41  C2  UNL     1      -8.502  -0.400   4.046  1.00  0.00     0.272 C 
HETATM   42  C1  UNL     1      -8.342   0.325   5.369  1.00  0.00     0.050 C 
BRANCH  41  43
HETATM   43  N1  UNL     1      -7.367  -1.274   3.850  1.00  0.00    -0.067 N 
ATOM     44  H13 UNL     1      -6.529  -0.934   4.321  1.00  0.00     0.275 HD
ATOM     45  H12 UNL     1      -7.465  -2.157   4.352  1.00  0.00     0.275 HD
ATOM     46  H11 UNL     1      -7.223  -1.410   2.849  1.00  0.00     0.275 HD
ENDBRANCH  41  43
ENDBRANCH  38  41
ENDBRANCH  34  37
ENDBRANCH  32  33
ENDBRANCH  31  32
ENDBRANCH  29  31
ENDBRANCH   1  29
TORSDOF 14
ENDMDL
MODEL 3
REMARK VINA RESULT: -7.064380159      2.185      5.047
REMARK  14 active torsions:
REMARK  status: ('A' for Active; 'I' for Inactive)
REMARK    1  A    between atoms: C2_2  and  N1_3 
REMARK    2  A    between atoms: C2_2  and  C3_7 
REMARK       I    between atoms: C3_7  and  N2_9 
REMARK    3  A    between atoms: N2_9  and  N3_11 
REMARK       I    between atoms: N3_11  and  C5_13 
REMARK    4  A    between atoms: C5_13  and  C6_15 
REMARK    5  A    between atoms: C6_15  and  O3_16 
REMARK    6  A    between atoms: O3_16  and  C7_17 
REMARK    7  A    between atoms: C7_17  and  C8_19 
REMARK       I    between atoms: N4_21  and  C10_22 
REMARK    8  A    between atoms: C10_22  and  C11_24 
REMARK    9  A    between atoms: C11_24  and  C12_25 
REMARK   10  A    between atoms: C12_25  and  N5_26 
REMARK   11  A    between atoms: C12_25  and  C15_41 
REMARK   12  A    between atoms: N5_26  and  C13_28 
REMARK   13  A    between atoms: C13_28  and  N6_29 
REMARK   14  A    between atoms: C13_28  and  C14_33 
ROOT
HETATM    1  C8  UNL     1     -10.469   2.981   0.190  1.00  0.00     0.139 A 
HETATM    2  C9  UNL     1      -9.499   3.652   0.903  1.00  0.00     0.154 A 
HETATM    3  N4  UNL     1      -8.554   4.162   0.063  1.00  0.00    -0.213 N 
HETATM    4  C10 UNL     1      -7.407   4.947   0.435  1.00  0.00     0.263 C 
HETATM    5  O5  UNL     1      -6.686   5.316  -0.488  1.00  0.00    -0.267 OA
HETATM    6  N12 UNL     1      -8.962   3.794  -1.138  1.00  0.00    -0.012 NA
HETATM    7  N13 UNL     1     -10.090   3.097  -1.081  1.00  0.00    -0.277 N 
ATOM      8  H13 UNL     1     -10.587   2.711  -1.885  1.00  0.00     0.184 HD
ENDROOT
BRANCH   4   9
HETATM    9  C11 UNL     1      -7.245   5.208   1.834  1.00  0.00     0.083 C 
BRANCH   9  10
HETATM   10  C12 UNL     1      -6.067   4.817   2.613  1.00  0.00     0.197 C 
BRANCH  10  11
HETATM   11  N5  UNL     1      -5.987   3.449   2.993  1.00  0.00    -0.374 N 
ATOM     12  H5  UNL     1      -6.510   3.100   3.796  1.00  0.00     0.156 HD
BRANCH  11  13
HETATM   13  C13 UNL     1      -5.165   2.579   2.230  1.00  0.00     0.349 C 
BRANCH  13  14
HETATM   14  N6  UNL     1      -4.031   3.403   1.766  1.00  0.00    -0.051 N 
ATOM     15  H63 UNL     1      -4.267   4.388   1.638  1.00  0.00     0.277 HD
ATOM     16  H62 UNL     1      -3.310   3.542   2.474  1.00  0.00     0.277 HD
ATOM     17  H61 UNL     1      -3.690   2.952   0.918  1.00  0.00     0.277 HD
ENDBRANCH  13  14
BRANCH  13  18
HETATM   18  C14 UNL     1      -5.835   2.022   1.029  1.00  0.00     0.160 A 
HETATM   19  N7  UNL     1      -5.586   2.193  -0.275  1.00  0.00    -0.267 N 
HETATM   20  N8  UNL     1      -6.450   1.491  -1.001  1.00  0.00    -0.005 NA
ATOM     21  H7  UNL     1      -4.843   2.779  -0.656  1.00  0.00     0.185 HD
HETATM   22  N9  UNL     1      -7.275   0.854  -0.170  1.00  0.00    -0.225 N 
HETATM   23  N10 UNL     1      -6.899   1.179   1.051  1.00  0.00    -0.272 N 
ATOM     24  H9  UNL     1      -8.046   0.238  -0.428  1.00  0.00     0.205 HD
ATOM     25  H10 UNL     1      -7.349   0.840   1.901  1.00  0.00     0.189 HD
ENDBRANCH  13  18
ENDBRANCH  11  13
ENDBRANCH  10  11
BRANCH  10  26
HETATM   26  C15 UNL     1      -6.015   5.639   3.843  1.00  0.00     0.257 C 
HETATM   27  N11 UNL     1      -7.182   6.129   4.442  1.00  0.00    -0.060 NA
HETATM   28  O6  UNL     1      -4.906   5.904   4.354  1.00  0.00    -0.274 OA
ENDBRANCH  10  26
ENDBRANCH   9  10
ENDBRANCH   4   9
BRANCH   1  29
HETATM   29  C7  UNL     1     -11.631   2.342   0.802  1.00  0.00     0.312 C 
HETATM   30  O4  UNL     1     -12.738   2.229   0.194  1.00  0.00    -0.258 OA
BRANCH  29  31
HETATM   31  O3  UNL     1     -11.572   1.831   2.085  1.00  0.00    -0.307 OA
BRANCH  31  32
HETATM   32  C6  UNL     1     -11.511   0.516   2.490  1.00  0.00     0.283 C 
BRANCH  32  33
HETATM   33  C5  UNL     1     -10.198  -0.121   2.580  1.00  0.00     0.262 C 
HETATM   34  N3  UNL     1      -9.693  -0.460   3.862  1.00  0.00    -0.261 N 
HETATM   35  C4  UNL     1     -10.452  -0.138   5.052  1.00  0.00     0.181 C 
HETATM   36  O2  UNL     1      -9.482  -0.392   1.578  1.00  0.00    -0.269 OA
BRANCH  34  37
HETATM   37  N2  UNL     1      -8.467  -1.096   4.015  1.00  0.00    -0.264 N 
HETATM   38  C3  UNL     1      -7.293  -0.317   4.207  1.00  0.00     0.266 C 
HETATM   39  O1  UNL     1      -7.370   0.953   4.235  1.00  0.00    -0.269 OA
ATOM     40  H2  UNL     1      -8.410  -2.114   3.990  1.00  0.00     0.190 HD
BRANCH  38  41
HETATM   41  C2  UNL     1      -5.995  -0.977   4.370  1.00  0.00     0.272 C 
HETATM   42  C1  UNL     1      -5.002   0.032   4.912  1.00  0.00     0.050 C 
BRANCH  41  43
HETATM   43  N1  UNL     1      -5.506  -1.484   3.107  1.00  0.00    -0.067 N 
ATOM     44  H13 UNL     1      -4.815  -0.866   2.681  1.00  0.00     0.275 HD
ATOM     45  H12 UNL     1      -4.911  -2.305   3.221  1.00  0.00     0.275 HD
ATOM     46  H11 UNL     1      -6.300  -1.662   2.492  1.00  0.00     0.275 HD
ENDBRANCH  41  43
ENDBRANCH  38  41
ENDBRANCH  34  37
ENDBRANCH  32  33
ENDBRANCH  31  32
ENDBRANCH  29  31
ENDBRANCH   1  29
TORSDOF 14
ENDMDL
MODEL 4
REMARK VINA RESULT: -7.044508119      2.378      4.665
REMARK  14 active torsions:
REMARK  status: ('A' for Active; 'I' for Inactive)
REMARK    1  A    between atoms: C2_2  and  N1_3 
REMARK    2  A    between atoms: C2_2  and  C3_7 
REMARK       I    between atoms: C3_7  and  N2_9 
REMARK    3  A    between atoms: N2_9  and  N3_11 
REMARK       I    between atoms: N3_11  and  C5_13 
REMARK    4  A    between atoms: C5_13  and  C6_15 
REMARK    5  A    between atoms: C6_15  and  O3_16 
REMARK    6  A    between atoms: O3_16  and  C7_17 
REMARK    7  A    between atoms: C7_17  and  C8_19 
REMARK       I    between atoms: N4_21  and  C10_22 
REMARK    8  A    between atoms: C10_22  and  C11_24 
REMARK    9  A    between atoms: C11_24  and  C12_25 
REMARK   10  A    between atoms: C12_25  and  N5_26 
REMARK   11  A    between atoms: C12_25  and  C15_41 
REMARK   12  A    between atoms: N5_26  and  C13_28 
REMARK   13  A    between atoms: C13_28  and  N6_29 
REMARK   14  A    between atoms: C13_28  and  C14_33 
ROOT
HETATM    1  C8  UNL     1      -8.943   0.063   3.864  1.00  0.00     0.139 A 
HETATM    2  C9  UNL     1      -9.072   1.049   2.908  1.00  0.00     0.154 A 
HETATM    3  N4  UNL     1      -9.361   0.503   1.693  1.00  0.00    -0.213 N 
HETATM    4  C10 UNL     1      -9.597   1.215   0.465  1.00  0.00     0.263 C 
HETATM    5  O5  UNL     1      -9.853   0.523  -0.516  1.00  0.00    -0.267 OA
HETATM    6  N12 UNL     1      -9.401  -0.796   1.928  1.00  0.00    -0.012 NA
HETATM    7  N13 UNL     1      -9.158  -1.073   3.202  1.00  0.00    -0.277 N 
ATOM      8  H13 UNL     1      -9.137  -2.008   3.611  1.00  0.00     0.184 HD
ENDROOT
BRANCH   4   9
HETATM    9  C11 UNL     1      -9.509   2.643   0.534  1.00  0.00     0.083 C 
BRANCH   9  10
HETATM   10  C12 UNL     1      -8.533   3.444  -0.210  1.00  0.00     0.197 C 
BRANCH  10  11
HETATM   11  N5  UNL     1      -7.986   4.565   0.472  1.00  0.00    -0.374 N 
ATOM     12  H5  UNL     1      -8.585   5.331   0.779  1.00  0.00     0.156 HD
BRANCH  11  13
HETATM   13  C13 UNL     1      -6.588   4.597   0.717  1.00  0.00     0.349 C 
BRANCH  13  14
HETATM   14  N6  UNL     1      -6.116   3.211   0.519  1.00  0.00    -0.051 N 
ATOM     15  H63 UNL     1      -5.429   2.911   1.211  1.00  0.00     0.277 HD
ATOM     16  H62 UNL     1      -6.821   2.505   0.733  1.00  0.00     0.277 HD
ATOM     17  H61 UNL     1      -5.774   3.170  -0.440  1.00  0.00     0.277 HD
ENDBRANCH  13  14
BRANCH  13  18
HETATM   18  C14 UNL     1      -6.232   4.998   2.100  1.00  0.00     0.160 A 
HETATM   19  N7  UNL     1      -6.965   5.559   3.069  1.00  0.00    -0.267 N 
HETATM   20  N8  UNL     1      -6.223   5.742   4.156  1.00  0.00    -0.005 NA
ATOM     21  H7  UNL     1      -7.950   5.810   2.986  1.00  0.00     0.185 HD
HETATM   22  N9  UNL     1      -4.990   5.302   3.901  1.00  0.00    -0.225 N 
HETATM   23  N10 UNL     1      -5.003   4.856   2.661  1.00  0.00    -0.272 N 
ATOM     24  H9  UNL     1      -4.195   5.310   4.539  1.00  0.00     0.205 HD
ATOM     25  H10 UNL     1      -4.195   4.455   2.185  1.00  0.00     0.189 HD
ENDBRANCH  13  18
ENDBRANCH  11  13
ENDBRANCH  10  11
BRANCH  10  26
HETATM   26  C15 UNL     1      -9.166   3.929  -1.457  1.00  0.00     0.257 C 
HETATM   27  N11 UNL     1     -10.558   3.996  -1.589  1.00  0.00    -0.060 NA
HETATM   28  O6  UNL     1      -8.442   4.281  -2.413  1.00  0.00    -0.274 OA
ENDBRANCH  10  26
ENDBRANCH   9  10
ENDBRANCH   4   9
BRANCH   1  29
HETATM   29  C7  UNL     1      -8.657   0.329   5.271  1.00  0.00     0.312 C 
HETATM   30  O4  UNL     1      -9.572   0.385   6.147  1.00  0.00    -0.258 OA
BRANCH  29  31
HETATM   31  O3  UNL     1      -7.363   0.535   5.710  1.00  0.00    -0.307 OA
BRANCH  31  32
HETATM   32  C6  UNL     1      -6.628   1.699   5.720  1.00  0.00     0.283 C 
BRANCH  32  33
HETATM   33  C5  UNL     1      -5.531   1.834   4.763  1.00  0.00     0.262 C 
HETATM   34  N3  UNL     1      -4.200   1.658   5.223  1.00  0.00    -0.261 N 
HETATM   35  C4  UNL     1      -3.944   1.392   6.623  1.00  0.00     0.181 C 
HETATM   36  O2  UNL     1      -5.697   2.099   3.540  1.00  0.00    -0.269 OA
BRANCH  34  37
HETATM   37  N2  UNL     1      -3.116   1.742   4.359  1.00  0.00    -0.264 N 
HETATM   38  C3  UNL     1      -2.399   2.965   4.252  1.00  0.00     0.266 C 
HETATM   39  O1  UNL     1      -2.754   3.974   4.941  1.00  0.00    -0.269 OA
ATOM     40  H2  UNL     1      -2.835   0.931   3.807  1.00  0.00     0.190 HD
BRANCH  38  41
HETATM   41  C2  UNL     1      -1.252   3.064   3.344  1.00  0.00     0.272 C 
HETATM   42  C1  UNL     1      -0.105   3.726   4.082  1.00  0.00     0.050 C 
BRANCH  41  43
HETATM   43  N1  UNL     1      -1.578   3.854   2.177  1.00  0.00    -0.067 N 
ATOM     44  H13 UNL     1      -2.379   3.482   1.668  1.00  0.00     0.275 HD
ATOM     45  H12 UNL     1      -1.973   4.762   2.420  1.00  0.00     0.275 HD
ATOM     46  H11 UNL     1      -0.747   3.935   1.590  1.00  0.00     0.275 HD
ENDBRANCH  41  43
ENDBRANCH  38  41
ENDBRANCH  34  37
ENDBRANCH  32  33
ENDBRANCH  31  32
ENDBRANCH  29  31
ENDBRANCH   1  29
TORSDOF 14
ENDMDL
MODEL 5
REMARK VINA RESULT: -7.011856440      1.712      5.240
REMARK  14 active torsions:
REMARK  status: ('A' for Active; 'I' for Inactive)
REMARK    1  A    between atoms: C2_2  and  N1_3 
REMARK    2  A    between atoms: C2_2  and  C3_7 
REMARK       I    between atoms: C3_7  and  N2_9 
REMARK    3  A    between atoms: N2_9  and  N3_11 
REMARK       I    between atoms: N3_11  and  C5_13 
REMARK    4  A    between atoms: C5_13  and  C6_15 
REMARK    5  A    between atoms: C6_15  and  O3_16 
REMARK    6  A    between atoms: O3_16  and  C7_17 
REMARK    7  A    between atoms: C7_17  and  C8_19 
REMARK       I    between atoms: N4_21  and  C10_22 
REMARK    8  A    between atoms: C10_22  and  C11_24 
REMARK    9  A    between atoms: C11_24  and  C12_25 
REMARK   10  A    between atoms: C12_25  and  N5_26 
REMARK   11  A    between atoms: C12_25  and  C15_41 
REMARK   12  A    between atoms: N5_26  and  C13_28 
REMARK   13  A    between atoms: C13_28  and  N6_29 
REMARK   14  A    between atoms: C13_28  and  C14_33 
ROOT
HETATM    1  C8  UNL     1      -4.134   2.174   4.261  1.00  0.00     0.139 A 
HETATM    2  C9  UNL     1      -5.389   1.761   3.868  1.00  0.00     0.154 A 
HETATM    3  N4  UNL     1      -5.464   0.400   3.855  1.00  0.00    -0.213 N 
HETATM    4  C10 UNL     1      -6.618  -0.394   3.530  1.00  0.00     0.263 C 
HETATM    5  O5  UNL     1      -6.467  -1.612   3.593  1.00  0.00    -0.267 OA
HETATM    6  N12 UNL     1      -4.261   0.011   4.237  1.00  0.00    -0.012 NA
HETATM    7  N13 UNL     1      -3.464   1.044   4.480  1.00  0.00    -0.277 N 
ATOM      8  H13 UNL     1      -2.493   0.983   4.785  1.00  0.00     0.184 HD
ENDROOT
BRANCH   4   9
HETATM    9  C11 UNL     1      -7.804   0.326   3.176  1.00  0.00     0.083 C 
BRANCH   9  10
HETATM   10  C12 UNL     1      -8.132   0.753   1.813  1.00  0.00     0.197 C 
BRANCH  10  11
HETATM   11  N5  UNL     1      -7.335   1.798   1.270  1.00  0.00    -0.374 N 
ATOM     12  H5  UNL     1      -7.028   2.576   1.854  1.00  0.00     0.156 HD
BRANCH  11  13
HETATM   13  C13 UNL     1      -6.975   1.737  -0.101  1.00  0.00     0.349 C 
BRANCH  13  14
HETATM   14  N6  UNL     1      -5.563   2.165  -0.165  1.00  0.00    -0.051 N 
ATOM     15  H63 UNL     1      -5.148   2.342   0.750  1.00  0.00     0.277 HD
ATOM     16  H62 UNL     1      -4.923   1.422  -0.447  1.00  0.00     0.277 HD
ATOM     17  H61 UNL     1      -5.547   2.975  -0.784  1.00  0.00     0.277 HD
ENDBRANCH  13  14
BRANCH  13  18
HETATM   18  C14 UNL     1      -7.760   2.650  -0.968  1.00  0.00     0.160 A 
HETATM   19  N7  UNL     1      -8.875   2.444  -1.680  1.00  0.00    -0.267 N 
HETATM   20  N8  UNL     1      -9.226   3.560  -2.310  1.00  0.00    -0.005 NA
ATOM     21  H7  UNL     1      -9.380   1.560  -1.731  1.00  0.00     0.185 HD
HETATM   22  N9  UNL     1      -8.335   4.507  -2.016  1.00  0.00    -0.225 N 
HETATM   23  N10 UNL     1      -7.455   3.951  -1.207  1.00  0.00    -0.272 N 
ATOM     24  H9  UNL     1      -8.334   5.470  -2.350  1.00  0.00     0.205 HD
ATOM     25  H10 UNL     1      -6.650   4.437  -0.811  1.00  0.00     0.189 HD
ENDBRANCH  13  18
ENDBRANCH  11  13
ENDBRANCH  10  11
BRANCH  10  26
HETATM   26  C15 UNL     1      -9.546   1.188   1.777  1.00  0.00     0.257 C 
HETATM   27  N11 UNL     1     -10.407   0.784   0.749  1.00  0.00    -0.060 NA
HETATM   28  O6  UNL     1      -9.978   1.935   2.681  1.00  0.00    -0.274 OA
ENDBRANCH  10  26
ENDBRANCH   9  10
ENDBRANCH   4   9
BRANCH   1  29
HETATM   29  C7  UNL     1      -3.745   3.576   4.395  1.00  0.00     0.312 C 
HETATM   30  O4  UNL     1      -2.979   3.978   5.323  1.00  0.00    -0.258 OA
BRANCH  29  31
HETATM   31  O3  UNL     1      -4.204   4.533   3.510  1.00  0.00    -0.307 OA
BRANCH  31  32
HETATM   32  C6  UNL     1      -5.371   5.262   3.554  1.00  0.00     0.283 C 
BRANCH  32  33
HETATM   33  C5  UNL     1      -6.407   4.973   2.563  1.00  0.00     0.262 C 
HETATM   34  N3  UNL     1      -7.757   4.895   2.992  1.00  0.00    -0.261 N 
HETATM   35  C4  UNL     1      -8.086   5.059   4.393  1.00  0.00     0.181 C 
HETATM   36  O2  UNL     1      -6.171   4.788   1.338  1.00  0.00    -0.269 OA
BRANCH  34  37
HETATM   37  N2  UNL     1      -8.791   4.655   2.097  1.00  0.00    -0.264 N 
HETATM   38  C3  UNL     1      -9.533   5.750   1.573  1.00  0.00     0.266 C 
HETATM   39  O1  UNL     1      -9.248   6.938   1.928  1.00  0.00    -0.269 OA
ATOM     40  H2  UNL     1      -9.017   3.700   1.817  1.00  0.00     0.190 HD
BRANCH  38  41
HETATM   41  C2  UNL     1     -10.626   5.507   0.627  1.00  0.00     0.272 C 
HETATM   42  C1  UNL     1     -11.856   6.254   1.107  1.00  0.00     0.050 C 
BRANCH  41  43
HETATM   43  N1  UNL     1     -10.937   4.098   0.540  1.00  0.00    -0.067 N 
ATOM     44  H13 UNL     1     -11.756   3.846   1.093  1.00  0.00     0.275 HD
ATOM     45  H12 UNL     1     -11.299   3.836  -0.377  1.00  0.00     0.275 HD
ATOM     46  H11 UNL     1     -10.110   3.560   0.801  1.00  0.00     0.275 HD
ENDBRANCH  41  43
ENDBRANCH  38  41
ENDBRANCH  34  37
ENDBRANCH  32  33
ENDBRANCH  31  32
ENDBRANCH  29  31
ENDBRANCH   1  29
TORSDOF 14
ENDMDL
