MODEL 1
REMARK VINA RESULT: -9.660866475      0.000      0.000
REMARK  11 active torsions:
REMARK  status: ('A' for Active; 'I' for Inactive)
REMARK    1  A    between atoms: C2_2  and  C3_3 
REMARK    2  A    between atoms: C3_3  and  N1_4 
REMARK    3  A    between atoms: C6_10  and  C7_11 
REMARK    4  A    between atoms: C7_11  and  S1_12 
REMARK    5  A    between atoms: S1_12  and  C8_13 
REMARK    6  A    between atoms: C8_13  and  C9_14 
REMARK       I    between atoms: C9_14  and  N3_16 
REMARK    7  A    between atoms: N3_16  and  C10_18 
REMARK    8  A    between atoms: C16_24  and  C17_25 
REMARK       I    between atoms: C17_25  and  N4_27 
REMARK       I    between atoms: C18_29  and  N6_31 
REMARK    9  A    between atoms: N6_31  and  C20_33 
REMARK   10  A    between atoms: N8_38  and  C23_39 
REMARK   11  A    between atoms: C23_39  and  C24_40 
ROOT
HETATM    1  C8  UNL     1       9.893 -14.398   1.785  1.00  0.00     0.177 C 
ENDROOT
BRANCH   1   2
HETATM    2  S1  UNL     1      11.396 -15.243   1.271  1.00  0.00    -0.152 SA
BRANCH   2   3
HETATM    3  C7  UNL     1      11.025 -17.016   1.010  1.00  0.00     0.150 C 
BRANCH   3   4
HETATM    4  C6  UNL     1       9.855 -17.172   0.106  1.00  0.00     0.092 A 
HETATM    5  N2  UNL     1       8.679 -17.725   0.461  1.00  0.00    -0.338 N 
HETATM    6  C5  UNL     1       7.869 -17.678  -0.617  1.00  0.00     0.147 A 
ATOM      7  H2  UNL     1       8.444 -18.109   1.376  1.00  0.00     0.167 HD
HETATM    8  C4  UNL     1       6.584 -18.096  -0.801  1.00  0.00     0.282 A 
HETATM    9  C22 UNL     1       8.575 -17.083  -1.646  1.00  0.00     0.145 A 
HETATM   10  N1  UNL     1       6.004 -17.918  -2.011  1.00  0.00    -0.264 N 
HETATM   11  O1  UNL     1       5.946 -18.635   0.133  1.00  0.00    -0.265 OA
HETATM   12  C26 UNL     1       6.726 -17.337  -2.977  1.00  0.00     0.333 A 
HETATM   13  N8  UNL     1       7.985 -16.912  -2.849  1.00  0.00    -0.283 N 
HETATM   14  O4  UNL     1       6.167 -17.174  -4.112  1.00  0.00    -0.246 OA
HETATM   15  N7  UNL     1       9.810 -16.779  -1.166  1.00  0.00    -0.329 N 
ATOM     16  H7  UNL     1      10.565 -16.331  -1.685  1.00  0.00     0.168 HD
BRANCH  10  17
HETATM   17  C3  UNL     1       4.632 -18.361  -2.223  1.00  0.00     0.137 C 
BRANCH  17  18
HETATM   18  C2  UNL     1       3.749 -17.141  -1.935  1.00  0.00     0.016 C 
HETATM   19  C1  UNL     1       2.532 -17.133  -2.815  1.00  0.00     0.006 C 
ENDBRANCH  17  18
ENDBRANCH  10  17
BRANCH  13  20
HETATM   20  C23 UNL     1       8.760 -16.276  -3.893  1.00  0.00     0.135 C 
BRANCH  20  21
HETATM   21  C24 UNL     1       8.732 -14.783  -3.834  1.00  0.00     0.016 C 
HETATM   22  C25 UNL     1       7.760 -14.128  -4.756  1.00  0.00     0.006 C 
ENDBRANCH  20  21
ENDBRANCH  13  20
ENDBRANCH   3   4
ENDBRANCH   2   3
ENDBRANCH   1   2
BRANCH   1  23
HETATM   23  C9  UNL     1       9.803 -14.337   3.290  1.00  0.00     0.231 C 
HETATM   24  O2  UNL     1       8.806 -13.777   3.741  1.00  0.00    -0.272 OA
HETATM   25  N3  UNL     1      10.829 -14.904   4.054  1.00  0.00    -0.326 N 
ATOM     26  H3  UNL     1      11.595 -15.345   3.546  1.00  0.00     0.169 HD
BRANCH  25  27
HETATM   27  C10 UNL     1      10.901 -14.921   5.462  1.00  0.00     0.051 A 
HETATM   28  C11 UNL     1       9.856 -15.438   6.241  1.00  0.00     0.037 A 
HETATM   29  C12 UNL     1       9.866 -15.403   7.617  1.00  0.00    -0.060 A 
HETATM   30  C13 UNL     1       8.714 -15.975   8.379  1.00  0.00     0.048 C 
HETATM   31  C14 UNL     1      10.949 -14.837   8.227  1.00  0.00     0.008 A 
HETATM   32  C15 UNL     1      11.985 -14.324   7.488  1.00  0.00     0.020 A 
HETATM   33  C16 UNL     1      12.007 -14.345   6.086  1.00  0.00     0.059 A 
BRANCH  33  34
HETATM   34  C17 UNL     1      13.160 -13.828   5.384  1.00  0.00     0.260 C 
HETATM   35  O3  UNL     1      14.224 -14.361   5.095  1.00  0.00    -0.267 OA
HETATM   36  N4  UNL     1      13.074 -12.439   4.930  1.00  0.00    -0.297 N 
HETATM   37  C18 UNL     1      13.525 -11.515   5.705  1.00  0.00     0.192 C 
ATOM     38  H4  UNL     1      12.667 -12.210   4.023  1.00  0.00     0.171 HD
HETATM   39  N5  UNL     1      14.090 -11.862   6.968  1.00  0.00    -0.063 NA
HETATM   40  N6  UNL     1      13.496 -10.143   5.383  1.00  0.00    -0.360 N 
HETATM   41  C19 UNL     1      12.980  -9.158   6.316  1.00  0.00     0.152 C 
BRANCH  40  42
HETATM   42  C20 UNL     1      13.978  -9.662   4.109  1.00  0.00     0.120 C 
HETATM   43  C21 UNL     1      15.448  -9.407   4.067  1.00  0.00     0.026 C 
ENDBRANCH  40  42
ENDBRANCH  33  34
ENDBRANCH  25  27
ENDBRANCH   1  23
TORSDOF 11
ENDMDL
MODEL 2
REMARK VINA RESULT: -9.593391775      2.932     11.668
REMARK  11 active torsions:
REMARK  status: ('A' for Active; 'I' for Inactive)
REMARK    1  A    between atoms: C2_2  and  C3_3 
REMARK    2  A    between atoms: C3_3  and  N1_4 
REMARK    3  A    between atoms: C6_10  and  C7_11 
REMARK    4  A    between atoms: C7_11  and  S1_12 
REMARK    5  A    between atoms: S1_12  and  C8_13 
REMARK    6  A    between atoms: C8_13  and  C9_14 
REMARK       I    between atoms: C9_14  and  N3_16 
REMARK    7  A    between atoms: N3_16  and  C10_18 
REMARK    8  A    between atoms: C16_24  and  C17_25 
REMARK       I    between atoms: C17_25  and  N4_27 
REMARK       I    between atoms: C18_29  and  N6_31 
REMARK    9  A    between atoms: N6_31  and  C20_33 
REMARK   10  A    between atoms: N8_38  and  C23_39 
REMARK   11  A    between atoms: C23_39  and  C24_40 
ROOT
HETATM    1  C8  UNL     1       7.666 -17.632  -1.051  1.00  0.00     0.177 C 
ENDROOT
BRANCH   1   2
HETATM    2  S1  UNL     1       6.135 -17.625  -0.107  1.00  0.00    -0.152 SA
BRANCH   2   3
HETATM    3  C7  UNL     1       5.983 -16.027   0.773  1.00  0.00     0.150 C 
BRANCH   3   4
HETATM    4  C6  UNL     1       7.321 -15.551   1.213  1.00  0.00     0.092 A 
HETATM    5  N2  UNL     1       8.136 -14.767   0.481  1.00  0.00    -0.338 N 
HETATM    6  C5  UNL     1       9.246 -14.540   1.215  1.00  0.00     0.147 A 
ATOM      7  H2  UNL     1       7.949 -14.410  -0.456  1.00  0.00     0.167 HD
HETATM    8  C4  UNL     1      10.371 -13.818   0.952  1.00  0.00     0.282 A 
HETATM    9  C22 UNL     1       9.095 -15.205   2.418  1.00  0.00     0.145 A 
HETATM   10  N1  UNL     1      11.346 -13.758   1.888  1.00  0.00    -0.264 N 
HETATM   11  O1  UNL     1      10.507 -13.216  -0.140  1.00  0.00    -0.265 OA
HETATM   12  C26 UNL     1      11.156 -14.418   3.039  1.00  0.00     0.333 A 
HETATM   13  N8  UNL     1      10.075 -15.137   3.345  1.00  0.00    -0.283 N 
HETATM   14  O4  UNL     1      12.082 -14.352   3.914  1.00  0.00    -0.246 OA
HETATM   15  N7  UNL     1       7.886 -15.826   2.388  1.00  0.00    -0.329 N 
ATOM     16  H7  UNL     1       7.484 -16.399   3.130  1.00  0.00     0.168 HD
BRANCH  10  17
HETATM   17  C3  UNL     1      12.556 -12.992   1.621  1.00  0.00     0.137 C 
BRANCH  17  18
HETATM   18  C2  UNL     1      12.371 -11.652   2.342  1.00  0.00     0.016 C 
HETATM   19  C1  UNL     1      13.628 -11.242   3.055  1.00  0.00     0.006 C 
ENDBRANCH  17  18
ENDBRANCH  10  17
BRANCH  13  20
HETATM   20  C23 UNL     1       9.869 -15.842   4.592  1.00  0.00     0.135 C 
BRANCH  20  21
HETATM   21  C24 UNL     1       9.157 -15.031   5.627  1.00  0.00     0.016 C 
HETATM   22  C25 UNL     1       8.734 -15.781   6.844  1.00  0.00     0.006 C 
ENDBRANCH  20  21
ENDBRANCH  13  20
ENDBRANCH   3   4
ENDBRANCH   2   3
ENDBRANCH   1   2
BRANCH   1  23
HETATM   23  C9  UNL     1       7.466 -16.983  -2.398  1.00  0.00     0.231 C 
HETATM   24  O2  UNL     1       7.389 -15.756  -2.392  1.00  0.00    -0.272 OA
HETATM   25  N3  UNL     1       7.383 -17.793  -3.536  1.00  0.00    -0.326 N 
ATOM     26  H3  UNL     1       7.471 -18.800  -3.395  1.00  0.00     0.169 HD
BRANCH  25  27
HETATM   27  C10 UNL     1       7.188 -17.347  -4.859  1.00  0.00     0.051 A 
HETATM   28  C11 UNL     1       8.229 -16.765  -5.595  1.00  0.00     0.037 A 
HETATM   29  C12 UNL     1       8.051 -16.255  -6.861  1.00  0.00    -0.060 A 
HETATM   30  C13 UNL     1       9.212 -15.649  -7.584  1.00  0.00     0.048 C 
HETATM   31  C14 UNL     1       6.799 -16.330  -7.402  1.00  0.00     0.008 A 
HETATM   32  C15 UNL     1       5.763 -16.895  -6.703  1.00  0.00     0.020 A 
HETATM   33  C16 UNL     1       5.911 -17.424  -5.413  1.00  0.00     0.059 A 
BRANCH  33  34
HETATM   34  C17 UNL     1       4.778 -18.047  -4.766  1.00  0.00     0.260 C 
HETATM   35  O3  UNL     1       4.619 -19.192  -4.361  1.00  0.00    -0.267 OA
HETATM   36  N4  UNL     1       3.610 -17.195  -4.541  1.00  0.00    -0.297 N 
HETATM   37  C18 UNL     1       2.686 -17.178  -5.439  1.00  0.00     0.192 C 
ATOM     38  H4  UNL     1       3.529 -16.629  -3.697  1.00  0.00     0.171 HD
HETATM   39  N5  UNL     1       2.823 -17.979  -6.611  1.00  0.00    -0.063 NA
HETATM   40  N6  UNL     1       1.517 -16.397  -5.341  1.00  0.00    -0.360 N 
HETATM   41  C19 UNL     1       1.079 -15.550  -6.436  1.00  0.00     0.152 C 
BRANCH  40  42
HETATM   42  C20 UNL     1       0.706 -16.407  -4.145  1.00  0.00     0.120 C 
HETATM   43  C21 UNL     1       0.411 -15.052  -3.593  1.00  0.00     0.026 C 
ENDBRANCH  40  42
ENDBRANCH  33  34
ENDBRANCH  25  27
ENDBRANCH   1  23
TORSDOF 11
ENDMDL
MODEL 3
REMARK VINA RESULT: -9.552992918      3.150     11.152
REMARK  11 active torsions:
REMARK  status: ('A' for Active; 'I' for Inactive)
REMARK    1  A    between atoms: C2_2  and  C3_3 
REMARK    2  A    between atoms: C3_3  and  N1_4 
REMARK    3  A    between atoms: C6_10  and  C7_11 
REMARK    4  A    between atoms: C7_11  and  S1_12 
REMARK    5  A    between atoms: S1_12  and  C8_13 
REMARK    6  A    between atoms: C8_13  and  C9_14 
REMARK       I    between atoms: C9_14  and  N3_16 
REMARK    7  A    between atoms: N3_16  and  C10_18 
REMARK    8  A    between atoms: C16_24  and  C17_25 
REMARK       I    between atoms: C17_25  and  N4_27 
REMARK       I    between atoms: C18_29  and  N6_31 
REMARK    9  A    between atoms: N6_31  and  C20_33 
REMARK   10  A    between atoms: N8_38  and  C23_39 
REMARK   11  A    between atoms: C23_39  and  C24_40 
ROOT
HETATM    1  C8  UNL     1       9.776 -15.804  -5.582  1.00  0.00     0.177 C 
ENDROOT
BRANCH   1   2
HETATM    2  S1  UNL     1       9.319 -14.911  -4.089  1.00  0.00    -0.152 SA
BRANCH   2   3
HETATM    3  C7  UNL     1       9.161 -16.098  -2.706  1.00  0.00     0.150 C 
BRANCH   3   4
HETATM    4  C6  UNL     1       9.733 -15.521  -1.461  1.00  0.00     0.092 A 
HETATM    5  N2  UNL     1      10.275 -14.292  -1.363  1.00  0.00    -0.338 N 
HETATM    6  C5  UNL     1      10.672 -14.125  -0.084  1.00  0.00     0.147 A 
ATOM      7  H2  UNL     1      10.369 -13.612  -2.117  1.00  0.00     0.167 HD
HETATM    8  C4  UNL     1      11.272 -13.077   0.547  1.00  0.00     0.282 A 
HETATM    9  C22 UNL     1      10.361 -15.284   0.605  1.00  0.00     0.145 A 
HETATM   10  N1  UNL     1      11.561 -13.183   1.865  1.00  0.00    -0.264 N 
HETATM   11  O1  UNL     1      11.552 -12.027  -0.079  1.00  0.00    -0.265 OA
HETATM   12  C26 UNL     1      11.242 -14.324   2.490  1.00  0.00     0.333 A 
HETATM   13  N8  UNL     1      10.655 -15.378   1.920  1.00  0.00    -0.283 N 
HETATM   14  O4  UNL     1      11.519 -14.410   3.733  1.00  0.00    -0.246 OA
HETATM   15  N7  UNL     1       9.778 -16.136  -0.280  1.00  0.00    -0.329 N 
ATOM     16  H7  UNL     1       9.437 -17.075  -0.076  1.00  0.00     0.168 HD
BRANCH  10  17
HETATM   17  C3  UNL     1      12.203 -12.071   2.553  1.00  0.00     0.137 C 
BRANCH  17  18
HETATM   18  C2  UNL     1      13.705 -12.382   2.542  1.00  0.00     0.016 C 
HETATM   19  C1  UNL     1      14.375 -11.863   3.782  1.00  0.00     0.006 C 
ENDBRANCH  17  18
ENDBRANCH  10  17
BRANCH  13  20
HETATM   20  C23 UNL     1      10.304 -16.606   2.600  1.00  0.00     0.135 C 
BRANCH  20  21
HETATM   21  C24 UNL     1       9.004 -16.533   3.333  1.00  0.00     0.016 C 
HETATM   22  C25 UNL     1       7.915 -15.799   2.626  1.00  0.00     0.006 C 
ENDBRANCH  20  21
ENDBRANCH  13  20
ENDBRANCH   3   4
ENDBRANCH   2   3
ENDBRANCH   1   2
BRANCH   1  23
HETATM   23  C9  UNL     1       8.560 -16.412  -6.234  1.00  0.00     0.231 C 
HETATM   24  O2  UNL     1       8.784 -17.296  -7.059  1.00  0.00    -0.272 OA
HETATM   25  N3  UNL     1       7.291 -15.947  -5.870  1.00  0.00    -0.326 N 
ATOM     26  H3  UNL     1       7.253 -15.212  -5.164  1.00  0.00     0.169 HD
BRANCH  25  27
HETATM   27  C10 UNL     1       6.062 -16.400  -6.390  1.00  0.00     0.051 A 
HETATM   28  C11 UNL     1       5.402 -15.708  -7.416  1.00  0.00     0.037 A 
HETATM   29  C12 UNL     1       4.167 -16.086  -7.894  1.00  0.00    -0.060 A 
HETATM   30  C13 UNL     1       3.528 -15.297  -8.991  1.00  0.00     0.048 C 
HETATM   31  C14 UNL     1       3.580 -17.182  -7.330  1.00  0.00     0.008 A 
HETATM   32  C15 UNL     1       4.204 -17.877  -6.324  1.00  0.00     0.020 A 
HETATM   33  C16 UNL     1       5.461 -17.520  -5.816  1.00  0.00     0.059 A 
BRANCH  33  34
HETATM   34  C17 UNL     1       6.071 -18.336  -4.790  1.00  0.00     0.260 C 
HETATM   35  O3  UNL     1       6.513 -19.478  -4.834  1.00  0.00    -0.267 OA
HETATM   36  N4  UNL     1       6.197 -17.725  -3.466  1.00  0.00    -0.297 N 
HETATM   37  C18 UNL     1       5.251 -17.917  -2.613  1.00  0.00     0.192 C 
ATOM     38  H4  UNL     1       7.013 -17.162  -3.225  1.00  0.00     0.171 HD
HETATM   39  N5  UNL     1       4.121 -18.709  -2.975  1.00  0.00    -0.063 NA
HETATM   40  N6  UNL     1       5.254 -17.381  -1.310  1.00  0.00    -0.360 N 
HETATM   41  C19 UNL     1       4.103 -16.669  -0.783  1.00  0.00     0.152 C 
BRANCH  40  42
HETATM   42  C20 UNL     1       6.404 -17.517  -0.446  1.00  0.00     0.120 C 
HETATM   43  C21 UNL     1       6.626 -18.902   0.064  1.00  0.00     0.026 C 
ENDBRANCH  40  42
ENDBRANCH  33  34
ENDBRANCH  25  27
ENDBRANCH   1  23
TORSDOF 11
ENDMDL
MODEL 4
REMARK VINA RESULT: -9.546416014      1.567      1.866
REMARK  11 active torsions:
REMARK  status: ('A' for Active; 'I' for Inactive)
REMARK    1  A    between atoms: C2_2  and  C3_3 
REMARK    2  A    between atoms: C3_3  and  N1_4 
REMARK    3  A    between atoms: C6_10  and  C7_11 
REMARK    4  A    between atoms: C7_11  and  S1_12 
REMARK    5  A    between atoms: S1_12  and  C8_13 
REMARK    6  A    between atoms: C8_13  and  C9_14 
REMARK       I    between atoms: C9_14  and  N3_16 
REMARK    7  A    between atoms: N3_16  and  C10_18 
REMARK    8  A    between atoms: C16_24  and  C17_25 
REMARK       I    between atoms: C17_25  and  N4_27 
REMARK       I    between atoms: C18_29  and  N6_31 
REMARK    9  A    between atoms: N6_31  and  C20_33 
REMARK   10  A    between atoms: N8_38  and  C23_39 
REMARK   11  A    between atoms: C23_39  and  C24_40 
ROOT
HETATM    1  C8  UNL     1      11.505 -15.352   1.919  1.00  0.00     0.177 C 
ENDROOT
BRANCH   1   2
HETATM    2  S1  UNL     1      12.415 -14.058   1.063  1.00  0.00    -0.152 SA
BRANCH   2   3
HETATM    3  C7  UNL     1      11.238 -13.021   0.121  1.00  0.00     0.150 C 
BRANCH   3   4
HETATM    4  C6  UNL     1      10.138 -13.857  -0.428  1.00  0.00     0.092 A 
HETATM    5  N2  UNL     1       9.057 -14.259   0.267  1.00  0.00    -0.338 N 
HETATM    6  C5  UNL     1       8.285 -14.985  -0.567  1.00  0.00     0.147 A 
ATOM      7  H2  UNL     1       8.859 -14.052   1.246  1.00  0.00     0.167 HD
HETATM    8  C4  UNL     1       7.093 -15.616  -0.376  1.00  0.00     0.282 A 
HETATM    9  C22 UNL     1       8.918 -15.022  -1.797  1.00  0.00     0.145 A 
HETATM   10  N1  UNL     1       6.530 -16.284  -1.410  1.00  0.00    -0.264 N 
HETATM   11  O1  UNL     1       6.520 -15.581   0.739  1.00  0.00    -0.265 OA
HETATM   12  C26 UNL     1       7.179 -16.292  -2.582  1.00  0.00     0.333 A 
HETATM   13  N8  UNL     1       8.347 -15.692  -2.821  1.00  0.00    -0.283 N 
HETATM   14  O4  UNL     1       6.637 -16.923  -3.550  1.00  0.00    -0.246 OA
HETATM   15  N7  UNL     1      10.071 -14.311  -1.679  1.00  0.00    -0.329 N 
ATOM     16  H7  UNL     1      10.759 -14.154  -2.416  1.00  0.00     0.168 HD
BRANCH  10  17
HETATM   17  C3  UNL     1       5.256 -16.964  -1.221  1.00  0.00     0.137 C 
BRANCH  17  18
HETATM   18  C2  UNL     1       5.604 -18.421  -0.891  1.00  0.00     0.016 C 
HETATM   19  C1  UNL     1       4.979 -19.364  -1.878  1.00  0.00     0.006 C 
ENDBRANCH  17  18
ENDBRANCH  10  17
BRANCH  13  20
HETATM   20  C23 UNL     1       9.041 -15.696  -4.090  1.00  0.00     0.135 C 
BRANCH  20  21
HETATM   21  C24 UNL     1       8.938 -14.403  -4.833  1.00  0.00     0.016 C 
HETATM   22  C25 UNL     1       7.549 -13.936  -5.110  1.00  0.00     0.006 C 
ENDBRANCH  20  21
ENDBRANCH  13  20
ENDBRANCH   3   4
ENDBRANCH   2   3
ENDBRANCH   1   2
BRANCH   1  23
HETATM   23  C9  UNL     1      11.024 -14.866   3.264  1.00  0.00     0.231 C 
HETATM   24  O2  UNL     1      10.044 -14.124   3.243  1.00  0.00    -0.272 OA
HETATM   25  N3  UNL     1      11.702 -15.279   4.416  1.00  0.00    -0.326 N 
ATOM     26  H3  UNL     1      12.497 -15.905   4.285  1.00  0.00     0.169 HD
BRANCH  25  27
HETATM   27  C10 UNL     1      11.389 -14.910   5.739  1.00  0.00     0.051 A 
HETATM   28  C11 UNL     1      10.349 -15.531   6.445  1.00  0.00     0.037 A 
HETATM   29  C12 UNL     1       9.973 -15.142   7.712  1.00  0.00    -0.060 A 
HETATM   30  C13 UNL     1       8.853 -15.855   8.400  1.00  0.00     0.048 C 
HETATM   31  C14 UNL     1      10.656 -14.107   8.284  1.00  0.00     0.008 A 
HETATM   32  C15 UNL     1      11.677 -13.482   7.615  1.00  0.00     0.020 A 
HETATM   33  C16 UNL     1      12.086 -13.853   6.326  1.00  0.00     0.059 A 
BRANCH  33  34
HETATM   34  C17 UNL     1      13.205 -13.175   5.711  1.00  0.00     0.260 C 
HETATM   35  O3  UNL     1      14.275 -13.609   5.302  1.00  0.00    -0.267 OA
HETATM   36  N4  UNL     1      13.069 -11.729   5.534  1.00  0.00    -0.297 N 
HETATM   37  C18 UNL     1      13.516 -10.956   6.462  1.00  0.00     0.192 C 
ATOM     38  H4  UNL     1      12.631 -11.343   4.697  1.00  0.00     0.171 HD
HETATM   39  N5  UNL     1      14.125 -11.521   7.622  1.00  0.00    -0.063 NA
HETATM   40  N6  UNL     1      13.441  -9.549   6.410  1.00  0.00    -0.360 N 
HETATM   41  C19 UNL     1      12.925  -8.778   7.527  1.00  0.00     0.152 C 
BRANCH  40  42
HETATM   42  C20 UNL     1      13.875  -8.818   5.242  1.00  0.00     0.120 C 
HETATM   43  C21 UNL     1      12.764  -8.203   4.458  1.00  0.00     0.026 C 
ENDBRANCH  40  42
ENDBRANCH  33  34
ENDBRANCH  25  27
ENDBRANCH   1  23
TORSDOF 11
ENDMDL
MODEL 5
REMARK VINA RESULT: -9.520573804      2.250      4.022
REMARK  11 active torsions:
REMARK  status: ('A' for Active; 'I' for Inactive)
REMARK    1  A    between atoms: C2_2  and  C3_3 
REMARK    2  A    between atoms: C3_3  and  N1_4 
REMARK    3  A    between atoms: C6_10  and  C7_11 
REMARK    4  A    between atoms: C7_11  and  S1_12 
REMARK    5  A    between atoms: S1_12  and  C8_13 
REMARK    6  A    between atoms: C8_13  and  C9_14 
REMARK       I    between atoms: C9_14  and  N3_16 
REMARK    7  A    between atoms: N3_16  and  C10_18 
REMARK    8  A    between atoms: C16_24  and  C17_25 
REMARK       I    between atoms: C17_25  and  N4_27 
REMARK       I    between atoms: C18_29  and  N6_31 
REMARK    9  A    between atoms: N6_31  and  C20_33 
REMARK   10  A    between atoms: N8_38  and  C23_39 
REMARK   11  A    between atoms: C23_39  and  C24_40 
ROOT
HETATM    1  C8  UNL     1       8.829 -16.407   5.652  1.00  0.00     0.177 C 
ENDROOT
BRANCH   1   2
HETATM    2  S1  UNL     1       8.799 -15.795   3.961  1.00  0.00    -0.152 SA
BRANCH   2   3
HETATM    3  C7  UNL     1       9.788 -16.912   2.903  1.00  0.00     0.150 C 
BRANCH   3   4
HETATM    4  C6  UNL     1       9.251 -16.920   1.516  1.00  0.00     0.092 A 
HETATM    5  N2  UNL     1       9.957 -16.589   0.417  1.00  0.00    -0.338 N 
HETATM    6  C5  UNL     1       9.138 -16.728  -0.646  1.00  0.00     0.147 A 
ATOM      7  H2  UNL     1      10.931 -16.289   0.394  1.00  0.00     0.167 HD
HETATM    8  C4  UNL     1       9.345 -16.526  -1.978  1.00  0.00     0.282 A 
HETATM    9  C22 UNL     1       7.909 -17.152  -0.176  1.00  0.00     0.145 A 
HETATM   10  N1  UNL     1       8.327 -16.749  -2.841  1.00  0.00    -0.264 N 
HETATM   11  O1  UNL     1      10.461 -16.142  -2.403  1.00  0.00    -0.265 OA
HETATM   12  C26 UNL     1       7.155 -17.159  -2.340  1.00  0.00     0.333 A 
HETATM   13  N8  UNL     1       6.901 -17.370  -1.047  1.00  0.00    -0.283 N 
HETATM   14  O4  UNL     1       6.203 -17.367  -3.165  1.00  0.00    -0.246 OA
HETATM   15  N7  UNL     1       8.010 -17.262   1.176  1.00  0.00    -0.329 N 
ATOM     16  H7  UNL     1       7.268 -17.554   1.813  1.00  0.00     0.168 HD
BRANCH  10  17
HETATM   17  C3  UNL     1       8.533 -16.537  -4.268  1.00  0.00     0.137 C 
BRANCH  17  18
HETATM   18  C2  UNL     1       8.185 -15.067  -4.528  1.00  0.00     0.016 C 
HETATM   19  C1  UNL     1       9.367 -14.318  -5.073  1.00  0.00     0.006 C 
ENDBRANCH  17  18
ENDBRANCH  10  17
BRANCH  13  20
HETATM   20  C23 UNL     1       5.635 -17.821  -0.509  1.00  0.00     0.135 C 
BRANCH  20  21
HETATM   21  C24 UNL     1       4.680 -16.709  -0.214  1.00  0.00     0.016 C 
HETATM   22  C25 UNL     1       4.502 -16.391   1.232  1.00  0.00     0.006 C 
ENDBRANCH  20  21
ENDBRANCH  13  20
ENDBRANCH   3   4
ENDBRANCH   2   3
ENDBRANCH   1   2
BRANCH   1  23
HETATM   23  C9  UNL     1       9.909 -15.719   6.451  1.00  0.00     0.231 C 
HETATM   24  O2  UNL     1      10.448 -16.404   7.317  1.00  0.00    -0.272 OA
HETATM   25  N3  UNL     1      10.218 -14.385   6.164  1.00  0.00    -0.326 N 
ATOM     26  H3  UNL     1       9.694 -13.941   5.410  1.00  0.00     0.169 HD
BRANCH  25  27
HETATM   27  C10 UNL     1      11.187 -13.600   6.820  1.00  0.00     0.051 A 
HETATM   28  C11 UNL     1      10.840 -12.732   7.865  1.00  0.00     0.037 A 
HETATM   29  C12 UNL     1      11.752 -11.901   8.476  1.00  0.00    -0.060 A 
HETATM   30  C13 UNL     1      11.304 -11.003   9.586  1.00  0.00     0.048 C 
HETATM   31  C14 UNL     1      13.042 -11.940   8.029  1.00  0.00     0.008 A 
HETATM   32  C15 UNL     1      13.408 -12.780   7.007  1.00  0.00     0.020 A 
HETATM   33  C16 UNL     1      12.506 -13.639   6.365  1.00  0.00     0.059 A 
BRANCH  33  34
HETATM   34  C17 UNL     1      12.984 -14.529   5.331  1.00  0.00     0.260 C 
HETATM   35  O3  UNL     1      13.796 -15.445   5.378  1.00  0.00    -0.267 OA
HETATM   36  N4  UNL     1      12.424 -14.329   3.994  1.00  0.00    -0.297 N 
HETATM   37  C18 UNL     1      13.053 -13.555   3.179  1.00  0.00     0.192 C 
ATOM     38  H4  UNL     1      11.558 -14.791   3.714  1.00  0.00     0.171 HD
HETATM   39  N5  UNL     1      14.262 -12.921   3.594  1.00  0.00    -0.063 NA
HETATM   40  N6  UNL     1      12.615 -13.280   1.868  1.00  0.00    -0.360 N 
HETATM   41  C19 UNL     1      12.523 -11.919   1.371  1.00  0.00     0.152 C 
BRANCH  40  42
HETATM   42  C20 UNL     1      12.237 -14.343   0.965  1.00  0.00     0.120 C 
HETATM   43  C21 UNL     1      13.385 -15.150   0.456  1.00  0.00     0.026 C 
ENDBRANCH  40  42
ENDBRANCH  33  34
ENDBRANCH  25  27
ENDBRANCH   1  23
TORSDOF 11
ENDMDL
