MODEL 1
REMARK VINA RESULT: -6.709356979      0.000      0.000
REMARK  5 active torsions:
REMARK  status: ('A' for Active; 'I' for Inactive)
REMARK       I    between atoms: C1_2  and  N1_3 
REMARK    1  A    between atoms: C1_2  and  C11_21 
REMARK    2  A    between atoms: N1_3  and  O2_4 
REMARK    3  A    between atoms: N1_3  and  C2_6 
REMARK    4  A    between atoms: C2_6  and  C3_7 
REMARK    5  A    between atoms: N2_10  and  C6_11 
ROOT
HETATM    1  C3  UNL     1      -3.025   4.873  11.765  1.00  0.00     0.026 C 
HETATM    2  C4  UNL     1      -2.328   3.548  11.541  1.00  0.00     0.028 C 
HETATM    3  C5  UNL     1      -3.470   2.571  11.693  1.00  0.00     0.141 C 
HETATM    4  N2  UNL     1      -4.144   3.102  12.860  1.00  0.00    -0.217 N 
HETATM    5  C10 UNL     1      -4.296   4.515  12.543  1.00  0.00     0.147 C 
ENDROOT
BRANCH   1   6
HETATM    6  C2  UNL     1      -3.341   5.449  10.409  1.00  0.00     0.165 C 
BRANCH   6   7
HETATM    7  N1  UNL     1      -4.618   6.073  10.300  1.00  0.00    -0.225 N 
HETATM    8  C1  UNL     1      -4.756   7.477  10.391  1.00  0.00     0.297 C 
HETATM    9  O1  UNL     1      -3.719   8.196  10.576  1.00  0.00    -0.266 OA
BRANCH   8  10
HETATM   10  C11 UNL     1      -6.086   8.112  10.272  1.00  0.00     0.271 C 
HETATM   11 CL2  UNL     1      -7.102   7.613  11.650  1.00  0.00    -0.073 Cl
HETATM   12 CL3  UNL     1      -6.833   7.614   8.732  1.00  0.00    -0.073 Cl
HETATM   13 CL4  UNL     1      -5.873   9.873  10.336  1.00  0.00    -0.073 Cl
ENDBRANCH   8  10
BRANCH   7  14
HETATM   14  O2  UNL     1      -5.713   5.324  10.103  1.00  0.00    -0.285 OA
ATOM     15  H2  UNL     1      -5.954   5.084   9.216  1.00  0.00     0.245 HD
ENDBRANCH   7  14
ENDBRANCH   6   7
ENDBRANCH   1   6
BRANCH   4  16
HETATM   16  C6  UNL     1      -4.538   2.374  14.005  1.00  0.00     0.681 A 
HETATM   17  N3  UNL     1      -4.006   1.175  14.247  1.00  0.00    -0.202 N 
HETATM   18  C7  UNL     1      -4.297   0.396  15.290  1.00  0.00     0.109 A 
ATOM     19  H3  UNL     1      -3.320   0.825  13.578  1.00  0.00     0.183 HD
HETATM   20  C8  UNL     1      -5.222   0.866  16.195  1.00  0.00     0.060 A 
HETATM   21  C9  UNL     1      -5.787   2.103  15.969  1.00  0.00     0.120 A 
HETATM   22 CL1  UNL     1      -6.962   2.670  17.140  1.00  0.00    -0.064 Cl
HETATM   23  N4  UNL     1      -5.442   2.832  14.891  1.00  0.00    -0.181 N 
ATOM     24  H4  UNL     1      -5.872   3.745  14.743  1.00  0.00     0.185 HD
ENDBRANCH   4  16
TORSDOF 5
ENDMDL
MODEL 2
REMARK VINA RESULT: -6.704540763      0.139      1.099
REMARK  5 active torsions:
REMARK  status: ('A' for Active; 'I' for Inactive)
REMARK       I    between atoms: C1_2  and  N1_3 
REMARK    1  A    between atoms: C1_2  and  C11_21 
REMARK    2  A    between atoms: N1_3  and  O2_4 
REMARK    3  A    between atoms: N1_3  and  C2_6 
REMARK    4  A    between atoms: C2_6  and  C3_7 
REMARK    5  A    between atoms: N2_10  and  C6_11 
ROOT
HETATM    1  C3  UNL     1      -3.094   4.872  11.617  1.00  0.00     0.026 C 
HETATM    2  C4  UNL     1      -2.463   3.524  11.343  1.00  0.00     0.028 C 
HETATM    3  C5  UNL     1      -3.634   2.590  11.547  1.00  0.00     0.141 C 
HETATM    4  N2  UNL     1      -4.224   3.134  12.753  1.00  0.00    -0.217 N 
HETATM    5  C10 UNL     1      -4.336   4.555  12.458  1.00  0.00     0.147 C 
ENDROOT
BRANCH   1   6
HETATM    6  C2  UNL     1      -3.458   5.476  10.285  1.00  0.00     0.165 C 
BRANCH   6   7
HETATM    7  N1  UNL     1      -4.727   6.126  10.242  1.00  0.00    -0.225 N 
HETATM    8  C1  UNL     1      -4.835   7.528  10.382  1.00  0.00     0.297 C 
HETATM    9  O1  UNL     1      -3.779   8.222  10.553  1.00  0.00    -0.266 OA
BRANCH   8  10
HETATM   10  C11 UNL     1      -6.156   8.190  10.331  1.00  0.00     0.271 C 
HETATM   11 CL2  UNL     1      -5.933   9.957  10.426  1.00  0.00    -0.073 Cl
HETATM   12 CL3  UNL     1      -7.150   7.611  11.692  1.00  0.00    -0.073 Cl
HETATM   13 CL4  UNL     1      -6.917   7.801   8.775  1.00  0.00    -0.073 Cl
ENDBRANCH   8  10
BRANCH   7  14
HETATM   14  O2  UNL     1      -5.842   5.403  10.061  1.00  0.00    -0.285 OA
ATOM     15  H2  UNL     1      -6.379   5.189  10.815  1.00  0.00     0.245 HD
ENDBRANCH   7  14
ENDBRANCH   6   7
ENDBRANCH   1   6
BRANCH   4  16
HETATM   16  C6  UNL     1      -4.586   2.408  13.910  1.00  0.00     0.681 A 
HETATM   17  N3  UNL     1      -4.065   1.200  14.127  1.00  0.00    -0.202 N 
HETATM   18  C7  UNL     1      -4.329   0.422  15.179  1.00  0.00     0.109 A 
ATOM     19  H3  UNL     1      -3.411   0.841  13.432  1.00  0.00     0.183 HD
HETATM   20  C8  UNL     1      -5.211   0.904  16.121  1.00  0.00     0.060 A 
HETATM   21  C9  UNL     1      -5.764   2.152  15.920  1.00  0.00     0.120 A 
HETATM   22 CL1  UNL     1      -6.882   2.733  17.137  1.00  0.00    -0.064 Cl
HETATM   23  N4  UNL     1      -5.448   2.879  14.831  1.00  0.00    -0.181 N 
ATOM     24  H4  UNL     1      -5.868   3.799  14.703  1.00  0.00     0.185 HD
ENDBRANCH   4  16
TORSDOF 5
ENDMDL
MODEL 3
REMARK VINA RESULT: -6.580634306      0.580      1.598
REMARK  5 active torsions:
REMARK  status: ('A' for Active; 'I' for Inactive)
REMARK       I    between atoms: C1_2  and  N1_3 
REMARK    1  A    between atoms: C1_2  and  C11_21 
REMARK    2  A    between atoms: N1_3  and  O2_4 
REMARK    3  A    between atoms: N1_3  and  C2_6 
REMARK    4  A    between atoms: C2_6  and  C3_7 
REMARK    5  A    between atoms: N2_10  and  C6_11 
ROOT
HETATM    1  C3  UNL     1      -3.102   4.779  11.637  1.00  0.00     0.026 C 
HETATM    2  C4  UNL     1      -2.733   3.379  11.195  1.00  0.00     0.028 C 
HETATM    3  C5  UNL     1      -3.998   2.615  11.509  1.00  0.00     0.141 C 
HETATM    4  N2  UNL     1      -4.329   3.140  12.818  1.00  0.00    -0.217 N 
HETATM    5  C10 UNL     1      -4.254   4.582  12.628  1.00  0.00     0.147 C 
ENDROOT
BRANCH   1   6
HETATM    6  C2  UNL     1      -3.540   5.536  10.410  1.00  0.00     0.165 C 
BRANCH   6   7
HETATM    7  N1  UNL     1      -4.419   6.632  10.658  1.00  0.00    -0.225 N 
HETATM    8  C1  UNL     1      -5.714   6.671  10.095  1.00  0.00     0.297 C 
HETATM    9  O1  UNL     1      -6.102   5.710   9.351  1.00  0.00    -0.266 OA
BRANCH   8  10
HETATM   10  C11 UNL     1      -6.618   7.811  10.362  1.00  0.00     0.271 C 
HETATM   11 CL2  UNL     1      -5.679   9.327  10.325  1.00  0.00    -0.073 Cl
HETATM   12 CL3  UNL     1      -7.380   7.587  11.958  1.00  0.00    -0.073 Cl
HETATM   13 CL4  UNL     1      -7.839   7.871   9.075  1.00  0.00    -0.073 Cl
ENDBRANCH   8  10
BRANCH   7  14
HETATM   14  O2  UNL     1      -4.019   7.646  11.440  1.00  0.00    -0.285 OA
ATOM     15  H2  UNL     1      -4.128   7.572  12.381  1.00  0.00     0.245 HD
ENDBRANCH   7  14
ENDBRANCH   6   7
ENDBRANCH   1   6
BRANCH   4  16
HETATM   16  C6  UNL     1      -4.643   2.384  13.970  1.00  0.00     0.681 A 
HETATM   17  N3  UNL     1      -4.087   1.185  14.150  1.00  0.00    -0.202 N 
HETATM   18  C7  UNL     1      -4.304   0.381  15.193  1.00  0.00     0.109 A 
ATOM     19  H3  UNL     1      -3.443   0.856  13.432  1.00  0.00     0.183 HD
HETATM   20  C8  UNL     1      -5.173   0.824  16.166  1.00  0.00     0.060 A 
HETATM   21  C9  UNL     1      -5.762   2.060  16.003  1.00  0.00     0.120 A 
HETATM   22 CL1  UNL     1      -6.862   2.591  17.259  1.00  0.00    -0.064 Cl
HETATM   23  N4  UNL     1      -5.492   2.815  14.922  1.00  0.00    -0.181 N 
ATOM     24  H4  UNL     1      -5.938   3.727  14.822  1.00  0.00     0.185 HD
ENDBRANCH   4  16
TORSDOF 5
ENDMDL
MODEL 4
REMARK VINA RESULT: -6.544444779      4.461      6.858
REMARK  5 active torsions:
REMARK  status: ('A' for Active; 'I' for Inactive)
REMARK       I    between atoms: C1_2  and  N1_3 
REMARK    1  A    between atoms: C1_2  and  C11_21 
REMARK    2  A    between atoms: N1_3  and  O2_4 
REMARK    3  A    between atoms: N1_3  and  C2_6 
REMARK    4  A    between atoms: C2_6  and  C3_7 
REMARK    5  A    between atoms: N2_10  and  C6_11 
ROOT
HETATM    1  C3  UNL     1      -4.292   3.566  14.504  1.00  0.00     0.026 C 
HETATM    2  C4  UNL     1      -5.095   4.846  14.578  1.00  0.00     0.028 C 
HETATM    3  C5  UNL     1      -4.626   5.574  13.339  1.00  0.00     0.141 C 
HETATM    4  N2  UNL     1      -3.197   5.345  13.399  1.00  0.00    -0.217 N 
HETATM    5  C10 UNL     1      -3.097   3.908  13.606  1.00  0.00     0.147 C 
ENDROOT
BRANCH   1   6
HETATM    6  C2  UNL     1      -5.177   2.516  13.883  1.00  0.00     0.165 C 
BRANCH   6   7
HETATM    7  N1  UNL     1      -4.670   1.925  12.689  1.00  0.00    -0.225 N 
HETATM    8  C1  UNL     1      -4.098   0.633  12.698  1.00  0.00     0.297 C 
HETATM    9  O1  UNL     1      -4.033  -0.014  13.796  1.00  0.00    -0.266 OA
BRANCH   8  10
HETATM   10  C11 UNL     1      -3.579   0.030  11.452  1.00  0.00     0.271 C 
HETATM   11 CL2  UNL     1      -3.254  -1.701  11.726  1.00  0.00    -0.073 Cl
HETATM   12 CL3  UNL     1      -2.086   0.878  10.973  1.00  0.00    -0.073 Cl
HETATM   13 CL4  UNL     1      -4.826   0.178  10.197  1.00  0.00    -0.073 Cl
ENDBRANCH   8  10
BRANCH   7  14
HETATM   14  O2  UNL     1      -4.735   2.599  11.531  1.00  0.00    -0.285 OA
ATOM     15  H2  UNL     1      -5.397   3.272  11.427  1.00  0.00     0.245 HD
ENDBRANCH   7  14
ENDBRANCH   6   7
ENDBRANCH   1   6
BRANCH   4  16
HETATM   16  C6  UNL     1      -2.185   6.325  13.277  1.00  0.00     0.681 A 
HETATM   17  N3  UNL     1      -1.349   6.291  12.239  1.00  0.00    -0.202 N 
HETATM   18  C7  UNL     1      -0.358   7.156  12.016  1.00  0.00     0.109 A 
ATOM     19  H3  UNL     1      -1.478   5.542  11.559  1.00  0.00     0.183 HD
HETATM   20  C8  UNL     1      -0.182   8.170  12.932  1.00  0.00     0.060 A 
HETATM   21  C9  UNL     1      -1.034   8.227  14.015  1.00  0.00     0.120 A 
HETATM   22 CL1  UNL     1      -0.781   9.529  15.160  1.00  0.00    -0.064 Cl
HETATM   23  N4  UNL     1      -2.013   7.316  14.171  1.00  0.00    -0.181 N 
ATOM     24  H4  UNL     1      -2.632   7.378  14.979  1.00  0.00     0.185 HD
ENDBRANCH   4  16
TORSDOF 5
ENDMDL
MODEL 5
REMARK VINA RESULT: -6.259783914      3.954      7.100
REMARK  5 active torsions:
REMARK  status: ('A' for Active; 'I' for Inactive)
REMARK       I    between atoms: C1_2  and  N1_3 
REMARK    1  A    between atoms: C1_2  and  C11_21 
REMARK    2  A    between atoms: N1_3  and  O2_4 
REMARK    3  A    between atoms: N1_3  and  C2_6 
REMARK    4  A    between atoms: C2_6  and  C3_7 
REMARK    5  A    between atoms: N2_10  and  C6_11 
ROOT
HETATM    1  C3  UNL     1      -3.681   1.701  10.393  1.00  0.00     0.026 C 
HETATM    2  C4  UNL     1      -2.680   0.567  10.390  1.00  0.00     0.028 C 
HETATM    3  C5  UNL     1      -1.589   1.119  11.278  1.00  0.00     0.141 C 
HETATM    4  N2  UNL     1      -1.484   2.477  10.787  1.00  0.00    -0.217 N 
HETATM    5  C10 UNL     1      -2.865   2.938  10.782  1.00  0.00     0.147 C 
ENDROOT
BRANCH   1   6
HETATM    6  C2  UNL     1      -4.730   1.373  11.424  1.00  0.00     0.165 C 
BRANCH   6   7
HETATM    7  N1  UNL     1      -4.744   2.228  12.565  1.00  0.00    -0.225 N 
HETATM    8  C1  UNL     1      -4.470   1.726  13.858  1.00  0.00     0.297 C 
HETATM    9  O1  UNL     1      -4.209   0.486  14.004  1.00  0.00    -0.266 OA
BRANCH   8  10
HETATM   10  C11 UNL     1      -4.484   2.623  15.033  1.00  0.00     0.271 C 
HETATM   11 CL2  UNL     1      -6.094   3.378  15.177  1.00  0.00    -0.073 Cl
HETATM   12 CL3  UNL     1      -3.226   3.869  14.829  1.00  0.00    -0.073 Cl
HETATM   13 CL4  UNL     1      -4.186   1.648  16.486  1.00  0.00    -0.073 Cl
ENDBRANCH   8  10
BRANCH   7  14
HETATM   14  O2  UNL     1      -5.017   3.533  12.420  1.00  0.00    -0.285 OA
ATOM     15  H2  UNL     1      -4.324   4.120  12.144  1.00  0.00     0.245 HD
ENDBRANCH   7  14
ENDBRANCH   6   7
ENDBRANCH   1   6
BRANCH   4  16
HETATM   16  C6  UNL     1      -0.295   3.146  10.416  1.00  0.00     0.681 A 
HETATM   17  N3  UNL     1       0.486   3.682  11.354  1.00  0.00    -0.202 N 
HETATM   18  C7  UNL     1       1.628   4.334  11.128  1.00  0.00     0.109 A 
ATOM     19  H3  UNL     1       0.187   3.585  12.324  1.00  0.00     0.183 HD
HETATM   20  C8  UNL     1       2.037   4.466   9.820  1.00  0.00     0.060 A 
HETATM   21  C9  UNL     1       1.246   3.920   8.830  1.00  0.00     0.120 A 
HETATM   22 CL1  UNL     1       1.795   4.108   7.177  1.00  0.00    -0.064 Cl
HETATM   23  N4  UNL     1       0.105   3.275   9.137  1.00  0.00    -0.181 N 
ATOM     24  H4  UNL     1      -0.464   2.878   8.390  1.00  0.00     0.185 HD
ENDBRANCH   4  16
TORSDOF 5
ENDMDL
