MODEL 1
REMARK VINA RESULT: -6.624467245      0.000      0.000
REMARK  13 active torsions:
REMARK  status: ('A' for Active; 'I' for Inactive)
REMARK    1  A    between atoms: C3_3  and  O1_4 
REMARK    2  A    between atoms: C7_9  and  C8_10 
REMARK    3  A    between atoms: C8_10  and  C9_11 
REMARK    4  A    between atoms: C9_11  and  C10_12 
REMARK    5  A    between atoms: C10_12  and  O2_14 
REMARK    6  A    between atoms: O2_14  and  C12_15 
REMARK    7  A    between atoms: C12_15  and  C13_17 
REMARK    8  A    between atoms: C13_17  and  C16_20 
REMARK    9  A    between atoms: C16_20  and  O4_21 
REMARK   10  A    between atoms: O4_21  and  C17_22 
REMARK   11  A    between atoms: C17_22  and  C18_24 
REMARK   12  A    between atoms: C18_24  and  C19_25 
REMARK   13  A    between atoms: C23_29  and  O6_30 
ROOT
HETATM    1  C10 UNL     1      -6.010 -32.111  18.132  1.00  0.00     0.128 C 
HETATM    2  C11 UNL     1      -5.189 -33.072  18.964  1.00  0.00     0.040 C 
ENDROOT
BRANCH   1   3
HETATM    3  C9  UNL     1      -5.144 -30.925  17.806  1.00  0.00     0.036 C 
BRANCH   3   4
HETATM    4  C8  UNL     1      -5.781 -29.695  18.450  1.00  0.00     0.037 C 
BRANCH   4   5
HETATM    5  C7  UNL     1      -5.108 -29.483  19.749  1.00  0.00    -0.075 C 
HETATM    6  C5  UNL     1      -5.887 -29.483  20.796  1.00  0.00    -0.079 C 
HETATM    7  C4  UNL     1      -5.486 -29.292  22.232  1.00  0.00     0.070 C 
HETATM    8  C6  UNL     1      -7.326 -29.689  20.605  1.00  0.00     0.044 C 
HETATM    9  C3  UNL     1      -4.600 -30.460  22.573  1.00  0.00     0.152 C 
HETATM   10  C2  UNL     1      -3.255 -30.332  21.924  1.00  0.00    -0.032 C 
HETATM   11  C1  UNL     1      -2.255 -30.320  22.790  1.00  0.00     0.019 C 
HETATM   12  C23 UNL     1      -2.838 -30.222  20.526  1.00  0.00     0.152 C 
HETATM   13  C22 UNL     1      -3.652 -29.302  19.666  1.00  0.00     0.070 C 
BRANCH   9  14
HETATM   14  O1  UNL     1      -5.241 -31.606  22.056  1.00  0.00    -0.391 OA
ATOM     15  H1  UNL     1      -6.133 -31.626  22.382  1.00  0.00     0.210 HD
ENDBRANCH   9  14
BRANCH  12  16
HETATM   16  O6  UNL     1      -1.528 -29.746  20.486  1.00  0.00    -0.391 OA
ATOM     17  H6  UNL     1      -0.998 -30.354  19.986  1.00  0.00     0.210 HD
ENDBRANCH  12  16
ENDBRANCH   4   5
ENDBRANCH   3   4
ENDBRANCH   1   3
BRANCH   1  18
HETATM   18  O2  UNL     1      -6.458 -32.664  16.935  1.00  0.00    -0.316 OA
BRANCH  18  19
HETATM   19  C12 UNL     1      -7.754 -32.749  16.525  1.00  0.00     0.269 C 
HETATM   20  O3  UNL     1      -8.636 -32.316  17.303  1.00  0.00    -0.264 OA
BRANCH  19  21
HETATM   21  C13 UNL     1      -8.199 -33.333  15.197  1.00  0.00     0.063 C 
HETATM   22  C14 UNL     1      -7.678 -34.735  15.229  1.00  0.00     0.028 C 
HETATM   23  C15 UNL     1      -7.477 -32.616  14.064  1.00  0.00     0.028 C 
BRANCH  21  24
HETATM   24  C16 UNL     1      -9.651 -33.119  15.054  1.00  0.00     0.198 C 
BRANCH  24  25
HETATM   25  O4  UNL     1     -10.052 -32.409  13.966  1.00  0.00    -0.320 OA
BRANCH  25  26
HETATM   26  C17 UNL     1     -11.005 -31.503  13.722  1.00  0.00     0.259 C 
HETATM   27  O5  UNL     1     -12.202 -31.866  13.648  1.00  0.00    -0.265 OA
BRANCH  26  28
HETATM   28  C18 UNL     1     -10.730 -30.035  13.523  1.00  0.00     0.115 C 
BRANCH  28  29
HETATM   29  C19 UNL     1     -11.986 -29.214  13.710  1.00  0.00    -0.013 C 
HETATM   30  C20 UNL     1     -11.838 -28.000  12.809  1.00  0.00     0.010 C 
HETATM   31  C21 UNL     1     -12.033 -28.686  15.132  1.00  0.00     0.010 C 
ENDBRANCH  28  29
ENDBRANCH  26  28
ENDBRANCH  25  26
ENDBRANCH  24  25
ENDBRANCH  21  24
ENDBRANCH  19  21
ENDBRANCH  18  19
ENDBRANCH   1  18
TORSDOF 13
ENDMDL
MODEL 2
REMARK VINA RESULT: -6.453110778      1.713      3.178
REMARK  13 active torsions:
REMARK  status: ('A' for Active; 'I' for Inactive)
REMARK    1  A    between atoms: C3_3  and  O1_4 
REMARK    2  A    between atoms: C7_9  and  C8_10 
REMARK    3  A    between atoms: C8_10  and  C9_11 
REMARK    4  A    between atoms: C9_11  and  C10_12 
REMARK    5  A    between atoms: C10_12  and  O2_14 
REMARK    6  A    between atoms: O2_14  and  C12_15 
REMARK    7  A    between atoms: C12_15  and  C13_17 
REMARK    8  A    between atoms: C13_17  and  C16_20 
REMARK    9  A    between atoms: C16_20  and  O4_21 
REMARK   10  A    between atoms: O4_21  and  C17_22 
REMARK   11  A    between atoms: C17_22  and  C18_24 
REMARK   12  A    between atoms: C18_24  and  C19_25 
REMARK   13  A    between atoms: C23_29  and  O6_30 
ROOT
HETATM    1  C10 UNL     1      -7.466 -33.192  15.095  1.00  0.00     0.128 C 
HETATM    2  C11 UNL     1      -6.928 -33.105  13.683  1.00  0.00     0.040 C 
ENDROOT
BRANCH   1   3
HETATM    3  C9  UNL     1      -6.578 -32.360  15.980  1.00  0.00     0.036 C 
BRANCH   3   4
HETATM    4  C8  UNL     1      -6.863 -32.758  17.426  1.00  0.00     0.037 C 
BRANCH   4   5
HETATM    5  C7  UNL     1      -6.672 -31.551  18.259  1.00  0.00    -0.075 C 
HETATM    6  C5  UNL     1      -7.560 -31.363  19.196  1.00  0.00    -0.079 C 
HETATM    7  C4  UNL     1      -7.620 -30.233  20.184  1.00  0.00     0.070 C 
HETATM    8  C6  UNL     1      -8.646 -32.337  19.343  1.00  0.00     0.044 C 
HETATM    9  C3  UNL     1      -6.380 -30.357  21.030  1.00  0.00     0.152 C 
HETATM   10  C2  UNL     1      -5.156 -29.951  20.266  1.00  0.00    -0.032 C 
HETATM   11  C1  UNL     1      -4.497 -28.951  20.827  1.00  0.00     0.019 C 
HETATM   12  C23 UNL     1      -4.552 -30.447  19.029  1.00  0.00     0.152 C 
HETATM   13  C22 UNL     1      -5.500 -30.738  17.903  1.00  0.00     0.070 C 
BRANCH   9  14
HETATM   14  O1  UNL     1      -6.267 -31.723  21.366  1.00  0.00    -0.391 OA
ATOM     15  H1  UNL     1      -6.355 -32.238  20.573  1.00  0.00     0.210 HD
ENDBRANCH   9  14
BRANCH  12  16
HETATM   16  O6  UNL     1      -3.656 -29.491  18.554  1.00  0.00    -0.391 OA
ATOM     17  H6  UNL     1      -3.800 -29.373  17.623  1.00  0.00     0.210 HD
ENDBRANCH  12  16
ENDBRANCH   4   5
ENDBRANCH   3   4
ENDBRANCH   1   3
BRANCH   1  18
HETATM   18  O2  UNL     1      -8.770 -32.716  15.216  1.00  0.00    -0.316 OA
BRANCH  18  19
HETATM   19  C12 UNL     1      -9.873 -33.232  14.607  1.00  0.00     0.269 C 
HETATM   20  O3  UNL     1     -10.249 -34.373  14.961  1.00  0.00    -0.264 OA
BRANCH  19  21
HETATM   21  C13 UNL     1     -10.670 -32.521  13.528  1.00  0.00     0.063 C 
HETATM   22  C14 UNL     1     -12.086 -32.909  13.814  1.00  0.00     0.028 C 
HETATM   23  C15 UNL     1     -10.313 -33.108  12.169  1.00  0.00     0.028 C 
BRANCH  21  24
HETATM   24  C16 UNL     1     -10.309 -31.091  13.545  1.00  0.00     0.198 C 
BRANCH  24  25
HETATM   25  O4  UNL     1     -11.295 -30.216  13.211  1.00  0.00    -0.320 OA
BRANCH  25  26
HETATM   26  C17 UNL     1     -11.671 -29.004  13.634  1.00  0.00     0.259 C 
HETATM   27  O5  UNL     1     -11.806 -28.073  12.806  1.00  0.00    -0.265 OA
BRANCH  26  28
HETATM   28  C18 UNL     1     -11.951 -28.673  15.076  1.00  0.00     0.115 C 
BRANCH  28  29
HETATM   29  C19 UNL     1     -12.904 -29.673  15.692  1.00  0.00    -0.013 C 
HETATM   30  C20 UNL     1     -13.909 -28.865  16.494  1.00  0.00     0.010 C 
HETATM   31  C21 UNL     1     -12.153 -30.533  16.692  1.00  0.00     0.010 C 
ENDBRANCH  28  29
ENDBRANCH  26  28
ENDBRANCH  25  26
ENDBRANCH  24  25
ENDBRANCH  21  24
ENDBRANCH  19  21
ENDBRANCH  18  19
ENDBRANCH   1  18
TORSDOF 13
ENDMDL
MODEL 3
REMARK VINA RESULT: -6.442187441      1.477      2.226
REMARK  13 active torsions:
REMARK  status: ('A' for Active; 'I' for Inactive)
REMARK    1  A    between atoms: C3_3  and  O1_4 
REMARK    2  A    between atoms: C7_9  and  C8_10 
REMARK    3  A    between atoms: C8_10  and  C9_11 
REMARK    4  A    between atoms: C9_11  and  C10_12 
REMARK    5  A    between atoms: C10_12  and  O2_14 
REMARK    6  A    between atoms: O2_14  and  C12_15 
REMARK    7  A    between atoms: C12_15  and  C13_17 
REMARK    8  A    between atoms: C13_17  and  C16_20 
REMARK    9  A    between atoms: C16_20  and  O4_21 
REMARK   10  A    between atoms: O4_21  and  C17_22 
REMARK   11  A    between atoms: C17_22  and  C18_24 
REMARK   12  A    between atoms: C18_24  and  C19_25 
REMARK   13  A    between atoms: C23_29  and  O6_30 
ROOT
HETATM    1  C10 UNL     1      -6.558 -31.961  17.142  1.00  0.00     0.128 C 
HETATM    2  C11 UNL     1      -7.528 -32.304  18.253  1.00  0.00     0.040 C 
ENDROOT
BRANCH   1   3
HETATM    3  C9  UNL     1      -5.178 -31.895  17.738  1.00  0.00     0.036 C 
BRANCH   3   4
HETATM    4  C8  UNL     1      -5.155 -30.728  18.722  1.00  0.00     0.037 C 
BRANCH   4   5
HETATM    5  C7  UNL     1      -4.145 -31.045  19.754  1.00  0.00    -0.075 C 
HETATM    6  C5  UNL     1      -3.177 -30.180  19.885  1.00  0.00    -0.079 C 
HETATM    7  C4  UNL     1      -2.021 -30.241  20.843  1.00  0.00     0.070 C 
HETATM    8  C6  UNL     1      -3.170 -28.995  19.021  1.00  0.00     0.044 C 
HETATM    9  C3  UNL     1      -2.621 -30.161  22.222  1.00  0.00     0.152 C 
HETATM   10  C2  UNL     1      -3.312 -31.438  22.590  1.00  0.00    -0.032 C 
HETATM   11  C1  UNL     1      -2.823 -32.002  23.682  1.00  0.00     0.019 C 
HETATM   12  C23 UNL     1      -4.419 -32.176  21.980  1.00  0.00     0.152 C 
HETATM   13  C22 UNL     1      -4.385 -32.299  20.485  1.00  0.00     0.070 C 
BRANCH   9  14
HETATM   14  O1  UNL     1      -3.582 -29.128  22.174  1.00  0.00    -0.391 OA
ATOM     15  H1  UNL     1      -3.377 -28.494  22.851  1.00  0.00     0.210 HD
ENDBRANCH   9  14
BRANCH  12  16
HETATM   16  O6  UNL     1      -4.421 -33.477  22.482  1.00  0.00    -0.391 OA
ATOM     17  H6  UNL     1      -4.939 -33.496  23.278  1.00  0.00     0.210 HD
ENDBRANCH  12  16
ENDBRANCH   4   5
ENDBRANCH   3   4
ENDBRANCH   1   3
BRANCH   1  18
HETATM   18  O2  UNL     1      -6.544 -32.902  16.115  1.00  0.00    -0.316 OA
BRANCH  18  19
HETATM   19  C12 UNL     1      -7.329 -32.888  15.002  1.00  0.00     0.269 C 
HETATM   20  O3  UNL     1      -7.081 -32.023  14.131  1.00  0.00    -0.264 OA
BRANCH  19  21
HETATM   21  C13 UNL     1      -8.482 -33.843  14.751  1.00  0.00     0.063 C 
HETATM   22  C14 UNL     1      -7.962 -35.164  15.223  1.00  0.00     0.028 C 
HETATM   23  C15 UNL     1      -8.717 -33.966  13.252  1.00  0.00     0.028 C 
BRANCH  21  24
HETATM   24  C16 UNL     1      -9.694 -33.291  15.385  1.00  0.00     0.198 C 
BRANCH  24  25
HETATM   25  O4  UNL     1     -10.024 -32.016  15.045  1.00  0.00    -0.320 OA
BRANCH  25  26
HETATM   26  C17 UNL     1     -10.948 -31.452  14.260  1.00  0.00     0.259 C 
HETATM   27  O5  UNL     1     -12.035 -32.042  14.058  1.00  0.00    -0.265 OA
BRANCH  26  28
HETATM   28  C18 UNL     1     -10.765 -30.120  13.581  1.00  0.00     0.115 C 
BRANCH  28  29
HETATM   29  C19 UNL     1     -11.989 -29.248  13.750  1.00  0.00    -0.013 C 
HETATM   30  C20 UNL     1     -11.786 -28.049  12.840  1.00  0.00     0.010 C 
HETATM   31  C21 UNL     1     -12.027 -28.706  15.167  1.00  0.00     0.010 C 
ENDBRANCH  28  29
ENDBRANCH  26  28
ENDBRANCH  25  26
ENDBRANCH  24  25
ENDBRANCH  21  24
ENDBRANCH  19  21
ENDBRANCH  18  19
ENDBRANCH   1  18
TORSDOF 13
ENDMDL
MODEL 4
REMARK VINA RESULT: -6.412649109      1.212      1.475
REMARK  13 active torsions:
REMARK  status: ('A' for Active; 'I' for Inactive)
REMARK    1  A    between atoms: C3_3  and  O1_4 
REMARK    2  A    between atoms: C7_9  and  C8_10 
REMARK    3  A    between atoms: C8_10  and  C9_11 
REMARK    4  A    between atoms: C9_11  and  C10_12 
REMARK    5  A    between atoms: C10_12  and  O2_14 
REMARK    6  A    between atoms: O2_14  and  C12_15 
REMARK    7  A    between atoms: C12_15  and  C13_17 
REMARK    8  A    between atoms: C13_17  and  C16_20 
REMARK    9  A    between atoms: C16_20  and  O4_21 
REMARK   10  A    between atoms: O4_21  and  C17_22 
REMARK   11  A    between atoms: C17_22  and  C18_24 
REMARK   12  A    between atoms: C18_24  and  C19_25 
REMARK   13  A    between atoms: C23_29  and  O6_30 
ROOT
HETATM    1  C10 UNL     1      -7.392 -32.329  17.241  1.00  0.00     0.128 C 
HETATM    2  C11 UNL     1      -7.991 -33.363  18.169  1.00  0.00     0.040 C 
ENDROOT
BRANCH   1   3
HETATM    3  C9  UNL     1      -6.276 -31.639  17.977  1.00  0.00     0.036 C 
BRANCH   3   4
HETATM    4  C8  UNL     1      -6.908 -30.744  19.041  1.00  0.00     0.037 C 
BRANCH   4   5
HETATM    5  C7  UNL     1      -5.843 -30.388  20.003  1.00  0.00    -0.075 C 
HETATM    6  C5  UNL     1      -5.985 -30.868  21.208  1.00  0.00    -0.079 C 
HETATM    7  C4  UNL     1      -5.067 -30.673  22.382  1.00  0.00     0.070 C 
HETATM    8  C6  UNL     1      -7.155 -31.699  21.502  1.00  0.00     0.044 C 
HETATM    9  C3  UNL     1      -3.763 -31.322  22.001  1.00  0.00     0.152 C 
HETATM   10  C2  UNL     1      -3.029 -30.510  20.979  1.00  0.00    -0.032 C 
HETATM   11  C1  UNL     1      -1.827 -30.128  21.378  1.00  0.00     0.019 C 
HETATM   12  C23 UNL     1      -3.381 -30.063  19.630  1.00  0.00     0.152 C 
HETATM   13  C22 UNL     1      -4.775 -29.539  19.453  1.00  0.00     0.070 C 
BRANCH   9  14
HETATM   14  O1  UNL     1      -4.095 -32.569  21.430  1.00  0.00    -0.391 OA
ATOM     15  H1  UNL     1      -3.921 -33.251  22.069  1.00  0.00     0.210 HD
ENDBRANCH   9  14
BRANCH  12  16
HETATM   16  O6  UNL     1      -2.521 -29.029  19.263  1.00  0.00    -0.391 OA
ATOM     17  H6  UNL     1      -3.029 -28.235  19.150  1.00  0.00     0.210 HD
ENDBRANCH  12  16
ENDBRANCH   4   5
ENDBRANCH   3   4
ENDBRANCH   1   3
BRANCH   1  18
HETATM   18  O2  UNL     1      -6.868 -32.877  16.072  1.00  0.00    -0.316 OA
BRANCH  18  19
HETATM   19  C12 UNL     1      -7.474 -32.898  14.853  1.00  0.00     0.269 C 
HETATM   20  O3  UNL     1      -7.168 -31.996  14.039  1.00  0.00    -0.264 OA
BRANCH  19  21
HETATM   21  C13 UNL     1      -8.495 -33.934  14.419  1.00  0.00     0.063 C 
HETATM   22  C14 UNL     1      -7.923 -35.228  14.906  1.00  0.00     0.028 C 
HETATM   23  C15 UNL     1      -8.525 -34.005  12.898  1.00  0.00     0.028 C 
BRANCH  21  24
HETATM   24  C16 UNL     1      -9.823 -33.516  14.907  1.00  0.00     0.198 C 
BRANCH  24  25
HETATM   25  O4  UNL     1     -10.131 -32.200  14.764  1.00  0.00    -0.320 OA
BRANCH  25  26
HETATM   26  C17 UNL     1     -11.025 -31.506  14.052  1.00  0.00     0.259 C 
HETATM   27  O5  UNL     1     -12.150 -32.004  13.813  1.00  0.00    -0.265 OA
BRANCH  26  28
HETATM   28  C18 UNL     1     -10.765 -30.128  13.501  1.00  0.00     0.115 C 
BRANCH  28  29
HETATM   29  C19 UNL     1     -11.973 -29.234  13.672  1.00  0.00    -0.013 C 
HETATM   30  C20 UNL     1     -11.752 -28.043  12.756  1.00  0.00     0.010 C 
HETATM   31  C21 UNL     1     -11.996 -28.687  15.086  1.00  0.00     0.010 C 
ENDBRANCH  28  29
ENDBRANCH  26  28
ENDBRANCH  25  26
ENDBRANCH  24  25
ENDBRANCH  21  24
ENDBRANCH  19  21
ENDBRANCH  18  19
ENDBRANCH   1  18
TORSDOF 13
ENDMDL
MODEL 5
REMARK VINA RESULT: -6.322633757      1.265      2.131
REMARK  13 active torsions:
REMARK  status: ('A' for Active; 'I' for Inactive)
REMARK    1  A    between atoms: C3_3  and  O1_4 
REMARK    2  A    between atoms: C7_9  and  C8_10 
REMARK    3  A    between atoms: C8_10  and  C9_11 
REMARK    4  A    between atoms: C9_11  and  C10_12 
REMARK    5  A    between atoms: C10_12  and  O2_14 
REMARK    6  A    between atoms: O2_14  and  C12_15 
REMARK    7  A    between atoms: C12_15  and  C13_17 
REMARK    8  A    between atoms: C13_17  and  C16_20 
REMARK    9  A    between atoms: C16_20  and  O4_21 
REMARK   10  A    between atoms: O4_21  and  C17_22 
REMARK   11  A    between atoms: C17_22  and  C18_24 
REMARK   12  A    between atoms: C18_24  and  C19_25 
REMARK   13  A    between atoms: C23_29  and  O6_30 
ROOT
HETATM    1  C10 UNL     1      -5.728 -32.210  18.368  1.00  0.00     0.128 C 
HETATM    2  C11 UNL     1      -4.693 -33.019  19.119  1.00  0.00     0.040 C 
ENDROOT
BRANCH   1   3
HETATM    3  C9  UNL     1      -5.045 -30.991  17.809  1.00  0.00     0.036 C 
BRANCH   3   4
HETATM    4  C8  UNL     1      -5.724 -29.763  18.413  1.00  0.00     0.037 C 
BRANCH   4   5
HETATM    5  C7  UNL     1      -5.060 -29.486  19.704  1.00  0.00    -0.075 C 
HETATM    6  C5  UNL     1      -5.846 -29.422  20.743  1.00  0.00    -0.079 C 
HETATM    7  C4  UNL     1      -5.455 -29.157  22.170  1.00  0.00     0.070 C 
HETATM    8  C6  UNL     1      -7.285 -29.626  20.552  1.00  0.00     0.044 C 
HETATM    9  C3  UNL     1      -4.582 -30.312  22.582  1.00  0.00     0.152 C 
HETATM   10  C2  UNL     1      -3.232 -30.232  21.937  1.00  0.00    -0.032 C 
HETATM   11  C1  UNL     1      -2.238 -30.181  22.809  1.00  0.00     0.019 C 
HETATM   12  C23 UNL     1      -2.802 -30.202  20.539  1.00  0.00     0.152 C 
HETATM   13  C22 UNL     1      -3.601 -29.323  19.623  1.00  0.00     0.070 C 
BRANCH   9  14
HETATM   14  O1  UNL     1      -5.230 -31.479  22.122  1.00  0.00    -0.391 OA
ATOM     15  H1  UNL     1      -5.607 -31.300  21.269  1.00  0.00     0.210 HD
ENDBRANCH   9  14
BRANCH  12  16
HETATM   16  O6  UNL     1      -1.488 -29.740  20.483  1.00  0.00    -0.391 OA
ATOM     17  H6  UNL     1      -1.482 -28.812  20.682  1.00  0.00     0.210 HD
ENDBRANCH  12  16
ENDBRANCH   4   5
ENDBRANCH   3   4
ENDBRANCH   1   3
BRANCH   1  18
HETATM   18  O2  UNL     1      -6.309 -32.906  17.310  1.00  0.00    -0.316 OA
BRANCH  18  19
HETATM   19  C12 UNL     1      -7.585 -32.760  16.857  1.00  0.00     0.269 C 
HETATM   20  O3  UNL     1      -8.423 -32.258  17.641  1.00  0.00    -0.264 OA
BRANCH  19  21
HETATM   21  C13 UNL     1      -8.057 -33.168  15.474  1.00  0.00     0.063 C 
HETATM   22  C14 UNL     1      -7.914 -34.656  15.469  1.00  0.00     0.028 C 
HETATM   23  C15 UNL     1      -7.090 -32.624  14.431  1.00  0.00     0.028 C 
BRANCH  21  24
HETATM   24  C16 UNL     1      -9.391 -32.582  15.243  1.00  0.00     0.198 C 
BRANCH  24  25
HETATM   25  O4  UNL     1      -9.553 -31.887  14.086  1.00  0.00    -0.320 OA
BRANCH  25  26
HETATM   26  C17 UNL     1     -10.581 -31.626  13.271  1.00  0.00     0.259 C 
HETATM   27  O5  UNL     1     -10.998 -30.451  13.155  1.00  0.00    -0.265 OA
BRANCH  26  28
HETATM   28  C18 UNL     1     -11.292 -32.679  12.462  1.00  0.00     0.115 C 
BRANCH  28  29
HETATM   29  C19 UNL     1     -10.315 -33.682  11.890  1.00  0.00    -0.013 C 
HETATM   30  C20 UNL     1     -10.733 -33.908  10.447  1.00  0.00     0.010 C 
HETATM   31  C21 UNL     1     -10.488 -35.013  12.598  1.00  0.00     0.010 C 
ENDBRANCH  28  29
ENDBRANCH  26  28
ENDBRANCH  25  26
ENDBRANCH  24  25
ENDBRANCH  21  24
ENDBRANCH  19  21
ENDBRANCH  18  19
ENDBRANCH   1  18
TORSDOF 13
ENDMDL
