MODEL 1
REMARK VINA RESULT: -9.494360270      0.000      0.000
REMARK  6 active torsions:
REMARK  status: ('A' for Active; 'I' for Inactive)
REMARK    1  A    between atoms: C2_2  and  N1_3 
REMARK    2  A    between atoms: C2_2  and  C19_25 
REMARK    3  A    between atoms: N1_3  and  C3_5 
REMARK    4  A    between atoms: C3_5  and  C4_6 
REMARK    5  A    between atoms: C7_9  and  C8_10 
REMARK    6  A    between atoms: C11_14  and  C12_15 
ROOT
HETATM    1  C12 UNL     1      34.866  -7.387  23.858  1.00  0.00    -0.009 A 
HETATM    2  C13 UNL     1      34.768  -6.053  23.727  1.00  0.00     0.015 A 
HETATM    3  C14 UNL     1      33.569  -5.464  23.282  1.00  0.00     0.023 A 
HETATM    4  C15 UNL     1      32.456  -6.190  22.966  1.00  0.00     0.044 A 
HETATM    5  C16 UNL     1      31.208  -5.572  22.522  1.00  0.00     0.099 C 
HETATM    6  N2  UNL     1      30.237  -5.067  22.153  1.00  0.00    -0.191 NA
HETATM    7  C17 UNL     1      32.556  -7.567  23.102  1.00  0.00     0.023 A 
HETATM    8  C18 UNL     1      33.707  -8.152  23.529  1.00  0.00     0.015 A 
ENDROOT
BRANCH   1   9
HETATM    9  C11 UNL     1      36.016  -8.196  24.297  1.00  0.00     0.049 A 
HETATM   10  C7  UNL     1      37.064  -8.574  23.440  1.00  0.00    -0.024 A 
HETATM   11  C6  UNL     1      37.990  -9.488  23.883  1.00  0.00     0.012 A 
HETATM   12  C5  UNL     1      37.882 -10.033  25.193  1.00  0.00     0.027 A 
HETATM   13  C4  UNL     1      36.868  -9.653  25.992  1.00  0.00     0.027 A 
HETATM   14  N3  UNL     1      35.991  -8.748  25.501  1.00  0.00    -0.357 N 
ATOM     15  H3  UNL     1      35.234  -8.461  26.122  1.00  0.00     0.166 HD
BRANCH  10  16
HETATM   16  C8  UNL     1      37.235  -7.866  22.152  1.00  0.00     0.057 A 
HETATM   17  C9  UNL     1      36.395  -8.016  20.954  1.00  0.00     0.050 A 
HETATM   18  C10 UNL     1      37.576  -8.887  20.966  1.00  0.00     0.179 A 
HETATM   19  F1  UNL     1      38.674  -8.581  20.180  1.00  0.00    -0.249 F 
ENDBRANCH  10  16
BRANCH  13  20
HETATM   20  C3  UNL     1      36.574 -10.233  27.389  1.00  0.00     0.171 C 
BRANCH  20  21
HETATM   21  N1  UNL     1      37.829 -10.719  27.792  1.00  0.00    -0.412 N 
ATOM     22  H1  UNL     1      38.548 -10.911  27.095  1.00  0.00     0.153 HD
BRANCH  21  23
HETATM   23  C2  UNL     1      38.107 -10.951  29.206  1.00  0.00     0.077 C 
HETATM   24  C1  UNL     1      37.846 -12.393  29.521  1.00  0.00     0.032 C 
BRANCH  23  25
HETATM   25  C19 UNL     1      39.643 -10.628  29.237  1.00  0.00     0.007 C 
HETATM   26  C20 UNL     1      39.825  -9.776  30.471  1.00  0.00     0.006 C 
HETATM   27  C21 UNL     1      41.152  -9.093  30.563  1.00  0.00     0.000 C 
HETATM   28  C22 UNL     1      41.386  -8.305  29.268  1.00  0.00     0.000 C 
HETATM   29  C23 UNL     1      41.485  -9.389  28.211  1.00  0.00     0.000 C 
HETATM   30  C24 UNL     1      40.099  -9.933  27.995  1.00  0.00     0.006 C 
ENDBRANCH  23  25
ENDBRANCH  21  23
ENDBRANCH  20  21
ENDBRANCH  13  20
ENDBRANCH   1   9
TORSDOF 6
ENDMDL
MODEL 2
REMARK VINA RESULT: -9.041865937      2.920      4.550
REMARK  6 active torsions:
REMARK  status: ('A' for Active; 'I' for Inactive)
REMARK    1  A    between atoms: C2_2  and  N1_3 
REMARK    2  A    between atoms: C2_2  and  C19_25 
REMARK    3  A    between atoms: N1_3  and  C3_5 
REMARK    4  A    between atoms: C3_5  and  C4_6 
REMARK    5  A    between atoms: C7_9  and  C8_10 
REMARK    6  A    between atoms: C11_14  and  C12_15 
ROOT
HETATM    1  C12 UNL     1      35.023  -7.666  20.560  1.00  0.00    -0.009 A 
HETATM    2  C13 UNL     1      35.349  -6.819  19.570  1.00  0.00     0.015 A 
HETATM    3  C14 UNL     1      34.807  -6.983  18.280  1.00  0.00     0.023 A 
HETATM    4  C15 UNL     1      33.934  -7.984  17.963  1.00  0.00     0.044 A 
HETATM    5  C16 UNL     1      33.359  -8.138  16.627  1.00  0.00     0.099 C 
HETATM    6  N2  UNL     1      32.932  -8.256  15.561  1.00  0.00    -0.191 NA
HETATM    7  C17 UNL     1      33.595  -8.858  18.985  1.00  0.00     0.023 A 
HETATM    8  C18 UNL     1      34.111  -8.715  20.235  1.00  0.00     0.015 A 
ENDROOT
BRANCH   1   9
HETATM    9  C11 UNL     1      35.476  -7.676  21.963  1.00  0.00     0.049 A 
HETATM   10  C7  UNL     1      35.085  -6.710  22.905  1.00  0.00    -0.024 A 
HETATM   11  C6  UNL     1      35.708  -6.685  24.131  1.00  0.00     0.012 A 
HETATM   12  C5  UNL     1      36.727  -7.632  24.430  1.00  0.00     0.027 A 
HETATM   13  C4  UNL     1      37.080  -8.546  23.508  1.00  0.00     0.027 A 
HETATM   14  N3  UNL     1      36.429  -8.523  22.323  1.00  0.00    -0.357 N 
ATOM     15  H3  UNL     1      36.700  -9.228  21.638  1.00  0.00     0.166 HD
BRANCH  10  16
HETATM   16  C8  UNL     1      33.915  -5.852  22.618  1.00  0.00     0.057 A 
HETATM   17  C9  UNL     1      33.045  -5.198  23.607  1.00  0.00     0.050 A 
HETATM   18  C10 UNL     1      32.561  -6.511  23.165  1.00  0.00     0.179 A 
HETATM   19  F1  UNL     1      31.507  -6.599  22.271  1.00  0.00    -0.249 F 
ENDBRANCH  10  16
BRANCH  13  20
HETATM   20  C3  UNL     1      38.229  -9.562  23.660  1.00  0.00     0.171 C 
BRANCH  20  21
HETATM   21  N1  UNL     1      37.953 -10.157  24.902  1.00  0.00    -0.412 N 
ATOM     22  H1  UNL     1      37.019 -10.518  25.097  1.00  0.00     0.153 HD
BRANCH  21  23
HETATM   23  C2  UNL     1      38.999 -10.260  25.916  1.00  0.00     0.077 C 
HETATM   24  C1  UNL     1      39.811  -9.001  25.903  1.00  0.00     0.032 C 
BRANCH  23  25
HETATM   25  C19 UNL     1      38.114 -10.357  27.209  1.00  0.00     0.007 C 
HETATM   26  C20 UNL     1      39.097 -10.655  28.317  1.00  0.00     0.006 C 
HETATM   27  C21 UNL     1      38.469 -11.086  29.604  1.00  0.00     0.000 C 
HETATM   28  C22 UNL     1      37.532 -12.266  29.319  1.00  0.00     0.000 C 
HETATM   29  C23 UNL     1      36.451 -11.654  28.448  1.00  0.00     0.000 C 
HETATM   30  C24 UNL     1      37.054 -11.405  27.092  1.00  0.00     0.006 C 
ENDBRANCH  23  25
ENDBRANCH  21  23
ENDBRANCH  20  21
ENDBRANCH  13  20
ENDBRANCH   1   9
TORSDOF 6
ENDMDL
MODEL 3
REMARK VINA RESULT: -8.980756182      2.729      4.303
REMARK  6 active torsions:
REMARK  status: ('A' for Active; 'I' for Inactive)
REMARK    1  A    between atoms: C2_2  and  N1_3 
REMARK    2  A    between atoms: C2_2  and  C19_25 
REMARK    3  A    between atoms: N1_3  and  C3_5 
REMARK    4  A    between atoms: C3_5  and  C4_6 
REMARK    5  A    between atoms: C7_9  and  C8_10 
REMARK    6  A    between atoms: C11_14  and  C12_15 
ROOT
HETATM    1  C12 UNL     1      34.794  -7.135  21.737  1.00  0.00    -0.009 A 
HETATM    2  C13 UNL     1      34.008  -6.161  21.250  1.00  0.00     0.015 A 
HETATM    3  C14 UNL     1      33.826  -6.015  19.861  1.00  0.00     0.023 A 
HETATM    4  C15 UNL     1      34.418  -6.836  18.944  1.00  0.00     0.044 A 
HETATM    5  C16 UNL     1      34.211  -6.692  17.504  1.00  0.00     0.099 C 
HETATM    6  N2  UNL     1      34.051  -6.550  16.369  1.00  0.00    -0.191 NA
HETATM    7  C17 UNL     1      35.229  -7.844  19.446  1.00  0.00     0.023 A 
HETATM    8  C18 UNL     1      35.417  -7.996  20.784  1.00  0.00     0.015 A 
ENDROOT
BRANCH   1   9
HETATM    9  C11 UNL     1      35.120  -7.454  23.138  1.00  0.00     0.049 A 
HETATM   10  C7  UNL     1      34.277  -7.136  24.217  1.00  0.00    -0.024 A 
HETATM   11  C6  UNL     1      34.747  -7.293  25.499  1.00  0.00     0.012 A 
HETATM   12  C5  UNL     1      36.067  -7.777  25.718  1.00  0.00     0.027 A 
HETATM   13  C4  UNL     1      36.852  -8.074  24.667  1.00  0.00     0.027 A 
HETATM   14  N3  UNL     1      36.332  -7.902  23.430  1.00  0.00    -0.357 N 
ATOM     15  H3  UNL     1      36.935  -8.141  22.643  1.00  0.00     0.166 HD
BRANCH  10  16
HETATM   16  C8  UNL     1      32.862  -6.793  23.950  1.00  0.00     0.057 A 
HETATM   17  C9  UNL     1      31.723  -7.018  24.853  1.00  0.00     0.050 A 
HETATM   18  C10 UNL     1      31.946  -8.106  23.894  1.00  0.00     0.179 A 
HETATM   19  F1  UNL     1      31.120  -8.239  22.789  1.00  0.00    -0.249 F 
ENDBRANCH  10  16
BRANCH  13  20
HETATM   20  C3  UNL     1      38.327  -8.510  24.756  1.00  0.00     0.171 C 
BRANCH  20  21
HETATM   21  N1  UNL     1      38.240  -9.770  25.371  1.00  0.00    -0.412 N 
ATOM     22  H1  UNL     1      37.453 -10.384  25.163  1.00  0.00     0.153 HD
BRANCH  21  23
HETATM   23  C2  UNL     1      39.274 -10.204  26.306  1.00  0.00     0.077 C 
HETATM   24  C1  UNL     1      40.284  -9.106  26.454  1.00  0.00     0.032 C 
BRANCH  23  25
HETATM   25  C19 UNL     1      38.412 -10.368  27.607  1.00  0.00     0.007 C 
HETATM   26  C20 UNL     1      39.413 -10.721  28.682  1.00  0.00     0.006 C 
HETATM   27  C21 UNL     1      38.807 -11.217  29.956  1.00  0.00     0.000 C 
HETATM   28  C22 UNL     1      37.865 -12.383  29.626  1.00  0.00     0.000 C 
HETATM   29  C23 UNL     1      36.770 -11.729  28.806  1.00  0.00     0.000 C 
HETATM   30  C24 UNL     1      37.351 -11.410  27.454  1.00  0.00     0.006 C 
ENDBRANCH  23  25
ENDBRANCH  21  23
ENDBRANCH  20  21
ENDBRANCH  13  20
ENDBRANCH   1   9
TORSDOF 6
ENDMDL
MODEL 4
REMARK VINA RESULT: -8.924246867      2.403      3.659
REMARK  6 active torsions:
REMARK  status: ('A' for Active; 'I' for Inactive)
REMARK    1  A    between atoms: C2_2  and  N1_3 
REMARK    2  A    between atoms: C2_2  and  C19_25 
REMARK    3  A    between atoms: N1_3  and  C3_5 
REMARK    4  A    between atoms: C3_5  and  C4_6 
REMARK    5  A    between atoms: C7_9  and  C8_10 
REMARK    6  A    between atoms: C11_14  and  C12_15 
ROOT
HETATM    1  C12 UNL     1      33.716  -7.428  23.932  1.00  0.00    -0.009 A 
HETATM    2  C13 UNL     1      32.567  -8.026  23.575  1.00  0.00     0.015 A 
HETATM    3  C14 UNL     1      31.397  -7.839  24.335  1.00  0.00     0.023 A 
HETATM    4  C15 UNL     1      31.354  -7.057  25.454  1.00  0.00     0.044 A 
HETATM    5  C16 UNL     1      30.131  -6.852  26.228  1.00  0.00     0.099 C 
HETATM    6  N2  UNL     1      29.161  -6.718  26.840  1.00  0.00    -0.191 NA
HETATM    7  C17 UNL     1      32.539  -6.438  25.823  1.00  0.00     0.023 A 
HETATM    8  C18 UNL     1      33.679  -6.609  25.101  1.00  0.00     0.015 A 
ENDROOT
BRANCH   1   9
HETATM    9  C11 UNL     1      35.040  -7.495  23.287  1.00  0.00     0.049 A 
HETATM   10  C7  UNL     1      35.214  -7.604  21.897  1.00  0.00    -0.024 A 
HETATM   11  C6  UNL     1      36.471  -7.857  21.401  1.00  0.00     0.012 A 
HETATM   12  C5  UNL     1      37.572  -7.997  22.292  1.00  0.00     0.027 A 
HETATM   13  C4  UNL     1      37.376  -7.886  23.618  1.00  0.00     0.027 A 
HETATM   14  N3  UNL     1      36.117  -7.634  24.045  1.00  0.00    -0.357 N 
ATOM     15  H3  UNL     1      35.985  -7.543  25.052  1.00  0.00     0.166 HD
BRANCH  10  16
HETATM   16  C8  UNL     1      34.079  -7.291  21.000  1.00  0.00     0.057 A 
HETATM   17  C9  UNL     1      34.148  -6.563  19.724  1.00  0.00     0.050 A 
HETATM   18  C10 UNL     1      33.850  -5.710  20.881  1.00  0.00     0.179 A 
HETATM   19  F1  UNL     1      32.560  -5.252  21.093  1.00  0.00    -0.249 F 
ENDBRANCH  10  16
BRANCH  13  20
HETATM   20  C3  UNL     1      38.453  -8.113  24.696  1.00  0.00     0.171 C 
BRANCH  20  21
HETATM   21  N1  UNL     1      37.957  -9.223  25.399  1.00  0.00    -0.412 N 
ATOM     22  H1  UNL     1      36.954  -9.404  25.423  1.00  0.00     0.153 HD
BRANCH  21  23
HETATM   23  C2  UNL     1      38.874 -10.120  26.097  1.00  0.00     0.077 C 
HETATM   24  C1  UNL     1      40.167  -9.400  26.335  1.00  0.00     0.032 C 
BRANCH  23  25
HETATM   25  C19 UNL     1      38.082 -10.330  27.436  1.00  0.00     0.007 C 
HETATM   26  C20 UNL     1      39.154 -10.542  28.479  1.00  0.00     0.006 C 
HETATM   27  C21 UNL     1      38.650 -11.057  29.790  1.00  0.00     0.000 C 
HETATM   28  C22 UNL     1      37.826 -12.325  29.531  1.00  0.00     0.000 C 
HETATM   29  C23 UNL     1      36.638 -11.815  28.737  1.00  0.00     0.000 C 
HETATM   30  C24 UNL     1      37.132 -11.481  27.355  1.00  0.00     0.006 C 
ENDBRANCH  23  25
ENDBRANCH  21  23
ENDBRANCH  20  21
ENDBRANCH  13  20
ENDBRANCH   1   9
TORSDOF 6
ENDMDL
MODEL 5
REMARK VINA RESULT: -8.694861582      2.823      4.433
REMARK  6 active torsions:
REMARK  status: ('A' for Active; 'I' for Inactive)
REMARK    1  A    between atoms: C2_2  and  N1_3 
REMARK    2  A    between atoms: C2_2  and  C19_25 
REMARK    3  A    between atoms: N1_3  and  C3_5 
REMARK    4  A    between atoms: C3_5  and  C4_6 
REMARK    5  A    between atoms: C7_9  and  C8_10 
REMARK    6  A    between atoms: C11_14  and  C12_15 
ROOT
HETATM    1  C12 UNL     1      33.866  -7.153  22.035  1.00  0.00    -0.009 A 
HETATM    2  C13 UNL     1      33.355  -8.054  21.178  1.00  0.00     0.015 A 
HETATM    3  C14 UNL     1      32.959  -7.666  19.884  1.00  0.00     0.023 A 
HETATM    4  C15 UNL     1      33.067  -6.384  19.426  1.00  0.00     0.044 A 
HETATM    5  C16 UNL     1      32.672  -5.991  18.075  1.00  0.00     0.099 C 
HETATM    6  N2  UNL     1      32.334  -5.695  17.011  1.00  0.00    -0.191 NA
HETATM    7  C17 UNL     1      33.596  -5.453  20.309  1.00  0.00     0.023 A 
HETATM    8  C18 UNL     1      33.982  -5.811  21.563  1.00  0.00     0.015 A 
ENDROOT
BRANCH   1   9
HETATM    9  C11 UNL     1      34.331  -7.346  23.419  1.00  0.00     0.049 A 
HETATM   10  C7  UNL     1      33.594  -6.936  24.544  1.00  0.00    -0.024 A 
HETATM   11  C6  UNL     1      34.191  -6.977  25.782  1.00  0.00     0.012 A 
HETATM   12  C5  UNL     1      35.532  -7.436  25.911  1.00  0.00     0.027 A 
HETATM   13  C4  UNL     1      36.212  -7.824  24.817  1.00  0.00     0.027 A 
HETATM   14  N3  UNL     1      35.571  -7.763  23.628  1.00  0.00    -0.357 N 
ATOM     15  H3  UNL     1      36.096  -8.070  22.809  1.00  0.00     0.166 HD
BRANCH  10  16
HETATM   16  C8  UNL     1      32.157  -6.622  24.390  1.00  0.00     0.057 A 
HETATM   17  C9  UNL     1      31.084  -6.944  25.344  1.00  0.00     0.050 A 
HETATM   18  C10 UNL     1      31.276  -7.957  24.299  1.00  0.00     0.179 A 
HETATM   19  F1  UNL     1      30.385  -8.041  23.241  1.00  0.00    -0.249 F 
ENDBRANCH  10  16
BRANCH  13  20
HETATM   20  C3  UNL     1      37.694  -8.246  24.798  1.00  0.00     0.171 C 
BRANCH  20  21
HETATM   21  N1  UNL     1      37.640  -9.582  25.228  1.00  0.00    -0.412 N 
ATOM     22  H1  UNL     1      36.824 -10.154  25.010  1.00  0.00     0.153 HD
BRANCH  21  23
HETATM   23  C2  UNL     1      38.748 -10.155  25.985  1.00  0.00     0.077 C 
HETATM   24  C1  UNL     1      39.856  -9.148  26.059  1.00  0.00     0.032 C 
BRANCH  23  25
HETATM   25  C19 UNL     1      38.055 -10.346  27.380  1.00  0.00     0.007 C 
HETATM   26  C20 UNL     1      39.196 -10.584  28.340  1.00  0.00     0.006 C 
HETATM   27  C21 UNL     1      38.780 -11.086  29.686  1.00  0.00     0.000 C 
HETATM   28  C22 UNL     1      37.908 -12.333  29.493  1.00  0.00     0.000 C 
HETATM   29  C23 UNL     1      36.677 -11.794  28.789  1.00  0.00     0.000 C 
HETATM   30  C24 UNL     1      37.073 -11.473  27.374  1.00  0.00     0.006 C 
ENDBRANCH  23  25
ENDBRANCH  21  23
ENDBRANCH  20  21
ENDBRANCH  13  20
ENDBRANCH   1   9
TORSDOF 6
ENDMDL
