MODEL 1
REMARK VINA RESULT: -7.678635213      0.000      0.000
REMARK  10 active torsions:
REMARK  status: ('A' for Active; 'I' for Inactive)
REMARK    1  A    between atoms: C3_3  and  C4_4 
REMARK    2  A    between atoms: C5_5  and  C6_6 
REMARK    3  A    between atoms: C6_6  and  O2_8 
REMARK    4  A    between atoms: O2_8  and  C7_9 
REMARK    5  A    between atoms: C7_9  and  C8_10 
REMARK    6  A    between atoms: C8_10  and  C9_11 
REMARK    7  A    between atoms: C9_11  and  O3_12 
REMARK    8  A    between atoms: C13_17  and  O4_18 
REMARK    9  A    between atoms: C14_20  and  O5_21 
REMARK   10  A    between atoms: C21_29  and  O6_30 
ROOT
HETATM    1  C8  UNL     1       4.867 -26.620 -17.936  1.00  0.00     0.022 C 
HETATM    2  C10 UNL     1       4.085 -25.762 -18.892  1.00  0.00    -0.006 C 
HETATM    3  C11 UNL     1       3.088 -24.905 -18.686  1.00  0.00    -0.038 A 
HETATM    4  C12 UNL     1       1.996 -23.972 -18.415  1.00  0.00     0.088 A 
HETATM    5  C13 UNL     1       0.754 -24.438 -17.700  1.00  0.00     0.164 C 
HETATM    6  C14 UNL     1       0.613 -25.827 -17.293  1.00  0.00     0.085 C 
HETATM    7  C15 UNL     1       0.569 -26.105 -15.790  1.00  0.00     0.041 C 
HETATM    8  C16 UNL     1       1.860 -26.875 -15.439  1.00  0.00     0.013 C 
HETATM    9  C17 UNL     1       2.690 -26.454 -16.686  1.00  0.00    -0.033 C 
HETATM   10  C18 UNL     1       3.962 -27.154 -16.833  1.00  0.00     0.027 C 
HETATM   11  C19 UNL     1       1.677 -26.825 -17.651  1.00  0.00     0.050 C 
HETATM   12  C20 UNL     1       2.929 -25.030 -16.325  1.00  0.00     0.053 C 
HETATM   13  C21 UNL     1       3.082 -24.094 -17.435  1.00  0.00     0.092 A 
ENDROOT
BRANCH   1  14
HETATM   14  C7  UNL     1       5.224 -27.847 -18.740  1.00  0.00     0.194 C 
BRANCH  14  15
HETATM   15  O2  UNL     1       4.363 -28.822 -19.041  1.00  0.00    -0.317 OA
BRANCH  15  16
HETATM   16  C6  UNL     1       3.635 -29.104 -20.189  1.00  0.00     0.282 C 
HETATM   17  O1  UNL     1       3.467 -28.156 -20.986  1.00  0.00    -0.260 OA
BRANCH  16  18
HETATM   18  C5  UNL     1       3.108 -30.442 -20.429  1.00  0.00     0.082 C 
HETATM   19  C4  UNL     1       2.115 -30.962 -19.830  1.00  0.00     0.006 C 
BRANCH  19  20
HETATM   20  C3  UNL     1       1.279 -30.398 -18.802  1.00  0.00    -0.004 C 
HETATM   21  C2  UNL     1       1.415 -30.786 -17.519  1.00  0.00    -0.031 C 
HETATM   22  C1  UNL     1       0.554 -30.196 -16.500  1.00  0.00     0.036 C 
ENDBRANCH  19  20
ENDBRANCH  16  18
ENDBRANCH  15  16
ENDBRANCH  14  15
ENDBRANCH   1  14
BRANCH   1  23
HETATM   23  C9  UNL     1       6.033 -25.897 -17.420  1.00  0.00     0.179 C 
BRANCH  23  24
HETATM   24  O3  UNL     1       7.263 -26.573 -17.615  1.00  0.00    -0.400 OA
ATOM     25  H3  UNL     1       7.902 -26.077 -18.113  1.00  0.00     0.209 HD
ENDBRANCH  23  24
ENDBRANCH   1  23
BRANCH  13  26
HETATM   26  O6  UNL     1       3.972 -23.024 -17.300  1.00  0.00    -0.384 OA
ATOM     27  H6  UNL     1       3.719 -22.263 -16.790  1.00  0.00     0.211 HD
ENDBRANCH  13  26
BRANCH   5  28
HETATM   28  O4  UNL     1      -0.331 -24.077 -18.506  1.00  0.00    -0.392 OA
ATOM     29  H4  UNL     1      -1.115 -24.254 -18.000  1.00  0.00     0.210 HD
ENDBRANCH   5  28
BRANCH   6  30
HETATM   30  O5  UNL     1      -0.593 -26.400 -17.797  1.00  0.00    -0.387 OA
ATOM     31  H5  UNL     1      -1.156 -26.701 -17.093  1.00  0.00     0.210 HD
ENDBRANCH   6  30
TORSDOF 10
ENDMDL
MODEL 2
REMARK VINA RESULT: -7.517860967      1.917      2.625
REMARK  10 active torsions:
REMARK  status: ('A' for Active; 'I' for Inactive)
REMARK    1  A    between atoms: C3_3  and  C4_4 
REMARK    2  A    between atoms: C5_5  and  C6_6 
REMARK    3  A    between atoms: C6_6  and  O2_8 
REMARK    4  A    between atoms: O2_8  and  C7_9 
REMARK    5  A    between atoms: C7_9  and  C8_10 
REMARK    6  A    between atoms: C8_10  and  C9_11 
REMARK    7  A    between atoms: C9_11  and  O3_12 
REMARK    8  A    between atoms: C13_17  and  O4_18 
REMARK    9  A    between atoms: C14_20  and  O5_21 
REMARK   10  A    between atoms: C21_29  and  O6_30 
ROOT
HETATM    1  C8  UNL     1       4.025 -25.500 -17.235  1.00  0.00     0.022 C 
HETATM    2  C10 UNL     1       4.043 -24.038 -16.883  1.00  0.00    -0.006 C 
HETATM    3  C11 UNL     1       3.326 -23.337 -16.008  1.00  0.00    -0.038 A 
HETATM    4  C12 UNL     1       2.517 -22.607 -15.033  1.00  0.00     0.088 A 
HETATM    5  C13 UNL     1       1.013 -22.647 -15.107  1.00  0.00     0.164 C 
HETATM    6  C14 UNL     1       0.344 -23.390 -16.164  1.00  0.00     0.085 C 
HETATM    7  C15 UNL     1      -0.482 -24.604 -15.737  1.00  0.00     0.041 C 
HETATM    8  C16 UNL     1       0.239 -25.852 -16.290  1.00  0.00     0.013 C 
HETATM    9  C17 UNL     1       1.640 -25.204 -16.488  1.00  0.00    -0.033 C 
HETATM   10  C18 UNL     1       2.600 -26.040 -17.201  1.00  0.00     0.027 C 
HETATM   11  C19 UNL     1       1.154 -24.063 -17.234  1.00  0.00     0.050 C 
HETATM   12  C20 UNL     1       2.033 -25.081 -15.057  1.00  0.00     0.053 C 
HETATM   13  C21 UNL     1       2.931 -23.981 -14.722  1.00  0.00     0.092 A 
ENDROOT
BRANCH   1  14
HETATM   14  C7  UNL     1       4.394 -25.538 -18.698  1.00  0.00     0.194 C 
BRANCH  14  15
HETATM   15  O2  UNL     1       3.775 -26.293 -19.608  1.00  0.00    -0.317 OA
BRANCH  15  16
HETATM   16  C6  UNL     1       4.124 -27.487 -20.225  1.00  0.00     0.282 C 
HETATM   17  O1  UNL     1       4.158 -27.476 -21.474  1.00  0.00    -0.260 OA
BRANCH  16  18
HETATM   18  C5  UNL     1       4.430 -28.673 -19.435  1.00  0.00     0.082 C 
HETATM   19  C4  UNL     1       3.621 -29.620 -19.181  1.00  0.00     0.006 C 
BRANCH  19  20
HETATM   20  C3  UNL     1       2.246 -29.771 -19.586  1.00  0.00    -0.004 C 
HETATM   21  C2  UNL     1       1.764 -30.979 -19.935  1.00  0.00    -0.031 C 
HETATM   22  C1  UNL     1       0.367 -31.100 -20.340  1.00  0.00     0.036 C 
ENDBRANCH  19  20
ENDBRANCH  16  18
ENDBRANCH  15  16
ENDBRANCH  14  15
ENDBRANCH   1  14
BRANCH   1  23
HETATM   23  C9  UNL     1       4.943 -26.255 -16.377  1.00  0.00     0.179 C 
BRANCH  23  24
HETATM   24  O3  UNL     1       6.268 -26.325 -16.874  1.00  0.00    -0.400 OA
ATOM     25  H3  UNL     1       6.931 -26.401 -16.197  1.00  0.00     0.209 HD
ENDBRANCH  23  24
ENDBRANCH   1  23
BRANCH  13  26
HETATM   26  O6  UNL     1       3.889 -24.170 -13.721  1.00  0.00    -0.384 OA
ATOM     27  H6  UNL     1       3.610 -24.286 -12.820  1.00  0.00     0.211 HD
ENDBRANCH  13  26
BRANCH   5  28
HETATM   28  O4  UNL     1       0.578 -21.317 -15.128  1.00  0.00    -0.392 OA
ATOM     29  H4  UNL     1      -0.195 -21.276 -14.578  1.00  0.00     0.210 HD
ENDBRANCH   5  28
BRANCH   6  30
HETATM   30  O5  UNL     1      -0.575 -22.568 -16.881  1.00  0.00    -0.387 OA
ATOM     31  H5  UNL     1      -0.749 -22.914 -17.749  1.00  0.00     0.210 HD
ENDBRANCH   6  30
TORSDOF 10
ENDMDL
MODEL 3
REMARK VINA RESULT: -7.488538120      2.013      2.662
REMARK  10 active torsions:
REMARK  status: ('A' for Active; 'I' for Inactive)
REMARK    1  A    between atoms: C3_3  and  C4_4 
REMARK    2  A    between atoms: C5_5  and  C6_6 
REMARK    3  A    between atoms: C6_6  and  O2_8 
REMARK    4  A    between atoms: O2_8  and  C7_9 
REMARK    5  A    between atoms: C7_9  and  C8_10 
REMARK    6  A    between atoms: C8_10  and  C9_11 
REMARK    7  A    between atoms: C9_11  and  O3_12 
REMARK    8  A    between atoms: C13_17  and  O4_18 
REMARK    9  A    between atoms: C14_20  and  O5_21 
REMARK   10  A    between atoms: C21_29  and  O6_30 
ROOT
HETATM    1  C8  UNL     1       3.313 -25.050 -17.304  1.00  0.00     0.022 C 
HETATM    2  C10 UNL     1       2.743 -23.913 -18.106  1.00  0.00    -0.006 C 
HETATM    3  C11 UNL     1       2.159 -22.778 -17.728  1.00  0.00    -0.038 A 
HETATM    4  C12 UNL     1       1.526 -21.544 -17.267  1.00  0.00     0.088 A 
HETATM    5  C13 UNL     1       0.331 -21.595 -16.352  1.00  0.00     0.164 C 
HETATM    6  C14 UNL     1      -0.226 -22.873 -15.935  1.00  0.00     0.085 C 
HETATM    7  C15 UNL     1      -0.127 -23.217 -14.448  1.00  0.00     0.041 C 
HETATM    8  C16 UNL     1       0.847 -24.408 -14.329  1.00  0.00     0.013 C 
HETATM    9  C17 UNL     1       1.563 -24.221 -15.697  1.00  0.00    -0.033 C 
HETATM   10  C18 UNL     1       2.465 -25.308 -16.065  1.00  0.00     0.027 C 
HETATM   11  C19 UNL     1       0.345 -24.152 -16.475  1.00  0.00     0.050 C 
HETATM   12  C20 UNL     1       2.345 -22.995 -15.375  1.00  0.00     0.053 C 
HETATM   13  C21 UNL     1       2.640 -22.100 -16.490  1.00  0.00     0.092 A 
ENDROOT
BRANCH   1  14
HETATM   14  C7  UNL     1       3.080 -26.268 -18.164  1.00  0.00     0.194 C 
BRANCH  14  15
HETATM   15  O2  UNL     1       3.442 -26.362 -19.446  1.00  0.00    -0.317 OA
BRANCH  15  16
HETATM   16  C6  UNL     1       4.020 -27.390 -20.180  1.00  0.00     0.282 C 
HETATM   17  O1  UNL     1       4.139 -27.195 -21.408  1.00  0.00    -0.260 OA
BRANCH  16  18
HETATM   18  C5  UNL     1       4.457 -28.618 -19.528  1.00  0.00     0.082 C 
HETATM   19  C4  UNL     1       3.815 -29.716 -19.517  1.00  0.00     0.006 C 
BRANCH  19  20
HETATM   20  C3  UNL     1       2.543 -30.029 -20.117  1.00  0.00    -0.004 C 
HETATM   21  C2  UNL     1       1.730 -30.947 -19.560  1.00  0.00    -0.031 C 
HETATM   22  C1  UNL     1       0.448 -31.242 -20.190  1.00  0.00     0.036 C 
ENDBRANCH  19  20
ENDBRANCH  16  18
ENDBRANCH  15  16
ENDBRANCH  14  15
ENDBRANCH   1  14
BRANCH   1  23
HETATM   23  C9  UNL     1       4.725 -24.812 -16.992  1.00  0.00     0.179 C 
BRANCH  23  24
HETATM   24  O3  UNL     1       5.608 -25.095 -18.065  1.00  0.00    -0.400 OA
ATOM     25  H3  UNL     1       6.470 -25.382 -17.789  1.00  0.00     0.209 HD
ENDBRANCH  23  24
ENDBRANCH   1  23
BRANCH  13  26
HETATM   26  O6  UNL     1       3.860 -21.417 -16.504  1.00  0.00    -0.384 OA
ATOM     27  H6  UNL     1       4.330 -21.276 -15.690  1.00  0.00     0.211 HD
ENDBRANCH  13  26
BRANCH   5  28
HETATM   28  O4  UNL     1      -0.670 -20.828 -16.957  1.00  0.00    -0.392 OA
ATOM     29  H4  UNL     1      -1.499 -21.226 -16.719  1.00  0.00     0.210 HD
ENDBRANCH   5  28
BRANCH   6  30
HETATM   30  O5  UNL     1      -1.620 -22.957 -16.227  1.00  0.00    -0.387 OA
ATOM     31  H5  UNL     1      -2.042 -23.641 -15.720  1.00  0.00     0.210 HD
ENDBRANCH   6  30
TORSDOF 10
ENDMDL
MODEL 4
REMARK VINA RESULT: -7.424095824      1.981      2.572
REMARK  10 active torsions:
REMARK  status: ('A' for Active; 'I' for Inactive)
REMARK    1  A    between atoms: C3_3  and  C4_4 
REMARK    2  A    between atoms: C5_5  and  C6_6 
REMARK    3  A    between atoms: C6_6  and  O2_8 
REMARK    4  A    between atoms: O2_8  and  C7_9 
REMARK    5  A    between atoms: C7_9  and  C8_10 
REMARK    6  A    between atoms: C8_10  and  C9_11 
REMARK    7  A    between atoms: C9_11  and  O3_12 
REMARK    8  A    between atoms: C13_17  and  O4_18 
REMARK    9  A    between atoms: C14_20  and  O5_21 
REMARK   10  A    between atoms: C21_29  and  O6_30 
ROOT
HETATM    1  C8  UNL     1       3.278 -26.109 -18.290  1.00  0.00     0.022 C 
HETATM    2  C10 UNL     1       2.054 -25.239 -18.215  1.00  0.00    -0.006 C 
HETATM    3  C11 UNL     1       1.811 -24.123 -17.532  1.00  0.00    -0.038 A 
HETATM    4  C12 UNL     1       1.589 -22.899 -16.765  1.00  0.00     0.088 A 
HETATM    5  C13 UNL     1       1.778 -22.890 -15.270  1.00  0.00     0.164 C 
HETATM    6  C14 UNL     1       2.159 -24.105 -14.566  1.00  0.00     0.085 C 
HETATM    7  C15 UNL     1       3.535 -24.112 -13.898  1.00  0.00     0.041 C 
HETATM    8  C16 UNL     1       4.399 -25.134 -14.666  1.00  0.00     0.013 C 
HETATM    9  C17 UNL     1       3.562 -25.161 -15.977  1.00  0.00    -0.033 C 
HETATM   10  C18 UNL     1       3.959 -26.193 -16.930  1.00  0.00     0.027 C 
HETATM   11  C19 UNL     1       2.294 -25.396 -15.319  1.00  0.00     0.050 C 
HETATM   12  C20 UNL     1       3.923 -23.815 -16.501  1.00  0.00     0.053 C 
HETATM   13  C21 UNL     1       2.922 -23.149 -17.327  1.00  0.00     0.092 A 
ENDROOT
BRANCH   1  14
HETATM   14  C7  UNL     1       2.736 -27.500 -18.512  1.00  0.00     0.194 C 
BRANCH  14  15
HETATM   15  O2  UNL     1       2.788 -28.149 -19.678  1.00  0.00    -0.317 OA
BRANCH  15  16
HETATM   16  C6  UNL     1       3.523 -29.248 -20.103  1.00  0.00     0.282 C 
HETATM   17  O1  UNL     1       4.749 -29.221 -19.864  1.00  0.00    -0.260 OA
BRANCH  16  18
HETATM   18  C5  UNL     1       2.874 -30.359 -20.787  1.00  0.00     0.082 C 
HETATM   19  C4  UNL     1       2.008 -31.137 -20.276  1.00  0.00     0.006 C 
BRANCH  19  20
HETATM   20  C3  UNL     1       1.457 -31.130 -18.945  1.00  0.00    -0.004 C 
HETATM   21  C2  UNL     1       0.659 -32.133 -18.528  1.00  0.00    -0.031 C 
HETATM   22  C1  UNL     1       0.118 -32.098 -17.174  1.00  0.00     0.036 C 
ENDBRANCH  19  20
ENDBRANCH  16  18
ENDBRANCH  15  16
ENDBRANCH  14  15
ENDBRANCH   1  14
BRANCH   1  23
HETATM   23  C9  UNL     1       4.178 -25.653 -19.354  1.00  0.00     0.179 C 
BRANCH  23  24
HETATM   24  O3  UNL     1       3.580 -24.749 -20.266  1.00  0.00    -0.400 OA
ATOM     25  H3  UNL     1       3.089 -25.171 -20.962  1.00  0.00     0.209 HD
ENDBRANCH  23  24
ENDBRANCH   1  23
BRANCH  13  26
HETATM   26  O6  UNL     1       3.347 -22.352 -18.395  1.00  0.00    -0.384 OA
ATOM     27  H6  UNL     1       4.038 -21.714 -18.259  1.00  0.00     0.211 HD
ENDBRANCH  13  26
BRANCH   5  28
HETATM   28  O4  UNL     1       0.595 -22.386 -14.720  1.00  0.00    -0.392 OA
ATOM     29  H4  UNL     1       0.736 -22.322 -13.783  1.00  0.00     0.210 HD
ENDBRANCH   5  28
BRANCH   6  30
HETATM   30  O5  UNL     1       1.248 -24.405 -13.510  1.00  0.00    -0.387 OA
ATOM     31  H5  UNL     1       1.689 -24.438 -12.669  1.00  0.00     0.210 HD
ENDBRANCH   6  30
TORSDOF 10
ENDMDL
MODEL 5
REMARK VINA RESULT: -7.408653527      2.670      5.673
REMARK  10 active torsions:
REMARK  status: ('A' for Active; 'I' for Inactive)
REMARK    1  A    between atoms: C3_3  and  C4_4 
REMARK    2  A    between atoms: C5_5  and  C6_6 
REMARK    3  A    between atoms: C6_6  and  O2_8 
REMARK    4  A    between atoms: O2_8  and  C7_9 
REMARK    5  A    between atoms: C7_9  and  C8_10 
REMARK    6  A    between atoms: C8_10  and  C9_11 
REMARK    7  A    between atoms: C9_11  and  O3_12 
REMARK    8  A    between atoms: C13_17  and  O4_18 
REMARK    9  A    between atoms: C14_20  and  O5_21 
REMARK   10  A    between atoms: C21_29  and  O6_30 
ROOT
HETATM    1  C8  UNL     1       3.397 -24.052 -15.836  1.00  0.00     0.022 C 
HETATM    2  C10 UNL     1       4.557 -24.711 -16.529  1.00  0.00    -0.006 C 
HETATM    3  C11 UNL     1       4.602 -25.541 -17.569  1.00  0.00    -0.038 A 
HETATM    4  C12 UNL     1       4.603 -26.449 -18.714  1.00  0.00     0.088 A 
HETATM    5  C13 UNL     1       3.804 -27.725 -18.678  1.00  0.00     0.164 C 
HETATM    6  C14 UNL     1       3.040 -28.085 -17.493  1.00  0.00     0.085 C 
HETATM    7  C15 UNL     1       1.518 -28.123 -17.639  1.00  0.00     0.041 C 
HETATM    8  C16 UNL     1       0.958 -26.969 -16.780  1.00  0.00     0.013 C 
HETATM    9  C17 UNL     1       2.262 -26.124 -16.703  1.00  0.00    -0.033 C 
HETATM   10  C18 UNL     1       2.201 -24.995 -15.781  1.00  0.00     0.027 C 
HETATM   11  C19 UNL     1       3.104 -27.219 -16.268  1.00  0.00     0.050 C 
HETATM   12  C20 UNL     1       2.296 -25.635 -18.108  1.00  0.00     0.053 C 
HETATM   13  C21 UNL     1       3.614 -25.365 -18.672  1.00  0.00     0.092 A 
ENDROOT
BRANCH   1  14
HETATM   14  C7  UNL     1       3.837 -23.937 -14.397  1.00  0.00     0.194 C 
BRANCH  14  15
HETATM   15  O2  UNL     1       3.302 -24.633 -13.391  1.00  0.00    -0.317 OA
BRANCH  15  16
HETATM   16  C6  UNL     1       3.843 -25.542 -12.493  1.00  0.00     0.282 C 
HETATM   17  O1  UNL     1       3.928 -25.165 -11.304  1.00  0.00    -0.260 OA
BRANCH  16  18
HETATM   18  C5  UNL     1       4.281 -26.860 -12.937  1.00  0.00     0.082 C 
HETATM   19  C4  UNL     1       5.404 -27.123 -13.473  1.00  0.00     0.006 C 
BRANCH  19  20
HETATM   20  C3  UNL     1       6.496 -26.233 -13.771  1.00  0.00    -0.004 C 
HETATM   21  C2  UNL     1       7.753 -26.541 -13.396  1.00  0.00    -0.031 C 
HETATM   22  C1  UNL     1       8.839 -25.620 -13.714  1.00  0.00     0.036 C 
ENDBRANCH  19  20
ENDBRANCH  16  18
ENDBRANCH  15  16
ENDBRANCH  14  15
ENDBRANCH   1  14
BRANCH   1  23
HETATM   23  C9  UNL     1       3.081 -22.763 -16.459  1.00  0.00     0.179 C 
BRANCH  23  24
HETATM   24  O3  UNL     1       4.136 -22.225 -17.237  1.00  0.00    -0.400 OA
ATOM     25  H3  UNL     1       4.015 -22.326 -18.174  1.00  0.00     0.209 HD
ENDBRANCH  23  24
ENDBRANCH   1  23
BRANCH  13  26
HETATM   26  O6  UNL     1       3.762 -24.303 -19.570  1.00  0.00    -0.384 OA
ATOM     27  H6  UNL     1       3.413 -24.379 -20.450  1.00  0.00     0.211 HD
ENDBRANCH  13  26
BRANCH   5  28
HETATM   28  O4  UNL     1       4.690 -28.762 -18.992  1.00  0.00    -0.392 OA
ATOM     29  H4  UNL     1       4.837 -29.246 -18.188  1.00  0.00     0.210 HD
ENDBRANCH   5  28
BRANCH   6  30
HETATM   30  O5  UNL     1       3.385 -29.388 -17.024  1.00  0.00    -0.387 OA
ATOM     31  H5  UNL     1       3.034 -29.550 -16.156  1.00  0.00     0.210 HD
ENDBRANCH   6  30
TORSDOF 10
ENDMDL
