MODEL 1
REMARK VINA RESULT: -6.800654487      0.000      0.000
REMARK  8 active torsions:
REMARK  status: ('A' for Active; 'I' for Inactive)
REMARK    1  A    between atoms: C1_2  and  O2_3 
REMARK    2  A    between atoms: C1_2  and  C9_19 
REMARK    3  A    between atoms: O2_3  and  C2_4 
REMARK    4  A    between atoms: C2_4  and  C3_5 
REMARK    5  A    between atoms: C5_8  and  O3_9 
REMARK    6  A    between atoms: C5_8  and  C6_11 
REMARK    7  A    between atoms: C6_11  and  O4_12 
REMARK    8  A    between atoms: C7_14  and  C8_15 
ROOT
HETATM    1  C2  UNL     1       1.654  -1.995  -2.205  1.00  0.00     0.211 C 
ENDROOT
BRANCH   1   2
HETATM    2  O2  UNL     1       2.293  -2.765  -1.294  1.00  0.00    -0.315 OA
BRANCH   2   3
HETATM    3  C1  UNL     1       2.740  -4.004  -1.134  1.00  0.00     0.293 C 
HETATM    4  O1  UNL     1       2.049  -4.855  -0.570  1.00  0.00    -0.259 OA
BRANCH   3   5
HETATM    5  C9  UNL     1       4.074  -4.457  -1.605  1.00  0.00     0.040 A 
HETATM    6  C10 UNL     1       4.174  -5.380  -2.614  1.00  0.00     0.018 A 
HETATM    7  C11 UNL     1       5.421  -5.781  -3.029  1.00  0.00     0.013 A 
HETATM    8  C12 UNL     1       6.578  -5.283  -2.463  1.00  0.00    -0.025 A 
HETATM    9  C13 UNL     1       7.825  -5.696  -2.891  1.00  0.00     0.031 A 
HETATM   10  C17 UNL     1       6.490  -4.342  -1.433  1.00  0.00    -0.025 A 
HETATM   11  C14 UNL     1       8.948  -5.172  -2.296  1.00  0.00     0.011 A 
HETATM   12 BR1  UNL     1      10.669  -5.729  -2.875  1.00  0.00    -0.051 Br
HETATM   13  C15 UNL     1       8.856  -4.234  -1.272  1.00  0.00     0.020 A 
HETATM   14  C16 UNL     1       7.618  -3.830  -0.852  1.00  0.00     0.013 A 
HETATM   15  C18 UNL     1       5.219  -3.957  -1.036  1.00  0.00     0.030 A 
ENDBRANCH   3   5
ENDBRANCH   2   3
ENDBRANCH   1   2
BRANCH   1  16
HETATM   16  C3  UNL     1       2.422  -1.010  -3.041  1.00  0.00     0.156 C 
HETATM   17  C4  UNL     1       3.475  -1.647  -3.865  1.00  0.00     0.111 C 
HETATM   18  S1  UNL     1       5.084  -0.888  -3.466  1.00  0.00    -0.124 SA
HETATM   19  C5  UNL     1       4.702   0.921  -3.421  1.00  0.00     0.163 C 
HETATM   20  C7  UNL     1       3.375   1.138  -2.784  1.00  0.00     0.269 C 
HETATM   21  O7  UNL     1       2.756   0.047  -2.257  1.00  0.00    -0.363 OA
BRANCH  19  22
HETATM   22  O3  UNL     1       5.781   1.449  -2.673  1.00  0.00    -0.374 OA
ATOM     23  H3  UNL     1       5.691   2.386  -2.808  1.00  0.00     0.211 HD
ENDBRANCH  19  22
BRANCH  19  24
HETATM   24  C6  UNL     1       4.864   1.467  -4.809  1.00  0.00     0.216 C 
BRANCH  24  25
HETATM   25  O4  UNL     1       6.162   1.818  -5.135  1.00  0.00    -0.397 OA
ATOM     26  H4  UNL     1       6.423   1.577  -6.017  1.00  0.00     0.209 HD
ENDBRANCH  24  25
ENDBRANCH  19  24
BRANCH  20  27
HETATM   27  C8  UNL     1       2.449   2.028  -3.547  1.00  0.00     0.207 C 
HETATM   28  O5  UNL     1       2.330   3.258  -3.273  1.00  0.00    -0.646 OA
HETATM   29  O6  UNL     1       1.655   1.605  -4.599  1.00  0.00    -0.646 OA
ENDBRANCH  20  27
ENDBRANCH   1  16
TORSDOF 8
ENDMDL
MODEL 2
REMARK VINA RESULT: -6.791657872      4.198      7.252
REMARK  8 active torsions:
REMARK  status: ('A' for Active; 'I' for Inactive)
REMARK    1  A    between atoms: C1_2  and  O2_3 
REMARK    2  A    between atoms: C1_2  and  C9_19 
REMARK    3  A    between atoms: O2_3  and  C2_4 
REMARK    4  A    between atoms: C2_4  and  C3_5 
REMARK    5  A    between atoms: C5_8  and  O3_9 
REMARK    6  A    between atoms: C5_8  and  C6_11 
REMARK    7  A    between atoms: C6_11  and  O4_12 
REMARK    8  A    between atoms: C7_14  and  C8_15 
ROOT
HETATM    1  C2  UNL     1       4.543  -2.028  -3.549  1.00  0.00     0.211 C 
ENDROOT
BRANCH   1   2
HETATM    2  O2  UNL     1       4.250  -1.436  -4.730  1.00  0.00    -0.315 OA
BRANCH   2   3
HETATM    3  C1  UNL     1       4.261  -0.242  -5.308  1.00  0.00     0.293 C 
HETATM    4  O1  UNL     1       3.225   0.419  -5.409  1.00  0.00    -0.259 OA
BRANCH   3   5
HETATM    5  C9  UNL     1       5.488   0.382  -5.866  1.00  0.00     0.040 A 
HETATM    6  C10 UNL     1       5.746   1.712  -5.655  1.00  0.00     0.018 A 
HETATM    7  C11 UNL     1       6.888   2.263  -6.184  1.00  0.00     0.013 A 
HETATM    8  C12 UNL     1       7.787   1.518  -6.923  1.00  0.00    -0.025 A 
HETATM    9  C13 UNL     1       8.932   2.085  -7.448  1.00  0.00     0.031 A 
HETATM   10  C17 UNL     1       7.536   0.161  -7.146  1.00  0.00    -0.025 A 
HETATM   11  C14 UNL     1       9.796   1.305  -8.178  1.00  0.00     0.011 A 
HETATM   12 BR1  UNL     1      11.374   2.070  -8.906  1.00  0.00    -0.051 Br
HETATM   13  C15 UNL     1       9.543  -0.047  -8.397  1.00  0.00     0.020 A 
HETATM   14  C16 UNL     1       8.408  -0.603  -7.874  1.00  0.00     0.013 A 
HETATM   15  C18 UNL     1       6.377  -0.365  -6.600  1.00  0.00     0.030 A 
ENDBRANCH   3   5
ENDBRANCH   2   3
ENDBRANCH   1   2
BRANCH   1  16
HETATM   16  C3  UNL     1       5.755  -2.908  -3.417  1.00  0.00     0.156 C 
HETATM   17  C4  UNL     1       5.580  -4.231  -4.060  1.00  0.00     0.111 C 
HETATM   18  S1  UNL     1       5.858  -5.537  -2.818  1.00  0.00    -0.124 SA
HETATM   19  C5  UNL     1       7.377  -4.964  -1.930  1.00  0.00     0.163 C 
HETATM   20  C7  UNL     1       7.325  -3.488  -1.749  1.00  0.00     0.269 C 
HETATM   21  O7  UNL     1       6.181  -2.858  -2.130  1.00  0.00    -0.363 OA
BRANCH  19  22
HETATM   22  O3  UNL     1       7.317  -5.686  -0.714  1.00  0.00    -0.374 OA
ATOM     23  H3  UNL     1       6.647  -6.337  -0.890  1.00  0.00     0.211 HD
ENDBRANCH  19  22
BRANCH  19  24
HETATM   24  C6  UNL     1       8.573  -5.498  -2.661  1.00  0.00     0.216 C 
BRANCH  24  25
HETATM   25  O4  UNL     1       8.301  -6.564  -3.498  1.00  0.00    -0.397 OA
ATOM     26  H4  UNL     1       7.747  -7.234  -3.114  1.00  0.00     0.209 HD
ENDBRANCH  24  25
ENDBRANCH  19  24
BRANCH  20  27
HETATM   27  C8  UNL     1       8.562  -2.761  -2.161  1.00  0.00     0.207 C 
HETATM   28  O5  UNL     1       9.309  -2.184  -1.318  1.00  0.00    -0.646 OA
HETATM   29  O6  UNL     1       9.001  -2.652  -3.470  1.00  0.00    -0.646 OA
ENDBRANCH  20  27
ENDBRANCH   1  16
TORSDOF 8
ENDMDL
MODEL 3
REMARK VINA RESULT: -6.768505082      5.066      7.784
REMARK  8 active torsions:
REMARK  status: ('A' for Active; 'I' for Inactive)
REMARK    1  A    between atoms: C1_2  and  O2_3 
REMARK    2  A    between atoms: C1_2  and  C9_19 
REMARK    3  A    between atoms: O2_3  and  C2_4 
REMARK    4  A    between atoms: C2_4  and  C3_5 
REMARK    5  A    between atoms: C5_8  and  O3_9 
REMARK    6  A    between atoms: C5_8  and  C6_11 
REMARK    7  A    between atoms: C6_11  and  O4_12 
REMARK    8  A    between atoms: C7_14  and  C8_15 
ROOT
HETATM    1  C2  UNL     1       6.148  -4.344  -5.201  1.00  0.00     0.211 C 
ENDROOT
BRANCH   1   2
HETATM    2  O2  UNL     1       5.529  -3.206  -5.594  1.00  0.00    -0.315 OA
BRANCH   2   3
HETATM    3  C1  UNL     1       5.761  -1.905  -5.716  1.00  0.00     0.293 C 
HETATM    4  O1  UNL     1       5.259  -1.099  -4.929  1.00  0.00    -0.259 OA
BRANCH   3   5
HETATM    5  C9  UNL     1       6.618  -1.327  -6.782  1.00  0.00     0.040 A 
HETATM    6  C10 UNL     1       6.534  -1.797  -8.068  1.00  0.00     0.018 A 
HETATM    7  C11 UNL     1       7.339  -1.243  -9.034  1.00  0.00     0.013 A 
HETATM    8  C12 UNL     1       8.232  -0.227  -8.751  1.00  0.00    -0.025 A 
HETATM    9  C13 UNL     1       9.035   0.320  -9.733  1.00  0.00     0.031 A 
HETATM   10  C17 UNL     1       8.328   0.260  -7.444  1.00  0.00    -0.025 A 
HETATM   11  C14 UNL     1       9.909   1.328  -9.404  1.00  0.00     0.011 A 
HETATM   12 BR1  UNL     1      11.018   2.090 -10.743  1.00  0.00    -0.051 Br
HETATM   13  C15 UNL     1      10.001   1.811  -8.102  1.00  0.00     0.020 A 
HETATM   14  C16 UNL     1       9.202   1.266  -7.134  1.00  0.00     0.013 A 
HETATM   15  C18 UNL     1       7.503  -0.318  -6.493  1.00  0.00     0.030 A 
ENDBRANCH   3   5
ENDBRANCH   2   3
ENDBRANCH   1   2
BRANCH   1  16
HETATM   16  C3  UNL     1       6.767  -4.443  -3.835  1.00  0.00     0.156 C 
HETATM   17  C4  UNL     1       5.851  -4.013  -2.753  1.00  0.00     0.111 C 
HETATM   18  S1  UNL     1       6.638  -2.668  -1.806  1.00  0.00    -0.124 SA
HETATM   19  C5  UNL     1       8.372  -3.271  -1.572  1.00  0.00     0.163 C 
HETATM   20  C7  UNL     1       8.840  -3.947  -2.812  1.00  0.00     0.269 C 
HETATM   21  O7  UNL     1       8.012  -3.903  -3.891  1.00  0.00    -0.363 OA
BRANCH  19  22
HETATM   22  O3  UNL     1       9.078  -2.080  -1.278  1.00  0.00    -0.374 OA
ATOM     23  H3  UNL     1       9.976  -2.382  -1.204  1.00  0.00     0.211 HD
ENDBRANCH  19  22
BRANCH  19  24
HETATM   24  C6  UNL     1       8.415  -4.090  -0.317  1.00  0.00     0.216 C 
BRANCH  24  25
HETATM   25  O4  UNL     1       7.584  -3.634   0.691  1.00  0.00    -0.397 OA
ATOM     26  H4  UNL     1       6.896  -4.242   0.937  1.00  0.00     0.209 HD
ENDBRANCH  24  25
ENDBRANCH  19  24
BRANCH  20  27
HETATM   27  C8  UNL     1       9.457  -5.290  -2.600  1.00  0.00     0.207 C 
HETATM   28  O5  UNL     1      10.689  -5.424  -2.341  1.00  0.00    -0.646 OA
HETATM   29  O6  UNL     1       8.761  -6.486  -2.662  1.00  0.00    -0.646 OA
ENDBRANCH  20  27
ENDBRANCH   1  16
TORSDOF 8
ENDMDL
MODEL 4
REMARK VINA RESULT: -6.722979325      5.209      7.867
REMARK  8 active torsions:
REMARK  status: ('A' for Active; 'I' for Inactive)
REMARK    1  A    between atoms: C1_2  and  O2_3 
REMARK    2  A    between atoms: C1_2  and  C9_19 
REMARK    3  A    between atoms: O2_3  and  C2_4 
REMARK    4  A    between atoms: C2_4  and  C3_5 
REMARK    5  A    between atoms: C5_8  and  O3_9 
REMARK    6  A    between atoms: C5_8  and  C6_11 
REMARK    7  A    between atoms: C6_11  and  O4_12 
REMARK    8  A    between atoms: C7_14  and  C8_15 
ROOT
HETATM    1  C2  UNL     1       6.107  -5.247  -4.665  1.00  0.00     0.211 C 
ENDROOT
BRANCH   1   2
HETATM    2  O2  UNL     1       6.055  -4.287  -5.618  1.00  0.00    -0.315 OA
BRANCH   2   3
HETATM    3  C1  UNL     1       5.880  -2.977  -5.744  1.00  0.00     0.293 C 
HETATM    4  O1  UNL     1       4.909  -2.419  -5.227  1.00  0.00    -0.259 OA
BRANCH   3   5
HETATM    5  C9  UNL     1       6.810  -2.099  -6.498  1.00  0.00     0.040 A 
HETATM    6  C10 UNL     1       7.934  -1.600  -5.891  1.00  0.00     0.018 A 
HETATM    7  C11 UNL     1       8.777  -0.790  -6.613  1.00  0.00     0.013 A 
HETATM    8  C12 UNL     1       8.528  -0.461  -7.932  1.00  0.00    -0.025 A 
HETATM    9  C13 UNL     1       9.386   0.355  -8.645  1.00  0.00     0.031 A 
HETATM   10  C17 UNL     1       7.385  -0.963  -8.561  1.00  0.00    -0.025 A 
HETATM   11  C14 UNL     1       9.096   0.655  -9.954  1.00  0.00     0.011 A 
HETATM   12 BR1  UNL     1      10.265   1.775 -10.947  1.00  0.00    -0.051 Br
HETATM   13  C15 UNL     1       7.957   0.153 -10.578  1.00  0.00     0.020 A 
HETATM   14  C16 UNL     1       7.112  -0.655  -9.866  1.00  0.00     0.013 A 
HETATM   15  C18 UNL     1       6.555  -1.777  -7.808  1.00  0.00     0.030 A 
ENDBRANCH   3   5
ENDBRANCH   2   3
ENDBRANCH   1   2
BRANCH   1  16
HETATM   16  C3  UNL     1       6.856  -5.008  -3.385  1.00  0.00     0.156 C 
HETATM   17  C4  UNL     1       6.005  -4.434  -2.316  1.00  0.00     0.111 C 
HETATM   18  S1  UNL     1       6.739  -2.863  -1.750  1.00  0.00    -0.124 SA
HETATM   19  C5  UNL     1       8.538  -3.267  -1.593  1.00  0.00     0.163 C 
HETATM   20  C7  UNL     1       8.954  -4.150  -2.716  1.00  0.00     0.269 C 
HETATM   21  O7  UNL     1       8.030  -4.397  -3.684  1.00  0.00    -0.363 OA
BRANCH  19  22
HETATM   22  O3  UNL     1       9.147  -1.989  -1.623  1.00  0.00    -0.374 OA
ATOM     23  H3  UNL     1       8.809  -1.615  -2.429  1.00  0.00     0.211 HD
ENDBRANCH  19  22
BRANCH  19  24
HETATM   24  C6  UNL     1       8.777  -3.799  -0.211  1.00  0.00     0.216 C 
BRANCH  24  25
HETATM   25  O4  UNL     1       7.699  -3.669   0.645  1.00  0.00    -0.397 OA
ATOM     26  H4  UNL     1       7.915  -3.766   1.565  1.00  0.00     0.209 HD
ENDBRANCH  24  25
ENDBRANCH  19  24
BRANCH  20  27
HETATM   27  C8  UNL     1       9.719  -5.366  -2.309  1.00  0.00     0.207 C 
HETATM   28  O5  UNL     1      10.977  -5.350  -2.180  1.00  0.00    -0.646 OA
HETATM   29  O6  UNL     1       9.139  -6.594  -2.037  1.00  0.00    -0.646 OA
ENDBRANCH  20  27
ENDBRANCH   1  16
TORSDOF 8
ENDMDL
MODEL 5
REMARK VINA RESULT: -6.688892389      4.202      7.183
REMARK  8 active torsions:
REMARK  status: ('A' for Active; 'I' for Inactive)
REMARK    1  A    between atoms: C1_2  and  O2_3 
REMARK    2  A    between atoms: C1_2  and  C9_19 
REMARK    3  A    between atoms: O2_3  and  C2_4 
REMARK    4  A    between atoms: C2_4  and  C3_5 
REMARK    5  A    between atoms: C5_8  and  O3_9 
REMARK    6  A    between atoms: C5_8  and  C6_11 
REMARK    7  A    between atoms: C6_11  and  O4_12 
REMARK    8  A    between atoms: C7_14  and  C8_15 
ROOT
HETATM    1  C2  UNL     1       4.390  -2.293  -3.750  1.00  0.00     0.211 C 
ENDROOT
BRANCH   1   2
HETATM    2  O2  UNL     1       4.483  -0.994  -4.117  1.00  0.00    -0.315 OA
BRANCH   2   3
HETATM    3  C1  UNL     1       4.445  -0.232  -5.203  1.00  0.00     0.293 C 
HETATM    4  O1  UNL     1       3.377  -0.009  -5.779  1.00  0.00    -0.259 OA
BRANCH   3   5
HETATM    5  C9  UNL     1       5.650   0.396  -5.801  1.00  0.00     0.040 A 
HETATM    6  C10 UNL     1       5.912   1.726  -5.593  1.00  0.00     0.018 A 
HETATM    7  C11 UNL     1       7.034   2.281  -6.159  1.00  0.00     0.013 A 
HETATM    8  C12 UNL     1       7.909   1.541  -6.932  1.00  0.00    -0.025 A 
HETATM    9  C13 UNL     1       9.034   2.113  -7.494  1.00  0.00     0.031 A 
HETATM   10  C17 UNL     1       7.653   0.184  -7.152  1.00  0.00    -0.025 A 
HETATM   11  C14 UNL     1       9.874   1.337  -8.256  1.00  0.00     0.011 A 
HETATM   12 BR1  UNL     1      11.424   2.108  -9.035  1.00  0.00    -0.051 Br
HETATM   13  C15 UNL     1       9.616  -0.014  -8.472  1.00  0.00     0.020 A 
HETATM   14  C16 UNL     1       8.501  -0.575  -7.912  1.00  0.00     0.013 A 
HETATM   15  C18 UNL     1       6.514  -0.346  -6.568  1.00  0.00     0.030 A 
ENDBRANCH   3   5
ENDBRANCH   2   3
ENDBRANCH   1   2
BRANCH   1  16
HETATM   16  C3  UNL     1       5.415  -2.900  -2.833  1.00  0.00     0.156 C 
HETATM   17  C4  UNL     1       4.971  -2.948  -1.420  1.00  0.00     0.111 C 
HETATM   18  S1  UNL     1       6.182  -2.059  -0.386  1.00  0.00    -0.124 SA
HETATM   19  C5  UNL     1       7.810  -2.664  -1.023  1.00  0.00     0.163 C 
HETATM   20  C7  UNL     1       7.753  -2.793  -2.504  1.00  0.00     0.269 C 
HETATM   21  O7  UNL     1       6.623  -2.352  -3.120  1.00  0.00    -0.363 OA
BRANCH  19  22
HETATM   22  O3  UNL     1       8.708  -1.665  -0.577  1.00  0.00    -0.374 OA
ATOM     23  H3  UNL     1       9.163  -1.421  -1.375  1.00  0.00     0.211 HD
ENDBRANCH  19  22
BRANCH  19  24
HETATM   24  C6  UNL     1       8.175  -3.906  -0.266  1.00  0.00     0.216 C 
BRANCH  24  25
HETATM   25  O4  UNL     1       7.551  -4.029   0.962  1.00  0.00    -0.397 OA
ATOM     26  H4  UNL     1       7.094  -3.248   1.250  1.00  0.00     0.209 HD
ENDBRANCH  24  25
ENDBRANCH  19  24
BRANCH  20  27
HETATM   27  C8  UNL     1       8.244  -4.097  -3.040  1.00  0.00     0.207 C 
HETATM   28  O5  UNL     1       9.479  -4.345  -3.163  1.00  0.00    -0.646 OA
HETATM   29  O6  UNL     1       7.419  -5.134  -3.442  1.00  0.00    -0.646 OA
ENDBRANCH  20  27
ENDBRANCH   1  16
TORSDOF 8
ENDMDL
