MODEL 1
REMARK VINA RESULT: -6.812173014      0.000      0.000
REMARK  8 active torsions:
REMARK  status: ('A' for Active; 'I' for Inactive)
REMARK    1  A    between atoms: C2_2  and  C3_3 
REMARK    2  A    between atoms: C3_3  and  C4_4 
REMARK    3  A    between atoms: C4_4  and  N1_5 
REMARK    4  A    between atoms: N1_5  and  C5_7 
REMARK    5  A    between atoms: C9_14  and  N4_15 
REMARK    6  A    between atoms: N4_15  and  C10_17 
REMARK    7  A    between atoms: C10_17  and  C11_18 
REMARK    8  A    between atoms: C11_18  and  C12_19 
ROOT
HETATM    1  C5  UNL     1      31.576   6.480 -35.969  1.00  0.00     0.680 A 
HETATM    2  N2  UNL     1      31.908   5.763 -37.058  1.00  0.00    -0.182 N 
ATOM      3  H2  UNL     1      32.884   5.509 -37.213  1.00  0.00     0.185 HD
HETATM    4  C6  UNL     1      30.984   5.379 -37.935  1.00  0.00     0.133 A 
HETATM    5  C7  UNL     1      31.309   4.609 -39.109  1.00  0.00     0.118 C 
HETATM    6  N3  UNL     1      31.585   3.997 -40.060  1.00  0.00    -0.190 NA
HETATM    7  C8  UNL     1      29.664   5.709 -37.746  1.00  0.00     0.090 A 
HETATM    8  C9  UNL     1      29.316   6.438 -36.644  1.00  0.00     0.119 A 
HETATM    9  N7  UNL     1      30.288   6.806 -35.782  1.00  0.00    -0.177 N 
ATOM     10  H7  UNL     1      30.035   7.351 -34.959  1.00  0.00     0.185 HD
ENDROOT
BRANCH   1  11
HETATM   11  N1  UNL     1      32.499   6.838 -35.137  1.00  0.00    -0.226 N 
ATOM     12  H1  UNL     1      33.158   6.145 -34.782  1.00  0.00     0.177 HD
BRANCH  11  13
HETATM   13  C4  UNL     1      32.600   8.199 -34.712  1.00  0.00     0.138 C 
BRANCH  13  14
HETATM   14  C3  UNL     1      32.299   8.321 -33.223  1.00  0.00     0.020 C 
BRANCH  14  15
HETATM   15  C2  UNL     1      30.842   8.735 -33.024  1.00  0.00    -0.003 C 
HETATM   16  C1  UNL     1      30.465   8.434 -31.583  1.00  0.00     0.005 C 
ENDBRANCH  14  15
ENDBRANCH  13  14
ENDBRANCH  11  13
ENDBRANCH   1  11
BRANCH   8  17
HETATM   17  N4  UNL     1      28.074   6.768 -36.437  1.00  0.00    -0.375 N 
ATOM     18  H4  UNL     1      27.388   6.726 -37.191  1.00  0.00     0.161 HD
BRANCH  17  19
HETATM   19  C10 UNL     1      27.691   7.195 -35.107  1.00  0.00     0.127 C 
BRANCH  19  20
HETATM   20  C11 UNL     1      26.875   8.455 -35.263  1.00  0.00     0.078 C 
BRANCH  20  21
HETATM   21  C12 UNL     1      27.588   9.647 -34.727  1.00  0.00     0.027 A 
HETATM   22  C13 UNL     1      28.379  10.566 -35.339  1.00  0.00     0.114 A 
HETATM   23  N5  UNL     1      28.785  11.455 -34.401  1.00  0.00    -0.360 N 
HETATM   24  C14 UNL     1      28.241  11.075 -33.224  1.00  0.00     0.180 A 
ATOM     25  H5  UNL     1      29.389  12.262 -34.555  1.00  0.00     0.166 HD
HETATM   26  N6  UNL     1      27.518   9.982 -33.425  1.00  0.00    -0.355 N 
ATOM     27  H6  UNL     1      26.995   9.477 -32.710  1.00  0.00     0.166 HD
ENDBRANCH  20  21
ENDBRANCH  19  20
ENDBRANCH  17  19
ENDBRANCH   8  17
TORSDOF 8
ENDMDL
MODEL 2
REMARK VINA RESULT: -6.774740818      2.790      5.391
REMARK  8 active torsions:
REMARK  status: ('A' for Active; 'I' for Inactive)
REMARK    1  A    between atoms: C2_2  and  C3_3 
REMARK    2  A    between atoms: C3_3  and  C4_4 
REMARK    3  A    between atoms: C4_4  and  N1_5 
REMARK    4  A    between atoms: N1_5  and  C5_7 
REMARK    5  A    between atoms: C9_14  and  N4_15 
REMARK    6  A    between atoms: N4_15  and  C10_17 
REMARK    7  A    between atoms: C10_17  and  C11_18 
REMARK    8  A    between atoms: C11_18  and  C12_19 
ROOT
HETATM    1  C5  UNL     1      31.763   7.978 -33.319  1.00  0.00     0.680 A 
HETATM    2  N2  UNL     1      32.191   8.008 -32.044  1.00  0.00    -0.182 N 
ATOM      3  H2  UNL     1      33.127   7.671 -31.821  1.00  0.00     0.185 HD
HETATM    4  C6  UNL     1      31.412   8.471 -31.070  1.00  0.00     0.133 A 
HETATM    5  C7  UNL     1      31.843   8.518 -29.696  1.00  0.00     0.118 C 
HETATM    6  N3  UNL     1      32.198   8.539 -28.587  1.00  0.00    -0.190 NA
HETATM    7  C8  UNL     1      30.148   8.931 -31.347  1.00  0.00     0.090 A 
HETATM    8  C9  UNL     1      29.702   8.904 -32.639  1.00  0.00     0.119 A 
HETATM    9  N7  UNL     1      30.528   8.424 -33.594  1.00  0.00    -0.177 N 
ATOM     10  H7  UNL     1      30.201   8.401 -34.559  1.00  0.00     0.185 HD
ENDROOT
BRANCH   1  11
HETATM   11  N1  UNL     1      32.544   7.520 -34.242  1.00  0.00    -0.226 N 
ATOM     12  H1  UNL     1      32.184   7.378 -35.187  1.00  0.00     0.177 HD
BRANCH  11  13
HETATM   13  C4  UNL     1      33.908   7.212 -33.949  1.00  0.00     0.138 C 
BRANCH  13  14
HETATM   14  C3  UNL     1      34.846   8.048 -34.811  1.00  0.00     0.020 C 
BRANCH  14  15
HETATM   15  C2  UNL     1      34.068   8.659 -35.975  1.00  0.00    -0.003 C 
HETATM   16  C1  UNL     1      34.482   7.933 -37.244  1.00  0.00     0.005 C 
ENDBRANCH  14  15
ENDBRANCH  13  14
ENDBRANCH  11  13
ENDBRANCH   1  11
BRANCH   8  17
HETATM   17  N4  UNL     1      28.510   9.332 -32.934  1.00  0.00    -0.375 N 
ATOM     18  H4  UNL     1      27.714   8.694 -32.950  1.00  0.00     0.161 HD
BRANCH  17  19
HETATM   19  C10 UNL     1      28.341  10.737 -33.241  1.00  0.00     0.127 C 
BRANCH  19  20
HETATM   20  C11 UNL     1      28.288  10.861 -34.744  1.00  0.00     0.078 C 
BRANCH  20  21
HETATM   21  C12 UNL     1      27.511   9.751 -35.364  1.00  0.00     0.027 A 
HETATM   22  C13 UNL     1      27.912   8.567 -35.896  1.00  0.00     0.114 A 
HETATM   23  N5  UNL     1      26.809   7.912 -36.330  1.00  0.00    -0.360 N 
HETATM   24  C14 UNL     1      25.743   8.698 -36.062  1.00  0.00     0.180 A 
ATOM     25  H5  UNL     1      26.787   6.995 -36.776  1.00  0.00     0.166 HD
HETATM   26  N6  UNL     1      26.172   9.808 -35.478  1.00  0.00    -0.355 N 
ATOM     27  H6  UNL     1      25.582  10.580 -35.167  1.00  0.00     0.166 HD
ENDBRANCH  20  21
ENDBRANCH  19  20
ENDBRANCH  17  19
ENDBRANCH   8  17
TORSDOF 8
ENDMDL
MODEL 3
REMARK VINA RESULT: -6.763189688      1.026      1.492
REMARK  8 active torsions:
REMARK  status: ('A' for Active; 'I' for Inactive)
REMARK    1  A    between atoms: C2_2  and  C3_3 
REMARK    2  A    between atoms: C3_3  and  C4_4 
REMARK    3  A    between atoms: C4_4  and  N1_5 
REMARK    4  A    between atoms: N1_5  and  C5_7 
REMARK    5  A    between atoms: C9_14  and  N4_15 
REMARK    6  A    between atoms: N4_15  and  C10_17 
REMARK    7  A    between atoms: C10_17  and  C11_18 
REMARK    8  A    between atoms: C11_18  and  C12_19 
ROOT
HETATM    1  C5  UNL     1      31.652   6.698 -35.776  1.00  0.00     0.680 A 
HETATM    2  N2  UNL     1      31.993   5.949 -36.840  1.00  0.00    -0.182 N 
ATOM      3  H2  UNL     1      32.970   5.693 -36.980  1.00  0.00     0.185 HD
HETATM    4  C6  UNL     1      31.076   5.539 -37.712  1.00  0.00     0.133 A 
HETATM    5  C7  UNL     1      31.410   4.735 -38.860  1.00  0.00     0.118 C 
HETATM    6  N3  UNL     1      31.694   4.095 -39.790  1.00  0.00    -0.190 NA
HETATM    7  C8  UNL     1      29.754   5.871 -37.543  1.00  0.00     0.090 A 
HETATM    8  C9  UNL     1      29.396   6.633 -36.465  1.00  0.00     0.119 A 
HETATM    9  N7  UNL     1      30.362   7.027 -35.608  1.00  0.00    -0.177 N 
ATOM     10  H7  UNL     1      30.101   7.596 -34.802  1.00  0.00     0.185 HD
ENDROOT
BRANCH   1  11
HETATM   11  N1  UNL     1      32.568   7.083 -34.947  1.00  0.00    -0.226 N 
ATOM     12  H1  UNL     1      33.448   6.570 -34.892  1.00  0.00     0.177 HD
BRANCH  11  13
HETATM   13  C4  UNL     1      32.353   8.220 -34.110  1.00  0.00     0.138 C 
BRANCH  13  14
HETATM   14  C3  UNL     1      33.202   9.397 -34.574  1.00  0.00     0.020 C 
BRANCH  14  15
HETATM   15  C2  UNL     1      32.307  10.461 -35.207  1.00  0.00    -0.003 C 
HETATM   16  C1  UNL     1      33.091  11.762 -35.253  1.00  0.00     0.005 C 
ENDBRANCH  14  15
ENDBRANCH  13  14
ENDBRANCH  11  13
ENDBRANCH   1  11
BRANCH   8  17
HETATM   17  N4  UNL     1      28.153   6.966 -36.277  1.00  0.00    -0.375 N 
ATOM     18  H4  UNL     1      27.519   7.092 -37.066  1.00  0.00     0.161 HD
BRANCH  17  19
HETATM   19  C10 UNL     1      27.692   7.154 -34.917  1.00  0.00     0.127 C 
BRANCH  19  20
HETATM   20  C11 UNL     1      26.830   8.393 -34.907  1.00  0.00     0.078 C 
BRANCH  20  21
HETATM   21  C12 UNL     1      27.610   9.608 -34.542  1.00  0.00     0.027 A 
HETATM   22  C13 UNL     1      28.330  10.471 -35.304  1.00  0.00     0.114 A 
HETATM   23  N5  UNL     1      28.850  11.415 -34.484  1.00  0.00    -0.360 N 
HETATM   24  C14 UNL     1      28.446  11.124 -33.228  1.00  0.00     0.180 A 
ATOM     25  H5  UNL     1      29.437  12.201 -34.764  1.00  0.00     0.166 HD
HETATM   26  N6  UNL     1      27.697  10.031 -33.267  1.00  0.00    -0.355 N 
ATOM     27  H6  UNL     1      27.258   9.584 -32.463  1.00  0.00     0.166 HD
ENDBRANCH  20  21
ENDBRANCH  19  20
ENDBRANCH  17  19
ENDBRANCH   8  17
TORSDOF 8
ENDMDL
MODEL 4
REMARK VINA RESULT: -6.604458470      1.493      3.973
REMARK  8 active torsions:
REMARK  status: ('A' for Active; 'I' for Inactive)
REMARK    1  A    between atoms: C2_2  and  C3_3 
REMARK    2  A    between atoms: C3_3  and  C4_4 
REMARK    3  A    between atoms: C4_4  and  N1_5 
REMARK    4  A    between atoms: N1_5  and  C5_7 
REMARK    5  A    between atoms: C9_14  and  N4_15 
REMARK    6  A    between atoms: N4_15  and  C10_17 
REMARK    7  A    between atoms: C10_17  and  C11_18 
REMARK    8  A    between atoms: C11_18  and  C12_19 
ROOT
HETATM    1  C5  UNL     1      29.224   6.527 -36.549  1.00  0.00     0.680 A 
HETATM    2  N2  UNL     1      29.385   5.697 -37.595  1.00  0.00    -0.182 N 
ATOM      3  H2  UNL     1      28.565   5.278 -38.034  1.00  0.00     0.185 HD
HETATM    4  C6  UNL     1      30.597   5.413 -38.066  1.00  0.00     0.133 A 
HETATM    5  C7  UNL     1      30.800   4.529 -39.186  1.00  0.00     0.118 C 
HETATM    6  N3  UNL     1      30.953   3.804 -40.084  1.00  0.00    -0.190 NA
HETATM    7  C8  UNL     1      31.715   5.966 -37.492  1.00  0.00     0.090 A 
HETATM    8  C9  UNL     1      31.564   6.810 -36.427  1.00  0.00     0.119 A 
HETATM    9  N7  UNL     1      30.315   7.067 -35.984  1.00  0.00    -0.177 N 
ATOM     10  H7  UNL     1      30.195   7.695 -35.189  1.00  0.00     0.185 HD
ENDROOT
BRANCH   1  11
HETATM   11  N1  UNL     1      28.033   6.781 -36.114  1.00  0.00    -0.226 N 
ATOM     12  H1  UNL     1      27.236   6.706 -36.747  1.00  0.00     0.177 HD
BRANCH  11  13
HETATM   13  C4  UNL     1      27.827   7.165 -34.754  1.00  0.00     0.138 C 
BRANCH  13  14
HETATM   14  C3  UNL     1      26.748   8.237 -34.655  1.00  0.00     0.020 C 
BRANCH  14  15
HETATM   15  C2  UNL     1      27.030   9.346 -35.669  1.00  0.00    -0.003 C 
HETATM   16  C1  UNL     1      27.763  10.462 -34.945  1.00  0.00     0.005 C 
ENDBRANCH  14  15
ENDBRANCH  13  14
ENDBRANCH  11  13
ENDBRANCH   1  11
BRANCH   8  17
HETATM   17  N4  UNL     1      32.603   7.349 -35.860  1.00  0.00    -0.375 N 
ATOM     18  H4  UNL     1      33.285   7.874 -36.407  1.00  0.00     0.161 HD
BRANCH  17  19
HETATM   19  C10 UNL     1      32.766   7.185 -34.430  1.00  0.00     0.127 C 
BRANCH  19  20
HETATM   20  C11 UNL     1      32.588   8.546 -33.804  1.00  0.00     0.078 C 
BRANCH  20  21
HETATM   21  C12 UNL     1      31.618   8.513 -32.673  1.00  0.00     0.027 A 
HETATM   22  C13 UNL     1      30.271   8.685 -32.645  1.00  0.00     0.114 A 
HETATM   23  N5  UNL     1      29.862   8.556 -31.361  1.00  0.00    -0.360 N 
HETATM   24  C14 UNL     1      30.959   8.307 -30.612  1.00  0.00     0.180 A 
ATOM     25  H5  UNL     1      28.904   8.633 -31.021  1.00  0.00     0.166 HD
HETATM   26  N6  UNL     1      32.018   8.282 -31.410  1.00  0.00    -0.355 N 
ATOM     27  H6  UNL     1      32.980   8.115 -31.113  1.00  0.00     0.166 HD
ENDBRANCH  20  21
ENDBRANCH  19  20
ENDBRANCH  17  19
ENDBRANCH   8  17
TORSDOF 8
ENDMDL
MODEL 5
REMARK VINA RESULT: -6.419229152      1.885      4.552
REMARK  8 active torsions:
REMARK  status: ('A' for Active; 'I' for Inactive)
REMARK    1  A    between atoms: C2_2  and  C3_3 
REMARK    2  A    between atoms: C3_3  and  C4_4 
REMARK    3  A    between atoms: C4_4  and  N1_5 
REMARK    4  A    between atoms: N1_5  and  C5_7 
REMARK    5  A    between atoms: C9_14  and  N4_15 
REMARK    6  A    between atoms: N4_15  and  C10_17 
REMARK    7  A    between atoms: C10_17  and  C11_18 
REMARK    8  A    between atoms: C11_18  and  C12_19 
ROOT
HETATM    1  C5  UNL     1      28.859   6.795 -36.153  1.00  0.00     0.680 A 
HETATM    2  N2  UNL     1      28.968   5.811 -37.064  1.00  0.00    -0.182 N 
ATOM      3  H2  UNL     1      28.309   5.034 -37.044  1.00  0.00     0.185 HD
HETATM    4  C6  UNL     1      29.923   5.837 -37.991  1.00  0.00     0.133 A 
HETATM    5  C7  UNL     1      30.063   4.800 -38.981  1.00  0.00     0.118 C 
HETATM    6  N3  UNL     1      30.175   3.949 -39.768  1.00  0.00    -0.190 NA
HETATM    7  C8  UNL     1      30.821   6.875 -38.038  1.00  0.00     0.090 A 
HETATM    8  C9  UNL     1      30.720   7.880 -37.117  1.00  0.00     0.119 A 
HETATM    9  N7  UNL     1      29.736   7.810 -36.195  1.00  0.00    -0.177 N 
ATOM     10  H7  UNL     1      29.656   8.556 -35.504  1.00  0.00     0.185 HD
ENDROOT
BRANCH   1  11
HETATM   11  N1  UNL     1      27.921   6.739 -35.265  1.00  0.00    -0.226 N 
ATOM     12  H1  UNL     1      27.521   5.837 -35.006  1.00  0.00     0.177 HD
BRANCH  11  13
HETATM   13  C4  UNL     1      27.442   7.933 -34.643  1.00  0.00     0.138 C 
BRANCH  13  14
HETATM   14  C3  UNL     1      26.407   8.621 -35.524  1.00  0.00     0.020 C 
BRANCH  14  15
HETATM   15  C2  UNL     1      26.802  10.081 -35.741  1.00  0.00    -0.003 C 
HETATM   16  C1  UNL     1      27.840  10.442 -34.691  1.00  0.00     0.005 C 
ENDBRANCH  14  15
ENDBRANCH  13  14
ENDBRANCH  11  13
ENDBRANCH   1  11
BRANCH   8  17
HETATM   17  N4  UNL     1      31.556   8.876 -37.133  1.00  0.00    -0.375 N 
ATOM     18  H4  UNL     1      32.315   8.912 -37.814  1.00  0.00     0.161 HD
BRANCH  17  19
HETATM   19  C10 UNL     1      31.383   9.933 -36.159  1.00  0.00     0.127 C 
BRANCH  19  20
HETATM   20  C11 UNL     1      32.713  10.129 -35.474  1.00  0.00     0.078 C 
BRANCH  20  21
HETATM   21  C12 UNL     1      33.087   8.951 -34.642  1.00  0.00     0.027 A 
HETATM   22  C13 UNL     1      32.459   8.363 -33.592  1.00  0.00     0.114 A 
HETATM   23  N5  UNL     1      33.218   7.317 -33.187  1.00  0.00    -0.360 N 
HETATM   24  C14 UNL     1      34.303   7.273 -33.990  1.00  0.00     0.180 A 
ATOM     25  H5  UNL     1      33.009   6.680 -32.418  1.00  0.00     0.166 HD
HETATM   26  N6  UNL     1      34.220   8.262 -34.869  1.00  0.00    -0.355 N 
ATOM     27  H6  UNL     1      34.904   8.468 -35.597  1.00  0.00     0.166 HD
ENDBRANCH  20  21
ENDBRANCH  19  20
ENDBRANCH  17  19
ENDBRANCH   8  17
TORSDOF 8
ENDMDL
