MODEL 1
REMARK VINA RESULT: -3.951892646      0.000      0.000
REMARK  4 active torsions:
REMARK  status: ('A' for Active; 'I' for Inactive)
REMARK    1  A    between atoms: C3_4  and  N1_5 
REMARK       I    between atoms: N1_5  and  C4_7 
REMARK    2  A    between atoms: C5_12  and  N4_13 
REMARK    3  A    between atoms: C8_16  and  N5_17 
REMARK       I    between atoms: N5_17  and  C9_19 
REMARK    4  A    between atoms: C10_22  and  O3_24 
ROOT
HETATM    1  C1  UNL     1      -3.996  27.512  29.672  1.00  0.00     0.042 C 
HETATM    2  C2  UNL     1      -2.527  27.317  29.983  1.00  0.00     0.156 C 
HETATM    3  O1  UNL     1      -2.336  25.977  30.217  1.00  0.00    -0.357 OA
HETATM    4  C3  UNL     1      -1.071  25.611  30.607  1.00  0.00     0.248 C 
HETATM    5  C5  UNL     1       0.049  26.124  29.764  1.00  0.00     0.153 C 
HETATM    6  C8  UNL     1      -0.249  27.329  28.933  1.00  0.00     0.149 C 
HETATM    7  C10 UNL     1      -1.699  27.642  28.757  1.00  0.00     0.102 C 
HETATM    8  C11 UNL     1      -2.293  26.844  27.613  1.00  0.00     0.051 C 
ENDROOT
BRANCH   4   9
HETATM    9  N1  UNL     1      -1.089  24.167  30.696  1.00  0.00    -0.337 N 
HETATM   10  C4  UNL     1      -0.324  23.333  29.852  1.00  0.00     0.183 C 
HETATM   11  N2  UNL     1       0.817  22.858  30.118  1.00  0.00    -0.374 N 
HETATM   12  N3  UNL     1      -0.928  23.017  28.583  1.00  0.00    -0.064 NA
ATOM     13  H22 UNL     1       1.245  23.082  31.017  1.00  0.00     0.158 HD
ATOM     14  H21 UNL     1       1.370  22.256  29.508  1.00  0.00     0.158 HD
ATOM     15  H1  UNL     1      -1.682  23.730  31.402  1.00  0.00     0.164 HD
ENDBRANCH   4   9
BRANCH   5  16
HETATM   16  N4  UNL     1       1.283  26.292  30.495  1.00  0.00    -0.411 N 
HETATM   17  C6  UNL     1       1.336  27.475  31.289  1.00  0.00     0.143 C 
HETATM   18  C7  UNL     1       2.460  25.977  29.770  1.00  0.00     0.143 C 
ENDBRANCH   5  16
BRANCH   6  19
HETATM   19  N5  UNL     1       0.370  27.297  27.620  1.00  0.00    -0.336 N 
HETATM   20  C9  UNL     1       1.431  28.141  27.243  1.00  0.00     0.329 C 
HETATM   21  N6  UNL     1       1.968  28.033  25.942  1.00  0.00    -0.040 NA
HETATM   22  O2  UNL     1       1.927  28.989  28.018  1.00  0.00    -0.251 OA
ATOM     23  H5  UNL     1       0.017  26.629  26.934  1.00  0.00     0.164 HD
ENDBRANCH   6  19
BRANCH   7  24
HETATM   24  O3  UNL     1      -1.921  28.986  28.460  1.00  0.00    -0.385 OA
ATOM     25  H3  UNL     1      -1.326  29.492  29.002  1.00  0.00     0.210 HD
ENDBRANCH   7  24
TORSDOF 4
ENDMDL
MODEL 2
REMARK VINA RESULT: -3.735399191      9.921     11.776
REMARK  4 active torsions:
REMARK  status: ('A' for Active; 'I' for Inactive)
REMARK    1  A    between atoms: C3_4  and  N1_5 
REMARK       I    between atoms: N1_5  and  C4_7 
REMARK    2  A    between atoms: C5_12  and  N4_13 
REMARK    3  A    between atoms: C8_16  and  N5_17 
REMARK       I    between atoms: N5_17  and  C9_19 
REMARK    4  A    between atoms: C10_22  and  O3_24 
ROOT
HETATM    1  C1  UNL     1       6.505  22.575  18.748  1.00  0.00     0.042 C 
HETATM    2  C2  UNL     1       5.861  22.248  20.079  1.00  0.00     0.156 C 
HETATM    3  O1  UNL     1       4.518  22.513  19.955  1.00  0.00    -0.357 OA
HETATM    4  C3  UNL     1       3.770  22.362  21.097  1.00  0.00     0.248 C 
HETATM    5  C5  UNL     1       3.949  21.074  21.831  1.00  0.00     0.153 C 
HETATM    6  C8  UNL     1       5.217  20.332  21.563  1.00  0.00     0.149 C 
HETATM    7  C10 UNL     1       5.963  20.760  20.341  1.00  0.00     0.102 C 
HETATM    8  C11 UNL     1       5.426  20.067  19.105  1.00  0.00     0.051 C 
ENDROOT
BRANCH   4   9
HETATM    9  N1  UNL     1       2.398  22.596  20.703  1.00  0.00    -0.337 N 
HETATM   10  C4  UNL     1       1.613  23.643  21.232  1.00  0.00     0.183 C 
HETATM   11  N2  UNL     1       1.454  24.784  20.712  1.00  0.00    -0.374 N 
HETATM   12  N3  UNL     1       0.947  23.349  22.476  1.00  0.00    -0.064 NA
ATOM     13  H22 UNL     1       1.925  24.993  19.831  1.00  0.00     0.158 HD
ATOM     14  H21 UNL     1       0.886  25.541  21.094  1.00  0.00     0.158 HD
ATOM     15  H1  UNL     1       1.978  21.976  20.010  1.00  0.00     0.164 HD
ENDBRANCH   4   9
BRANCH   5  16
HETATM   16  N4  UNL     1       3.706  21.187  23.250  1.00  0.00    -0.411 N 
HETATM   17  C6  UNL     1       4.663  20.512  24.064  1.00  0.00     0.143 C 
HETATM   18  C7  UNL     1       2.350  21.050  23.642  1.00  0.00     0.143 C 
ENDBRANCH   5  16
BRANCH   6  19
HETATM   19  N5  UNL     1       5.047  18.890  21.508  1.00  0.00    -0.336 N 
HETATM   20  C9  UNL     1       6.121  17.983  21.512  1.00  0.00     0.329 C 
HETATM   21  N6  UNL     1       5.854  16.598  21.457  1.00  0.00    -0.040 NA
HETATM   22  O2  UNL     1       7.316  18.351  21.565  1.00  0.00    -0.251 OA
ATOM     23  H5  UNL     1       4.098  18.517  21.463  1.00  0.00     0.164 HD
ENDBRANCH   6  19
BRANCH   7  24
HETATM   24  O3  UNL     1       7.320  20.451  20.412  1.00  0.00    -0.385 OA
ATOM     25  H3  UNL     1       7.501  20.197  21.310  1.00  0.00     0.210 HD
ENDBRANCH   7  24
TORSDOF 4
ENDMDL
MODEL 3
REMARK VINA RESULT: -3.396322673      2.275      4.238
REMARK  4 active torsions:
REMARK  status: ('A' for Active; 'I' for Inactive)
REMARK    1  A    between atoms: C3_4  and  N1_5 
REMARK       I    between atoms: N1_5  and  C4_7 
REMARK    2  A    between atoms: C5_12  and  N4_13 
REMARK    3  A    between atoms: C8_16  and  N5_17 
REMARK       I    between atoms: N5_17  and  C9_19 
REMARK    4  A    between atoms: C10_22  and  O3_24 
ROOT
HETATM    1  C1  UNL     1      -0.741  22.864  29.729  1.00  0.00     0.042 C 
HETATM    2  C2  UNL     1      -0.382  24.086  28.910  1.00  0.00     0.156 C 
HETATM    3  O1  UNL     1      -1.551  24.760  28.653  1.00  0.00    -0.357 OA
HETATM    4  C3  UNL     1      -1.442  25.861  27.840  1.00  0.00     0.248 C 
HETATM    5  C5  UNL     1      -0.382  26.846  28.209  1.00  0.00     0.153 C 
HETATM    6  C8  UNL     1       0.729  26.330  29.065  1.00  0.00     0.149 C 
HETATM    7  C10 UNL     1       0.458  25.029  29.747  1.00  0.00     0.102 C 
HETATM    8  C11 UNL     1      -0.295  25.241  31.045  1.00  0.00     0.051 C 
ENDROOT
BRANCH   4   9
HETATM    9  N1  UNL     1      -2.762  26.451  27.794  1.00  0.00    -0.337 N 
HETATM   10  C4  UNL     1      -3.162  27.510  28.636  1.00  0.00     0.183 C 
HETATM   11  N2  UNL     1      -3.126  28.740  28.346  1.00  0.00    -0.374 N 
HETATM   12  N3  UNL     1      -3.650  27.119  29.934  1.00  0.00    -0.064 NA
ATOM     13  H22 UNL     1      -2.781  29.018  27.427  1.00  0.00     0.158 HD
ATOM     14  H21 UNL     1      -3.415  29.506  28.954  1.00  0.00     0.158 HD
ATOM     15  H1  UNL     1      -3.436  26.083  27.122  1.00  0.00     0.164 HD
ENDBRANCH   4   9
BRANCH   5  16
HETATM   16  N4  UNL     1       0.135  27.579  27.077  1.00  0.00    -0.411 N 
HETATM   17  C6  UNL     1      -0.070  28.989  27.151  1.00  0.00     0.143 C 
HETATM   18  C7  UNL     1      -0.102  26.982  25.813  1.00  0.00     0.143 C 
ENDBRANCH   5  16
BRANCH   6  19
HETATM   19  N5  UNL     1       1.181  27.281  30.065  1.00  0.00    -0.336 N 
HETATM   20  C9  UNL     1       2.318  28.093  29.904  1.00  0.00     0.329 C 
HETATM   21  N6  UNL     1       2.676  28.989  30.934  1.00  0.00    -0.040 NA
HETATM   22  O2  UNL     1       3.032  28.058  28.877  1.00  0.00    -0.251 OA
ATOM     23  H5  UNL     1       0.646  27.364  30.930  1.00  0.00     0.164 HD
ENDBRANCH   6  19
BRANCH   7  24
HETATM   24  O3  UNL     1       1.630  24.348  30.075  1.00  0.00    -0.385 OA
ATOM     25  H3  UNL     1       2.288  25.005  30.270  1.00  0.00     0.210 HD
ENDBRANCH   7  24
TORSDOF 4
ENDMDL
MODEL 4
REMARK VINA RESULT: -3.200658886      9.198     10.560
REMARK  4 active torsions:
REMARK  status: ('A' for Active; 'I' for Inactive)
REMARK    1  A    between atoms: C3_4  and  N1_5 
REMARK       I    between atoms: N1_5  and  C4_7 
REMARK    2  A    between atoms: C5_12  and  N4_13 
REMARK    3  A    between atoms: C8_16  and  N5_17 
REMARK       I    between atoms: N5_17  and  C9_19 
REMARK    4  A    between atoms: C10_22  and  O3_24 
ROOT
HETATM    1  C1  UNL     1       3.410  19.853  25.349  1.00  0.00     0.042 C 
HETATM    2  C2  UNL     1       3.884  20.641  24.146  1.00  0.00     0.156 C 
HETATM    3  O1  UNL     1       4.344  19.734  23.222  1.00  0.00    -0.357 OA
HETATM    4  C3  UNL     1       4.903  20.266  22.087  1.00  0.00     0.248 C 
HETATM    5  C5  UNL     1       4.096  21.309  21.386  1.00  0.00     0.153 C 
HETATM    6  C8  UNL     1       3.061  22.005  22.208  1.00  0.00     0.149 C 
HETATM    7  C10 UNL     1       2.704  21.329  23.492  1.00  0.00     0.102 C 
HETATM    8  C11 UNL     1       1.651  20.261  23.270  1.00  0.00     0.051 C 
ENDROOT
BRANCH   4   9
HETATM    9  N1  UNL     1       5.218  19.138  21.237  1.00  0.00    -0.337 N 
HETATM   10  C4  UNL     1       6.532  18.828  20.823  1.00  0.00     0.183 C 
HETATM   11  N2  UNL     1       7.311  18.009  21.387  1.00  0.00    -0.374 N 
HETATM   12  N3  UNL     1       6.991  19.527  19.649  1.00  0.00    -0.064 NA
ATOM     13  H22 UNL     1       6.987  17.514  22.218  1.00  0.00     0.158 HD
ATOM     14  H21 UNL     1       8.261  17.785  21.087  1.00  0.00     0.158 HD
ATOM     15  H1  UNL     1       4.455  18.538  20.922  1.00  0.00     0.164 HD
ENDBRANCH   4   9
BRANCH   5  16
HETATM   16  N4  UNL     1       4.903  22.260  20.657  1.00  0.00    -0.411 N 
HETATM   17  C6  UNL     1       4.869  22.092  19.241  1.00  0.00     0.143 C 
HETATM   18  C7  UNL     1       6.176  22.527  21.221  1.00  0.00     0.143 C 
ENDBRANCH   5  16
BRANCH   6  19
HETATM   19  N5  UNL     1       1.832  22.280  21.484  1.00  0.00    -0.336 N 
HETATM   20  C9  UNL     1       1.604  23.470  20.770  1.00  0.00     0.329 C 
HETATM   21  N6  UNL     1       0.377  23.645  20.096  1.00  0.00    -0.040 NA
HETATM   22  O2  UNL     1       2.450  24.391  20.704  1.00  0.00    -0.251 OA
ATOM     23  H5  UNL     1       1.097  21.573  21.493  1.00  0.00     0.164 HD
ENDBRANCH   6  19
BRANCH   7  24
HETATM   24  O3  UNL     1       2.178  22.216  24.431  1.00  0.00    -0.385 OA
ATOM     25  H3  UNL     1       2.554  23.069  24.247  1.00  0.00     0.210 HD
ENDBRANCH   7  24
TORSDOF 4
ENDMDL
MODEL 5
REMARK VINA RESULT: -3.161619967      9.917     11.407
REMARK  4 active torsions:
REMARK  status: ('A' for Active; 'I' for Inactive)
REMARK    1  A    between atoms: C3_4  and  N1_5 
REMARK       I    between atoms: N1_5  and  C4_7 
REMARK    2  A    between atoms: C5_12  and  N4_13 
REMARK    3  A    between atoms: C8_16  and  N5_17 
REMARK       I    between atoms: N5_17  and  C9_19 
REMARK    4  A    between atoms: C10_22  and  O3_24 
ROOT
HETATM    1  C1  UNL     1       6.132  17.326  21.642  1.00  0.00     0.042 C 
HETATM    2  C2  UNL     1       5.120  18.451  21.579  1.00  0.00     0.156 C 
HETATM    3  O1  UNL     1       5.095  19.043  22.819  1.00  0.00    -0.357 OA
HETATM    4  C3  UNL     1       4.165  20.038  22.988  1.00  0.00     0.248 C 
HETATM    5  C5  UNL     1       4.142  21.100  21.939  1.00  0.00     0.153 C 
HETATM    6  C8  UNL     1       4.740  20.737  20.619  1.00  0.00     0.149 C 
HETATM    7  C10 UNL     1       5.608  19.520  20.624  1.00  0.00     0.102 C 
HETATM    8  C11 UNL     1       7.023  19.862  21.045  1.00  0.00     0.051 C 
ENDROOT
BRANCH   4   9
HETATM    9  N1  UNL     1       4.391  20.568  24.316  1.00  0.00    -0.337 N 
HETATM   10  C4  UNL     1       3.716  20.091  25.461  1.00  0.00     0.183 C 
HETATM   11  N2  UNL     1       4.146  19.210  26.259  1.00  0.00    -0.374 N 
HETATM   12  N3  UNL     1       2.428  20.685  25.711  1.00  0.00    -0.064 NA
ATOM     13  H22 UNL     1       5.058  18.789  26.082  1.00  0.00     0.158 HD
ATOM     14  H21 UNL     1       3.658  18.866  27.086  1.00  0.00     0.158 HD
ATOM     15  H1  UNL     1       5.070  21.321  24.430  1.00  0.00     0.164 HD
ENDBRANCH   4   9
BRANCH   5  16
HETATM   16  N4  UNL     1       2.843  21.707  21.769  1.00  0.00    -0.411 N 
HETATM   17  C6  UNL     1       2.859  22.925  21.026  1.00  0.00     0.143 C 
HETATM   18  C7  UNL     1       2.016  21.693  22.920  1.00  0.00     0.143 C 
ENDBRANCH   5  16
BRANCH   6  19
HETATM   19  N5  UNL     1       5.482  21.820  19.999  1.00  0.00    -0.336 N 
HETATM   20  C9  UNL     1       5.463  22.080  18.617  1.00  0.00     0.329 C 
HETATM   21  N6  UNL     1       6.218  23.159  18.108  1.00  0.00    -0.040 NA
HETATM   22  O2  UNL     1       4.799  21.392  17.809  1.00  0.00    -0.251 OA
ATOM     23  H5  UNL     1       6.047  22.424  20.597  1.00  0.00     0.164 HD
ENDBRANCH   6  19
BRANCH   7  24
HETATM   24  O3  UNL     1       5.700  18.930  19.364  1.00  0.00    -0.385 OA
ATOM     25  H3  UNL     1       5.211  19.479  18.763  1.00  0.00     0.210 HD
ENDBRANCH   7  24
TORSDOF 4
ENDMDL
