MODEL 1
REMARK VINA RESULT: -4.791729898      0.000      0.000
REMARK  3 active torsions:
REMARK  status: ('A' for Active; 'I' for Inactive)
REMARK    1  A    between atoms: C3_3  and  C4_4 
REMARK    2  A    between atoms: C4_4  and  N1_5 
REMARK    3  A    between atoms: N1_5  and  C5_7 
ROOT
HETATM    1  N1  UNL     1      16.433 -34.223 -22.157  1.00  0.00    -0.391 N 
ATOM      2  H1  UNL     1      16.148 -34.930 -22.835  1.00  0.00     0.159 HD
ENDROOT
BRANCH   1   3
HETATM    3  C4  UNL     1      16.923 -34.624 -20.915  1.00  0.00     0.114 C 
BRANCH   3   4
HETATM    4  C3  UNL     1      17.379 -36.058 -21.045  1.00  0.00     0.064 A 
HETATM    5  C2  UNL     1      16.591 -37.145 -21.371  1.00  0.00     0.051 A 
HETATM    6  C1  UNL     1      17.400 -38.257 -21.379  1.00  0.00     0.109 A 
HETATM    7  N4  UNL     1      18.643 -37.854 -21.067  1.00  0.00    -0.311 N 
HETATM    8  N3  UNL     1      18.623 -36.539 -20.870  1.00  0.00    -0.300 N 
ATOM      9  H4  UNL     1      19.464 -38.455 -20.995  1.00  0.00     0.186 HD
ATOM     10  H3  UNL     1      19.437 -35.976 -20.621  1.00  0.00     0.187 HD
ENDBRANCH   3   4
ENDBRANCH   1   3
BRANCH   1  11
HETATM   11  C5  UNL     1      16.324 -32.865 -22.488  1.00  0.00     0.108 C 
HETATM   12  C6  UNL     1      16.599 -32.539 -23.937  1.00  0.00     0.054 C 
HETATM   13  C7  UNL     1      15.201 -32.202 -24.431  1.00  0.00     0.234 C 
HETATM   14  N2  UNL     1      14.752 -31.322 -23.359  1.00  0.00    -0.073 N 
HETATM   15  C8  UNL     1      15.064 -32.163 -22.195  1.00  0.00     0.257 C 
ATOM     16  H22 UNL     1      15.156 -30.385 -23.353  1.00  0.00     0.277 HD
ATOM     17  H21 UNL     1      13.789 -30.994 -23.426  1.00  0.00     0.277 HD
ENDBRANCH   1  11
TORSDOF 3
ENDMDL
MODEL 2
REMARK VINA RESULT: -4.558494777      1.765      2.810
REMARK  3 active torsions:
REMARK  status: ('A' for Active; 'I' for Inactive)
REMARK    1  A    between atoms: C3_3  and  C4_4 
REMARK    2  A    between atoms: C4_4  and  N1_5 
REMARK    3  A    between atoms: N1_5  and  C5_7 
ROOT
HETATM    1  N1  UNL     1      16.828 -36.531 -22.228  1.00  0.00    -0.391 N 
ATOM      2  H1  UNL     1      17.363 -36.577 -23.096  1.00  0.00     0.159 HD
ENDROOT
BRANCH   1   3
HETATM    3  C4  UNL     1      16.955 -37.553 -21.289  1.00  0.00     0.114 C 
BRANCH   3   4
HETATM    4  C3  UNL     1      18.426 -37.710 -20.982  1.00  0.00     0.064 A 
HETATM    5  C2  UNL     1      19.314 -36.697 -20.675  1.00  0.00     0.051 A 
HETATM    6  C1  UNL     1      20.546 -37.274 -20.468  1.00  0.00     0.109 A 
HETATM    7  N4  UNL     1      20.406 -38.598 -20.644  1.00  0.00    -0.311 N 
HETATM    8  N3  UNL     1      19.138 -38.851 -20.950  1.00  0.00    -0.300 N 
ATOM      9  H4  UNL     1      21.148 -39.292 -20.558  1.00  0.00     0.186 HD
ATOM     10  H3  UNL     1      18.758 -39.780 -21.135  1.00  0.00     0.187 HD
ENDBRANCH   3   4
ENDBRANCH   1   3
BRANCH   1  11
HETATM   11  C5  UNL     1      15.978 -35.440 -21.998  1.00  0.00     0.108 C 
HETATM   12  C6  UNL     1      16.269 -34.660 -20.737  1.00  0.00     0.054 C 
HETATM   13  C7  UNL     1      16.849 -33.378 -21.313  1.00  0.00     0.234 C 
HETATM   14  N2  UNL     1      15.877 -33.101 -22.362  1.00  0.00    -0.073 N 
HETATM   15  C8  UNL     1      15.856 -34.405 -23.038  1.00  0.00     0.257 C 
ATOM     16  H22 UNL     1      14.972 -32.747 -22.050  1.00  0.00     0.277 HD
ATOM     17  H21 UNL     1      16.078 -32.295 -22.954  1.00  0.00     0.277 HD
ENDBRANCH   1  11
TORSDOF 3
ENDMDL
MODEL 3
REMARK VINA RESULT: -4.507118137      1.422      1.981
REMARK  3 active torsions:
REMARK  status: ('A' for Active; 'I' for Inactive)
REMARK    1  A    between atoms: C3_3  and  C4_4 
REMARK    2  A    between atoms: C4_4  and  N1_5 
REMARK    3  A    between atoms: N1_5  and  C5_7 
ROOT
HETATM    1  N1  UNL     1      17.447 -35.280 -20.938  1.00  0.00    -0.391 N 
ATOM      2  H1  UNL     1      18.426 -35.362 -20.664  1.00  0.00     0.159 HD
ENDROOT
BRANCH   1   3
HETATM    3  C4  UNL     1      16.800 -36.378 -21.504  1.00  0.00     0.114 C 
BRANCH   3   4
HETATM    4  C3  UNL     1      17.652 -37.597 -21.238  1.00  0.00     0.064 A 
HETATM    5  C2  UNL     1      17.204 -38.896 -21.093  1.00  0.00     0.051 A 
HETATM    6  C1  UNL     1      18.304 -39.690 -20.862  1.00  0.00     0.109 A 
HETATM    7  N4  UNL     1      19.386 -38.893 -20.869  1.00  0.00    -0.311 N 
HETATM    8  N3  UNL     1      18.989 -37.645 -21.094  1.00  0.00    -0.300 N 
ATOM      9  H4  UNL     1      20.349 -39.195 -20.725  1.00  0.00     0.186 HD
ATOM     10  H3  UNL     1      19.610 -36.838 -21.150  1.00  0.00     0.187 HD
ENDBRANCH   3   4
ENDBRANCH   1   3
BRANCH   1  11
HETATM   11  C5  UNL     1      16.773 -34.067 -20.739  1.00  0.00     0.108 C 
HETATM   12  C6  UNL     1      16.955 -33.049 -21.841  1.00  0.00     0.054 C 
HETATM   13  C7  UNL     1      15.580 -33.070 -22.489  1.00  0.00     0.234 C 
HETATM   14  N2  UNL     1      14.734 -33.002 -21.305  1.00  0.00    -0.073 N 
HETATM   15  C8  UNL     1      15.319 -34.093 -20.513  1.00  0.00     0.257 C 
ATOM     16  H22 UNL     1      14.686 -32.093 -20.843  1.00  0.00     0.277 HD
ATOM     17  H21 UNL     1      13.730 -33.061 -21.471  1.00  0.00     0.277 HD
ENDBRANCH   1  11
TORSDOF 3
ENDMDL
MODEL 4
REMARK VINA RESULT: -4.468112025      1.721      2.825
REMARK  3 active torsions:
REMARK  status: ('A' for Active; 'I' for Inactive)
REMARK    1  A    between atoms: C3_3  and  C4_4 
REMARK    2  A    between atoms: C4_4  and  N1_5 
REMARK    3  A    between atoms: N1_5  and  C5_7 
ROOT
HETATM    1  N1  UNL     1      17.037 -36.526 -21.787  1.00  0.00    -0.391 N 
ATOM      2  H1  UNL     1      17.930 -36.396 -22.263  1.00  0.00     0.159 HD
ENDROOT
BRANCH   1   3
HETATM    3  C4  UNL     1      16.720 -37.774 -21.253  1.00  0.00     0.114 C 
BRANCH   3   4
HETATM    4  C3  UNL     1      18.017 -38.518 -21.030  1.00  0.00     0.064 A 
HETATM    5  C2  UNL     1      18.165 -39.883 -20.880  1.00  0.00     0.051 A 
HETATM    6  C1  UNL     1      19.505 -40.137 -20.697  1.00  0.00     0.109 A 
HETATM    7  N4  UNL     1      20.148 -38.957 -20.737  1.00  0.00    -0.311 N 
HETATM    8  N3  UNL     1      19.253 -37.995 -20.936  1.00  0.00    -0.300 N 
ATOM      9  H4  UNL     1      21.153 -38.823 -20.631  1.00  0.00     0.186 HD
ATOM     10  H3  UNL     1      19.473 -37.002 -21.008  1.00  0.00     0.187 HD
ENDBRANCH   3   4
ENDBRANCH   1   3
BRANCH   1  11
HETATM   11  C5  UNL     1      16.148 -35.447 -21.680  1.00  0.00     0.108 C 
HETATM   12  C6  UNL     1      16.472 -34.462 -20.581  1.00  0.00     0.054 C 
HETATM   13  C7  UNL     1      16.954 -33.268 -21.390  1.00  0.00     0.234 C 
HETATM   14  N2  UNL     1      15.910 -33.205 -22.405  1.00  0.00    -0.073 N 
HETATM   15  C8  UNL     1      15.916 -34.601 -22.862  1.00  0.00     0.257 C 
ATOM     16  H22 UNL     1      15.008 -32.841 -22.095  1.00  0.00     0.277 HD
ATOM     17  H21 UNL     1      16.036 -32.498 -23.130  1.00  0.00     0.277 HD
ENDBRANCH   1  11
TORSDOF 3
ENDMDL
MODEL 5
REMARK VINA RESULT: -4.436705208      6.409      8.050
REMARK  3 active torsions:
REMARK  status: ('A' for Active; 'I' for Inactive)
REMARK    1  A    between atoms: C3_3  and  C4_4 
REMARK    2  A    between atoms: C4_4  and  N1_5 
REMARK    3  A    between atoms: N1_5  and  C5_7 
ROOT
HETATM    1  N1  UNL     1      22.722 -34.436 -17.411  1.00  0.00    -0.391 N 
ATOM      2  H1  UNL     1      22.717 -33.518 -17.854  1.00  0.00     0.159 HD
ENDROOT
BRANCH   1   3
HETATM    3  C4  UNL     1      22.500 -34.536 -16.038  1.00  0.00     0.114 C 
BRANCH   3   4
HETATM    4  C3  UNL     1      21.091 -34.063 -15.768  1.00  0.00     0.064 A 
HETATM    5  C2  UNL     1      20.029 -34.842 -15.349  1.00  0.00     0.051 A 
HETATM    6  C1  UNL     1      18.934 -34.018 -15.227  1.00  0.00     0.109 A 
HETATM    7  N4  UNL     1      19.324 -32.777 -15.562  1.00  0.00    -0.311 N 
HETATM    8  N3  UNL     1      20.613 -32.811 -15.883  1.00  0.00    -0.300 N 
ATOM      9  H4  UNL     1      18.730 -31.948 -15.569  1.00  0.00     0.186 HD
ATOM     10  H3  UNL     1      21.161 -32.002 -16.176  1.00  0.00     0.187 HD
ENDBRANCH   3   4
ENDBRANCH   1   3
BRANCH   1  11
HETATM   11  C5  UNL     1      22.952 -35.578 -18.191  1.00  0.00     0.108 C 
HETATM   12  C6  UNL     1      21.783 -36.531 -18.285  1.00  0.00     0.054 C 
HETATM   13  C7  UNL     1      21.342 -36.314 -19.724  1.00  0.00     0.234 C 
HETATM   14  N2  UNL     1      22.631 -36.369 -20.401  1.00  0.00    -0.073 N 
HETATM   15  C8  UNL     1      23.386 -35.407 -19.587  1.00  0.00     0.257 C 
ATOM     16  H22 UNL     1      23.046 -37.297 -20.494  1.00  0.00     0.277 HD
ATOM     17  H21 UNL     1      22.615 -36.188 -21.405  1.00  0.00     0.277 HD
ENDBRANCH   1  11
TORSDOF 3
ENDMDL
