MODEL 1
REMARK VINA RESULT: -5.004083299      0.000      0.000
REMARK  1 active torsions:
REMARK  status: ('A' for Active; 'I' for Inactive)
REMARK    1  A    between atoms: N1_2  and  C2_5 
ROOT
HETATM    1  C2  UNL     1       3.177   8.551   0.639  1.00  0.00     0.194 C 
HETATM    2  C3  UNL     1       1.918   8.708   1.489  1.00  0.00     0.038 C 
HETATM    3  C4  UNL     1       1.108   7.457   1.286  1.00  0.00    -0.012 C 
HETATM    4  C5  UNL     1       1.706   6.384   2.164  1.00  0.00     0.005 C 
HETATM    5  C6  UNL     1       3.088   6.216   1.540  1.00  0.00     0.011 C 
HETATM    6  C7  UNL     1       3.117   7.081   0.310  1.00  0.00    -0.015 C 
HETATM    7  C8  UNL     1       4.026   6.635  -0.757  1.00  0.00     0.017 C 
HETATM    8  C9  UNL     1       1.628   7.002  -0.087  1.00  0.00     0.016 C 
ENDROOT
BRANCH   1   9
HETATM    9  N1  UNL     1       4.361   8.947   1.318  1.00  0.00    -0.074 N 
HETATM   10  C1  UNL     1       5.215   9.688   0.449  1.00  0.00     0.267 C 
ATOM     11  H12 UNL     1       4.843   8.150   1.733  1.00  0.00     0.277 HD
ATOM     12  H11 UNL     1       4.152   9.463   2.172  1.00  0.00     0.277 HD
ENDBRANCH   1   9
TORSDOF 1
ENDMDL
MODEL 2
REMARK VINA RESULT: -4.939849912      0.988      2.433
REMARK  1 active torsions:
REMARK  status: ('A' for Active; 'I' for Inactive)
REMARK    1  A    between atoms: N1_2  and  C2_5 
ROOT
HETATM    1  C2  UNL     1       4.091   8.262   0.656  1.00  0.00     0.194 C 
HETATM    2  C3  UNL     1       4.082   6.929  -0.089  1.00  0.00     0.038 C 
HETATM    3  C4  UNL     1       2.917   6.146   0.452  1.00  0.00    -0.012 C 
HETATM    4  C5  UNL     1       1.671   6.665  -0.225  1.00  0.00     0.005 C 
HETATM    5  C6  UNL     1       1.619   8.100   0.291  1.00  0.00     0.011 C 
HETATM    6  C7  UNL     1       2.727   8.239   1.298  1.00  0.00    -0.015 C 
HETATM    7  C8  UNL     1       2.507   9.245   2.348  1.00  0.00     0.017 C 
HETATM    8  C9  UNL     1       2.760   6.794   1.837  1.00  0.00     0.016 C 
ENDROOT
BRANCH   1   9
HETATM    9  N1  UNL     1       4.314   9.376  -0.197  1.00  0.00    -0.074 N 
HETATM   10  C1  UNL     1       5.638   9.879  -0.034  1.00  0.00     0.267 C 
ATOM     11  H12 UNL     1       3.613  10.105  -0.058  1.00  0.00     0.277 HD
ATOM     12  H11 UNL     1       4.112   9.153  -1.172  1.00  0.00     0.277 HD
ENDBRANCH   1   9
TORSDOF 1
ENDMDL
MODEL 3
REMARK VINA RESULT: -4.405979363      1.432      3.362
REMARK  1 active torsions:
REMARK  status: ('A' for Active; 'I' for Inactive)
REMARK    1  A    between atoms: N1_2  and  C2_5 
ROOT
HETATM    1  C2  UNL     1       3.069   8.313   1.607  1.00  0.00     0.194 C 
HETATM    2  C3  UNL     1       3.964   9.545   1.737  1.00  0.00     0.038 C 
HETATM    3  C4  UNL     1       5.129   9.324   0.810  1.00  0.00    -0.012 C 
HETATM    4  C5  UNL     1       4.666   9.664  -0.586  1.00  0.00     0.005 C 
HETATM    5  C6  UNL     1       3.603   8.595  -0.823  1.00  0.00     0.011 C 
HETATM    6  C7  UNL     1       3.640   7.675   0.367  1.00  0.00    -0.015 C 
HETATM    7  C8  UNL     1       3.208   6.293   0.112  1.00  0.00     0.017 C 
HETATM    8  C9  UNL     1       5.136   7.789   0.726  1.00  0.00     0.016 C 
ENDROOT
BRANCH   1   9
HETATM    9  N1  UNL     1       1.688   8.635   1.514  1.00  0.00    -0.074 N 
HETATM   10  C1  UNL     1       0.885   7.526   1.913  1.00  0.00     0.267 C 
ATOM     11  H12 UNL     1       1.440   8.967   0.582  1.00  0.00     0.277 HD
ATOM     12  H11 UNL     1       1.460   9.477   2.043  1.00  0.00     0.277 HD
ENDBRANCH   1   9
TORSDOF 1
ENDMDL
MODEL 4
REMARK VINA RESULT: -4.329633482      1.593      2.912
REMARK  1 active torsions:
REMARK  status: ('A' for Active; 'I' for Inactive)
REMARK    1  A    between atoms: N1_2  and  C2_5 
ROOT
HETATM    1  C2  UNL     1       4.599   9.152  -0.509  1.00  0.00     0.194 C 
HETATM    2  C3  UNL     1       4.271   7.885  -1.297  1.00  0.00     0.038 C 
HETATM    3  C4  UNL     1       3.916   6.832  -0.283  1.00  0.00    -0.012 C 
HETATM    4  C5  UNL     1       2.488   7.077   0.141  1.00  0.00     0.005 C 
HETATM    5  C6  UNL     1       2.601   8.437   0.821  1.00  0.00     0.011 C 
HETATM    6  C7  UNL     1       4.064   8.787   0.852  1.00  0.00    -0.015 C 
HETATM    7  C8  UNL     1       4.481   9.669   1.952  1.00  0.00     0.017 C 
HETATM    8  C9  UNL     1       4.659   7.367   0.952  1.00  0.00     0.016 C 
ENDROOT
BRANCH   1   9
HETATM    9  N1  UNL     1       4.018  10.322  -1.067  1.00  0.00    -0.074 N 
HETATM   10  C1  UNL     1       5.021  11.161  -1.635  1.00  0.00     0.267 C 
ATOM     11  H12 UNL     1       3.447  10.823  -0.386  1.00  0.00     0.277 HD
ATOM     12  H11 UNL     1       3.288  10.097  -1.743  1.00  0.00     0.277 HD
ENDBRANCH   1   9
TORSDOF 1
ENDMDL
MODEL 5
REMARK VINA RESULT: -4.208292944      1.417      3.142
REMARK  1 active torsions:
REMARK  status: ('A' for Active; 'I' for Inactive)
REMARK    1  A    between atoms: N1_2  and  C2_5 
ROOT
HETATM    1  C2  UNL     1       2.476   8.526   1.000  1.00  0.00     0.194 C 
HETATM    2  C3  UNL     1       2.287   7.599  -0.200  1.00  0.00     0.038 C 
HETATM    3  C4  UNL     1       3.599   7.583  -0.936  1.00  0.00    -0.012 C 
HETATM    4  C5  UNL     1       4.517   6.636  -0.201  1.00  0.00     0.005 C 
HETATM    5  C6  UNL     1       4.681   7.347   1.138  1.00  0.00     0.011 C 
HETATM    6  C7  UNL     1       3.976   8.671   1.015  1.00  0.00    -0.015 C 
HETATM    7  C8  UNL     1       4.498   9.748   1.869  1.00  0.00     0.017 C 
HETATM    8  C9  UNL     1       4.190   8.930  -0.491  1.00  0.00     0.016 C 
ENDROOT
BRANCH   1   9
HETATM    9  N1  UNL     1       1.929   8.001   2.202  1.00  0.00    -0.074 N 
HETATM   10  C1  UNL     1       1.222   6.790   1.946  1.00  0.00     0.267 C 
ATOM     11  H12 UNL     1       1.345   8.686   2.682  1.00  0.00     0.277 HD
ATOM     12  H11 UNL     1       2.643   7.877   2.919  1.00  0.00     0.277 HD
ENDBRANCH   1   9
TORSDOF 1
ENDMDL
