MODEL 1
REMARK VINA RESULT: -4.256289004      0.000      0.000
REMARK  1 active torsions:
REMARK  status: ('A' for Active; 'I' for Inactive)
REMARK    1  A    between atoms: N1_1  and  C1_5 
ROOT
HETATM    1  C1  UNL     1       4.029   7.858   0.430  1.00  0.00     0.206 C 
HETATM    2  C2  UNL     1       2.654   7.248   0.562  1.00  0.00     0.018 C 
HETATM    3  C3  UNL     1       2.154   7.269   1.981  1.00  0.00     0.007 C 
HETATM    4  C4  UNL     1       1.830   8.726   2.307  1.00  0.00     0.006 C 
HETATM    5  C5  UNL     1       2.310   9.437   1.044  1.00  0.00     0.006 C 
HETATM    6  C6  UNL     1       1.839   8.425  -0.013  1.00  0.00     0.013 C 
HETATM    7  C7  UNL     1       3.782   9.262   0.990  1.00  0.00     0.117 C 
HETATM    8 CL1  UNL     1       4.646  10.441   0.040  1.00  0.00    -0.122 Cl
ENDROOT
BRANCH   1   9
HETATM    9  N1  UNL     1       5.049   7.167   1.129  1.00  0.00    -0.073 N 
ATOM     10  H13 UNL     1       4.829   7.125   2.124  1.00  0.00     0.274 HD
ATOM     11  H12 UNL     1       5.024   6.173   0.902  1.00  0.00     0.274 HD
ATOM     12  H11 UNL     1       5.987   7.541   0.988  1.00  0.00     0.274 HD
ENDBRANCH   1   9
TORSDOF 1
ENDMDL
MODEL 2
REMARK VINA RESULT: -3.768299430      1.145      1.309
REMARK  1 active torsions:
REMARK  status: ('A' for Active; 'I' for Inactive)
REMARK    1  A    between atoms: N1_1  and  C1_5 
ROOT
HETATM    1  C1  UNL     1       3.854   8.802   0.691  1.00  0.00     0.206 C 
HETATM    2  C2  UNL     1       2.679   8.053   0.107  1.00  0.00     0.018 C 
HETATM    3  C3  UNL     1       2.247   6.902   0.974  1.00  0.00     0.007 C 
HETATM    4  C4  UNL     1       1.586   7.511   2.209  1.00  0.00     0.006 C 
HETATM    5  C5  UNL     1       1.824   9.003   1.981  1.00  0.00     0.006 C 
HETATM    6  C6  UNL     1       1.575   9.070   0.465  1.00  0.00     0.013 C 
HETATM    7  C7  UNL     1       3.290   9.216   2.053  1.00  0.00     0.117 C 
HETATM    8 CL1  UNL     1       3.796  10.840   2.436  1.00  0.00    -0.122 Cl
ENDROOT
BRANCH   1   9
HETATM    9  N1  UNL     1       5.040   8.036   0.806  1.00  0.00    -0.073 N 
ATOM     10  H13 UNL     1       5.586   8.347   1.608  1.00  0.00     0.274 HD
ATOM     11  H12 UNL     1       4.821   7.085   1.100  1.00  0.00     0.274 HD
ATOM     12  H11 UNL     1       5.619   8.024  -0.034  1.00  0.00     0.274 HD
ENDBRANCH   1   9
TORSDOF 1
ENDMDL
MODEL 3
REMARK VINA RESULT: -3.709688698      1.890      2.434
REMARK  1 active torsions:
REMARK  status: ('A' for Active; 'I' for Inactive)
REMARK    1  A    between atoms: N1_1  and  C1_5 
ROOT
HETATM    1  C1  UNL     1       3.281   9.552   1.056  1.00  0.00     0.206 C 
HETATM    2  C2  UNL     1       3.483   8.469   0.022  1.00  0.00     0.018 C 
HETATM    3  C3  UNL     1       4.052   7.210   0.617  1.00  0.00     0.007 C 
HETATM    4  C4  UNL     1       2.937   6.579   1.449  1.00  0.00     0.006 C 
HETATM    5  C5  UNL     1       1.841   7.638   1.346  1.00  0.00     0.006 C 
HETATM    6  C6  UNL     1       2.009   8.037  -0.129  1.00  0.00     0.013 C 
HETATM    7  C7  UNL     1       2.348   8.845   2.043  1.00  0.00     0.117 C 
HETATM    8 CL1  UNL     1       1.129   9.955   2.608  1.00  0.00    -0.122 Cl
ENDROOT
BRANCH   1   9
HETATM    9  N1  UNL     1       4.473  10.009   1.669  1.00  0.00    -0.073 N 
ATOM     10  H13 UNL     1       4.455  11.024   1.765  1.00  0.00     0.274 HD
ATOM     11  H12 UNL     1       4.492   9.739   2.653  1.00  0.00     0.274 HD
ATOM     12  H11 UNL     1       5.330   9.712   1.202  1.00  0.00     0.274 HD
ENDBRANCH   1   9
TORSDOF 1
ENDMDL
MODEL 4
REMARK VINA RESULT: -3.360022325      2.375      3.214
REMARK  1 active torsions:
REMARK  status: ('A' for Active; 'I' for Inactive)
REMARK    1  A    between atoms: N1_1  and  C1_5 
ROOT
HETATM    1  C1  UNL     1       2.321   9.333   1.729  1.00  0.00     0.206 C 
HETATM    2  C2  UNL     1       3.217   9.663   0.559  1.00  0.00     0.018 C 
HETATM    3  C3  UNL     1       4.640   9.233   0.789  1.00  0.00     0.007 C 
HETATM    4  C4  UNL     1       4.652   7.707   0.710  1.00  0.00     0.006 C 
HETATM    5  C5  UNL     1       3.164   7.396   0.562  1.00  0.00     0.006 C 
HETATM    6  C6  UNL     1       2.760   8.535  -0.389  1.00  0.00     0.013 C 
HETATM    7  C7  UNL     1       2.513   7.817   1.826  1.00  0.00     0.117 C 
HETATM    8 CL1  UNL     1       0.989   7.047   2.179  1.00  0.00    -0.122 Cl
ENDROOT
BRANCH   1   9
HETATM    9  N1  UNL     1       2.657  10.000   2.932  1.00  0.00    -0.073 N 
ATOM     10  H13 UNL     1       3.599  10.385   2.873  1.00  0.00     0.274 HD
ATOM     11  H12 UNL     1       2.119  10.861   3.022  1.00  0.00     0.274 HD
ATOM     12  H11 UNL     1       2.559   9.430   3.773  1.00  0.00     0.274 HD
ENDBRANCH   1   9
TORSDOF 1
ENDMDL
MODEL 5
REMARK VINA RESULT: -3.105066646      1.661      2.220
REMARK  1 active torsions:
REMARK  status: ('A' for Active; 'I' for Inactive)
REMARK    1  A    between atoms: N1_1  and  C1_5 
ROOT
HETATM    1  C1  UNL     1       2.910   7.673   0.696  1.00  0.00     0.206 C 
HETATM    2  C2  UNL     1       2.191   8.998   0.792  1.00  0.00     0.018 C 
HETATM    3  C3  UNL     1       2.362   9.644   2.140  1.00  0.00     0.007 C 
HETATM    4  C4  UNL     1       3.811  10.123   2.213  1.00  0.00     0.006 C 
HETATM    5  C5  UNL     1       4.382   9.575   0.907  1.00  0.00     0.006 C 
HETATM    6  C6  UNL     1       3.189   9.845  -0.025  1.00  0.00     0.013 C 
HETATM    7  C7  UNL     1       4.347   8.096   1.015  1.00  0.00     0.117 C 
HETATM    8 CL1  UNL     1       5.461   7.241  -0.018  1.00  0.00    -0.122 Cl
ENDROOT
BRANCH   1   9
HETATM    9  N1  UNL     1       2.429   6.678   1.582  1.00  0.00    -0.073 N 
ATOM     10  H13 UNL     1       2.576   5.750   1.185  1.00  0.00     0.274 HD
ATOM     11  H12 UNL     1       3.030   6.614   2.404  1.00  0.00     0.274 HD
ATOM     12  H11 UNL     1       1.455   6.795   1.861  1.00  0.00     0.274 HD
ENDBRANCH   1   9
TORSDOF 1
ENDMDL
