MODEL 1
REMARK VINA RESULT: -8.698348353      0.000      0.000
REMARK  16 active torsions:
REMARK  status: ('A' for Active; 'I' for Inactive)
REMARK    1  A    between atoms: C3_3  and  C4_4 
REMARK    2  A    between atoms: C3_3  and  N4_26 
REMARK    3  A    between atoms: C4_4  and  C5_5 
REMARK    4  A    between atoms: C5_5  and  C6_6 
REMARK    5  A    between atoms: C6_6  and  C7_7 
REMARK    6  A    between atoms: C7_7  and  N1_8 
REMARK       I    between atoms: N1_8  and  C8_10 
REMARK    7  A    between atoms: C8_10  and  C9_12 
REMARK    8  A    between atoms: C9_12  and  C10_13 
REMARK    9  A    between atoms: C10_13  and  N2_14 
REMARK       I    between atoms: N2_14  and  C11_16 
REMARK   10  A    between atoms: C11_16  and  C12_18 
REMARK   11  A    between atoms: N4_26  and  C17_27 
REMARK   12  A    between atoms: C17_27  and  C18_28 
REMARK   13  A    between atoms: C17_27  and  C22_36 
REMARK   14  A    between atoms: C18_28  and  C19_29 
REMARK       I    between atoms: C22_36  and  N7_38 
REMARK       I    between atoms: N8_41  and  C25_42 
REMARK   15  A    between atoms: C25_42  and  O5_44 
REMARK   16  A    between atoms: O5_44  and  C26_45 
ROOT
HETATM    1  C1  UNL     1       4.050  17.414  -0.385  1.00  0.00     0.015 C 
HETATM    2  C2  UNL     1       4.885  17.092   0.418  1.00  0.00    -0.078 C 
HETATM    3  C3  UNL     1       5.921  16.713   1.446  1.00  0.00     0.241 C 
ENDROOT
BRANCH   3   4
HETATM    4  C4  UNL     1       6.032  17.953   2.369  1.00  0.00     0.052 C 
BRANCH   4   5
HETATM    5  C5  UNL     1       5.809  17.599   3.795  1.00  0.00     0.006 C 
BRANCH   5   6
HETATM    6  C6  UNL     1       6.552  18.438   4.803  1.00  0.00     0.020 C 
BRANCH   6   7
HETATM    7  C7  UNL     1       5.492  18.869   5.824  1.00  0.00     0.122 C 
BRANCH   7   8
HETATM    8  N1  UNL     1       5.777  18.233   7.077  1.00  0.00    -0.361 N 
HETATM    9  C8  UNL     1       4.945  17.206   7.575  1.00  0.00     0.219 C 
HETATM   10  O1  UNL     1       3.932  16.773   6.986  1.00  0.00    -0.274 OA
ATOM     11  H1  UNL     1       6.592  18.525   7.615  1.00  0.00     0.162 HD
BRANCH   9  12
HETATM   12  C9  UNL     1       5.341  16.624   8.899  1.00  0.00     0.122 C 
BRANCH  12  13
HETATM   13  C10 UNL     1       6.816  16.779   9.124  1.00  0.00     0.132 C 
BRANCH  13  14
HETATM   14  N2  UNL     1       7.577  15.824   8.330  1.00  0.00    -0.359 N 
HETATM   15  C11 UNL     1       8.606  16.187   7.439  1.00  0.00     0.248 C 
HETATM   16  O2  UNL     1       8.891  17.430   7.345  1.00  0.00    -0.271 OA
ATOM     17  H2  UNL     1       7.352  14.834   8.425  1.00  0.00     0.162 HD
BRANCH  15  18
HETATM   18  C12 UNL     1       9.332  15.205   6.650  1.00  0.00     0.277 C 
HETATM   19  C13 UNL     1      10.179  15.757   5.572  1.00  0.00     0.043 C 
HETATM   20  C14 UNL     1       9.404  16.113   4.323  1.00  0.00     0.004 C 
HETATM   21  C15 UNL     1       8.523  14.936   3.946  1.00  0.00     0.027 C 
HETATM   22  C16 UNL     1       7.602  14.646   5.099  1.00  0.00     0.233 C 
HETATM   23  N3  UNL     1       8.423  14.144   6.206  1.00  0.00    -0.062 N 
ATOM     24  H32 UNL     1       8.918  13.286   5.963  1.00  0.00     0.278 HD
ATOM     25  H31 UNL     1       7.859  13.771   6.970  1.00  0.00     0.278 HD
ENDBRANCH  15  18
ENDBRANCH  13  14
ENDBRANCH  12  13
ENDBRANCH   9  12
ENDBRANCH   7   8
ENDBRANCH   6   7
ENDBRANCH   5   6
ENDBRANCH   4   5
ENDBRANCH   3   4
BRANCH   3  26
HETATM   26  N4  UNL     1       7.082  16.388   0.902  1.00  0.00    -0.429 NA
BRANCH  26  27
HETATM   27  C17 UNL     1       8.131  16.067   0.379  1.00  0.00     0.153 C 
BRANCH  27  28
HETATM   28  C18 UNL     1       9.326  16.961   0.778  1.00  0.00     0.154 C 
BRANCH  28  29
HETATM   29  C19 UNL     1      10.599  16.230   0.550  1.00  0.00     0.087 A 
HETATM   30  N5  UNL     1      11.636  16.680  -0.228  1.00  0.00    -0.354 N 
HETATM   31  C20 UNL     1      12.624  15.785  -0.182  1.00  0.00     0.106 A 
ATOM     32  H5  UNL     1      11.648  17.553  -0.755  1.00  0.00     0.166 HD
HETATM   33  C21 UNL     1      12.219  14.755   0.632  1.00  0.00     0.106 A 
HETATM   34  N6  UNL     1      10.977  15.062   1.061  1.00  0.00    -0.354 N 
ATOM     35  H6  UNL     1      10.412  14.485   1.684  1.00  0.00     0.166 HD
ENDBRANCH  28  29
ENDBRANCH  27  28
BRANCH  27  36
HETATM   36  C22 UNL     1       8.436  14.986  -0.545  1.00  0.00     0.280 C 
HETATM   37  O3  UNL     1       8.362  13.792  -0.069  1.00  0.00    -0.265 OA
HETATM   38  N7  UNL     1       8.795  15.065  -1.882  1.00  0.00    -0.343 N 
HETATM   39  C23 UNL     1       8.899  16.283  -2.615  1.00  0.00     0.146 C 
HETATM   40  C29 UNL     1       9.100  13.809  -2.604  1.00  0.00     0.146 C 
HETATM   41  C24 UNL     1       9.182  16.004  -4.097  1.00  0.00     0.148 C 
HETATM   42  N8  UNL     1      10.281  15.092  -4.239  1.00  0.00    -0.325 N 
HETATM   43  C25 UNL     1      11.213  15.200  -5.295  1.00  0.00     0.362 C 
HETATM   44  C28 UNL     1      10.441  14.032  -3.269  1.00  0.00     0.148 C 
HETATM   45  O4  UNL     1      12.164  14.398  -5.399  1.00  0.00    -0.238 OA
BRANCH  43  46
HETATM   46  O5  UNL     1      11.139  16.188  -6.272  1.00  0.00    -0.304 OA
BRANCH  46  47
HETATM   47  C26 UNL     1      10.097  16.253  -7.190  1.00  0.00     0.176 C 
HETATM   48  C27 UNL     1       9.686  14.943  -7.772  1.00  0.00     0.034 C 
ENDBRANCH  46  47
ENDBRANCH  43  46
ENDBRANCH  27  36
ENDBRANCH  26  27
ENDBRANCH   3  26
TORSDOF 16
ENDMDL
MODEL 2
REMARK VINA RESULT: -8.530295849      2.144      3.807
REMARK  16 active torsions:
REMARK  status: ('A' for Active; 'I' for Inactive)
REMARK    1  A    between atoms: C3_3  and  C4_4 
REMARK    2  A    between atoms: C3_3  and  N4_26 
REMARK    3  A    between atoms: C4_4  and  C5_5 
REMARK    4  A    between atoms: C5_5  and  C6_6 
REMARK    5  A    between atoms: C6_6  and  C7_7 
REMARK    6  A    between atoms: C7_7  and  N1_8 
REMARK       I    between atoms: N1_8  and  C8_10 
REMARK    7  A    between atoms: C8_10  and  C9_12 
REMARK    8  A    between atoms: C9_12  and  C10_13 
REMARK    9  A    between atoms: C10_13  and  N2_14 
REMARK       I    between atoms: N2_14  and  C11_16 
REMARK   10  A    between atoms: C11_16  and  C12_18 
REMARK   11  A    between atoms: N4_26  and  C17_27 
REMARK   12  A    between atoms: C17_27  and  C18_28 
REMARK   13  A    between atoms: C17_27  and  C22_36 
REMARK   14  A    between atoms: C18_28  and  C19_29 
REMARK       I    between atoms: C22_36  and  N7_38 
REMARK       I    between atoms: N8_41  and  C25_42 
REMARK   15  A    between atoms: C25_42  and  O5_44 
REMARK   16  A    between atoms: O5_44  and  C26_45 
ROOT
HETATM    1  C1  UNL     1       9.812  15.864   2.214  1.00  0.00     0.015 C 
HETATM    2  C2  UNL     1       9.583  16.412   1.168  1.00  0.00    -0.078 C 
HETATM    3  C3  UNL     1       9.267  17.113  -0.128  1.00  0.00     0.241 C 
ENDROOT
BRANCH   3   4
HETATM    4  C4  UNL     1       7.775  17.514  -0.006  1.00  0.00     0.052 C 
BRANCH   4   5
HETATM    5  C5  UNL     1       6.886  16.323   0.017  1.00  0.00     0.006 C 
BRANCH   5   6
HETATM    6  C6  UNL     1       5.406  16.610   0.051  1.00  0.00     0.020 C 
BRANCH   6   7
HETATM    7  C7  UNL     1       5.290  18.046   0.576  1.00  0.00     0.122 C 
BRANCH   7   8
HETATM    8  N1  UNL     1       4.510  18.032   1.779  1.00  0.00    -0.361 N 
HETATM    9  C8  UNL     1       5.128  17.902   3.043  1.00  0.00     0.219 C 
HETATM   10  O1  UNL     1       6.361  17.802   3.216  1.00  0.00    -0.274 OA
ATOM     11  H1  UNL     1       3.495  18.117   1.722  1.00  0.00     0.162 HD
BRANCH   9  12
HETATM   12  C9  UNL     1       4.207  17.892   4.225  1.00  0.00     0.122 C 
BRANCH  12  13
HETATM   13  C10 UNL     1       4.968  18.151   5.491  1.00  0.00     0.132 C 
BRANCH  13  14
HETATM   14  N2  UNL     1       5.532  16.922   6.033  1.00  0.00    -0.359 N 
HETATM   15  C11 UNL     1       6.732  16.866   6.768  1.00  0.00     0.248 C 
HETATM   16  O2  UNL     1       7.345  17.968   6.980  1.00  0.00    -0.271 OA
ATOM     17  H2  UNL     1       5.026  16.051   5.872  1.00  0.00     0.162 HD
BRANCH  15  18
HETATM   18  C12 UNL     1       7.271  15.616   7.279  1.00  0.00     0.277 C 
HETATM   19  C13 UNL     1       8.667  15.676   7.760  1.00  0.00     0.043 C 
HETATM   20  C14 UNL     1       9.689  15.604   6.648  1.00  0.00     0.004 C 
HETATM   21  C15 UNL     1       9.342  14.434   5.745  1.00  0.00     0.027 C 
HETATM   22  C16 UNL     1       7.956  14.650   5.203  1.00  0.00     0.233 C 
HETATM   23  N3  UNL     1       7.018  14.531   6.326  1.00  0.00    -0.062 N 
ATOM     24  H32 UNL     1       7.055  13.612   6.766  1.00  0.00     0.278 HD
ATOM     25  H31 UNL     1       6.046  14.504   6.018  1.00  0.00     0.278 HD
ENDBRANCH  15  18
ENDBRANCH  13  14
ENDBRANCH  12  13
ENDBRANCH   9  12
ENDBRANCH   7   8
ENDBRANCH   6   7
ENDBRANCH   5   6
ENDBRANCH   4   5
ENDBRANCH   3   4
BRANCH   3  26
HETATM   26  N4  UNL     1       9.496  16.353  -1.187  1.00  0.00    -0.429 NA
BRANCH  26  27
HETATM   27  C17 UNL     1       9.738  15.644  -2.144  1.00  0.00     0.153 C 
BRANCH  27  28
HETATM   28  C18 UNL     1      10.176  14.213  -1.765  1.00  0.00     0.154 C 
BRANCH  28  29
HETATM   29  C19 UNL     1      11.428  14.264  -0.969  1.00  0.00     0.087 A 
HETATM   30  N5  UNL     1      11.919  13.233  -0.208  1.00  0.00    -0.354 N 
HETATM   31  C20 UNL     1      13.072  13.618   0.343  1.00  0.00     0.106 A 
ATOM     32  H5  UNL     1      11.476  12.323  -0.083  1.00  0.00     0.166 HD
HETATM   33  C21 UNL     1      13.322  14.906  -0.069  1.00  0.00     0.106 A 
HETATM   34  N6  UNL     1      12.297  15.266  -0.869  1.00  0.00    -0.354 N 
ATOM     35  H6  UNL     1      12.202  16.172  -1.329  1.00  0.00     0.166 HD
ENDBRANCH  28  29
ENDBRANCH  27  28
BRANCH  27  36
HETATM   36  C22 UNL     1       9.675  15.926  -3.569  1.00  0.00     0.280 C 
HETATM   37  O3  UNL     1       8.666  16.620  -3.969  1.00  0.00    -0.265 OA
HETATM   38  N7  UNL     1      10.561  15.551  -4.567  1.00  0.00    -0.343 N 
HETATM   39  C23 UNL     1      11.761  14.813  -4.340  1.00  0.00     0.146 C 
HETATM   40  C29 UNL     1      10.250  15.926  -5.964  1.00  0.00     0.146 C 
HETATM   41  C24 UNL     1      12.574  14.684  -5.633  1.00  0.00     0.148 C 
HETATM   42  N8  UNL     1      11.745  14.216  -6.708  1.00  0.00    -0.325 N 
HETATM   43  C25 UNL     1      12.233  13.342  -7.704  1.00  0.00     0.362 C 
HETATM   44  C28 UNL     1      10.367  14.651  -6.770  1.00  0.00     0.148 C 
HETATM   45  O4  UNL     1      11.495  12.944  -8.629  1.00  0.00    -0.238 OA
BRANCH  43  46
HETATM   46  O5  UNL     1      13.542  12.871  -7.724  1.00  0.00    -0.304 OA
BRANCH  46  47
HETATM   47  C26 UNL     1      13.861  11.542  -7.471  1.00  0.00     0.176 C 
HETATM   48  C27 UNL     1      13.716  11.118  -6.049  1.00  0.00     0.034 C 
ENDBRANCH  46  47
ENDBRANCH  43  46
ENDBRANCH  27  36
ENDBRANCH  26  27
ENDBRANCH   3  26
TORSDOF 16
ENDMDL
MODEL 3
REMARK VINA RESULT: -8.529560428      2.787      4.418
REMARK  16 active torsions:
REMARK  status: ('A' for Active; 'I' for Inactive)
REMARK    1  A    between atoms: C3_3  and  C4_4 
REMARK    2  A    between atoms: C3_3  and  N4_26 
REMARK    3  A    between atoms: C4_4  and  C5_5 
REMARK    4  A    between atoms: C5_5  and  C6_6 
REMARK    5  A    between atoms: C6_6  and  C7_7 
REMARK    6  A    between atoms: C7_7  and  N1_8 
REMARK       I    between atoms: N1_8  and  C8_10 
REMARK    7  A    between atoms: C8_10  and  C9_12 
REMARK    8  A    between atoms: C9_12  and  C10_13 
REMARK    9  A    between atoms: C10_13  and  N2_14 
REMARK       I    between atoms: N2_14  and  C11_16 
REMARK   10  A    between atoms: C11_16  and  C12_18 
REMARK   11  A    between atoms: N4_26  and  C17_27 
REMARK   12  A    between atoms: C17_27  and  C18_28 
REMARK   13  A    between atoms: C17_27  and  C22_36 
REMARK   14  A    between atoms: C18_28  and  C19_29 
REMARK       I    between atoms: C22_36  and  N7_38 
REMARK       I    between atoms: N8_41  and  C25_42 
REMARK   15  A    between atoms: C25_42  and  O5_44 
REMARK   16  A    between atoms: O5_44  and  C26_45 
ROOT
HETATM    1  C1  UNL     1       5.909  16.630  -0.149  1.00  0.00     0.015 C 
HETATM    2  C2  UNL     1       6.841  15.878  -0.035  1.00  0.00    -0.078 C 
HETATM    3  C3  UNL     1       8.001  14.932   0.142  1.00  0.00     0.241 C 
ENDROOT
BRANCH   3   4
HETATM    4  C4  UNL     1       8.245  14.889   1.672  1.00  0.00     0.052 C 
BRANCH   4   5
HETATM    5  C5  UNL     1       9.417  15.716   2.065  1.00  0.00     0.006 C 
BRANCH   5   6
HETATM    6  C6  UNL     1       9.176  16.708   3.173  1.00  0.00     0.020 C 
BRANCH   6   7
HETATM    7  C7  UNL     1       8.068  17.630   2.650  1.00  0.00     0.122 C 
BRANCH   7   8
HETATM    8  N1  UNL     1       6.888  17.419   3.436  1.00  0.00    -0.361 N 
HETATM    9  C8  UNL     1       5.726  18.193   3.223  1.00  0.00     0.219 C 
HETATM   10  O1  UNL     1       5.627  19.089   2.357  1.00  0.00    -0.274 OA
ATOM     11  H1  UNL     1       6.886  16.699   4.158  1.00  0.00     0.162 HD
BRANCH   9  12
HETATM   12  C9  UNL     1       4.559  17.885   4.112  1.00  0.00     0.122 C 
BRANCH  12  13
HETATM   13  C10 UNL     1       4.892  18.180   5.543  1.00  0.00     0.132 C 
BRANCH  13  14
HETATM   14  N2  UNL     1       5.412  17.000   6.222  1.00  0.00    -0.359 N 
HETATM   15  C11 UNL     1       6.739  16.877   6.678  1.00  0.00     0.248 C 
HETATM   16  O2  UNL     1       7.519  17.874   6.495  1.00  0.00    -0.271 OA
ATOM     17  H2  UNL     1       4.777  16.217   6.376  1.00  0.00     0.162 HD
BRANCH  15  18
HETATM   18  C12 UNL     1       7.224  15.675   7.336  1.00  0.00     0.277 C 
HETATM   19  C13 UNL     1       8.635  15.718   7.775  1.00  0.00     0.043 C 
HETATM   20  C14 UNL     1       9.619  15.445   6.660  1.00  0.00     0.004 C 
HETATM   21  C15 UNL     1       9.185  14.190   5.925  1.00  0.00     0.027 C 
HETATM   22  C16 UNL     1       7.798  14.412   5.390  1.00  0.00     0.233 C 
HETATM   23  N3  UNL     1       6.888  14.492   6.538  1.00  0.00    -0.062 N 
ATOM     24  H32 UNL     1       6.888  13.637   7.093  1.00  0.00     0.278 HD
ATOM     25  H31 UNL     1       5.907  14.480   6.257  1.00  0.00     0.278 HD
ENDBRANCH  15  18
ENDBRANCH  13  14
ENDBRANCH  12  13
ENDBRANCH   9  12
ENDBRANCH   7   8
ENDBRANCH   6   7
ENDBRANCH   5   6
ENDBRANCH   4   5
ENDBRANCH   3   4
BRANCH   3  26
HETATM   26  N4  UNL     1       9.076  15.315  -0.526  1.00  0.00    -0.429 NA
BRANCH  26  27
HETATM   27  C17 UNL     1      10.070  15.694  -1.115  1.00  0.00     0.153 C 
BRANCH  27  28
HETATM   28  C18 UNL     1       9.781  16.726  -2.227  1.00  0.00     0.154 C 
BRANCH  28  29
HETATM   29  C19 UNL     1       9.255  16.035  -3.431  1.00  0.00     0.087 A 
HETATM   30  N5  UNL     1       9.310  14.681  -3.648  1.00  0.00    -0.354 N 
HETATM   31  C20 UNL     1       8.720  14.410  -4.814  1.00  0.00     0.106 A 
ATOM     32  H5  UNL     1       9.732  13.995  -3.023  1.00  0.00     0.166 HD
HETATM   33  C21 UNL     1       8.284  15.599  -5.348  1.00  0.00     0.106 A 
HETATM   34  N6  UNL     1       8.628  16.569  -4.475  1.00  0.00    -0.354 N 
ATOM     35  H6  UNL     1       8.436  17.563  -4.598  1.00  0.00     0.166 HD
ENDBRANCH  28  29
ENDBRANCH  27  28
BRANCH  27  36
HETATM   36  C22 UNL     1      11.468  15.337  -0.937  1.00  0.00     0.280 C 
HETATM   37  O3  UNL     1      12.237  16.259  -0.470  1.00  0.00    -0.265 OA
HETATM   38  N7  UNL     1      12.094  14.128  -1.200  1.00  0.00    -0.343 N 
HETATM   39  C23 UNL     1      11.425  12.966  -1.685  1.00  0.00     0.146 C 
HETATM   40  C29 UNL     1      13.553  14.027  -0.974  1.00  0.00     0.146 C 
HETATM   41  C24 UNL     1      12.382  11.769  -1.738  1.00  0.00     0.148 C 
HETATM   42  N8  UNL     1      13.597  12.121  -2.416  1.00  0.00    -0.325 N 
HETATM   43  C25 UNL     1      14.286  11.206  -3.243  1.00  0.00     0.362 C 
HETATM   44  C28 UNL     1      14.130  13.455  -2.252  1.00  0.00     0.148 C 
HETATM   45  O4  UNL     1      15.339  11.533  -3.827  1.00  0.00    -0.238 OA
BRANCH  43  46
HETATM   46  O5  UNL     1      13.848   9.904  -3.461  1.00  0.00    -0.304 OA
BRANCH  46  47
HETATM   47  C26 UNL     1      13.574   9.411  -4.732  1.00  0.00     0.176 C 
HETATM   48  C27 UNL     1      12.934   8.065  -4.762  1.00  0.00     0.034 C 
ENDBRANCH  46  47
ENDBRANCH  43  46
ENDBRANCH  27  36
ENDBRANCH  26  27
ENDBRANCH   3  26
TORSDOF 16
ENDMDL
MODEL 4
REMARK VINA RESULT: -8.453549085      2.072      3.325
REMARK  16 active torsions:
REMARK  status: ('A' for Active; 'I' for Inactive)
REMARK    1  A    between atoms: C3_3  and  C4_4 
REMARK    2  A    between atoms: C3_3  and  N4_26 
REMARK    3  A    between atoms: C4_4  and  C5_5 
REMARK    4  A    between atoms: C5_5  and  C6_6 
REMARK    5  A    between atoms: C6_6  and  C7_7 
REMARK    6  A    between atoms: C7_7  and  N1_8 
REMARK       I    between atoms: N1_8  and  C8_10 
REMARK    7  A    between atoms: C8_10  and  C9_12 
REMARK    8  A    between atoms: C9_12  and  C10_13 
REMARK    9  A    between atoms: C10_13  and  N2_14 
REMARK       I    between atoms: N2_14  and  C11_16 
REMARK   10  A    between atoms: C11_16  and  C12_18 
REMARK   11  A    between atoms: N4_26  and  C17_27 
REMARK   12  A    between atoms: C17_27  and  C18_28 
REMARK   13  A    between atoms: C17_27  and  C22_36 
REMARK   14  A    between atoms: C18_28  and  C19_29 
REMARK       I    between atoms: C22_36  and  N7_38 
REMARK       I    between atoms: N8_41  and  C25_42 
REMARK   15  A    between atoms: C25_42  and  O5_44 
REMARK   16  A    between atoms: O5_44  and  C26_45 
ROOT
HETATM    1  C1  UNL     1       8.506  14.407   1.632  1.00  0.00     0.015 C 
HETATM    2  C2  UNL     1       8.226  15.293   0.869  1.00  0.00    -0.078 C 
HETATM    3  C3  UNL     1       7.841  16.398  -0.081  1.00  0.00     0.241 C 
ENDROOT
BRANCH   3   4
HETATM    4  C4  UNL     1       6.342  16.149  -0.389  1.00  0.00     0.052 C 
BRANCH   4   5
HETATM    5  C5  UNL     1       5.465  17.105   0.337  1.00  0.00     0.006 C 
BRANCH   5   6
HETATM    6  C6  UNL     1       6.121  18.387   0.784  1.00  0.00     0.020 C 
BRANCH   6   7
HETATM    7  C7  UNL     1       5.046  19.124   1.592  1.00  0.00     0.122 C 
BRANCH   7   8
HETATM    8  N1  UNL     1       5.609  19.516   2.851  1.00  0.00    -0.361 N 
HETATM    9  C8  UNL     1       5.602  18.633   3.954  1.00  0.00     0.219 C 
HETATM   10  O1  UNL     1       5.132  17.476   3.926  1.00  0.00    -0.274 OA
ATOM     11  H1  UNL     1       6.020  20.443   2.952  1.00  0.00     0.162 HD
BRANCH   9  12
HETATM   12  C9  UNL     1       6.211  19.159   5.219  1.00  0.00     0.122 C 
BRANCH  12  13
HETATM   13  C10 UNL     1       5.574  18.523   6.418  1.00  0.00     0.132 C 
BRANCH  13  14
HETATM   14  N2  UNL     1       6.077  17.173   6.634  1.00  0.00    -0.359 N 
HETATM   15  C11 UNL     1       7.255  16.879   7.348  1.00  0.00     0.248 C 
HETATM   16  O2  UNL     1       7.902  17.863   7.847  1.00  0.00    -0.271 OA
ATOM     17  H2  UNL     1       5.545  16.395   6.245  1.00  0.00     0.162 HD
BRANCH  15  18
HETATM   18  C12 UNL     1       7.734  15.518   7.527  1.00  0.00     0.277 C 
HETATM   19  C13 UNL     1       9.191  15.380   7.731  1.00  0.00     0.043 C 
HETATM   20  C14 UNL     1       9.984  15.436   6.444  1.00  0.00     0.004 C 
HETATM   21  C15 UNL     1       9.354  14.484   5.443  1.00  0.00     0.027 C 
HETATM   22  C16 UNL     1       7.927  14.903   5.226  1.00  0.00     0.233 C 
HETATM   23  N3  UNL     1       7.197  14.652   6.474  1.00  0.00    -0.062 N 
ATOM     24  H32 UNL     1       7.210  13.667   6.738  1.00  0.00     0.278 HD
ATOM     25  H31 UNL     1       6.188  14.757   6.362  1.00  0.00     0.278 HD
ENDBRANCH  15  18
ENDBRANCH  13  14
ENDBRANCH  12  13
ENDBRANCH   9  12
ENDBRANCH   7   8
ENDBRANCH   6   7
ENDBRANCH   5   6
ENDBRANCH   4   5
ENDBRANCH   3   4
BRANCH   3  26
HETATM   26  N4  UNL     1       8.582  16.408  -1.176  1.00  0.00    -0.429 NA
BRANCH  26  27
HETATM   27  C17 UNL     1       9.290  16.433  -2.163  1.00  0.00     0.153 C 
BRANCH  27  28
HETATM   28  C18 UNL     1      10.733  16.909  -1.886  1.00  0.00     0.154 C 
BRANCH  28  29
HETATM   29  C19 UNL     1      11.417  15.945  -0.988  1.00  0.00     0.087 A 
HETATM   30  N5  UNL     1      11.107  14.612  -0.881  1.00  0.00    -0.354 N 
HETATM   31  C20 UNL     1      11.940  14.048  -0.006  1.00  0.00     0.106 A 
ATOM     32  H5  UNL     1      10.362  14.133  -1.387  1.00  0.00     0.166 HD
HETATM   33  C21 UNL     1      12.791  15.025   0.452  1.00  0.00     0.106 A 
HETATM   34  N6  UNL     1      12.441  16.170  -0.170  1.00  0.00    -0.354 N 
ATOM     35  H6  UNL     1      12.895  17.073  -0.034  1.00  0.00     0.166 HD
ENDBRANCH  28  29
ENDBRANCH  27  28
BRANCH  27  36
HETATM   36  C22 UNL     1       8.999  16.084  -3.545  1.00  0.00     0.280 C 
HETATM   37  O3  UNL     1       7.792  16.292  -3.943  1.00  0.00    -0.265 OA
HETATM   38  N7  UNL     1       9.851  15.556  -4.504  1.00  0.00    -0.343 N 
HETATM   39  C23 UNL     1      11.234  15.284  -4.287  1.00  0.00     0.146 C 
HETATM   40  C29 UNL     1       9.298  15.242  -5.840  1.00  0.00     0.146 C 
HETATM   41  C24 UNL     1      11.911  14.834  -5.588  1.00  0.00     0.148 C 
HETATM   42  N8  UNL     1      11.157  13.786  -6.215  1.00  0.00    -0.325 N 
HETATM   43  C25 UNL     1      11.782  12.724  -6.905  1.00  0.00     0.362 C 
HETATM   44  C28 UNL     1       9.713  13.816  -6.134  1.00  0.00     0.148 C 
HETATM   45  O4  UNL     1      11.108  11.821  -7.442  1.00  0.00    -0.238 OA
BRANCH  43  46
HETATM   46  O5  UNL     1      13.162  12.612  -7.033  1.00  0.00    -0.304 OA
BRANCH  46  47
HETATM   47  C26 UNL     1      13.848  11.441  -6.729  1.00  0.00     0.176 C 
HETATM   48  C27 UNL     1      13.893  11.096  -5.279  1.00  0.00     0.034 C 
ENDBRANCH  46  47
ENDBRANCH  43  46
ENDBRANCH  27  36
ENDBRANCH  26  27
ENDBRANCH   3  26
TORSDOF 16
ENDMDL
MODEL 5
REMARK VINA RESULT: -8.399877891      2.703      4.453
REMARK  16 active torsions:
REMARK  status: ('A' for Active; 'I' for Inactive)
REMARK    1  A    between atoms: C3_3  and  C4_4 
REMARK    2  A    between atoms: C3_3  and  N4_26 
REMARK    3  A    between atoms: C4_4  and  C5_5 
REMARK    4  A    between atoms: C5_5  and  C6_6 
REMARK    5  A    between atoms: C6_6  and  C7_7 
REMARK    6  A    between atoms: C7_7  and  N1_8 
REMARK       I    between atoms: N1_8  and  C8_10 
REMARK    7  A    between atoms: C8_10  and  C9_12 
REMARK    8  A    between atoms: C9_12  and  C10_13 
REMARK    9  A    between atoms: C10_13  and  N2_14 
REMARK       I    between atoms: N2_14  and  C11_16 
REMARK   10  A    between atoms: C11_16  and  C12_18 
REMARK   11  A    between atoms: N4_26  and  C17_27 
REMARK   12  A    between atoms: C17_27  and  C18_28 
REMARK   13  A    between atoms: C17_27  and  C22_36 
REMARK   14  A    between atoms: C18_28  and  C19_29 
REMARK       I    between atoms: C22_36  and  N7_38 
REMARK       I    between atoms: N8_41  and  C25_42 
REMARK   15  A    between atoms: C25_42  and  O5_44 
REMARK   16  A    between atoms: O5_44  and  C26_45 
ROOT
HETATM    1  C1  UNL     1       8.127  17.170   3.310  1.00  0.00     0.015 C 
HETATM    2  C2  UNL     1       8.277  17.374   2.135  1.00  0.00    -0.078 C 
HETATM    3  C3  UNL     1       8.432  17.641   0.659  1.00  0.00     0.241 C 
ENDROOT
BRANCH   3   4
HETATM    4  C4  UNL     1       6.982  17.710   0.117  1.00  0.00     0.052 C 
BRANCH   4   5
HETATM    5  C5  UNL     1       6.223  16.467   0.416  1.00  0.00     0.006 C 
BRANCH   5   6
HETATM    6  C6  UNL     1       4.768  16.476   0.022  1.00  0.00     0.020 C 
BRANCH   6   7
HETATM    7  C7  UNL     1       4.194  17.755   0.645  1.00  0.00     0.122 C 
BRANCH   7   8
HETATM    8  N1  UNL     1       3.858  17.488   2.013  1.00  0.00    -0.361 N 
HETATM    9  C8  UNL     1       4.391  18.274   3.058  1.00  0.00     0.219 C 
HETATM   10  O1  UNL     1       5.164  19.241   2.886  1.00  0.00    -0.274 OA
ATOM     11  H1  UNL     1       3.225  16.720   2.235  1.00  0.00     0.162 HD
BRANCH   9  12
HETATM   12  C9  UNL     1       3.973  17.893   4.446  1.00  0.00     0.122 C 
BRANCH  12  13
HETATM   13  C10 UNL     1       5.063  18.196   5.429  1.00  0.00     0.132 C 
BRANCH  13  14
HETATM   14  N2  UNL     1       5.567  16.981   6.055  1.00  0.00    -0.359 N 
HETATM   15  C11 UNL     1       6.803  16.897   6.725  1.00  0.00     0.248 C 
HETATM   16  O2  UNL     1       7.507  17.962   6.797  1.00  0.00    -0.271 OA
ATOM     17  H2  UNL     1       4.990  16.141   6.005  1.00  0.00     0.162 HD
BRANCH  15  18
HETATM   18  C12 UNL     1       7.278  15.660   7.323  1.00  0.00     0.277 C 
HETATM   19  C13 UNL     1       8.692  15.666   7.756  1.00  0.00     0.043 C 
HETATM   20  C14 UNL     1       9.667  15.435   6.623  1.00  0.00     0.004 C 
HETATM   21  C15 UNL     1       9.214  14.220   5.832  1.00  0.00     0.027 C 
HETATM   22  C16 UNL     1       7.826  14.483   5.316  1.00  0.00     0.233 C 
HETATM   23  N3  UNL     1       6.923  14.520   6.473  1.00  0.00    -0.062 N 
ATOM     24  H32 UNL     1       6.917  13.639   6.987  1.00  0.00     0.278 HD
ATOM     25  H31 UNL     1       5.941  14.532   6.198  1.00  0.00     0.278 HD
ENDBRANCH  15  18
ENDBRANCH  13  14
ENDBRANCH  12  13
ENDBRANCH   9  12
ENDBRANCH   7   8
ENDBRANCH   6   7
ENDBRANCH   5   6
ENDBRANCH   4   5
ENDBRANCH   3   4
BRANCH   3  26
HETATM   26  N4  UNL     1       9.151  16.714   0.048  1.00  0.00    -0.429 NA
BRANCH  26  27
HETATM   27  C17 UNL     1       9.801  15.839  -0.490  1.00  0.00     0.153 C 
BRANCH  27  28
HETATM   28  C18 UNL     1       8.948  14.833  -1.294  1.00  0.00     0.154 C 
BRANCH  28  29
HETATM   29  C19 UNL     1       8.952  15.206  -2.731  1.00  0.00     0.087 A 
HETATM   30  N5  UNL     1       8.990  14.316  -3.775  1.00  0.00    -0.354 N 
HETATM   31  C20 UNL     1       8.952  14.998  -4.921  1.00  0.00     0.106 A 
ATOM     32  H5  UNL     1       9.039  13.301  -3.689  1.00  0.00     0.166 HD
HETATM   33  C21 UNL     1       8.890  16.335  -4.609  1.00  0.00     0.106 A 
HETATM   34  N6  UNL     1       8.891  16.423  -3.263  1.00  0.00    -0.354 N 
ATOM     35  H6  UNL     1       8.852  17.293  -2.732  1.00  0.00     0.166 HD
ENDBRANCH  28  29
ENDBRANCH  27  28
BRANCH  27  36
HETATM   36  C22 UNL     1      11.235  15.595  -0.499  1.00  0.00     0.280 C 
HETATM   37  O3  UNL     1      11.985  16.597  -0.195  1.00  0.00    -0.265 OA
HETATM   38  N7  UNL     1      11.913  14.421  -0.789  1.00  0.00    -0.343 N 
HETATM   39  C23 UNL     1      11.277  13.186  -1.114  1.00  0.00     0.146 C 
HETATM   40  C29 UNL     1      13.392  14.439  -0.773  1.00  0.00     0.146 C 
HETATM   41  C24 UNL     1      12.310  12.060  -1.245  1.00  0.00     0.148 C 
HETATM   42  N8  UNL     1      13.385  12.457  -2.110  1.00  0.00    -0.325 N 
HETATM   43  C25 UNL     1      14.021  11.546  -2.981  1.00  0.00     0.362 C 
HETATM   44  C28 UNL     1      13.826  13.834  -2.091  1.00  0.00     0.148 C 
HETATM   45  O4  UNL     1      14.952  11.912  -3.727  1.00  0.00    -0.238 OA
BRANCH  43  46
HETATM   46  O5  UNL     1      13.663  10.205  -3.068  1.00  0.00    -0.304 OA
BRANCH  46  47
HETATM   47  C26 UNL     1      13.716   9.493  -4.261  1.00  0.00     0.176 C 
HETATM   48  C27 UNL     1      13.110   8.132  -4.211  1.00  0.00     0.034 C 
ENDBRANCH  46  47
ENDBRANCH  43  46
ENDBRANCH  27  36
ENDBRANCH  26  27
ENDBRANCH   3  26
TORSDOF 16
ENDMDL
