MODEL 1
REMARK VINA RESULT: -6.418502903      0.000      0.000
REMARK  8 active torsions:
REMARK  status: ('A' for Active; 'I' for Inactive)
REMARK    1  A    between atoms: N3_7  and  C4_8 
REMARK    2  A    between atoms: C4_8  and  C5_9 
REMARK    3  A    between atoms: C8_12  and  N4_13 
REMARK    4  A    between atoms: N4_13  and  C9_15 
REMARK    5  A    between atoms: C9_15  and  C10_16 
REMARK    6  A    between atoms: C13_20  and  O1_21 
REMARK    7  A    between atoms: O1_21  and  C14_22 
REMARK    8  A    between atoms: C19_27  and  O2_28 
ROOT
HETATM    1  N1  UNL     1      15.873  14.217  36.006  1.00  0.00    -0.191 NA
HETATM    2  C1  UNL     1      15.371  14.842  35.140  1.00  0.00     0.104 C 
HETATM    3  C2  UNL     1      14.799  15.617  34.056  1.00  0.00     0.106 A 
HETATM    4  C3  UNL     1      14.310  16.883  34.127  1.00  0.00     0.134 A 
HETATM    5  N2  UNL     1      13.925  17.202  32.893  1.00  0.00    -0.306 N 
ATOM      6  H2  UNL     1      13.516  18.101  32.638  1.00  0.00     0.186 HD
HETATM    7  N3  UNL     1      14.134  16.225  32.042  1.00  0.00    -0.276 N 
HETATM    8  C8  UNL     1      14.691  15.198  32.707  1.00  0.00     0.141 A 
ENDROOT
BRANCH   8   9
HETATM    9  N4  UNL     1      15.123  14.076  32.341  1.00  0.00    -0.369 N 
ATOM     10  H4  UNL     1      15.881  14.177  31.665  1.00  0.00     0.161 HD
BRANCH   9  11
HETATM   11  C9  UNL     1      14.855  12.717  32.603  1.00  0.00     0.162 C 
BRANCH  11  12
HETATM   12  C10 UNL     1      14.438  12.251  31.194  1.00  0.00    -0.004 A 
HETATM   13  C11 UNL     1      13.247  12.672  30.688  1.00  0.00     0.056 A 
HETATM   14  C12 UNL     1      12.853  12.210  29.422  1.00  0.00     0.150 A 
HETATM   15  F1  UNL     1      11.697  12.627  28.908  1.00  0.00    -0.203 F 
HETATM   16  C13 UNL     1      13.623  11.345  28.673  1.00  0.00     0.110 A 
HETATM   17  C18 UNL     1      14.839  10.950  29.237  1.00  0.00     0.077 A 
HETATM   18  C19 UNL     1      15.239  11.402  30.483  1.00  0.00     0.076 A 
BRANCH  16  19
HETATM   19  O1  UNL     1      13.157  10.896  27.453  1.00  0.00    -0.343 OA
BRANCH  19  20
HETATM   20  C14 UNL     1      13.712   9.826  26.745  1.00  0.00     0.129 C 
HETATM   21  C15 UNL     1      12.873   8.592  26.978  1.00  0.00     0.032 C 
HETATM   22  C16 UNL     1      11.933   9.188  25.892  1.00  0.00     0.005 C 
HETATM   23  C17 UNL     1      13.189   9.785  25.300  1.00  0.00     0.032 C 
ENDBRANCH  19  20
ENDBRANCH  16  19
BRANCH  18  24
HETATM   24  O2  UNL     1      16.433  11.007  31.020  1.00  0.00    -0.360 OA
ATOM     25  H2  UNL     1      16.876  10.249  30.656  1.00  0.00     0.217 HD
ENDBRANCH  18  24
ENDBRANCH  11  12
ENDBRANCH   9  11
ENDBRANCH   8   9
BRANCH   7  26
HETATM   26  C4  UNL     1      13.668  16.238  30.663  1.00  0.00     0.155 C 
BRANCH  26  27
HETATM   27  C5  UNL     1      12.191  16.547  30.594  1.00  0.00     0.005 A 
HETATM   28  C6  UNL     1      11.311  15.950  29.549  1.00  0.00     0.007 A 
HETATM   29  C7  UNL     1      11.146  15.680  31.103  1.00  0.00     0.007 A 
ENDBRANCH  26  27
ENDBRANCH   7  26
TORSDOF 8
ENDMDL
MODEL 2
REMARK VINA RESULT: -6.412888093      1.778      3.562
REMARK  8 active torsions:
REMARK  status: ('A' for Active; 'I' for Inactive)
REMARK    1  A    between atoms: N3_7  and  C4_8 
REMARK    2  A    between atoms: C4_8  and  C5_9 
REMARK    3  A    between atoms: C8_12  and  N4_13 
REMARK    4  A    between atoms: N4_13  and  C9_15 
REMARK    5  A    between atoms: C9_15  and  C10_16 
REMARK    6  A    between atoms: C13_20  and  O1_21 
REMARK    7  A    between atoms: O1_21  and  C14_22 
REMARK    8  A    between atoms: C19_27  and  O2_28 
ROOT
HETATM    1  N1  UNL     1      12.804  15.563  28.918  1.00  0.00    -0.191 NA
HETATM    2  C1  UNL     1      13.158  15.949  29.976  1.00  0.00     0.104 C 
HETATM    3  C2  UNL     1      13.560  16.393  31.296  1.00  0.00     0.106 A 
HETATM    4  C3  UNL     1      13.259  17.581  31.885  1.00  0.00     0.134 A 
HETATM    5  N2  UNL     1      13.802  17.540  33.101  1.00  0.00    -0.306 N 
ATOM      6  H2  UNL     1      13.738  18.299  33.779  1.00  0.00     0.186 HD
HETATM    7  N3  UNL     1      14.429  16.409  33.325  1.00  0.00    -0.276 N 
HETATM    8  C8  UNL     1      14.308  15.636  32.230  1.00  0.00     0.141 A 
ENDROOT
BRANCH   8   9
HETATM    9  N4  UNL     1      14.676  14.464  31.968  1.00  0.00    -0.369 N 
ATOM     10  H4  UNL     1      15.202  14.430  31.095  1.00  0.00     0.161 HD
BRANCH   9  11
HETATM   11  C9  UNL     1      14.565  13.181  32.542  1.00  0.00     0.162 C 
BRANCH  11  12
HETATM   12  C10 UNL     1      14.332  12.339  31.272  1.00  0.00    -0.004 A 
HETATM   13  C11 UNL     1      15.344  11.559  30.806  1.00  0.00     0.056 A 
HETATM   14  C12 UNL     1      15.141  10.829  29.623  1.00  0.00     0.150 A 
HETATM   15  F1  UNL     1      16.118  10.049  29.164  1.00  0.00    -0.203 F 
HETATM   16  C13 UNL     1      13.957  10.873  28.916  1.00  0.00     0.110 A 
HETATM   17  C18 UNL     1      12.950  11.683  29.443  1.00  0.00     0.077 A 
HETATM   18  C19 UNL     1      13.138  12.406  30.609  1.00  0.00     0.076 A 
BRANCH  16  19
HETATM   19  O1  UNL     1      13.838  10.162  27.738  1.00  0.00    -0.343 OA
BRANCH  19  20
HETATM   20  C14 UNL     1      13.087  10.585  26.637  1.00  0.00     0.129 C 
HETATM   21  C15 UNL     1      13.406   9.703  25.454  1.00  0.00     0.032 C 
HETATM   22  C16 UNL     1      12.411   8.699  26.104  1.00  0.00     0.005 C 
HETATM   23  C17 UNL     1      11.699   9.925  26.626  1.00  0.00     0.032 C 
ENDBRANCH  19  20
ENDBRANCH  16  19
BRANCH  18  24
HETATM   24  O2  UNL     1      12.140  13.194  31.113  1.00  0.00    -0.360 OA
ATOM     25  H2  UNL     1      11.255  13.087  30.784  1.00  0.00     0.217 HD
ENDBRANCH  18  24
ENDBRANCH  11  12
ENDBRANCH   9  11
ENDBRANCH   8   9
BRANCH   7  26
HETATM   26  C4  UNL     1      15.243  16.154  34.503  1.00  0.00     0.155 C 
BRANCH  26  27
HETATM   27  C5  UNL     1      14.380  15.811  35.695  1.00  0.00     0.005 A 
HETATM   28  C6  UNL     1      13.302  14.786  35.616  1.00  0.00     0.007 A 
HETATM   29  C7  UNL     1      14.579  14.655  36.548  1.00  0.00     0.007 A 
ENDBRANCH  26  27
ENDBRANCH   7  26
TORSDOF 8
ENDMDL
MODEL 3
REMARK VINA RESULT: -6.398286524      1.485      1.847
REMARK  8 active torsions:
REMARK  status: ('A' for Active; 'I' for Inactive)
REMARK    1  A    between atoms: N3_7  and  C4_8 
REMARK    2  A    between atoms: C4_8  and  C5_9 
REMARK    3  A    between atoms: C8_12  and  N4_13 
REMARK    4  A    between atoms: N4_13  and  C9_15 
REMARK    5  A    between atoms: C9_15  and  C10_16 
REMARK    6  A    between atoms: C13_20  and  O1_21 
REMARK    7  A    between atoms: O1_21  and  C14_22 
REMARK    8  A    between atoms: C19_27  and  O2_28 
ROOT
HETATM    1  N1  UNL     1      15.897  14.327  35.910  1.00  0.00    -0.191 NA
HETATM    2  C1  UNL     1      15.370  14.934  35.047  1.00  0.00     0.104 C 
HETATM    3  C2  UNL     1      14.767  15.689  33.965  1.00  0.00     0.106 A 
HETATM    4  C3  UNL     1      14.253  16.945  34.033  1.00  0.00     0.134 A 
HETATM    5  N2  UNL     1      13.845  17.247  32.802  1.00  0.00    -0.306 N 
ATOM      6  H2  UNL     1      13.414  18.135  32.546  1.00  0.00     0.186 HD
HETATM    7  N3  UNL     1      14.063  16.268  31.955  1.00  0.00    -0.276 N 
HETATM    8  C8  UNL     1      14.650  15.258  32.621  1.00  0.00     0.141 A 
ENDROOT
BRANCH   8   9
HETATM    9  N4  UNL     1      15.100  14.142  32.257  1.00  0.00    -0.369 N 
ATOM     10  H4  UNL     1      15.587  14.216  31.364  1.00  0.00     0.161 HD
BRANCH   9  11
HETATM   11  C9  UNL     1      15.122  12.817  32.739  1.00  0.00     0.162 C 
BRANCH  11  12
HETATM   12  C10 UNL     1      14.790  12.056  31.440  1.00  0.00    -0.004 A 
HETATM   13  C11 UNL     1      15.769  11.331  30.835  1.00  0.00     0.056 A 
HETATM   14  C12 UNL     1      15.473  10.675  29.628  1.00  0.00     0.150 A 
HETATM   15  F1  UNL     1      16.418   9.949  29.034  1.00  0.00    -0.203 F 
HETATM   16  C13 UNL     1      14.231  10.741  29.032  1.00  0.00     0.110 A 
HETATM   17  C18 UNL     1      13.262  11.493  29.699  1.00  0.00     0.077 A 
HETATM   18  C19 UNL     1      13.541  12.141  30.890  1.00  0.00     0.076 A 
BRANCH  16  19
HETATM   19  O1  UNL     1      14.019  10.107  27.823  1.00  0.00    -0.343 OA
BRANCH  19  20
HETATM   20  C14 UNL     1      13.238  10.630  26.788  1.00  0.00     0.129 C 
HETATM   21  C15 UNL     1      13.497   9.838  25.528  1.00  0.00     0.032 C 
HETATM   22  C16 UNL     1      12.504   8.804  26.133  1.00  0.00     0.005 C 
HETATM   23  C17 UNL     1      11.837   9.998  26.776  1.00  0.00     0.032 C 
ENDBRANCH  19  20
ENDBRANCH  16  19
BRANCH  18  24
HETATM   24  O2  UNL     1      12.580  12.872  31.531  1.00  0.00    -0.360 OA
ATOM     25  H2  UNL     1      12.844  13.590  32.095  1.00  0.00     0.217 HD
ENDBRANCH  18  24
ENDBRANCH  11  12
ENDBRANCH   9  11
ENDBRANCH   8   9
BRANCH   7  26
HETATM   26  C4  UNL     1      13.578  16.260  30.583  1.00  0.00     0.155 C 
BRANCH  26  27
HETATM   27  C5  UNL     1      12.078  16.083  30.540  1.00  0.00     0.005 A 
HETATM   28  C6  UNL     1      11.199  17.011  29.775  1.00  0.00     0.007 A 
HETATM   29  C7  UNL     1      11.355  15.468  29.443  1.00  0.00     0.007 A 
ENDBRANCH  26  27
ENDBRANCH   7  26
TORSDOF 8
ENDMDL
MODEL 4
REMARK VINA RESULT: -6.396772038      2.939      4.653
REMARK  8 active torsions:
REMARK  status: ('A' for Active; 'I' for Inactive)
REMARK    1  A    between atoms: N3_7  and  C4_8 
REMARK    2  A    between atoms: C4_8  and  C5_9 
REMARK    3  A    between atoms: C8_12  and  N4_13 
REMARK    4  A    between atoms: N4_13  and  C9_15 
REMARK    5  A    between atoms: C9_15  and  C10_16 
REMARK    6  A    between atoms: C13_20  and  O1_21 
REMARK    7  A    between atoms: O1_21  and  C14_22 
REMARK    8  A    between atoms: C19_27  and  O2_28 
ROOT
HETATM    1  N1  UNL     1      14.644  17.696  34.687  1.00  0.00    -0.191 NA
HETATM    2  C1  UNL     1      14.680  16.577  34.313  1.00  0.00     0.104 C 
HETATM    3  C2  UNL     1      14.681  15.194  33.877  1.00  0.00     0.106 A 
HETATM    4  C3  UNL     1      15.450  14.185  34.364  1.00  0.00     0.134 A 
HETATM    5  N2  UNL     1      15.091  13.089  33.697  1.00  0.00    -0.306 N 
ATOM      6  H2  UNL     1      15.501  12.168  33.851  1.00  0.00     0.186 HD
HETATM    7  N3  UNL     1      14.148  13.333  32.817  1.00  0.00    -0.276 N 
HETATM    8  C8  UNL     1      13.837  14.640  32.884  1.00  0.00     0.141 A 
ENDROOT
BRANCH   8   9
HETATM    9  N4  UNL     1      12.975  15.344  32.300  1.00  0.00    -0.369 N 
ATOM     10  H4  UNL     1      12.109  15.385  32.836  1.00  0.00     0.161 HD
BRANCH   9  11
HETATM   11  C9  UNL     1      12.871  16.093  31.110  1.00  0.00     0.162 C 
BRANCH  11  12
HETATM   12  C10 UNL     1      11.911  15.191  30.310  1.00  0.00    -0.004 A 
HETATM   13  C11 UNL     1      12.379  14.549  29.206  1.00  0.00     0.056 A 
HETATM   14  C12 UNL     1      11.488  13.763  28.456  1.00  0.00     0.150 A 
HETATM   15  F1  UNL     1      11.938  13.115  27.382  1.00  0.00    -0.203 F 
HETATM   16  C13 UNL     1      10.159  13.619  28.794  1.00  0.00     0.110 A 
HETATM   17  C18 UNL     1       9.733  14.294  29.939  1.00  0.00     0.077 A 
HETATM   18  C19 UNL     1      10.602  15.070  30.688  1.00  0.00     0.076 A 
BRANCH  16  19
HETATM   19  O1  UNL     1       9.327  12.865  27.989  1.00  0.00    -0.343 OA
BRANCH  19  20
HETATM   20  C14 UNL     1       7.932  12.955  27.997  1.00  0.00     0.129 C 
HETATM   21  C15 UNL     1       7.415  12.712  26.599  1.00  0.00     0.032 C 
HETATM   22  C16 UNL     1       7.599  11.205  26.936  1.00  0.00     0.005 C 
HETATM   23  C17 UNL     1       7.290  11.606  28.360  1.00  0.00     0.032 C 
ENDBRANCH  19  20
ENDBRANCH  16  19
BRANCH  18  24
HETATM   24  O2  UNL     1      10.170  15.723  31.808  1.00  0.00    -0.360 OA
ATOM     25  H2  UNL     1       9.246  15.928  31.897  1.00  0.00     0.217 HD
ENDBRANCH  18  24
ENDBRANCH  11  12
ENDBRANCH   9  11
ENDBRANCH   8   9
BRANCH   7  26
HETATM   26  C4  UNL     1      13.677  12.360  31.844  1.00  0.00     0.155 C 
BRANCH  26  27
HETATM   27  C5  UNL     1      14.647  12.232  30.692  1.00  0.00     0.005 A 
HETATM   28  C6  UNL     1      15.728  11.207  30.685  1.00  0.00     0.007 A 
HETATM   29  C7  UNL     1      14.540  11.246  29.634  1.00  0.00     0.007 A 
ENDBRANCH  26  27
ENDBRANCH   7  26
TORSDOF 8
ENDMDL
MODEL 5
REMARK VINA RESULT: -6.277523211      1.370      3.314
REMARK  8 active torsions:
REMARK  status: ('A' for Active; 'I' for Inactive)
REMARK    1  A    between atoms: N3_7  and  C4_8 
REMARK    2  A    between atoms: C4_8  and  C5_9 
REMARK    3  A    between atoms: C8_12  and  N4_13 
REMARK    4  A    between atoms: N4_13  and  C9_15 
REMARK    5  A    between atoms: C9_15  and  C10_16 
REMARK    6  A    between atoms: C13_20  and  O1_21 
REMARK    7  A    between atoms: O1_21  and  C14_22 
REMARK    8  A    between atoms: C19_27  and  O2_28 
ROOT
HETATM    1  N1  UNL     1      13.696  16.342  29.684  1.00  0.00    -0.191 NA
HETATM    2  C1  UNL     1      13.764  16.379  30.862  1.00  0.00     0.104 C 
HETATM    3  C2  UNL     1      13.815  16.387  32.311  1.00  0.00     0.106 A 
HETATM    4  C3  UNL     1      13.245  17.298  33.144  1.00  0.00     0.134 A 
HETATM    5  N2  UNL     1      13.517  16.891  34.382  1.00  0.00    -0.306 N 
ATOM      6  H2  UNL     1      13.213  17.382  35.223  1.00  0.00     0.186 HD
HETATM    7  N3  UNL     1      14.223  15.785  34.394  1.00  0.00    -0.276 N 
HETATM    8  C8  UNL     1      14.439  15.408  33.122  1.00  0.00     0.141 A 
ENDROOT
BRANCH   8   9
HETATM    9  N4  UNL     1      15.003  14.408  32.611  1.00  0.00    -0.369 N 
ATOM     10  H4  UNL     1      15.505  14.663  31.761  1.00  0.00     0.161 HD
BRANCH   9  11
HETATM   11  C9  UNL     1      15.136  13.031  32.884  1.00  0.00     0.162 C 
BRANCH  11  12
HETATM   12  C10 UNL     1      14.672  12.445  31.535  1.00  0.00    -0.004 A 
HETATM   13  C11 UNL     1      13.454  12.805  31.047  1.00  0.00     0.056 A 
HETATM   14  C12 UNL     1      13.018  12.234  29.840  1.00  0.00     0.150 A 
HETATM   15  F1  UNL     1      11.834  12.590  29.343  1.00  0.00    -0.203 F 
HETATM   16  C13 UNL     1      13.774  11.323  29.133  1.00  0.00     0.110 A 
HETATM   17  C18 UNL     1      15.018  10.995  29.675  1.00  0.00     0.077 A 
HETATM   18  C19 UNL     1      15.460  11.553  30.863  1.00  0.00     0.076 A 
BRANCH  16  19
HETATM   19  O1  UNL     1      13.267  10.769  27.973  1.00  0.00    -0.343 OA
BRANCH  19  20
HETATM   20  C14 UNL     1      13.974   9.889  27.149  1.00  0.00     0.129 C 
HETATM   21  C15 UNL     1      13.465   8.485  27.375  1.00  0.00     0.032 C 
HETATM   22  C16 UNL     1      12.307   8.894  26.420  1.00  0.00     0.005 C 
HETATM   23  C17 UNL     1      13.327   9.790  25.758  1.00  0.00     0.032 C 
ENDBRANCH  19  20
ENDBRANCH  16  19
BRANCH  18  24
HETATM   24  O2  UNL     1      16.681  11.222  31.379  1.00  0.00    -0.360 OA
ATOM     25  H2  UNL     1      17.391  11.004  30.787  1.00  0.00     0.217 HD
ENDBRANCH  18  24
ENDBRANCH  11  12
ENDBRANCH   9  11
ENDBRANCH   8   9
BRANCH   7  26
HETATM   26  C4  UNL     1      14.795  15.202  35.599  1.00  0.00     0.155 C 
BRANCH  26  27
HETATM   27  C5  UNL     1      13.957  15.535  36.812  1.00  0.00     0.005 A 
HETATM   28  C6  UNL     1      12.914  14.604  37.326  1.00  0.00     0.007 A 
HETATM   29  C7  UNL     1      14.205  15.023  38.146  1.00  0.00     0.007 A 
ENDBRANCH  26  27
ENDBRANCH   7  26
TORSDOF 8
ENDMDL
