MODEL 1
REMARK VINA RESULT: -6.913260337      0.000      0.000
REMARK  8 active torsions:
REMARK  status: ('A' for Active; 'I' for Inactive)
REMARK    1  A    between atoms: C2_2  and  C3_3 
REMARK    2  A    between atoms: C3_3  and  C4_4 
REMARK    3  A    between atoms: C4_4  and  C5_5 
REMARK    4  A    between atoms: C14_17  and  C15_18 
REMARK    5  A    between atoms: N1_21  and  C18_22 
REMARK    6  A    between atoms: C18_22  and  O2_23 
REMARK    7  A    between atoms: C18_22  and  C19_25 
REMARK    8  A    between atoms: C21_29  and  O3_30 
ROOT
HETATM    1  C5  UNL     1       1.157  22.577   4.186  1.00  0.00    -0.000 C 
HETATM    2  C6  UNL     1       1.979  21.979   3.063  1.00  0.00    -0.003 C 
HETATM    3  C7  UNL     1       2.972  21.062   3.713  1.00  0.00     0.011 C 
HETATM    4  C8  UNL     1       2.472  20.201   4.801  1.00  0.00     0.080 C 
HETATM    5  C9  UNL     1       1.343  20.658   5.622  1.00  0.00     0.247 C 
HETATM    6  F1  UNL     1       1.835  21.308   6.765  1.00  0.00    -0.206 F 
HETATM    7  F2  UNL     1       0.665  19.546   6.109  1.00  0.00    -0.206 F 
HETATM    8  C10 UNL     1       0.371  21.615   4.948  1.00  0.00     0.062 C 
HETATM    9  C11 UNL     1      -0.713  20.851   4.332  1.00  0.00     0.013 C 
HETATM   10  C12 UNL     1      -0.431  20.059   3.119  1.00  0.00     0.033 C 
HETATM   11  C13 UNL     1      -0.114  20.994   1.987  1.00  0.00     0.126 C 
HETATM   12  O1  UNL     1      -0.342  20.261   0.813  1.00  0.00    -0.378 OA
HETATM   13  C14 UNL     1       0.871  19.841   0.307  1.00  0.00     0.151 C 
HETATM   14  C25 UNL     1       1.942  20.243   1.258  1.00  0.00     0.042 C 
HETATM   15  C26 UNL     1       1.268  21.477   1.896  1.00  0.00     0.022 C 
ENDROOT
BRANCH  13  16
HETATM   16  C15 UNL     1       0.970  20.487  -1.073  1.00  0.00     0.152 C 
HETATM   17  C16 UNL     1       1.855  19.733  -2.021  1.00  0.00     0.054 C 
HETATM   18  C17 UNL     1       2.229  20.661  -3.148  1.00  0.00     0.127 C 
HETATM   19  N1  UNL     1       0.966  21.300  -3.686  1.00  0.00    -0.359 N 
HETATM   20  C23 UNL     1       0.341  22.363  -2.977  1.00  0.00     0.151 C 
HETATM   21  C24 UNL     1      -0.665  21.823  -2.018  1.00  0.00     0.188 C 
HETATM   22  O4  UNL     1      -0.342  20.573  -1.520  1.00  0.00    -0.382 OA
BRANCH  19  23
HETATM   23  C18 UNL     1       0.524  20.774  -4.881  1.00  0.00     0.150 C 
BRANCH  23  24
HETATM   24  O2  UNL     1       0.817  21.500  -5.928  1.00  0.00    -0.346 OA
ATOM     25  H2  UNL     1       0.225  22.230  -6.075  1.00  0.00     0.219 HD
ENDBRANCH  23  24
BRANCH  23  26
HETATM   26  C19 UNL     1      -0.198  19.566  -5.144  1.00  0.00     0.034 A 
HETATM   27  C20 UNL     1      -1.623  19.516  -5.133  1.00  0.00     0.106 A 
HETATM   28  N2  UNL     1      -1.998  18.281  -5.421  1.00  0.00    -0.346 N 
HETATM   29  C21 UNL     1      -0.964  17.482  -5.627  1.00  0.00     0.140 A 
ATOM     30  H2  UNL     1      -2.970  17.980  -5.477  1.00  0.00     0.167 HD
HETATM   31  C22 UNL     1       0.165  18.277  -5.456  1.00  0.00     0.073 A 
BRANCH  29  32
HETATM   32  O3  UNL     1      -0.936  16.141  -5.947  1.00  0.00    -0.346 OA
ATOM     33  H3  UNL     1      -1.216  15.389  -5.439  1.00  0.00     0.219 HD
ENDBRANCH  29  32
ENDBRANCH  23  26
ENDBRANCH  19  23
ENDBRANCH  13  16
BRANCH   1  34
HETATM   34  C4  UNL     1       0.576  23.853   3.755  1.00  0.00     0.005 C 
BRANCH  34  35
HETATM   35  C3  UNL     1       1.478  25.046   3.775  1.00  0.00     0.000 C 
BRANCH  35  36
HETATM   36  C2  UNL     1       1.519  25.618   2.355  1.00  0.00    -0.005 C 
HETATM   37  C1  UNL     1       2.646  24.925   1.639  1.00  0.00     0.005 C 
ENDBRANCH  35  36
ENDBRANCH  34  35
ENDBRANCH   1  34
TORSDOF 8
ENDMDL
MODEL 2
REMARK VINA RESULT: -6.803031556      4.874      8.810
REMARK  8 active torsions:
REMARK  status: ('A' for Active; 'I' for Inactive)
REMARK    1  A    between atoms: C2_2  and  C3_3 
REMARK    2  A    between atoms: C3_3  and  C4_4 
REMARK    3  A    between atoms: C4_4  and  C5_5 
REMARK    4  A    between atoms: C14_17  and  C15_18 
REMARK    5  A    between atoms: N1_21  and  C18_22 
REMARK    6  A    between atoms: C18_22  and  O2_23 
REMARK    7  A    between atoms: C18_22  and  C19_25 
REMARK    8  A    between atoms: C21_29  and  O3_30 
ROOT
HETATM    1  C5  UNL     1      -1.206  20.141  -2.595  1.00  0.00    -0.000 C 
HETATM    2  C6  UNL     1       0.036  19.464  -2.054  1.00  0.00    -0.003 C 
HETATM    3  C7  UNL     1       0.731  18.856  -3.236  1.00  0.00     0.011 C 
HETATM    4  C8  UNL     1       0.810  19.678  -4.458  1.00  0.00     0.080 C 
HETATM    5  C9  UNL     1      -0.240  20.666  -4.733  1.00  0.00     0.247 C 
HETATM    6  F1  UNL     1      -1.222  20.083  -5.548  1.00  0.00    -0.206 F 
HETATM    7  F2  UNL     1       0.299  21.691  -5.503  1.00  0.00    -0.206 F 
HETATM    8  C10 UNL     1      -0.953  21.241  -3.517  1.00  0.00     0.062 C 
HETATM    9  C11 UNL     1      -0.269  22.459  -3.085  1.00  0.00     0.013 C 
HETATM   10  C12 UNL     1       1.051  22.348  -2.436  1.00  0.00     0.033 C 
HETATM   11  C13 UNL     1       0.886  21.673  -1.105  1.00  0.00     0.126 C 
HETATM   12  O1  UNL     1       2.018  22.030  -0.355  1.00  0.00    -0.378 OA
HETATM   13  C14 UNL     1       2.904  20.974  -0.356  1.00  0.00     0.151 C 
HETATM   14  C25 UNL     1       2.362  19.905  -1.236  1.00  0.00     0.042 C 
HETATM   15  C26 UNL     1       0.854  20.207  -1.106  1.00  0.00     0.022 C 
ENDROOT
BRANCH  13  16
HETATM   16  C15 UNL     1       3.052  20.577   1.110  1.00  0.00     0.152 C 
HETATM   17  C16 UNL     1       3.546  19.174   1.302  1.00  0.00     0.054 C 
HETATM   18  C17 UNL     1       3.230  18.755   2.714  1.00  0.00     0.127 C 
HETATM   19  N1  UNL     1       3.720  19.833   3.658  1.00  0.00    -0.359 N 
HETATM   20  C23 UNL     1       2.982  21.039   3.817  1.00  0.00     0.151 C 
HETATM   21  C24 UNL     1       3.449  22.063   2.839  1.00  0.00     0.188 C 
HETATM   22  O4  UNL     1       3.911  21.525   1.651  1.00  0.00    -0.382 OA
BRANCH  19  23
HETATM   23  C18 UNL     1       4.889  19.523   4.319  1.00  0.00     0.150 C 
BRANCH  23  24
HETATM   24  O2  UNL     1       4.715  18.873   5.440  1.00  0.00    -0.346 OA
ATOM     25  H2  UNL     1       5.281  19.158   6.149  1.00  0.00     0.219 HD
ENDBRANCH  23  24
BRANCH  23  26
HETATM   26  C19 UNL     1       6.248  19.804   3.967  1.00  0.00     0.034 A 
HETATM   27  C20 UNL     1       7.283  18.833   4.103  1.00  0.00     0.106 A 
HETATM   28  N2  UNL     1       8.417  19.374   3.690  1.00  0.00    -0.346 N 
HETATM   29  C21 UNL     1       8.255  20.622   3.284  1.00  0.00     0.140 A 
ATOM     30  H2  UNL     1       9.312  18.885   3.685  1.00  0.00     0.167 HD
HETATM   31  C22 UNL     1       6.902  20.899   3.455  1.00  0.00     0.073 A 
BRANCH  29  32
HETATM   32  O3  UNL     1       9.180  21.515   2.788  1.00  0.00    -0.346 OA
ATOM     33  H3  UNL     1       9.746  22.123   3.249  1.00  0.00     0.219 HD
ENDBRANCH  29  32
ENDBRANCH  23  26
ENDBRANCH  19  23
ENDBRANCH  13  16
BRANCH   1  34
HETATM   34  C4  UNL     1      -2.212  20.262  -1.534  1.00  0.00     0.005 C 
BRANCH  34  35
HETATM   35  C3  UNL     1      -3.436  21.061  -1.853  1.00  0.00     0.000 C 
BRANCH  35  36
HETATM   36  C2  UNL     1      -4.547  20.602  -0.904  1.00  0.00    -0.005 C 
HETATM   37  C1  UNL     1      -5.284  21.838  -0.467  1.00  0.00     0.005 C 
ENDBRANCH  35  36
ENDBRANCH  34  35
ENDBRANCH   1  34
TORSDOF 8
ENDMDL
MODEL 3
REMARK VINA RESULT: -6.795781687      2.150      3.634
REMARK  8 active torsions:
REMARK  status: ('A' for Active; 'I' for Inactive)
REMARK    1  A    between atoms: C2_2  and  C3_3 
REMARK    2  A    between atoms: C3_3  and  C4_4 
REMARK    3  A    between atoms: C4_4  and  C5_5 
REMARK    4  A    between atoms: C14_17  and  C15_18 
REMARK    5  A    between atoms: N1_21  and  C18_22 
REMARK    6  A    between atoms: C18_22  and  O2_23 
REMARK    7  A    between atoms: C18_22  and  C19_25 
REMARK    8  A    between atoms: C21_29  and  O3_30 
ROOT
HETATM    1  C5  UNL     1       2.893  20.794   2.350  1.00  0.00    -0.000 C 
HETATM    2  C6  UNL     1       1.655  20.451   1.548  1.00  0.00    -0.003 C 
HETATM    3  C7  UNL     1       0.484  20.790   2.420  1.00  0.00     0.011 C 
HETATM    4  C8  UNL     1       0.553  22.061   3.167  1.00  0.00     0.080 C 
HETATM    5  C9  UNL     1       1.861  22.593   3.565  1.00  0.00     0.247 C 
HETATM    6  F1  UNL     1       2.162  22.159   4.865  1.00  0.00    -0.206 F 
HETATM    7  F2  UNL     1       1.770  23.977   3.664  1.00  0.00    -0.206 F 
HETATM    8  C10 UNL     1       3.038  22.206   2.681  1.00  0.00     0.062 C 
HETATM    9  C11 UNL     1       3.221  23.221   1.644  1.00  0.00     0.013 C 
HETATM   10  C12 UNL     1       2.240  23.306   0.545  1.00  0.00     0.033 C 
HETATM   11  C13 UNL     1       2.344  22.069  -0.300  1.00  0.00     0.126 C 
HETATM   12  O1  UNL     1       1.788  22.409  -1.543  1.00  0.00    -0.378 OA
HETATM   13  C14 UNL     1       0.510  21.894  -1.615  1.00  0.00     0.151 C 
HETATM   14  C25 UNL     1       0.182  21.266  -0.307  1.00  0.00     0.042 C 
HETATM   15  C26 UNL     1       1.604  20.889   0.160  1.00  0.00     0.022 C 
ENDROOT
BRANCH  13  16
HETATM   16  C15 UNL     1       0.537  20.928  -2.796  1.00  0.00     0.152 C 
HETATM   17  C16 UNL     1       0.110  19.536  -2.439  1.00  0.00     0.054 C 
HETATM   18  C17 UNL     1       0.593  18.606  -3.521  1.00  0.00     0.127 C 
HETATM   19  N1  UNL     1       0.176  19.171  -4.863  1.00  0.00    -0.359 N 
HETATM   20  C23 UNL     1       0.889  20.259  -5.437  1.00  0.00     0.151 C 
HETATM   21  C24 UNL     1       0.286  21.554  -5.009  1.00  0.00     0.188 C 
HETATM   22  O4  UNL     1      -0.287  21.511  -3.751  1.00  0.00    -0.382 OA
BRANCH  19  23
HETATM   23  C18 UNL     1      -0.904  18.535  -5.439  1.00  0.00     0.150 C 
BRANCH  23  24
HETATM   24  O2  UNL     1      -1.892  19.333  -5.751  1.00  0.00    -0.346 OA
ATOM     25  H2  UNL     1      -2.496  18.975  -6.392  1.00  0.00     0.219 HD
ENDBRANCH  23  24
BRANCH  23  26
HETATM   26  C19 UNL     1      -1.103  17.151  -5.742  1.00  0.00     0.034 A 
HETATM   27  C20 UNL     1      -2.402  16.596  -5.941  1.00  0.00     0.106 A 
HETATM   28  N2  UNL     1      -2.267  15.310  -6.215  1.00  0.00    -0.346 N 
HETATM   29  C21 UNL     1      -0.999  14.932  -6.222  1.00  0.00     0.140 A 
ATOM     30  H2  UNL     1      -3.049  14.682  -6.400  1.00  0.00     0.167 HD
HETATM   31  C22 UNL     1      -0.265  16.077  -5.927  1.00  0.00     0.073 A 
BRANCH  29  32
HETATM   32  O3  UNL     1      -0.450  13.691  -6.463  1.00  0.00    -0.346 OA
ATOM     33  H3  UNL     1      -0.144  13.033  -5.850  1.00  0.00     0.219 HD
ENDBRANCH  29  32
ENDBRANCH  23  26
ENDBRANCH  19  23
ENDBRANCH  13  16
BRANCH   1  34
HETATM   34  C4  UNL     1       4.036  20.013   1.864  1.00  0.00     0.005 C 
BRANCH  34  35
HETATM   35  C3  UNL     1       5.147  19.766   2.835  1.00  0.00     0.000 C 
BRANCH  35  36
HETATM   36  C2  UNL     1       6.382  20.514   2.324  1.00  0.00    -0.005 C 
HETATM   37  C1  UNL     1       6.864  21.383   3.452  1.00  0.00     0.005 C 
ENDBRANCH  35  36
ENDBRANCH  34  35
ENDBRANCH   1  34
TORSDOF 8
ENDMDL
MODEL 4
REMARK VINA RESULT: -6.754307361      4.864      7.787
REMARK  8 active torsions:
REMARK  status: ('A' for Active; 'I' for Inactive)
REMARK    1  A    between atoms: C2_2  and  C3_3 
REMARK    2  A    between atoms: C3_3  and  C4_4 
REMARK    3  A    between atoms: C4_4  and  C5_5 
REMARK    4  A    between atoms: C14_17  and  C15_18 
REMARK    5  A    between atoms: N1_21  and  C18_22 
REMARK    6  A    between atoms: C18_22  and  O2_23 
REMARK    7  A    between atoms: C18_22  and  C19_25 
REMARK    8  A    between atoms: C21_29  and  O3_30 
ROOT
HETATM    1  C5  UNL     1       1.126  21.867  -0.961  1.00  0.00    -0.000 C 
HETATM    2  C6  UNL     1       1.195  20.385  -0.657  1.00  0.00    -0.003 C 
HETATM    3  C7  UNL     1      -0.175  19.838  -0.925  1.00  0.00     0.011 C 
HETATM    4  C8  UNL     1      -0.856  20.311  -2.145  1.00  0.00     0.080 C 
HETATM    5  C9  UNL     1      -0.555  21.650  -2.666  1.00  0.00     0.247 C 
HETATM    6  F1  UNL     1      -1.485  22.566  -2.152  1.00  0.00    -0.206 F 
HETATM    7  F2  UNL     1      -0.772  21.655  -4.040  1.00  0.00    -0.206 F 
HETATM    8  C10 UNL     1       0.831  22.195  -2.350  1.00  0.00     0.062 C 
HETATM    9  C11 UNL     1       1.749  21.842  -3.432  1.00  0.00     0.013 C 
HETATM   10  C12 UNL     1       2.178  20.438  -3.578  1.00  0.00     0.033 C 
HETATM   11  C13 UNL     1       3.031  20.063  -2.399  1.00  0.00     0.126 C 
HETATM   12  O1  UNL     1       3.786  18.955  -2.813  1.00  0.00    -0.378 OA
HETATM   13  C14 UNL     1       3.221  17.811  -2.290  1.00  0.00     0.151 C 
HETATM   14  C25 UNL     1       1.973  18.187  -1.574  1.00  0.00     0.042 C 
HETATM   15  C26 UNL     1       2.328  19.638  -1.184  1.00  0.00     0.022 C 
ENDROOT
BRANCH  13  16
HETATM   16  C15 UNL     1       4.304  17.203  -1.403  1.00  0.00     0.152 C 
HETATM   17  C16 UNL     1       5.684  17.693  -1.726  1.00  0.00     0.054 C 
HETATM   18  C17 UNL     1       6.675  16.728  -1.127  1.00  0.00     0.127 C 
HETATM   19  N1  UNL     1       6.308  16.499   0.324  1.00  0.00    -0.359 N 
HETATM   20  C23 UNL     1       5.223  15.644   0.664  1.00  0.00     0.151 C 
HETATM   21  C24 UNL     1       3.956  16.426   0.749  1.00  0.00     0.188 C 
HETATM   22  O4  UNL     1       3.917  17.514  -0.105  1.00  0.00    -0.382 OA
BRANCH  19  23
HETATM   23  C18 UNL     1       7.109  17.164   1.227  1.00  0.00     0.150 C 
BRANCH  23  24
HETATM   24  O2  UNL     1       7.921  16.388   1.897  1.00  0.00    -0.346 OA
ATOM     25  H2  UNL     1       8.838  16.631   1.830  1.00  0.00     0.219 HD
ENDBRANCH  23  24
BRANCH  23  26
HETATM   26  C19 UNL     1       7.184  18.559   1.538  1.00  0.00     0.034 A 
HETATM   27  C20 UNL     1       8.152  19.419   0.940  1.00  0.00     0.106 A 
HETATM   28  N2  UNL     1       7.968  20.641   1.409  1.00  0.00    -0.346 N 
HETATM   29  C21 UNL     1       6.966  20.700   2.271  1.00  0.00     0.140 A 
ATOM     30  H2  UNL     1       8.532  21.446   1.137  1.00  0.00     0.167 HD
HETATM   31  C22 UNL     1       6.471  19.401   2.357  1.00  0.00     0.073 A 
BRANCH  29  32
HETATM   32  O3  UNL     1       6.465  21.777   2.969  1.00  0.00    -0.346 OA
ATOM     33  H3  UNL     1       5.579  22.119   3.005  1.00  0.00     0.219 HD
ENDBRANCH  29  32
ENDBRANCH  23  26
ENDBRANCH  19  23
ENDBRANCH  13  16
BRANCH   1  34
HETATM   34  C4  UNL     1       2.178  22.578  -0.226  1.00  0.00     0.005 C 
BRANCH  34  35
HETATM   35  C3  UNL     1       1.792  23.182   1.087  1.00  0.00     0.000 C 
BRANCH  35  36
HETATM   36  C2  UNL     1       2.653  24.433   1.290  1.00  0.00    -0.005 C 
HETATM   37  C1  UNL     1       1.939  25.295   2.294  1.00  0.00     0.005 C 
ENDBRANCH  35  36
ENDBRANCH  34  35
ENDBRANCH   1  34
TORSDOF 8
ENDMDL
MODEL 5
REMARK VINA RESULT: -6.748868170      4.443      8.936
REMARK  8 active torsions:
REMARK  status: ('A' for Active; 'I' for Inactive)
REMARK    1  A    between atoms: C2_2  and  C3_3 
REMARK    2  A    between atoms: C3_3  and  C4_4 
REMARK    3  A    between atoms: C4_4  and  C5_5 
REMARK    4  A    between atoms: C14_17  and  C15_18 
REMARK    5  A    between atoms: N1_21  and  C18_22 
REMARK    6  A    between atoms: C18_22  and  O2_23 
REMARK    7  A    between atoms: C18_22  and  C19_25 
REMARK    8  A    between atoms: C21_29  and  O3_30 
ROOT
HETATM    1  C5  UNL     1      -1.423  20.418  -2.914  1.00  0.00    -0.000 C 
HETATM    2  C6  UNL     1      -0.400  19.813  -1.976  1.00  0.00    -0.003 C 
HETATM    3  C7  UNL     1       0.269  18.710  -2.740  1.00  0.00     0.011 C 
HETATM    4  C8  UNL     1       0.629  18.994  -4.143  1.00  0.00     0.080 C 
HETATM    5  C9  UNL     1      -0.171  19.955  -4.913  1.00  0.00     0.247 C 
HETATM    6  F1  UNL     1      -1.168  19.265  -5.620  1.00  0.00    -0.206 F 
HETATM    7  F2  UNL     1       0.634  20.523  -5.894  1.00  0.00    -0.206 F 
HETATM    8  C10 UNL     1      -0.867  21.042  -4.107  1.00  0.00     0.062 C 
HETATM    9  C11 UNL     1       0.002  22.216  -4.024  1.00  0.00     0.013 C 
HETATM   10  C12 UNL     1       1.205  22.156  -3.172  1.00  0.00     0.033 C 
HETATM   11  C13 UNL     1       0.781  22.061  -1.734  1.00  0.00     0.126 C 
HETATM   12  O1  UNL     1       1.884  22.497  -0.983  1.00  0.00    -0.378 OA
HETATM   13  C14 UNL     1       2.537  21.395  -0.471  1.00  0.00     0.151 C 
HETATM   14  C25 UNL     1       1.878  20.170  -0.997  1.00  0.00     0.042 C 
HETATM   15  C26 UNL     1       0.456  20.723  -1.228  1.00  0.00     0.022 C 
ENDROOT
BRANCH  13  16
HETATM   16  C15 UNL     1       2.460  21.557   1.045  1.00  0.00     0.152 C 
HETATM   17  C16 UNL     1       1.547  22.664   1.481  1.00  0.00     0.054 C 
HETATM   18  C17 UNL     1       1.887  23.017   2.906  1.00  0.00     0.127 C 
HETATM   19  N1  UNL     1       1.925  21.742   3.723  1.00  0.00    -0.359 N 
HETATM   20  C23 UNL     1       3.045  20.869   3.639  1.00  0.00     0.151 C 
HETATM   21  C24 UNL     1       2.829  19.854   2.567  1.00  0.00     0.188 C 
HETATM   22  O4  UNL     1       2.057  20.314   1.515  1.00  0.00    -0.382 OA
BRANCH  19  23
HETATM   23  C18 UNL     1       0.820  21.544   4.523  1.00  0.00     0.150 C 
BRANCH  23  24
HETATM   24  O2  UNL     1      -0.136  20.856   3.955  1.00  0.00    -0.346 OA
ATOM     25  H2  UNL     1      -0.173  19.945   4.223  1.00  0.00     0.219 HD
ENDBRANCH  23  24
BRANCH  23  26
HETATM   26  C19 UNL     1       0.566  21.974   5.864  1.00  0.00     0.034 A 
HETATM   27  C20 UNL     1      -0.445  22.929   6.176  1.00  0.00     0.106 A 
HETATM   28  N2  UNL     1      -0.452  23.114   7.485  1.00  0.00    -0.346 N 
HETATM   29  C21 UNL     1       0.458  22.376   8.098  1.00  0.00     0.140 A 
ATOM     30  H2  UNL     1      -1.086  23.752   7.967  1.00  0.00     0.167 HD
HETATM   31  C22 UNL     1       1.099  21.660   7.092  1.00  0.00     0.073 A 
BRANCH  29  32
HETATM   32  O3  UNL     1       0.762  22.284   9.439  1.00  0.00    -0.346 OA
ATOM     33  H3  UNL     1       1.306  21.654   9.897  1.00  0.00     0.219 HD
ENDBRANCH  29  32
ENDBRANCH  23  26
ENDBRANCH  19  23
ENDBRANCH  13  16
BRANCH   1  34
HETATM   34  C4  UNL     1      -2.481  21.079  -2.141  1.00  0.00     0.005 C 
BRANCH  34  35
HETATM   35  C3  UNL     1      -3.674  20.250  -1.785  1.00  0.00     0.000 C 
BRANCH  35  36
HETATM   36  C2  UNL     1      -4.041  20.567  -0.332  1.00  0.00    -0.005 C 
HETATM   37  C1  UNL     1      -3.100  19.780   0.537  1.00  0.00     0.005 C 
ENDBRANCH  35  36
ENDBRANCH  34  35
ENDBRANCH   1  34
TORSDOF 8
ENDMDL
