MODEL 1
REMARK VINA RESULT: -6.570684129      0.000      0.000
REMARK  8 active torsions:
REMARK  status: ('A' for Active; 'I' for Inactive)
REMARK    1  A    between atoms: C2_2  and  C4_4 
REMARK    2  A    between atoms: C4_4  and  C5_5 
REMARK    3  A    between atoms: C6_6  and  C7_7 
REMARK    4  A    between atoms: C7_7  and  O1_8 
REMARK    5  A    between atoms: C7_7  and  C25_33 
REMARK    6  A    between atoms: O1_8  and  C8_9 
REMARK    7  A    between atoms: C13_15  and  O2_16 
REMARK    8  A    between atoms: C17_22  and  O4_23 
ROOT
HETATM    1  C8  UNL     1       3.189  20.276   1.609  1.00  0.00     0.163 C 
HETATM    2  C9  UNL     1       3.283  20.170   3.094  1.00  0.00     0.050 C 
HETATM    3  C10 UNL     1       4.197  19.125   3.689  1.00  0.00     0.000 C 
HETATM    4  C11 UNL     1       3.660  19.095   5.167  1.00  0.00     0.021 C 
HETATM    5  C12 UNL     1       3.893  17.805   3.192  1.00  0.00     0.030 C 
HETATM    6 CL1  UNL     1       4.912  16.499   3.849  1.00  0.00    -0.090 Cl
HETATM    7  C13 UNL     1       3.649  17.546   1.741  1.00  0.00     0.197 C 
HETATM    8  C14 UNL     1       4.504  18.302   0.801  1.00  0.00     0.125 A 
HETATM    9  C15 UNL     1       5.444  17.460  -0.001  1.00  0.00     0.052 C 
HETATM   10  O3  UNL     1       3.823  19.047  -0.291  1.00  0.00    -0.355 OA
HETATM   11  C16 UNL     1       4.261  19.652   0.845  1.00  0.00     0.147 A 
HETATM   12  C17 UNL     1       5.442  20.584   0.879  1.00  0.00     0.159 C 
HETATM   13  C18 UNL     1       6.636  20.115   1.600  1.00  0.00     0.052 C 
HETATM   14  C19 UNL     1       6.646  19.826   3.024  1.00  0.00     0.024 C 
HETATM   15  C20 UNL     1       7.548  20.954   3.627  1.00  0.00     0.024 C 
HETATM   16  C21 UNL     1       7.498  18.626   3.312  1.00  0.00     0.135 C 
HETATM   17  O5  UNL     1       8.047  17.857   2.566  1.00  0.00    -0.297 OA
HETATM   18  C22 UNL     1       7.522  18.585   4.794  1.00  0.00     0.079 C 
HETATM   19  C23 UNL     1       6.193  19.139   5.180  1.00  0.00     0.014 C 
HETATM   20  C24 UNL     1       5.543  19.680   3.898  1.00  0.00     0.015 C 
ENDROOT
BRANCH   1  21
HETATM   21  O1  UNL     1       1.855  20.045   1.247  1.00  0.00    -0.373 OA
BRANCH  21  22
HETATM   22  C7  UNL     1       1.175  21.170   0.801  1.00  0.00     0.152 C 
BRANCH  22  23
HETATM   23  C6  UNL     1       0.178  21.501   1.901  1.00  0.00     0.001 C 
HETATM   24  C5  UNL     1       0.371  22.389   2.826  1.00  0.00    -0.028 C 
BRANCH  24  25
HETATM   25  C4  UNL     1       1.546  23.254   3.049  1.00  0.00     0.030 C 
BRANCH  25  26
HETATM   26  C2  UNL     1       1.512  24.406   2.060  1.00  0.00    -0.019 C 
HETATM   27  C1  UNL     1       2.804  24.396   1.255  1.00  0.00     0.010 C 
HETATM   28  C3  UNL     1       1.389  25.728   2.763  1.00  0.00     0.010 C 
ENDBRANCH  25  26
ENDBRANCH  24  25
ENDBRANCH  22  23
BRANCH  22  29
HETATM   29  C25 UNL     1       0.491  20.934  -0.475  1.00  0.00    -0.022 C 
HETATM   30  C26 UNL     1      -1.005  20.908  -0.347  1.00  0.00     0.017 C 
HETATM   31  C27 UNL     1       0.878  19.617  -1.133  1.00  0.00     0.017 C 
HETATM   32  C28 UNL     1       0.893  22.057  -1.437  1.00  0.00     0.017 C 
ENDBRANCH  22  29
ENDBRANCH  21  22
ENDBRANCH   1  21
BRANCH  12  33
HETATM   33  O4  UNL     1       5.143  21.874   1.308  1.00  0.00    -0.392 OA
ATOM     34  H4  UNL     1       5.898  22.382   1.582  1.00  0.00     0.210 HD
ENDBRANCH  12  33
BRANCH   7  35
HETATM   35  O2  UNL     1       3.787  16.165   1.538  1.00  0.00    -0.387 OA
ATOM     36  H2  UNL     1       3.236  15.731   2.178  1.00  0.00     0.210 HD
ENDBRANCH   7  35
TORSDOF 8
ENDMDL
MODEL 2
REMARK VINA RESULT: -6.276841739      1.852      4.135
REMARK  8 active torsions:
REMARK  status: ('A' for Active; 'I' for Inactive)
REMARK    1  A    between atoms: C2_2  and  C4_4 
REMARK    2  A    between atoms: C4_4  and  C5_5 
REMARK    3  A    between atoms: C6_6  and  C7_7 
REMARK    4  A    between atoms: C7_7  and  O1_8 
REMARK    5  A    between atoms: C7_7  and  C25_33 
REMARK    6  A    between atoms: O1_8  and  C8_9 
REMARK    7  A    between atoms: C13_15  and  O2_16 
REMARK    8  A    between atoms: C17_22  and  O4_23 
ROOT
HETATM    1  C8  UNL     1       3.895  20.580   3.300  1.00  0.00     0.163 C 
HETATM    2  C9  UNL     1       3.252  19.598   2.379  1.00  0.00     0.050 C 
HETATM    3  C10 UNL     1       4.134  18.770   1.473  1.00  0.00     0.000 C 
HETATM    4  C11 UNL     1       3.064  18.246   0.447  1.00  0.00     0.021 C 
HETATM    5  C12 UNL     1       4.998  19.599   0.668  1.00  0.00     0.030 C 
HETATM    6 CL1  UNL     1       6.068  18.712  -0.448  1.00  0.00    -0.090 Cl
HETATM    7  C13 UNL     1       5.751  20.752   1.248  1.00  0.00     0.197 C 
HETATM    8  C14 UNL     1       6.302  20.541   2.604  1.00  0.00     0.125 A 
HETATM    9  C15 UNL     1       7.796  20.530   2.673  1.00  0.00     0.052 C 
HETATM   10  O3  UNL     1       5.999  21.573   3.630  1.00  0.00    -0.355 OA
HETATM   11  C16 UNL     1       5.319  20.399   3.550  1.00  0.00     0.147 A 
HETATM   12  C17 UNL     1       5.463  19.294   4.561  1.00  0.00     0.159 C 
HETATM   13  C18 UNL     1       6.104  18.052   4.099  1.00  0.00     0.052 C 
HETATM   14  C19 UNL     1       5.552  17.212   3.051  1.00  0.00     0.024 C 
HETATM   15  C20 UNL     1       5.115  15.913   3.806  1.00  0.00     0.024 C 
HETATM   16  C21 UNL     1       6.647  16.658   2.188  1.00  0.00     0.135 C 
HETATM   17  O5  UNL     1       7.829  16.887   2.178  1.00  0.00    -0.297 OA
HETATM   18  C22 UNL     1       5.924  15.715   1.300  1.00  0.00     0.079 C 
HETATM   19  C23 UNL     1       4.579  16.341   1.148  1.00  0.00     0.014 C 
HETATM   20  C24 UNL     1       4.516  17.515   2.136  1.00  0.00     0.015 C 
ENDROOT
BRANCH   1  21
HETATM   21  O1  UNL     1       3.404  21.853   2.978  1.00  0.00    -0.373 OA
BRANCH  21  22
HETATM   22  C7  UNL     1       2.177  21.851   2.330  1.00  0.00     0.152 C 
BRANCH  22  23
HETATM   23  C6  UNL     1       2.391  22.660   1.059  1.00  0.00     0.001 C 
HETATM   24  C5  UNL     1       1.906  22.348  -0.101  1.00  0.00    -0.028 C 
BRANCH  24  25
HETATM   25  C4  UNL     1       1.075  21.187  -0.476  1.00  0.00     0.030 C 
BRANCH  25  26
HETATM   26  C2  UNL     1      -0.232  21.680  -1.071  1.00  0.00    -0.019 C 
HETATM   27  C1  UNL     1      -1.261  20.561  -0.984  1.00  0.00     0.010 C 
HETATM   28  C3  UNL     1      -0.065  22.074  -2.512  1.00  0.00     0.010 C 
ENDBRANCH  25  26
ENDBRANCH  24  25
ENDBRANCH  22  23
BRANCH  22  29
HETATM   29  C25 UNL     1       1.115  22.438   3.155  1.00  0.00    -0.022 C 
HETATM   30  C26 UNL     1       1.284  22.155   4.620  1.00  0.00     0.017 C 
HETATM   31  C27 UNL     1      -0.277  21.943   2.790  1.00  0.00     0.017 C 
HETATM   32  C28 UNL     1       1.132  23.954   2.931  1.00  0.00     0.017 C 
ENDBRANCH  22  29
ENDBRANCH  21  22
ENDBRANCH   1  21
BRANCH  12  33
HETATM   33  O4  UNL     1       4.284  18.964   5.223  1.00  0.00    -0.392 OA
ATOM     34  H4  UNL     1       4.395  18.353   5.942  1.00  0.00     0.210 HD
ENDBRANCH  12  33
BRANCH   7  35
HETATM   35  O2  UNL     1       6.770  21.080   0.341  1.00  0.00    -0.387 OA
ATOM     36  H2  UNL     1       7.537  20.578   0.588  1.00  0.00     0.210 HD
ENDBRANCH   7  35
TORSDOF 8
ENDMDL
MODEL 3
REMARK VINA RESULT: -6.231294130      4.700      7.518
REMARK  8 active torsions:
REMARK  status: ('A' for Active; 'I' for Inactive)
REMARK    1  A    between atoms: C2_2  and  C4_4 
REMARK    2  A    between atoms: C4_4  and  C5_5 
REMARK    3  A    between atoms: C6_6  and  C7_7 
REMARK    4  A    between atoms: C7_7  and  O1_8 
REMARK    5  A    between atoms: C7_7  and  C25_33 
REMARK    6  A    between atoms: O1_8  and  C8_9 
REMARK    7  A    between atoms: C13_15  and  O2_16 
REMARK    8  A    between atoms: C17_22  and  O4_23 
ROOT
HETATM    1  C8  UNL     1       8.307  19.394   0.496  1.00  0.00     0.163 C 
HETATM    2  C9  UNL     1       9.497  18.676   1.040  1.00  0.00     0.050 C 
HETATM    3  C10 UNL     1       9.907  17.369   0.402  1.00  0.00     0.000 C 
HETATM    4  C11 UNL     1      10.862  16.804   1.517  1.00  0.00     0.021 C 
HETATM    5  C12 UNL     1       8.817  16.423   0.377  1.00  0.00     0.030 C 
HETATM    6 CL1  UNL     1       9.210  14.841  -0.344  1.00  0.00    -0.090 Cl
HETATM    7  C13 UNL     1       7.439  16.818  -0.040  1.00  0.00     0.197 C 
HETATM    8  C14 UNL     1       7.358  17.775  -1.164  1.00  0.00     0.125 A 
HETATM    9  C15 UNL     1       6.741  17.223  -2.409  1.00  0.00     0.052 C 
HETATM   10  O3  UNL     1       6.516  18.985  -0.969  1.00  0.00    -0.355 OA
HETATM   11  C16 UNL     1       7.869  19.006  -0.838  1.00  0.00     0.147 A 
HETATM   12  C17 UNL     1       8.782  19.679  -1.828  1.00  0.00     0.159 C 
HETATM   13  C18 UNL     1       9.655  18.804  -2.626  1.00  0.00     0.052 C 
HETATM   14  C19 UNL     1      10.681  17.956  -2.044  1.00  0.00     0.024 C 
HETATM   15  C20 UNL     1      12.019  18.607  -2.527  1.00  0.00     0.024 C 
HETATM   16  C21 UNL     1      10.752  16.643  -2.768  1.00  0.00     0.135 C 
HETATM   17  O5  UNL     1      10.050  16.185  -3.632  1.00  0.00    -0.297 OA
HETATM   18  C22 UNL     1      11.937  15.993  -2.158  1.00  0.00     0.079 C 
HETATM   19  C23 UNL     1      11.937  16.508  -0.759  1.00  0.00     0.014 C 
HETATM   20  C24 UNL     1      10.867  17.608  -0.686  1.00  0.00     0.015 C 
ENDROOT
BRANCH   1  21
HETATM   21  O1  UNL     1       7.367  19.509   1.529  1.00  0.00    -0.373 OA
BRANCH  21  22
HETATM   22  C7  UNL     1       7.839  19.145   2.782  1.00  0.00     0.152 C 
BRANCH  22  23
HETATM   23  C6  UNL     1       6.789  18.202   3.350  1.00  0.00     0.001 C 
HETATM   24  C5  UNL     1       7.021  16.984   3.727  1.00  0.00    -0.028 C 
BRANCH  24  25
HETATM   25  C4  UNL     1       8.290  16.230   3.696  1.00  0.00     0.030 C 
BRANCH  25  26
HETATM   26  C2  UNL     1       8.650  15.801   5.107  1.00  0.00    -0.019 C 
HETATM   27  C1  UNL     1       9.648  14.655   5.029  1.00  0.00     0.010 C 
HETATM   28  C3  UNL     1       7.438  15.339   5.866  1.00  0.00     0.010 C 
ENDBRANCH  25  26
ENDBRANCH  24  25
ENDBRANCH  22  23
BRANCH  22  29
HETATM   29  C25 UNL     1       8.035  20.305   3.658  1.00  0.00    -0.022 C 
HETATM   30  C26 UNL     1       9.339  21.009   3.421  1.00  0.00     0.017 C 
HETATM   31  C27 UNL     1       8.011  19.955   5.139  1.00  0.00     0.017 C 
HETATM   32  C28 UNL     1       6.882  21.283   3.404  1.00  0.00     0.017 C 
ENDBRANCH  22  29
ENDBRANCH  21  22
ENDBRANCH   1  21
BRANCH  12  33
HETATM   33  O4  UNL     1       9.554  20.705  -1.291  1.00  0.00    -0.392 OA
ATOM     34  H4  UNL     1       9.808  21.374  -1.916  1.00  0.00     0.210 HD
ENDBRANCH  12  33
BRANCH   7  35
HETATM   35  O2  UNL     1       6.743  15.638  -0.341  1.00  0.00    -0.387 OA
ATOM     36  H2  UNL     1       5.817  15.822  -0.234  1.00  0.00     0.210 HD
ENDBRANCH   7  35
TORSDOF 8
ENDMDL
MODEL 4
REMARK VINA RESULT: -6.204283859      1.700      3.656
REMARK  8 active torsions:
REMARK  status: ('A' for Active; 'I' for Inactive)
REMARK    1  A    between atoms: C2_2  and  C4_4 
REMARK    2  A    between atoms: C4_4  and  C5_5 
REMARK    3  A    between atoms: C6_6  and  C7_7 
REMARK    4  A    between atoms: C7_7  and  O1_8 
REMARK    5  A    between atoms: C7_7  and  C25_33 
REMARK    6  A    between atoms: O1_8  and  C8_9 
REMARK    7  A    between atoms: C13_15  and  O2_16 
REMARK    8  A    between atoms: C17_22  and  O4_23 
ROOT
HETATM    1  C8  UNL     1       3.921  20.698   2.367  1.00  0.00     0.163 C 
HETATM    2  C9  UNL     1       5.316  21.185   2.576  1.00  0.00     0.050 C 
HETATM    3  C10 UNL     1       6.337  20.233   3.153  1.00  0.00     0.000 C 
HETATM    4  C11 UNL     1       7.457  21.251   3.578  1.00  0.00     0.021 C 
HETATM    5  C12 UNL     1       5.894  19.673   4.407  1.00  0.00     0.030 C 
HETATM    6 CL1  UNL     1       7.041  18.545   5.175  1.00  0.00    -0.090 Cl
HETATM    7  C13 UNL     1       4.506  19.154   4.593  1.00  0.00     0.197 C 
HETATM    8  C14 UNL     1       3.930  18.432   3.438  1.00  0.00     0.125 A 
HETATM    9  C15 UNL     1       3.676  16.978   3.676  1.00  0.00     0.052 C 
HETATM   10  O3  UNL     1       2.585  18.860   2.969  1.00  0.00    -0.355 OA
HETATM   11  C16 UNL     1       3.734  19.253   2.356  1.00  0.00     0.147 A 
HETATM   12  C17 UNL     1       4.156  18.753   1.001  1.00  0.00     0.159 C 
HETATM   13  C18 UNL     1       5.348  17.891   0.954  1.00  0.00     0.052 C 
HETATM   14  C19 UNL     1       6.671  18.337   1.357  1.00  0.00     0.024 C 
HETATM   15  C20 UNL     1       7.474  18.379   0.015  1.00  0.00     0.024 C 
HETATM   16  C21 UNL     1       7.404  17.237   2.067  1.00  0.00     0.135 C 
HETATM   17  O5  UNL     1       7.032  16.149   2.422  1.00  0.00    -0.297 OA
HETATM   18  C22 UNL     1       8.760  17.808   2.250  1.00  0.00     0.079 C 
HETATM   19  C23 UNL     1       8.507  19.270   2.398  1.00  0.00     0.014 C 
HETATM   20  C24 UNL     1       7.023  19.503   2.076  1.00  0.00     0.015 C 
ENDROOT
BRANCH   1  21
HETATM   21  O1  UNL     1       3.067  21.502   3.135  1.00  0.00    -0.373 OA
BRANCH  21  22
HETATM   22  C7  UNL     1       1.865  21.819   2.519  1.00  0.00     0.152 C 
BRANCH  22  23
HETATM   23  C6  UNL     1       2.236  22.712   1.344  1.00  0.00     0.001 C 
HETATM   24  C5  UNL     1       1.918  22.475   0.110  1.00  0.00    -0.028 C 
BRANCH  24  25
HETATM   25  C4  UNL     1       1.164  21.336  -0.449  1.00  0.00     0.030 C 
BRANCH  25  26
HETATM   26  C2  UNL     1      -0.127  21.846  -1.064  1.00  0.00    -0.019 C 
HETATM   27  C1  UNL     1      -1.216  20.805  -0.848  1.00  0.00     0.010 C 
HETATM   28  C3  UNL     1       0.026  22.089  -2.539  1.00  0.00     0.010 C 
ENDBRANCH  25  26
ENDBRANCH  24  25
ENDBRANCH  22  23
BRANCH  22  29
HETATM   29  C25 UNL     1       0.940  22.504   3.429  1.00  0.00    -0.022 C 
HETATM   30  C26 UNL     1       1.013  24.000   3.326  1.00  0.00     0.017 C 
HETATM   31  C27 UNL     1       1.179  22.172   4.895  1.00  0.00     0.017 C 
HETATM   32  C28 UNL     1      -0.481  22.046   3.085  1.00  0.00     0.017 C 
ENDBRANCH  22  29
ENDBRANCH  21  22
ENDBRANCH   1  21
BRANCH  12  33
HETATM   33  O4  UNL     1       4.291  19.749   0.038  1.00  0.00    -0.392 OA
ATOM     34  H4  UNL     1       4.690  20.550   0.355  1.00  0.00     0.210 HD
ENDBRANCH  12  33
BRANCH   7  35
HETATM   35  O2  UNL     1       4.518  18.337   5.734  1.00  0.00    -0.387 OA
ATOM     36  H2  UNL     1       4.417  17.440   5.438  1.00  0.00     0.210 HD
ENDBRANCH   7  35
TORSDOF 8
ENDMDL
MODEL 5
REMARK VINA RESULT: -6.111953647      4.017      7.410
REMARK  8 active torsions:
REMARK  status: ('A' for Active; 'I' for Inactive)
REMARK    1  A    between atoms: C2_2  and  C4_4 
REMARK    2  A    between atoms: C4_4  and  C5_5 
REMARK    3  A    between atoms: C6_6  and  C7_7 
REMARK    4  A    between atoms: C7_7  and  O1_8 
REMARK    5  A    between atoms: C7_7  and  C25_33 
REMARK    6  A    between atoms: O1_8  and  C8_9 
REMARK    7  A    between atoms: C13_15  and  O2_16 
REMARK    8  A    between atoms: C17_22  and  O4_23 
ROOT
HETATM    1  C8  UNL     1       8.326  16.505   0.776  1.00  0.00     0.163 C 
HETATM    2  C9  UNL     1       9.001  17.807   1.051  1.00  0.00     0.050 C 
HETATM    3  C10 UNL     1       8.147  19.009   1.380  1.00  0.00     0.000 C 
HETATM    4  C11 UNL     1       9.194  20.162   1.162  1.00  0.00     0.021 C 
HETATM    5  C12 UNL     1       7.156  19.254   0.359  1.00  0.00     0.030 C 
HETATM    6 CL1  UNL     1       6.107  20.665   0.651  1.00  0.00    -0.090 Cl
HETATM    7  C13 UNL     1       6.334  18.152  -0.224  1.00  0.00     0.197 C 
HETATM    8  C14 UNL     1       5.895  17.107   0.726  1.00  0.00     0.125 A 
HETATM    9  C15 UNL     1       4.417  17.048   0.946  1.00  0.00     0.052 C 
HETATM   10  O3  UNL     1       6.162  15.693   0.355  1.00  0.00    -0.355 OA
HETATM   11  C16 UNL     1       6.947  16.381   1.226  1.00  0.00     0.147 A 
HETATM   12  C17 UNL     1       6.976  16.103   2.705  1.00  0.00     0.159 C 
HETATM   13  C18 UNL     1       6.430  17.146   3.587  1.00  0.00     0.052 C 
HETATM   14  C19 UNL     1       6.992  18.482   3.686  1.00  0.00     0.024 C 
HETATM   15  C20 UNL     1       7.600  18.525   5.127  1.00  0.00     0.024 C 
HETATM   16  C21 UNL     1       5.902  19.503   3.830  1.00  0.00     0.135 C 
HETATM   17  O5  UNL     1       4.705  19.386   3.769  1.00  0.00    -0.297 OA
HETATM   18  C22 UNL     1       6.654  20.757   4.079  1.00  0.00     0.079 C 
HETATM   19  C23 UNL     1       7.919  20.563   3.314  1.00  0.00     0.014 C 
HETATM   20  C24 UNL     1       7.932  19.104   2.831  1.00  0.00     0.015 C 
ENDROOT
BRANCH   1  21
HETATM   21  O1  UNL     1       8.670  16.111  -0.524  1.00  0.00    -0.373 OA
BRANCH  21  22
HETATM   22  C7  UNL     1       9.653  16.887  -1.122  1.00  0.00     0.152 C 
BRANCH  22  23
HETATM   23  C6  UNL     1       9.109  17.237  -2.499  1.00  0.00     0.001 C 
HETATM   24  C5  UNL     1       8.918  18.444  -2.930  1.00  0.00    -0.028 C 
BRANCH  24  25
HETATM   25  C4  UNL     1       9.154  19.724  -2.234  1.00  0.00     0.030 C 
BRANCH  25  26
HETATM   26  C2  UNL     1      10.588  20.163  -2.470  1.00  0.00    -0.019 C 
HETATM   27  C1  UNL     1      10.747  21.597  -1.983  1.00  0.00     0.010 C 
HETATM   28  C3  UNL     1      10.946  20.104  -3.929  1.00  0.00     0.010 C 
ENDBRANCH  25  26
ENDBRANCH  24  25
ENDBRANCH  22  23
BRANCH  22  29
HETATM   29  C25 UNL     1      10.932  16.177  -1.226  1.00  0.00    -0.022 C 
HETATM   30  C26 UNL     1      11.062  15.050  -0.242  1.00  0.00     0.017 C 
HETATM   31  C27 UNL     1      12.141  17.073  -0.999  1.00  0.00     0.017 C 
HETATM   32  C28 UNL     1      11.042  15.616  -2.648  1.00  0.00     0.017 C 
ENDBRANCH  22  29
ENDBRANCH  21  22
ENDBRANCH   1  21
BRANCH  12  33
HETATM   33  O4  UNL     1       8.222  15.718   3.192  1.00  0.00    -0.392 OA
ATOM     34  H4  UNL     1       8.292  15.725   4.139  1.00  0.00     0.210 HD
ENDBRANCH  12  33
BRANCH   7  35
HETATM   35  O2  UNL     1       5.232  18.746  -0.855  1.00  0.00    -0.387 OA
ATOM     36  H2  UNL     1       4.909  18.126  -1.498  1.00  0.00     0.210 HD
ENDBRANCH   7  35
TORSDOF 8
ENDMDL
