MODEL 1
REMARK VINA RESULT: -7.976193906      0.000      0.000
REMARK  7 active torsions:
REMARK  status: ('A' for Active; 'I' for Inactive)
REMARK    1  A    between atoms: O1_2  and  C2_3 
REMARK    2  A    between atoms: C6_8  and  N2_9 
REMARK    3  A    between atoms: N2_9  and  C7_11 
REMARK    4  A    between atoms: C7_11  and  C8_12 
REMARK    5  A    between atoms: C8_12  and  C9_13 
REMARK    6  A    between atoms: C8_12  and  N3_17 
REMARK    7  A    between atoms: N3_17  and  C11_19 
ROOT
HETATM    1  N2  UNL     1       7.687  18.643   0.730  1.00  0.00    -0.223 N 
ATOM      2  H2  UNL     1       6.859  18.472   0.159  1.00  0.00     0.177 HD
ENDROOT
BRANCH   1   3
HETATM    3  C6  UNL     1       8.393  19.242  -0.048  1.00  0.00     0.686 A 
HETATM    4  N1  UNL     1       8.651  18.902  -1.323  1.00  0.00    -0.153 N 
HETATM    5  C5  UNL     1       8.062  17.766  -1.817  1.00  0.00     0.116 A 
HETATM    6  C26 UNL     1       9.461  19.633  -2.123  1.00  0.00     0.121 A 
HETATM    7  C4  UNL     1       8.290  17.370  -3.109  1.00  0.00     0.021 A 
HETATM    8  C3  UNL     1       9.112  18.123  -3.907  1.00  0.00     0.040 A 
HETATM    9  C2  UNL     1       9.722  19.282  -3.427  1.00  0.00     0.098 A 
HETATM   10  C25 UNL     1      10.051  20.777  -1.623  1.00  0.00     0.126 A 
HETATM   11  C24 UNL     1       9.784  21.122  -0.316  1.00  0.00     0.167 A 
HETATM   12  N7  UNL     1      10.878  21.680  -2.164  1.00  0.00    -0.280 N 
HETATM   13  N4  UNL     1       8.983  20.385   0.455  1.00  0.00    -0.172 N 
HETATM   14  N5  UNL     1      10.486  22.269  -0.096  1.00  0.00    -0.269 N 
ATOM     15  H4  UNL     1       8.805  20.667   1.419  1.00  0.00     0.186 HD
HETATM   16  N6  UNL     1      11.122  22.579  -1.197  1.00  0.00    -0.240 N 
ATOM     17  H5  UNL     1      10.512  22.795   0.777  1.00  0.00     0.190 HD
ATOM     18  H6  UNL     1      11.722  23.396  -1.306  1.00  0.00     0.208 HD
ATOM     19  H7  UNL     1      11.247  21.685  -3.116  1.00  0.00     0.188 HD
BRANCH   9  20
HETATM   20  O1  UNL     1      10.520  19.951  -4.308  1.00  0.00    -0.354 OA
HETATM   21  C1  UNL     1      11.174  19.395  -5.404  1.00  0.00     0.210 C 
ENDBRANCH   9  20
ENDBRANCH   1   3
BRANCH   1  22
HETATM   22  C7  UNL     1       7.330  18.060   1.903  1.00  0.00     0.167 C 
BRANCH  22  23
HETATM   23  C8  UNL     1       6.644  19.086   2.812  1.00  0.00     0.122 C 
BRANCH  23  24
HETATM   24  C9  UNL     1       7.580  19.148   4.017  1.00  0.00     0.054 C 
HETATM   25  C10 UNL     1       8.257  20.270   4.228  1.00  0.00     0.184 C 
HETATM   26  F1  UNL     1       8.113  21.338   3.381  1.00  0.00    -0.193 F 
HETATM   27 CL1  UNL     1       9.360  20.475   5.563  1.00  0.00    -0.052 Cl
ENDBRANCH  23  24
BRANCH  23  28
HETATM   28  N3  UNL     1       5.349  18.812   3.235  1.00  0.00    -0.408 N 
ATOM     29  H3  UNL     1       5.162  17.908   3.669  1.00  0.00     0.154 HD
BRANCH  28  30
HETATM   30  C11 UNL     1       4.279  19.720   3.094  1.00  0.00     0.077 C 
HETATM   31  C12 UNL     1       3.370  19.795   4.293  1.00  0.00     0.024 C 
HETATM   32  C13 UNL     1       1.989  20.252   4.046  1.00  0.00     0.002 C 
HETATM   33  C14 UNL     1       1.079  19.339   3.311  1.00  0.00     0.000 C 
HETATM   34  C15 UNL     1      -0.009  20.180   2.675  1.00  0.00     0.000 C 
HETATM   35  C16 UNL     1      -0.508  19.647   1.375  1.00  0.00     0.000 C 
HETATM   36  C17 UNL     1       0.157  20.179   0.155  1.00  0.00     0.000 C 
HETATM   37  C18 UNL     1       0.224  21.659   0.026  1.00  0.00     0.000 C 
HETATM   38  C19 UNL     1       1.630  22.170  -0.309  1.00  0.00     0.000 C 
HETATM   39  C20 UNL     1       2.149  23.142   0.695  1.00  0.00     0.000 C 
HETATM   40  C21 UNL     1       3.480  22.843   1.281  1.00  0.00     0.000 C 
HETATM   41  C22 UNL     1       3.878  21.416   1.311  1.00  0.00     0.002 C 
HETATM   42  C23 UNL     1       4.724  21.040   2.542  1.00  0.00     0.024 C 
ENDBRANCH  28  30
ENDBRANCH  23  28
ENDBRANCH  22  23
ENDBRANCH   1  22
TORSDOF 7
ENDMDL
MODEL 2
REMARK VINA RESULT: -7.902327402      1.830      3.109
REMARK  7 active torsions:
REMARK  status: ('A' for Active; 'I' for Inactive)
REMARK    1  A    between atoms: O1_2  and  C2_3 
REMARK    2  A    between atoms: C6_8  and  N2_9 
REMARK    3  A    between atoms: N2_9  and  C7_11 
REMARK    4  A    between atoms: C7_11  and  C8_12 
REMARK    5  A    between atoms: C8_12  and  C9_13 
REMARK    6  A    between atoms: C8_12  and  N3_17 
REMARK    7  A    between atoms: N3_17  and  C11_19 
ROOT
HETATM    1  N2  UNL     1       7.519  18.954   1.304  1.00  0.00    -0.223 N 
ATOM      2  H2  UNL     1       8.213  18.423   1.831  1.00  0.00     0.177 HD
ENDROOT
BRANCH   1   3
HETATM    3  C6  UNL     1       8.072  19.075   0.236  1.00  0.00     0.686 A 
HETATM    4  N1  UNL     1       8.466  18.081  -0.580  1.00  0.00    -0.153 N 
HETATM    5  C5  UNL     1       8.223  16.790  -0.185  1.00  0.00     0.116 A 
HETATM    6  C26 UNL     1       9.084  18.309  -1.761  1.00  0.00     0.121 A 
HETATM    7  C4  UNL     1       8.602  15.738  -0.976  1.00  0.00     0.021 A 
HETATM    8  C3  UNL     1       9.227  15.986  -2.171  1.00  0.00     0.040 A 
HETATM    9  C2  UNL     1       9.485  17.291  -2.594  1.00  0.00     0.098 A 
HETATM   10  C25 UNL     1       9.326  19.610  -2.157  1.00  0.00     0.126 A 
HETATM   11  C24 UNL     1       8.921  20.625  -1.318  1.00  0.00     0.167 A 
HETATM   12  N7  UNL     1       9.904  20.132  -3.246  1.00  0.00    -0.280 N 
HETATM   13  N4  UNL     1       8.314  20.376  -0.157  1.00  0.00    -0.172 N 
HETATM   14  N5  UNL     1       9.282  21.778  -1.948  1.00  0.00    -0.269 N 
ATOM     15  H4  UNL     1       8.027  21.150   0.442  1.00  0.00     0.186 HD
HETATM   16  N6  UNL     1       9.858  21.465  -3.081  1.00  0.00    -0.240 N 
ATOM     17  H5  UNL     1       9.129  22.724  -1.597  1.00  0.00     0.190 HD
ATOM     18  H6  UNL     1      10.223  22.143  -3.749  1.00  0.00     0.208 HD
ATOM     19  H7  UNL     1      10.299  19.624  -4.037  1.00  0.00     0.188 HD
BRANCH   9  20
HETATM   20  O1  UNL     1      10.112  17.419  -3.798  1.00  0.00    -0.354 OA
HETATM   21  C1  UNL     1       9.628  16.969  -5.024  1.00  0.00     0.210 C 
ENDBRANCH   9  20
ENDBRANCH   1   3
BRANCH   1  22
HETATM   22  C7  UNL     1       6.533  19.098   2.227  1.00  0.00     0.167 C 
BRANCH  22  23
HETATM   23  C8  UNL     1       6.401  20.571   2.629  1.00  0.00     0.122 C 
BRANCH  23  24
HETATM   24  C9  UNL     1       7.710  20.837   3.369  1.00  0.00     0.054 C 
HETATM   25  C10 UNL     1       7.900  20.240   4.540  1.00  0.00     0.184 C 
HETATM   26  F1  UNL     1       6.940  19.411   5.061  1.00  0.00    -0.193 F 
HETATM   27 CL1  UNL     1       9.346  20.457   5.491  1.00  0.00    -0.052 Cl
ENDBRANCH  23  24
BRANCH  23  28
HETATM   28  N3  UNL     1       5.325  20.928   3.433  1.00  0.00    -0.408 N 
ATOM     29  H3  UNL     1       5.439  20.878   4.446  1.00  0.00     0.154 HD
BRANCH  28  30
HETATM   30  C11 UNL     1       4.083  21.356   2.920  1.00  0.00     0.077 C 
HETATM   31  C12 UNL     1       4.080  21.601   1.434  1.00  0.00     0.024 C 
HETATM   32  C13 UNL     1       3.063  22.539   0.922  1.00  0.00     0.002 C 
HETATM   33  C14 UNL     1       3.226  23.979   1.242  1.00  0.00     0.000 C 
HETATM   34  C15 UNL     1       1.862  24.632   1.158  1.00  0.00     0.000 C 
HETATM   35  C16 UNL     1       1.667  25.759   2.116  1.00  0.00     0.000 C 
HETATM   36  C17 UNL     1       1.050  25.404   3.422  1.00  0.00     0.000 C 
HETATM   37  C18 UNL     1      -0.228  24.645   3.369  1.00  0.00     0.000 C 
HETATM   38  C19 UNL     1      -0.228  23.405   4.268  1.00  0.00     0.000 C 
HETATM   39  C20 UNL     1      -0.502  22.145   3.519  1.00  0.00     0.000 C 
HETATM   40  C21 UNL     1       0.479  21.044   3.691  1.00  0.00     0.000 C 
HETATM   41  C22 UNL     1       1.861  21.446   4.047  1.00  0.00     0.002 C 
HETATM   42  C23 UNL     1       2.942  20.533   3.437  1.00  0.00     0.024 C 
ENDBRANCH  28  30
ENDBRANCH  23  28
ENDBRANCH  22  23
ENDBRANCH   1  22
TORSDOF 7
ENDMDL
MODEL 3
REMARK VINA RESULT: -7.872369597      1.117      2.439
REMARK  7 active torsions:
REMARK  status: ('A' for Active; 'I' for Inactive)
REMARK    1  A    between atoms: O1_2  and  C2_3 
REMARK    2  A    between atoms: C6_8  and  N2_9 
REMARK    3  A    between atoms: N2_9  and  C7_11 
REMARK    4  A    between atoms: C7_11  and  C8_12 
REMARK    5  A    between atoms: C8_12  and  C9_13 
REMARK    6  A    between atoms: C8_12  and  N3_17 
REMARK    7  A    between atoms: N3_17  and  C11_19 
ROOT
HETATM    1  N2  UNL     1       7.786  18.785   1.197  1.00  0.00    -0.223 N 
ATOM      2  H2  UNL     1       8.513  18.326   1.745  1.00  0.00     0.177 HD
ENDROOT
BRANCH   1   3
HETATM    3  C6  UNL     1       8.443  19.359   0.361  1.00  0.00     0.686 A 
HETATM    4  N1  UNL     1       8.606  18.993  -0.922  1.00  0.00    -0.153 N 
HETATM    5  C5  UNL     1       7.968  17.858  -1.353  1.00  0.00     0.116 A 
HETATM    6  C26 UNL     1       9.367  19.698  -1.791  1.00  0.00     0.121 A 
HETATM    7  C4  UNL     1       8.097  17.437  -2.650  1.00  0.00     0.021 A 
HETATM    8  C3  UNL     1       8.872  18.163  -3.518  1.00  0.00     0.040 A 
HETATM    9  C2  UNL     1       9.531  19.321  -3.103  1.00  0.00     0.098 A 
HETATM   10  C25 UNL     1      10.008  20.841  -1.355  1.00  0.00     0.126 A 
HETATM   11  C24 UNL     1       9.838  21.213  -0.038  1.00  0.00     0.167 A 
HETATM   12  N7  UNL     1      10.807  21.721  -1.969  1.00  0.00    -0.280 N 
HETATM   13  N4  UNL     1       9.084  20.502   0.800  1.00  0.00    -0.172 N 
HETATM   14  N5  UNL     1      10.570  22.352   0.110  1.00  0.00    -0.269 N 
ATOM     15  H4  UNL     1       8.979  20.803   1.769  1.00  0.00     0.186 HD
HETATM   16  N6  UNL     1      11.131  22.633  -1.038  1.00  0.00    -0.240 N 
ATOM     17  H5  UNL     1      10.665  22.893   0.970  1.00  0.00     0.190 HD
ATOM     18  H6  UNL     1      11.734  23.439  -1.204  1.00  0.00     0.208 HD
ATOM     19  H7  UNL     1      11.108  21.704  -2.944  1.00  0.00     0.188 HD
BRANCH   9  20
HETATM   20  O1  UNL     1      10.273  19.962  -4.050  1.00  0.00    -0.354 OA
HETATM   21  C1  UNL     1      11.029  19.352  -5.048  1.00  0.00     0.210 C 
ENDBRANCH   9  20
ENDBRANCH   1   3
BRANCH   1  22
HETATM   22  C7  UNL     1       6.664  18.380   1.847  1.00  0.00     0.167 C 
BRANCH  22  23
HETATM   23  C8  UNL     1       6.233  19.445   2.862  1.00  0.00     0.122 C 
BRANCH  23  24
HETATM   24  C9  UNL     1       7.334  19.368   3.919  1.00  0.00     0.054 C 
HETATM   25  C10 UNL     1       8.052  20.460   4.155  1.00  0.00     0.184 C 
HETATM   26  F1  UNL     1       7.805  21.618   3.465  1.00  0.00    -0.193 F 
HETATM   27 CL1  UNL     1       9.339  20.510   5.331  1.00  0.00    -0.052 Cl
ENDBRANCH  23  24
BRANCH  23  28
HETATM   28  N3  UNL     1       4.990  19.297   3.466  1.00  0.00    -0.408 N 
ATOM     29  H3  UNL     1       4.928  18.740   4.318  1.00  0.00     0.154 HD
BRANCH  28  30
HETATM   30  C11 UNL     1       3.809  19.879   2.960  1.00  0.00     0.077 C 
HETATM   31  C12 UNL     1       3.632  19.723   1.472  1.00  0.00     0.024 C 
HETATM   32  C13 UNL     1       2.781  20.724   0.801  1.00  0.00     0.002 C 
HETATM   33  C14 UNL     1       3.305  22.106   0.676  1.00  0.00     0.000 C 
HETATM   34  C15 UNL     1       2.122  23.040   0.524  1.00  0.00     0.000 C 
HETATM   35  C16 UNL     1       2.328  24.388   1.129  1.00  0.00     0.000 C 
HETATM   36  C17 UNL     1       1.857  24.552   2.530  1.00  0.00     0.000 C 
HETATM   37  C18 UNL     1       0.450  24.157   2.809  1.00  0.00     0.000 C 
HETATM   38  C19 UNL     1       0.314  23.234   4.024  1.00  0.00     0.000 C 
HETATM   39  C20 UNL     1      -0.341  21.936   3.697  1.00  0.00     0.000 C 
HETATM   40  C21 UNL     1       0.387  20.705   4.095  1.00  0.00     0.000 C 
HETATM   41  C22 UNL     1       1.861  20.820   4.199  1.00  0.00     0.002 C 
HETATM   42  C23 UNL     1       2.608  19.537   3.788  1.00  0.00     0.024 C 
ENDBRANCH  28  30
ENDBRANCH  23  28
ENDBRANCH  22  23
ENDBRANCH   1  22
TORSDOF 7
ENDMDL
MODEL 4
REMARK VINA RESULT: -7.739876562      1.054      1.986
REMARK  7 active torsions:
REMARK  status: ('A' for Active; 'I' for Inactive)
REMARK    1  A    between atoms: O1_2  and  C2_3 
REMARK    2  A    between atoms: C6_8  and  N2_9 
REMARK    3  A    between atoms: N2_9  and  C7_11 
REMARK    4  A    between atoms: C7_11  and  C8_12 
REMARK    5  A    between atoms: C8_12  and  C9_13 
REMARK    6  A    between atoms: C8_12  and  N3_17 
REMARK    7  A    between atoms: N3_17  and  C11_19 
ROOT
HETATM    1  N2  UNL     1       8.039  18.801   0.979  1.00  0.00    -0.223 N 
ATOM      2  H2  UNL     1       7.324  18.345   0.411  1.00  0.00     0.177 HD
ENDROOT
BRANCH   1   3
HETATM    3  C6  UNL     1       8.672  19.392   0.135  1.00  0.00     0.686 A 
HETATM    4  N1  UNL     1       8.845  19.019  -1.145  1.00  0.00    -0.153 N 
HETATM    5  C5  UNL     1       8.250  17.856  -1.563  1.00  0.00     0.116 A 
HETATM    6  C26 UNL     1       9.577  19.744  -2.022  1.00  0.00     0.121 A 
HETATM    7  C4  UNL     1       8.393  17.428  -2.856  1.00  0.00     0.021 A 
HETATM    8  C3  UNL     1       9.137  18.175  -3.733  1.00  0.00     0.040 A 
HETATM    9  C2  UNL     1       9.752  19.361  -3.332  1.00  0.00     0.098 A 
HETATM   10  C25 UNL     1      10.175  20.915  -1.599  1.00  0.00     0.126 A 
HETATM   11  C24 UNL     1       9.994  21.293  -0.286  1.00  0.00     0.167 A 
HETATM   12  N7  UNL     1      10.938  21.820  -2.224  1.00  0.00    -0.280 N 
HETATM   13  N4  UNL     1       9.269  20.562   0.562  1.00  0.00    -0.172 N 
HETATM   14  N5  UNL     1      10.682  22.461  -0.150  1.00  0.00    -0.269 N 
ATOM     15  H4  UNL     1       9.155  20.868   1.528  1.00  0.00     0.186 HD
HETATM   16  N6  UNL     1      11.229  22.752  -1.303  1.00  0.00    -0.240 N 
ATOM     17  H5  UNL     1      10.759  23.014   0.704  1.00  0.00     0.190 HD
ATOM     18  H6  UNL     1      11.801  23.579  -1.478  1.00  0.00     0.208 HD
ATOM     19  H7  UNL     1      11.237  21.804  -3.200  1.00  0.00     0.188 HD
BRANCH   9  20
HETATM   20  O1  UNL     1      10.467  20.020  -4.287  1.00  0.00    -0.354 OA
HETATM   21  C1  UNL     1      11.153  19.433  -5.346  1.00  0.00     0.210 C 
ENDBRANCH   9  20
ENDBRANCH   1   3
BRANCH   1  22
HETATM   22  C7  UNL     1       7.704  18.376   2.225  1.00  0.00     0.167 C 
BRANCH  22  23
HETATM   23  C8  UNL     1       6.936  19.477   2.965  1.00  0.00     0.122 C 
BRANCH  23  24
HETATM   24  C9  UNL     1       7.566  19.450   4.357  1.00  0.00     0.054 C 
HETATM   25  C10 UNL     1       8.593  20.257   4.595  1.00  0.00     0.184 C 
HETATM   26  F1  UNL     1       9.066  21.089   3.613  1.00  0.00    -0.193 F 
HETATM   27 CL1  UNL     1       9.406  20.326   6.136  1.00  0.00    -0.052 Cl
ENDBRANCH  23  24
BRANCH  23  28
HETATM   28  N3  UNL     1       5.557  19.344   3.071  1.00  0.00    -0.408 N 
ATOM     29  H3  UNL     1       5.179  18.836   3.871  1.00  0.00     0.154 HD
BRANCH  28  30
HETATM   30  C11 UNL     1       4.653  19.876   2.128  1.00  0.00     0.077 C 
HETATM   31  C12 UNL     1       5.004  21.260   1.647  1.00  0.00     0.024 C 
HETATM   32  C13 UNL     1       3.892  22.082   1.134  1.00  0.00     0.002 C 
HETATM   33  C14 UNL     1       2.895  22.585   2.110  1.00  0.00     0.000 C 
HETATM   34  C15 UNL     1       1.608  22.861   1.360  1.00  0.00     0.000 C 
HETATM   35  C16 UNL     1       0.373  22.625   2.163  1.00  0.00     0.000 C 
HETATM   36  C17 UNL     1      -0.234  21.272   2.041  1.00  0.00     0.000 C 
HETATM   37  C18 UNL     1      -0.507  20.788   0.662  1.00  0.00     0.000 C 
HETATM   38  C19 UNL     1       0.030  19.376   0.403  1.00  0.00     0.000 C 
HETATM   39  C20 UNL     1       0.984  19.319  -0.740  1.00  0.00     0.000 C 
HETATM   40  C21 UNL     1       2.304  18.694  -0.473  1.00  0.00     0.000 C 
HETATM   41  C22 UNL     1       2.782  18.746   0.929  1.00  0.00     0.002 C 
HETATM   42  C23 UNL     1       4.310  18.891   1.052  1.00  0.00     0.024 C 
ENDBRANCH  28  30
ENDBRANCH  23  28
ENDBRANCH  22  23
ENDBRANCH   1  22
TORSDOF 7
ENDMDL
MODEL 5
REMARK VINA RESULT: -7.617700706      1.960      3.820
REMARK  7 active torsions:
REMARK  status: ('A' for Active; 'I' for Inactive)
REMARK    1  A    between atoms: O1_2  and  C2_3 
REMARK    2  A    between atoms: C6_8  and  N2_9 
REMARK    3  A    between atoms: N2_9  and  C7_11 
REMARK    4  A    between atoms: C7_11  and  C8_12 
REMARK    5  A    between atoms: C8_12  and  C9_13 
REMARK    6  A    between atoms: C8_12  and  N3_17 
REMARK    7  A    between atoms: N3_17  and  C11_19 
ROOT
HETATM    1  N2  UNL     1       7.449  19.152   0.841  1.00  0.00    -0.223 N 
ATOM      2  H2  UNL     1       7.962  20.016   1.013  1.00  0.00     0.177 HD
ENDROOT
BRANCH   1   3
HETATM    3  C6  UNL     1       8.067  18.686  -0.087  1.00  0.00     0.686 A 
HETATM    4  N1  UNL     1       8.901  19.349  -0.908  1.00  0.00    -0.153 N 
HETATM    5  C5  UNL     1       9.088  20.690  -0.688  1.00  0.00     0.116 A 
HETATM    6  C26 UNL     1       9.552  18.746  -1.928  1.00  0.00     0.121 A 
HETATM    7  C4  UNL     1       9.926  21.416  -1.493  1.00  0.00     0.021 A 
HETATM    8  C3  UNL     1      10.579  20.789  -2.523  1.00  0.00     0.040 A 
HETATM    9  C2  UNL     1      10.404  19.426  -2.766  1.00  0.00     0.098 A 
HETATM   10  C25 UNL     1       9.362  17.395  -2.147  1.00  0.00     0.126 A 
HETATM   11  C24 UNL     1       8.507  16.720  -1.303  1.00  0.00     0.167 A 
HETATM   12  N7  UNL     1       9.858  16.546  -3.055  1.00  0.00    -0.280 N 
HETATM   13  N4  UNL     1       7.875  17.336  -0.303  1.00  0.00    -0.172 N 
HETATM   14  N5  UNL     1       8.510  15.431  -1.745  1.00  0.00    -0.269 N 
ATOM     15  H4  UNL     1       7.248  16.808   0.303  1.00  0.00     0.186 HD
HETATM   16  N6  UNL     1       9.312  15.351  -2.776  1.00  0.00    -0.240 N 
ATOM     17  H5  UNL     1       7.979  14.660  -1.341  1.00  0.00     0.190 HD
ATOM     18  H6  UNL     1       9.498  14.495  -3.298  1.00  0.00     0.208 HD
ATOM     19  H7  UNL     1      10.515  16.762  -3.805  1.00  0.00     0.188 HD
BRANCH   9  20
HETATM   20  O1  UNL     1      11.103  18.909  -3.817  1.00  0.00    -0.354 OA
HETATM   21  C1  UNL     1      11.057  19.363  -5.132  1.00  0.00     0.210 C 
ENDBRANCH   9  20
ENDBRANCH   1   3
BRANCH   1  22
HETATM   22  C7  UNL     1       6.483  19.219   1.794  1.00  0.00     0.167 C 
BRANCH  22  23
HETATM   23  C8  UNL     1       6.341  20.660   2.297  1.00  0.00     0.122 C 
BRANCH  23  24
HETATM   24  C9  UNL     1       7.674  20.905   3.000  1.00  0.00     0.054 C 
HETATM   25  C10 UNL     1       7.874  20.330   4.181  1.00  0.00     0.184 C 
HETATM   26  F1  UNL     1       6.904  19.542   4.743  1.00  0.00    -0.193 F 
HETATM   27 CL1  UNL     1       9.347  20.527   5.093  1.00  0.00    -0.052 Cl
ENDBRANCH  23  24
BRANCH  23  28
HETATM   28  N3  UNL     1       5.292  20.942   3.164  1.00  0.00    -0.408 N 
ATOM     29  H3  UNL     1       5.444  20.815   4.165  1.00  0.00     0.154 HD
BRANCH  28  30
HETATM   30  C11 UNL     1       4.029  21.396   2.731  1.00  0.00     0.077 C 
HETATM   31  C12 UNL     1       3.949  21.683   1.254  1.00  0.00     0.024 C 
HETATM   32  C13 UNL     1       2.916  22.645   0.825  1.00  0.00     0.002 C 
HETATM   33  C14 UNL     1       3.112  24.073   1.175  1.00  0.00     0.000 C 
HETATM   34  C15 UNL     1       1.752  24.741   1.183  1.00  0.00     0.000 C 
HETATM   35  C16 UNL     1       1.620  25.841   2.181  1.00  0.00     0.000 C 
HETATM   36  C17 UNL     1       1.070  25.455   3.508  1.00  0.00     0.000 C 
HETATM   37  C18 UNL     1      -0.217  24.710   3.503  1.00  0.00     0.000 C 
HETATM   38  C19 UNL     1      -0.182  23.444   4.366  1.00  0.00     0.000 C 
HETATM   39  C20 UNL     1      -0.508  22.209   3.598  1.00  0.00     0.000 C 
HETATM   40  C21 UNL     1       0.469  21.095   3.686  1.00  0.00     0.000 C 
HETATM   41  C22 UNL     1       1.872  21.474   3.977  1.00  0.00     0.002 C 
HETATM   42  C23 UNL     1       2.909  20.569   3.285  1.00  0.00     0.024 C 
ENDBRANCH  28  30
ENDBRANCH  23  28
ENDBRANCH  22  23
ENDBRANCH   1  22
TORSDOF 7
ENDMDL
