MODEL 1
REMARK VINA RESULT: -4.015718545      0.000      0.000
REMARK  3 active torsions:
REMARK  status: ('A' for Active; 'I' for Inactive)
REMARK    1  A    between atoms: C2_2  and  C3_3 
REMARK    2  A    between atoms: C3_3  and  C4_4 
REMARK    3  A    between atoms: C4_4  and  N1_6 
ROOT
HETATM    1  C3  UNL     1       1.771 -16.981   7.547  1.00  0.00     0.011 C 
HETATM    2  C6  UNL     1       2.128 -18.317   8.066  1.00  0.00     0.135 C 
HETATM    3  N2  UNL     1       2.235 -19.249   6.965  1.00  0.00    -0.178 NA
HETATM    4  S1  UNL     1       3.303 -18.282   5.915  1.00  0.00    -0.065 SA
HETATM    5  C7  UNL     1       2.476 -16.702   6.269  1.00  0.00     0.105 C 
ENDROOT
BRANCH   1   6
HETATM    6  C2  UNL     1       2.210 -15.942   8.562  1.00  0.00     0.009 C 
HETATM    7  C1  UNL     1       3.151 -16.504   9.590  1.00  0.00     0.006 C 
ENDBRANCH   1   6
BRANCH   1   8
HETATM    8  C4  UNL     1       0.268 -16.871   7.368  1.00  0.00     0.190 C 
HETATM    9  C5  UNL     1      -0.265 -15.547   7.823  1.00  0.00     0.040 C 
BRANCH   8  10
HETATM   10  N1  UNL     1      -0.002 -17.124   5.962  1.00  0.00    -0.075 N 
ATOM     11  H13 UNL     1       0.714 -16.747   5.339  1.00  0.00     0.274 HD
ATOM     12  H12 UNL     1       0.105 -18.105   5.701  1.00  0.00     0.274 HD
ATOM     13  H11 UNL     1      -0.934 -16.757   5.773  1.00  0.00     0.274 HD
ENDBRANCH   8  10
ENDBRANCH   1   8
TORSDOF 3
ENDMDL
MODEL 2
REMARK VINA RESULT: -3.999821441      2.014      2.990
REMARK  3 active torsions:
REMARK  status: ('A' for Active; 'I' for Inactive)
REMARK    1  A    between atoms: C2_2  and  C3_3 
REMARK    2  A    between atoms: C3_3  and  C4_4 
REMARK    3  A    between atoms: C4_4  and  N1_6 
ROOT
HETATM    1  C3  UNL     1       2.532 -17.262   7.189  1.00  0.00     0.011 C 
HETATM    2  C6  UNL     1       3.843 -17.225   6.509  1.00  0.00     0.135 C 
HETATM    3  N2  UNL     1       4.764 -18.107   7.192  1.00  0.00    -0.178 NA
HETATM    4  S1  UNL     1       3.729 -19.557   7.258  1.00  0.00    -0.065 SA
HETATM    5  C7  UNL     1       2.206 -18.640   7.641  1.00  0.00     0.105 C 
ENDROOT
BRANCH   1   6
HETATM    6  C2  UNL     1       1.468 -16.829   6.197  1.00  0.00     0.009 C 
HETATM    7  C1  UNL     1       0.084 -16.883   6.777  1.00  0.00     0.006 C 
ENDBRANCH   1   6
BRANCH   1   8
HETATM    8  C4  UNL     1       2.519 -16.295   8.358  1.00  0.00     0.190 C 
HETATM    9  C5  UNL     1       2.259 -16.984   9.663  1.00  0.00     0.040 C 
BRANCH   8  10
HETATM   10  N1  UNL     1       3.798 -15.604   8.340  1.00  0.00    -0.075 N 
ATOM     11  H13 UNL     1       4.599 -16.237   8.373  1.00  0.00     0.274 HD
ATOM     12  H12 UNL     1       4.011 -15.174   7.440  1.00  0.00     0.274 HD
ATOM     13  H11 UNL     1       3.780 -14.937   9.112  1.00  0.00     0.274 HD
ENDBRANCH   8  10
ENDBRANCH   1   8
TORSDOF 3
ENDMDL
MODEL 3
REMARK VINA RESULT: -3.948048874      2.261      3.503
REMARK  3 active torsions:
REMARK  status: ('A' for Active; 'I' for Inactive)
REMARK    1  A    between atoms: C2_2  and  C3_3 
REMARK    2  A    between atoms: C3_3  and  C4_4 
REMARK    3  A    between atoms: C4_4  and  N1_6 
ROOT
HETATM    1  C3  UNL     1       2.703 -17.910   7.491  1.00  0.00     0.011 C 
HETATM    2  C6  UNL     1       1.542 -17.548   8.330  1.00  0.00     0.135 C 
HETATM    3  N2  UNL     1       1.112 -16.206   8.004  1.00  0.00    -0.178 NA
HETATM    4  S1  UNL     1       1.028 -16.388   6.232  1.00  0.00    -0.065 SA
HETATM    5  C7  UNL     1       2.543 -17.386   6.109  1.00  0.00     0.105 C 
ENDROOT
BRANCH   1   6
HETATM    6  C2  UNL     1       2.780 -19.424   7.413  1.00  0.00     0.009 C 
HETATM    7  C1  UNL     1       4.148 -19.911   7.032  1.00  0.00     0.006 C 
ENDBRANCH   1   6
BRANCH   1   8
HETATM    8  C4  UNL     1       3.985 -17.396   8.117  1.00  0.00     0.190 C 
HETATM    9  C5  UNL     1       4.791 -16.567   7.164  1.00  0.00     0.040 C 
BRANCH   8  10
HETATM   10  N1  UNL     1       3.599 -16.655   9.307  1.00  0.00    -0.075 N 
ATOM     11  H13 UNL     1       2.968 -17.175   9.918  1.00  0.00     0.274 HD
ATOM     12  H12 UNL     1       4.361 -16.542   9.976  1.00  0.00     0.274 HD
ATOM     13  H11 UNL     1       3.210 -15.769   8.985  1.00  0.00     0.274 HD
ENDBRANCH   8  10
ENDBRANCH   1   8
TORSDOF 3
ENDMDL
MODEL 4
REMARK VINA RESULT: -3.828511507      1.662      1.859
REMARK  3 active torsions:
REMARK  status: ('A' for Active; 'I' for Inactive)
REMARK    1  A    between atoms: C2_2  and  C3_3 
REMARK    2  A    between atoms: C3_3  and  C4_4 
REMARK    3  A    between atoms: C4_4  and  N1_6 
ROOT
HETATM    1  C3  UNL     1       2.733 -17.835   7.475  1.00  0.00     0.011 C 
HETATM    2  C6  UNL     1       2.814 -19.310   7.510  1.00  0.00     0.135 C 
HETATM    3  N2  UNL     1       3.886 -19.755   6.647  1.00  0.00    -0.178 NA
HETATM    4  S1  UNL     1       5.171 -18.683   7.263  1.00  0.00    -0.065 SA
HETATM    5  C7  UNL     1       4.090 -17.230   7.432  1.00  0.00     0.105 C 
ENDROOT
BRANCH   1   6
HETATM    6  C2  UNL     1       2.050 -17.365   8.745  1.00  0.00     0.009 C 
HETATM    7  C1  UNL     1       2.985 -16.633   9.665  1.00  0.00     0.006 C 
ENDBRANCH   1   6
BRANCH   1   8
HETATM    8  C4  UNL     1       1.905 -17.382   6.288  1.00  0.00     0.190 C 
HETATM    9  C5  UNL     1       0.986 -16.250   6.633  1.00  0.00     0.040 C 
BRANCH   8  10
HETATM   10  N1  UNL     1       2.844 -17.033   5.235  1.00  0.00    -0.075 N 
ATOM     11  H13 UNL     1       3.709 -16.620   5.586  1.00  0.00     0.274 HD
ATOM     12  H12 UNL     1       3.264 -17.846   4.783  1.00  0.00     0.274 HD
ATOM     13  H11 UNL     1       2.343 -16.426   4.586  1.00  0.00     0.274 HD
ENDBRANCH   8  10
ENDBRANCH   1   8
TORSDOF 3
ENDMDL
MODEL 5
REMARK VINA RESULT: -3.748073915      2.395      2.948
REMARK  3 active torsions:
REMARK  status: ('A' for Active; 'I' for Inactive)
REMARK    1  A    between atoms: C2_2  and  C3_3 
REMARK    2  A    between atoms: C3_3  and  C4_4 
REMARK    3  A    between atoms: C4_4  and  N1_6 
ROOT
HETATM    1  C3  UNL     1       2.221 -17.114   7.446  1.00  0.00     0.011 C 
HETATM    2  C6  UNL     1       3.571 -16.519   7.377  1.00  0.00     0.135 C 
HETATM    3  N2  UNL     1       3.726 -15.553   8.443  1.00  0.00    -0.178 NA
HETATM    4  S1  UNL     1       3.166 -16.571   9.795  1.00  0.00    -0.065 SA
HETATM    5  C7  UNL     1       1.810 -17.339   8.857  1.00  0.00     0.105 C 
ENDROOT
BRANCH   1   6
HETATM    6  C2  UNL     1       2.258 -18.461   6.748  1.00  0.00     0.009 C 
HETATM    7  C1  UNL     1       3.380 -19.332   7.237  1.00  0.00     0.006 C 
ENDBRANCH   1   6
BRANCH   1   8
HETATM    8  C4  UNL     1       1.218 -16.229   6.729  1.00  0.00     0.190 C 
HETATM    9  C5  UNL     1       0.113 -17.018   6.095  1.00  0.00     0.040 C 
BRANCH   8  10
HETATM   10  N1  UNL     1       0.728 -15.276   7.711  1.00  0.00    -0.075 N 
ATOM     11  H13 UNL     1       0.042 -15.675   8.352  1.00  0.00     0.274 HD
ATOM     12  H12 UNL     1       1.426 -15.023   8.410  1.00  0.00     0.274 HD
ATOM     13  H11 UNL     1       0.373 -14.476   7.188  1.00  0.00     0.274 HD
ENDBRANCH   8  10
ENDBRANCH   1   8
TORSDOF 3
ENDMDL
