MODEL 1
REMARK VINA RESULT: -7.238336154      0.000      0.000
REMARK  0 active torsions:
REMARK  status: ('A' for Active; 'I' for Inactive)
REMARK       I    between atoms: C2_4  and  N3_6 
REMARK       I    between atoms: N3_6  and  C3_8 
REMARK       I    between atoms: C3_8  and  N4_10 
ROOT
HETATM    1  C1  UNL     1      20.269 -23.729  19.680  1.00  0.00     0.148 C 
HETATM    2  N1  UNL     1      19.401 -22.705  19.188  1.00  0.00    -0.369 N 
ATOM      3  H1  UNL     1      18.914 -22.898  18.313  1.00  0.00     0.161 HD
HETATM    4  C2  UNL     1      19.177 -21.576  19.732  1.00  0.00     0.191 C 
HETATM    5  N2  UNL     1      18.291 -20.676  19.114  1.00  0.00    -0.063 NA
HETATM    6  N3  UNL     1      19.808 -21.225  20.941  1.00  0.00    -0.280 N 
ATOM      7  H3  UNL     1      20.447 -21.896  21.367  1.00  0.00     0.173 HD
HETATM    8  C3  UNL     1      19.597 -19.978  21.598  1.00  0.00     0.361 C 
HETATM    9  O1  UNL     1      18.809 -19.147  21.074  1.00  0.00    -0.243 OA
HETATM   10  N4  UNL     1      20.257 -19.686  22.805  1.00  0.00    -0.121 N 
HETATM   11  N5  UNL     1      20.154 -18.518  23.560  1.00  0.00     0.009 NA
HETATM   12  N6  UNL     1      21.389 -18.404  24.222  1.00  0.00    -0.232 N 
ATOM     13  H6  UNL     1      21.840 -17.543  24.528  1.00  0.00     0.189 HD
HETATM   14  C4  UNL     1      21.884 -19.733  24.380  1.00  0.00     0.353 C 
HETATM   15  O2  UNL     1      22.785 -20.156  25.156  1.00  0.00    -0.244 OA
HETATM   16  N7  UNL     1      21.144 -20.534  23.462  1.00  0.00    -0.226 N 
ATOM     17  H7  UNL     1      21.245 -21.538  23.315  1.00  0.00     0.193 HD
ENDROOT
TORSDOF 0
ENDMDL
MODEL 2
REMARK VINA RESULT: -7.176488025      1.086      1.086
REMARK  0 active torsions:
REMARK  status: ('A' for Active; 'I' for Inactive)
REMARK       I    between atoms: C2_4  and  N3_6 
REMARK       I    between atoms: N3_6  and  C3_8 
REMARK       I    between atoms: C3_8  and  N4_10 
ROOT
HETATM    1  C1  UNL     1      20.795 -22.381  19.015  1.00  0.00     0.148 C 
HETATM    2  N1  UNL     1      20.003 -21.253  18.636  1.00  0.00    -0.369 N 
ATOM      3  H1  UNL     1      19.621 -21.257  17.691  1.00  0.00     0.161 HD
HETATM    4  C2  UNL     1      19.727 -20.244  19.362  1.00  0.00     0.191 C 
HETATM    5  N2  UNL     1      18.930 -19.212  18.834  1.00  0.00    -0.063 NA
HETATM    6  N3  UNL     1      20.213 -20.153  20.680  1.00  0.00    -0.280 N 
ATOM      7  H3  UNL     1      20.790 -20.915  21.037  1.00  0.00     0.173 HD
HETATM    8  C3  UNL     1      19.938 -19.050  21.539  1.00  0.00     0.361 C 
HETATM    9  O1  UNL     1      19.227 -18.108  21.101  1.00  0.00    -0.243 OA
HETATM   10  N4  UNL     1      20.453 -19.019  22.848  1.00  0.00    -0.121 N 
HETATM   11  N5  UNL     1      20.273 -18.016  23.800  1.00  0.00     0.009 NA
HETATM   12  N6  UNL     1      21.421 -18.072  24.608  1.00  0.00    -0.232 N 
ATOM     13  H6  UNL     1      21.842 -17.302  25.126  1.00  0.00     0.189 HD
HETATM   14  C4  UNL     1      21.881 -19.423  24.560  1.00  0.00     0.353 C 
HETATM   15  O2  UNL     1      22.679 -20.017  25.336  1.00  0.00    -0.244 OA
HETATM   16  N7  UNL     1      21.247 -20.006  23.424  1.00  0.00    -0.226 N 
ATOM     17  H7  UNL     1      21.354 -20.966  23.096  1.00  0.00     0.193 HD
ENDROOT
TORSDOF 0
ENDMDL
MODEL 3
REMARK VINA RESULT: -7.119964364      1.693      1.910
REMARK  0 active torsions:
REMARK  status: ('A' for Active; 'I' for Inactive)
REMARK       I    between atoms: C2_4  and  N3_6 
REMARK       I    between atoms: N3_6  and  C3_8 
REMARK       I    between atoms: C3_8  and  N4_10 
ROOT
HETATM    1  C1  UNL     1      20.169 -20.948  18.435  1.00  0.00     0.148 C 
HETATM    2  N1  UNL     1      19.340 -19.784  18.412  1.00  0.00    -0.369 N 
ATOM      3  H1  UNL     1      18.862 -19.578  17.535  1.00  0.00     0.161 HD
HETATM    4  C2  UNL     1      19.138 -18.979  19.377  1.00  0.00     0.191 C 
HETATM    5  N2  UNL     1      18.288 -17.874  19.189  1.00  0.00    -0.063 NA
HETATM    6  N3  UNL     1      19.758 -19.185  20.624  1.00  0.00    -0.280 N 
ATOM      7  H3  UNL     1      20.370 -19.993  20.734  1.00  0.00     0.173 HD
HETATM    8  C3  UNL     1      19.571 -18.319  21.741  1.00  0.00     0.361 C 
HETATM    9  O1  UNL     1      18.816 -17.320  21.609  1.00  0.00    -0.243 OA
HETATM   10  N4  UNL     1      20.218 -18.580  22.962  1.00  0.00    -0.121 N 
HETATM   11  N5  UNL     1      20.136 -17.830  24.136  1.00  0.00     0.009 NA
HETATM   12  N6  UNL     1      21.362 -18.043  24.789  1.00  0.00    -0.232 N 
ATOM     13  H6  UNL     1      21.832 -17.403  25.429  1.00  0.00     0.189 HD
HETATM   14  C4  UNL     1      21.816 -19.333  24.380  1.00  0.00     0.353 C 
HETATM   15  O2  UNL     1      22.692 -20.070  24.911  1.00  0.00    -0.244 OA
HETATM   16  N7  UNL     1      21.069 -19.653  23.209  1.00  0.00    -0.226 N 
ATOM     17  H7  UNL     1      21.145 -20.507  22.656  1.00  0.00     0.193 HD
ENDROOT
TORSDOF 0
ENDMDL
MODEL 4
REMARK VINA RESULT: -7.109532424      1.566      1.767
REMARK  0 active torsions:
REMARK  status: ('A' for Active; 'I' for Inactive)
REMARK       I    between atoms: C2_4  and  N3_6 
REMARK       I    between atoms: N3_6  and  C3_8 
REMARK       I    between atoms: C3_8  and  N4_10 
ROOT
HETATM    1  C1  UNL     1      20.421 -21.930  20.122  1.00  0.00     0.148 C 
HETATM    2  N1  UNL     1      19.203 -21.214  19.903  1.00  0.00    -0.369 N 
ATOM      3  H1  UNL     1      18.685 -21.438  19.054  1.00  0.00     0.161 HD
HETATM    4  C2  UNL     1      18.701 -20.324  20.662  1.00  0.00     0.191 C 
HETATM    5  N2  UNL     1      17.487 -19.712  20.300  1.00  0.00    -0.063 NA
HETATM    6  N3  UNL     1      19.348 -19.950  21.855  1.00  0.00    -0.280 N 
ATOM      7  H3  UNL     1      20.227 -20.409  22.094  1.00  0.00     0.173 HD
HETATM    8  C3  UNL     1      18.835 -18.962  22.745  1.00  0.00     0.361 C 
HETATM    9  O1  UNL     1      17.751 -18.393  22.453  1.00  0.00    -0.243 OA
HETATM   10  N4  UNL     1      19.530 -18.633  23.923  1.00  0.00    -0.121 N 
HETATM   11  N5  UNL     1      19.158 -17.694  24.885  1.00  0.00     0.009 NA
HETATM   12  N6  UNL     1      20.368 -17.251  25.447  1.00  0.00    -0.232 N 
ATOM     13  H6  UNL     1      20.549 -16.339  25.865  1.00  0.00     0.189 HD
HETATM   14  C4  UNL     1      21.291 -18.332  25.316  1.00  0.00     0.353 C 
HETATM   15  O2  UNL     1      22.383 -18.519  25.919  1.00  0.00    -0.244 OA
HETATM   16  N7  UNL     1      20.731 -19.201  24.335  1.00  0.00    -0.226 N 
ATOM     17  H7  UNL     1      21.135 -20.075  23.998  1.00  0.00     0.193 HD
ENDROOT
TORSDOF 0
ENDMDL
MODEL 5
REMARK VINA RESULT: -6.619370983      2.184      5.136
REMARK  0 active torsions:
REMARK  status: ('A' for Active; 'I' for Inactive)
REMARK       I    between atoms: C2_4  and  N3_6 
REMARK       I    between atoms: N3_6  and  C3_8 
REMARK       I    between atoms: C3_8  and  N4_10 
ROOT
HETATM    1  C1  UNL     1      21.556 -18.605  25.700  1.00  0.00     0.148 C 
HETATM    2  N1  UNL     1      20.327 -17.896  25.524  1.00  0.00    -0.369 N 
ATOM      3  H1  UNL     1      20.086 -17.212  26.241  1.00  0.00     0.161 HD
HETATM    4  C2  UNL     1      19.504 -18.034  24.563  1.00  0.00     0.191 C 
HETATM    5  N2  UNL     1      18.333 -17.254  24.540  1.00  0.00    -0.063 NA
HETATM    6  N3  UNL     1      19.756 -18.956  23.530  1.00  0.00    -0.280 N 
ATOM      7  H3  UNL     1      20.612 -19.510  23.572  1.00  0.00     0.173 HD
HETATM    8  C3  UNL     1      18.873 -19.155  22.429  1.00  0.00     0.361 C 
HETATM    9  O1  UNL     1      17.815 -18.474  22.374  1.00  0.00    -0.243 OA
HETATM   10  N4  UNL     1      19.181 -20.092  21.427  1.00  0.00    -0.121 N 
HETATM   11  N5  UNL     1      18.423 -20.397  20.297  1.00  0.00     0.009 NA
HETATM   12  N6  UNL     1      18.734 -21.735  20.001  1.00  0.00    -0.232 N 
ATOM     13  H6  UNL     1      18.133 -22.413  19.533  1.00  0.00     0.189 HD
HETATM   14  C4  UNL     1      20.059 -21.956  20.484  1.00  0.00     0.353 C 
HETATM   15  O2  UNL     1      20.864 -22.883  20.195  1.00  0.00    -0.244 OA
HETATM   16  N7  UNL     1      20.320 -20.891  21.395  1.00  0.00    -0.226 N 
ATOM     17  H7  UNL     1      21.180 -20.743  21.924  1.00  0.00     0.193 HD
ENDROOT
TORSDOF 0
ENDMDL
