MODEL 1
REMARK VINA RESULT: -6.638229561      0.000      0.000
REMARK  6 active torsions:
REMARK  status: ('A' for Active; 'I' for Inactive)
REMARK    1  A    between atoms: C2_2  and  C3_3 
REMARK    2  A    between atoms: C3_3  and  C4_4 
REMARK    3  A    between atoms: C4_4  and  C5_5 
REMARK    4  A    between atoms: C5_5  and  N1_6 
REMARK    5  A    between atoms: N1_6  and  C6_8 
REMARK    6  A    between atoms: C7_11  and  N3_12 
ROOT
HETATM    1  C6  UNL     1       9.246   0.903  29.490  1.00  0.00     0.680 A 
HETATM    2  N2  UNL     1      10.409   0.288  29.256  1.00  0.00    -0.176 N 
ATOM      3  H2  UNL     1      10.771  -0.321  29.989  1.00  0.00     0.186 HD
HETATM    4  C7  UNL     1      11.137   0.406  28.140  1.00  0.00     0.128 A 
HETATM    5  C8  UNL     1      10.685   1.233  27.097  1.00  0.00     0.049 A 
HETATM    6  C9  UNL     1      11.267   1.478  25.913  1.00  0.00    -0.032 A 
HETATM    7  C10 UNL     1      12.590   0.869  25.474  1.00  0.00     0.050 C 
HETATM    8  C11 UNL     1      10.623   2.330  25.055  1.00  0.00    -0.012 A 
HETATM    9  C12 UNL     1      11.058   2.768  23.676  1.00  0.00     0.057 C 
HETATM   10  S1  UNL     1       9.222   2.764  25.929  1.00  0.00    -0.075 SA
HETATM   11  C13 UNL     1       9.494   1.859  27.346  1.00  0.00     0.105 A 
HETATM   12  N4  UNL     1       8.796   1.700  28.504  1.00  0.00    -0.184 N 
ATOM     13  H4  UNL     1       7.914   2.196  28.627  1.00  0.00     0.185 HD
ENDROOT
BRANCH   1  14
HETATM   14  N1  UNL     1       8.621   0.724  30.602  1.00  0.00    -0.226 N 
ATOM     15  H1  UNL     1       8.984   0.030  31.256  1.00  0.00     0.177 HD
BRANCH  14  16
HETATM   16  C5  UNL     1       7.430   1.455  30.970  1.00  0.00     0.138 C 
BRANCH  16  17
HETATM   17  C4  UNL     1       7.074   1.092  32.381  1.00  0.00     0.020 C 
BRANCH  17  18
HETATM   18  C3  UNL     1       5.595   1.091  32.596  1.00  0.00     0.001 C 
BRANCH  18  19
HETATM   19  C2  UNL     1       4.898   1.654  31.389  1.00  0.00    -0.004 C 
HETATM   20  C1  UNL     1       3.473   1.128  31.278  1.00  0.00     0.005 C 
ENDBRANCH  18  19
ENDBRANCH  17  18
ENDBRANCH  16  17
ENDBRANCH  14  16
ENDBRANCH   1  14
BRANCH   4  21
HETATM   21  N3  UNL     1      12.237  -0.259  28.078  1.00  0.00    -0.384 N 
ATOM     22  H32 UNL     1      12.285  -1.265  28.239  1.00  0.00     0.157 HD
ATOM     23  H31 UNL     1      13.088   0.259  27.857  1.00  0.00     0.157 HD
ENDBRANCH   4  21
TORSDOF 6
ENDMDL
MODEL 2
REMARK VINA RESULT: -6.526729093      3.678      7.934
REMARK  6 active torsions:
REMARK  status: ('A' for Active; 'I' for Inactive)
REMARK    1  A    between atoms: C2_2  and  C3_3 
REMARK    2  A    between atoms: C3_3  and  C4_4 
REMARK    3  A    between atoms: C4_4  and  C5_5 
REMARK    4  A    between atoms: C5_5  and  N1_6 
REMARK    5  A    between atoms: N1_6  and  C6_8 
REMARK    6  A    between atoms: C7_11  and  N3_12 
ROOT
HETATM    1  C6  UNL     1       5.360   1.691  31.852  1.00  0.00     0.680 A 
HETATM    2  N2  UNL     1       4.201   1.132  31.494  1.00  0.00    -0.176 N 
ATOM      3  H2  UNL     1       4.147   0.114  31.514  1.00  0.00     0.186 HD
HETATM    4  C7  UNL     1       3.105   1.797  31.111  1.00  0.00     0.128 A 
HETATM    5  C8  UNL     1       3.123   3.202  31.065  1.00  0.00     0.049 A 
HETATM    6  C9  UNL     1       2.134   4.038  30.712  1.00  0.00    -0.032 A 
HETATM    7  C10 UNL     1       0.750   3.583  30.275  1.00  0.00     0.050 C 
HETATM    8  C11 UNL     1       2.399   5.382  30.749  1.00  0.00    -0.012 A 
HETATM    9  C12 UNL     1       1.471   6.524  30.405  1.00  0.00     0.057 C 
HETATM   10  S1  UNL     1       4.022   5.437  31.277  1.00  0.00    -0.075 SA
HETATM   11  C13 UNL     1       4.314   3.766  31.433  1.00  0.00     0.105 A 
HETATM   12  N4  UNL     1       5.398   3.036  31.814  1.00  0.00    -0.184 N 
ATOM     13  H4  UNL     1       6.257   3.518  32.076  1.00  0.00     0.185 HD
ENDROOT
BRANCH   1  14
HETATM   14  N1  UNL     1       6.360   0.961  32.205  1.00  0.00    -0.226 N 
ATOM     15  H1  UNL     1       6.176   0.113  32.741  1.00  0.00     0.177 HD
BRANCH  14  16
HETATM   16  C5  UNL     1       7.732   1.282  31.881  1.00  0.00     0.138 C 
BRANCH  16  17
HETATM   17  C4  UNL     1       7.900   1.176  30.394  1.00  0.00     0.020 C 
BRANCH  17  18
HETATM   18  C3  UNL     1       9.339   1.064  30.007  1.00  0.00     0.001 C 
BRANCH  18  19
HETATM   19  C2  UNL     1       9.483   0.168  28.810  1.00  0.00    -0.004 C 
HETATM   20  C1  UNL     1      10.400   0.788  27.763  1.00  0.00     0.005 C 
ENDBRANCH  18  19
ENDBRANCH  17  18
ENDBRANCH  16  17
ENDBRANCH  14  16
ENDBRANCH   1  14
BRANCH   4  21
HETATM   21  N3  UNL     1       2.069   1.100  30.799  1.00  0.00    -0.384 N 
ATOM     22  H32 UNL     1       1.177   1.521  30.539  1.00  0.00     0.157 HD
ATOM     23  H31 UNL     1       2.162   0.084  30.820  1.00  0.00     0.157 HD
ENDBRANCH   4  21
TORSDOF 6
ENDMDL
MODEL 3
REMARK VINA RESULT: -6.510824283      1.678      2.621
REMARK  6 active torsions:
REMARK  status: ('A' for Active; 'I' for Inactive)
REMARK    1  A    between atoms: C2_2  and  C3_3 
REMARK    2  A    between atoms: C3_3  and  C4_4 
REMARK    3  A    between atoms: C4_4  and  C5_5 
REMARK    4  A    between atoms: C5_5  and  N1_6 
REMARK    5  A    between atoms: N1_6  and  C6_8 
REMARK    6  A    between atoms: C7_11  and  N3_12 
ROOT
HETATM    1  C6  UNL     1       8.345   1.118  30.636  1.00  0.00     0.680 A 
HETATM    2  N2  UNL     1       7.707   1.933  29.792  1.00  0.00    -0.176 N 
ATOM      3  H2  UNL     1       6.838   2.357  30.119  1.00  0.00     0.186 HD
HETATM    4  C7  UNL     1       8.112   2.240  28.555  1.00  0.00     0.128 A 
HETATM    5  C8  UNL     1       9.302   1.685  28.054  1.00  0.00     0.049 A 
HETATM    6  C9  UNL     1       9.868   1.870  26.851  1.00  0.00    -0.032 A 
HETATM    7  C10 UNL     1       9.285   2.760  25.764  1.00  0.00     0.050 C 
HETATM    8  C11 UNL     1      11.043   1.212  26.596  1.00  0.00    -0.012 A 
HETATM    9  C12 UNL     1      11.876   1.248  25.337  1.00  0.00     0.057 C 
HETATM   10  S1  UNL     1      11.321   0.354  28.046  1.00  0.00    -0.075 SA
HETATM   11  C13 UNL     1       9.949   0.851  28.924  1.00  0.00     0.105 A 
HETATM   12  N4  UNL     1       9.487   0.576  30.175  1.00  0.00    -0.184 N 
ATOM     13  H4  UNL     1      10.018  -0.055  30.775  1.00  0.00     0.185 HD
ENDROOT
BRANCH   1  14
HETATM   14  N1  UNL     1       7.871   0.886  31.811  1.00  0.00    -0.226 N 
ATOM     15  H1  UNL     1       8.082  -0.011  32.249  1.00  0.00     0.177 HD
BRANCH  14  16
HETATM   16  C5  UNL     1       7.056   1.830  32.540  1.00  0.00     0.138 C 
BRANCH  16  17
HETATM   17  C4  UNL     1       5.903   1.086  33.145  1.00  0.00     0.020 C 
BRANCH  17  18
HETATM   18  C3  UNL     1       4.823   0.830  32.145  1.00  0.00     0.001 C 
BRANCH  18  19
HETATM   19  C2  UNL     1       4.477   2.101  31.421  1.00  0.00    -0.004 C 
HETATM   20  C1  UNL     1       4.188   1.837  29.950  1.00  0.00     0.005 C 
ENDBRANCH  18  19
ENDBRANCH  17  18
ENDBRANCH  16  17
ENDBRANCH  14  16
ENDBRANCH   1  14
BRANCH   4  21
HETATM   21  N3  UNL     1       7.375   3.046  27.874  1.00  0.00    -0.384 N 
ATOM     22  H32 UNL     1       7.303   3.005  26.857  1.00  0.00     0.157 HD
ATOM     23  H31 UNL     1       6.849   3.751  28.390  1.00  0.00     0.157 HD
ENDBRANCH   4  21
TORSDOF 6
ENDMDL
MODEL 4
REMARK VINA RESULT: -6.492095236      4.179      7.909
REMARK  6 active torsions:
REMARK  status: ('A' for Active; 'I' for Inactive)
REMARK    1  A    between atoms: C2_2  and  C3_3 
REMARK    2  A    between atoms: C3_3  and  C4_4 
REMARK    3  A    between atoms: C4_4  and  C5_5 
REMARK    4  A    between atoms: C5_5  and  N1_6 
REMARK    5  A    between atoms: N1_6  and  C6_8 
REMARK    6  A    between atoms: C7_11  and  N3_12 
ROOT
HETATM    1  C6  UNL     1       4.564   2.130  31.268  1.00  0.00     0.680 A 
HETATM    2  N2  UNL     1       3.261   1.835  31.266  1.00  0.00    -0.176 N 
ATOM      3  H2  UNL     1       2.984   0.944  31.678  1.00  0.00     0.186 HD
HETATM    4  C7  UNL     1       2.291   2.609  30.768  1.00  0.00     0.128 A 
HETATM    5  C8  UNL     1       2.617   3.848  30.189  1.00  0.00     0.049 A 
HETATM    6  C9  UNL     1       1.793   4.756  29.642  1.00  0.00    -0.032 A 
HETATM    7  C10 UNL     1       0.284   4.590  29.550  1.00  0.00     0.050 C 
HETATM    8  C11 UNL     1       2.357   5.899  29.139  1.00  0.00    -0.012 A 
HETATM    9  C12 UNL     1       1.663   7.067  28.479  1.00  0.00     0.057 C 
HETATM   10  S1  UNL     1       4.021   5.670  29.444  1.00  0.00    -0.075 SA
HETATM   11  C13 UNL     1       3.952   4.143  30.195  1.00  0.00     0.105 A 
HETATM   12  N4  UNL     1       4.896   3.312  30.717  1.00  0.00    -0.184 N 
ATOM     13  H4  UNL     1       5.877   3.591  30.690  1.00  0.00     0.185 HD
ENDROOT
BRANCH   1  14
HETATM   14  N1  UNL     1       5.422   1.314  31.773  1.00  0.00    -0.226 N 
ATOM     15  H1  UNL     1       5.212   0.316  31.753  1.00  0.00     0.177 HD
BRANCH  14  16
HETATM   16  C5  UNL     1       6.670   1.739  32.366  1.00  0.00     0.138 C 
BRANCH  16  17
HETATM   17  C4  UNL     1       7.781   0.954  31.735  1.00  0.00     0.020 C 
BRANCH  17  18
HETATM   18  C3  UNL     1       8.047   1.400  30.333  1.00  0.00     0.001 C 
BRANCH  18  19
HETATM   19  C2  UNL     1       9.462   1.075  29.948  1.00  0.00    -0.004 C 
HETATM   20  C1  UNL     1       9.507   0.145  28.742  1.00  0.00     0.005 C 
ENDBRANCH  18  19
ENDBRANCH  17  18
ENDBRANCH  16  17
ENDBRANCH  14  16
ENDBRANCH   1  14
BRANCH   4  21
HETATM   21  N3  UNL     1       1.084   2.171  30.849  1.00  0.00    -0.384 N 
ATOM     22  H32 UNL     1       0.746   1.374  30.310  1.00  0.00     0.157 HD
ATOM     23  H31 UNL     1       0.449   2.656  31.485  1.00  0.00     0.157 HD
ENDBRANCH   4  21
TORSDOF 6
ENDMDL
MODEL 5
REMARK VINA RESULT: -6.480857083      3.997      6.425
REMARK  6 active torsions:
REMARK  status: ('A' for Active; 'I' for Inactive)
REMARK    1  A    between atoms: C2_2  and  C3_3 
REMARK    2  A    between atoms: C3_3  and  C4_4 
REMARK    3  A    between atoms: C4_4  and  C5_5 
REMARK    4  A    between atoms: C5_5  and  N1_6 
REMARK    5  A    between atoms: N1_6  and  C6_8 
REMARK    6  A    between atoms: C7_11  and  N3_12 
ROOT
HETATM    1  C6  UNL     1       2.872   2.176  30.768  1.00  0.00     0.680 A 
HETATM    2  N2  UNL     1       3.573   1.492  31.675  1.00  0.00    -0.176 N 
ATOM      3  H2  UNL     1       3.053   1.067  32.443  1.00  0.00     0.186 HD
HETATM    4  C7  UNL     1       4.899   1.318  31.662  1.00  0.00     0.128 A 
HETATM    5  C8  UNL     1       5.665   1.882  30.627  1.00  0.00     0.049 A 
HETATM    6  C9  UNL     1       6.993   1.819  30.440  1.00  0.00    -0.032 A 
HETATM    7  C10 UNL     1       7.948   1.087  31.370  1.00  0.00     0.050 C 
HETATM    8  C11 UNL     1       7.509   2.457  29.343  1.00  0.00    -0.012 A 
HETATM    9  C12 UNL     1       8.953   2.538  28.907  1.00  0.00     0.057 C 
HETATM   10  S1  UNL     1       6.123   3.127  28.604  1.00  0.00    -0.075 SA
HETATM   11  C13 UNL     1       4.940   2.582  29.701  1.00  0.00     0.105 A 
HETATM   12  N4  UNL     1       3.587   2.725  29.768  1.00  0.00    -0.184 N 
ATOM     13  H4  UNL     1       3.106   3.260  29.046  1.00  0.00     0.185 HD
ENDROOT
BRANCH   1  14
HETATM   14  N1  UNL     1       1.593   2.287  30.871  1.00  0.00    -0.226 N 
ATOM     15  H1  UNL     1       1.044   1.439  31.013  1.00  0.00     0.177 HD
BRANCH  14  16
HETATM   16  C5  UNL     1       0.896   3.550  30.796  1.00  0.00     0.138 C 
BRANCH  16  17
HETATM   17  C4  UNL     1       1.173   4.315  32.056  1.00  0.00     0.020 C 
BRANCH  17  18
HETATM   18  C3  UNL     1       1.752   5.663  31.769  1.00  0.00     0.001 C 
BRANCH  18  19
HETATM   19  C2  UNL     1       1.442   6.608  32.895  1.00  0.00    -0.004 C 
HETATM   20  C1  UNL     1       2.628   6.749  33.840  1.00  0.00     0.005 C 
ENDBRANCH  18  19
ENDBRANCH  17  18
ENDBRANCH  16  17
ENDBRANCH  14  16
ENDBRANCH   1  14
BRANCH   4  21
HETATM   21  N3  UNL     1       5.416   0.627  32.617  1.00  0.00    -0.384 N 
ATOM     22  H32 UNL     1       4.933  -0.154  33.059  1.00  0.00     0.157 HD
ATOM     23  H31 UNL     1       6.350   0.888  32.933  1.00  0.00     0.157 HD
ENDBRANCH   4  21
TORSDOF 6
ENDMDL
