MODEL 1
REMARK VINA RESULT: -4.710457448      0.000      0.000
REMARK  3 active torsions:
REMARK  status: ('A' for Active; 'I' for Inactive)
REMARK    1  A    between atoms: C5_8  and  N2_9 
REMARK    2  A    between atoms: N2_9  and  C6_11 
REMARK    3  A    between atoms: C6_11  and  N3_12 
ROOT
HETATM    1  C1  UNL     1      93.454 -27.645  47.442  1.00  0.00     0.042 C 
HETATM    2  C2  UNL     1      93.149 -26.787  48.641  1.00  0.00     0.204 C 
HETATM    3  N1  UNL     1      91.706 -26.708  48.783  1.00  0.00    -0.069 N 
ATOM      4  H11 UNL     1      91.261 -27.579  49.075  1.00  0.00     0.277 HD
ATOM      5  H12 UNL     1      91.198 -26.621  47.902  1.00  0.00     0.277 HD
HETATM    6  C3  UNL     1      91.519 -25.605  49.693  1.00  0.00     0.235 C 
HETATM    7  C4  UNL     1      92.757 -24.718  49.586  1.00  0.00     0.054 C 
HETATM    8  C5  UNL     1      93.481 -25.329  48.404  1.00  0.00     0.110 C 
ENDROOT
BRANCH   8   9
HETATM    9  N2  UNL     1      94.873 -25.060  48.353  1.00  0.00    -0.394 N 
ATOM     10  H2  UNL     1      95.467 -25.445  47.619  1.00  0.00     0.155 HD
BRANCH   9  11
HETATM   11  C6  UNL     1      95.397 -24.222  49.385  1.00  0.00     0.347 C 
BRANCH  11  12
HETATM   12  N3  UNL     1      96.345 -25.032  50.150  1.00  0.00    -0.064 N 
ATOM     13  H33 UNL     1      96.673 -25.852  49.642  1.00  0.00     0.276 HD
ATOM     14  H32 UNL     1      97.252 -24.581  50.270  1.00  0.00     0.276 HD
ATOM     15  H31 UNL     1      95.891 -25.263  51.035  1.00  0.00     0.276 HD
ENDBRANCH  11  12
ENDBRANCH   9  11
ENDBRANCH   8   9
TORSDOF 3
ENDMDL
MODEL 2
REMARK VINA RESULT: -4.621350019      0.909      2.102
REMARK  3 active torsions:
REMARK  status: ('A' for Active; 'I' for Inactive)
REMARK    1  A    between atoms: C5_8  and  N2_9 
REMARK    2  A    between atoms: N2_9  and  C6_11 
REMARK    3  A    between atoms: C6_11  and  N3_12 
ROOT
HETATM    1  C1  UNL     1      92.185 -25.317  50.174  1.00  0.00     0.042 C 
HETATM    2  C2  UNL     1      92.297 -25.736  48.731  1.00  0.00     0.204 C 
HETATM    3  N1  UNL     1      91.767 -27.083  48.611  1.00  0.00    -0.069 N 
ATOM      4  H11 UNL     1      90.757 -27.153  48.734  1.00  0.00     0.277 HD
ATOM      5  H12 UNL     1      92.010 -27.703  49.383  1.00  0.00     0.277 HD
HETATM    6  C3  UNL     1      92.246 -27.516  47.322  1.00  0.00     0.235 C 
HETATM    7  C4  UNL     1      93.490 -26.692  47.002  1.00  0.00     0.054 C 
HETATM    8  C5  UNL     1      93.732 -25.968  48.310  1.00  0.00     0.110 C 
ENDROOT
BRANCH   8   9
HETATM    9  N2  UNL     1      94.496 -24.777  48.200  1.00  0.00    -0.394 N 
ATOM     10  H2  UNL     1      94.075 -23.894  47.913  1.00  0.00     0.155 HD
BRANCH   9  11
HETATM   11  C6  UNL     1      95.887 -24.882  48.513  1.00  0.00     0.347 C 
BRANCH  11  12
HETATM   12  N3  UNL     1      96.001 -24.812  49.970  1.00  0.00    -0.064 N 
ATOM     13  H33 UNL     1      95.187 -25.190  50.455  1.00  0.00     0.276 HD
ATOM     14  H32 UNL     1      96.691 -25.460  50.350  1.00  0.00     0.276 HD
ATOM     15  H31 UNL     1      96.191 -23.838  50.206  1.00  0.00     0.276 HD
ENDBRANCH  11  12
ENDBRANCH   9  11
ENDBRANCH   8   9
TORSDOF 3
ENDMDL
MODEL 3
REMARK VINA RESULT: -4.537748583      4.716      6.228
REMARK  3 active torsions:
REMARK  status: ('A' for Active; 'I' for Inactive)
REMARK    1  A    between atoms: C5_8  and  N2_9 
REMARK    2  A    between atoms: N2_9  and  C6_11 
REMARK    3  A    between atoms: C6_11  and  N3_12 
ROOT
HETATM    1  C1  UNL     1      94.986 -22.372  50.457  1.00  0.00     0.042 C 
HETATM    2  C2  UNL     1      95.728 -22.680  51.731  1.00  0.00     0.204 C 
HETATM    3  N1  UNL     1      94.821 -23.386  52.619  1.00  0.00    -0.069 N 
ATOM      4  H11 UNL     1      94.588 -24.333  52.321  1.00  0.00     0.277 HD
ATOM      5  H12 UNL     1      93.864 -23.034  52.613  1.00  0.00     0.277 HD
HETATM    6  C3  UNL     1      95.479 -23.306  53.900  1.00  0.00     0.235 C 
HETATM    7  C4  UNL     1      96.402 -22.091  53.858  1.00  0.00     0.054 C 
HETATM    8  C5  UNL     1      96.003 -21.438  52.551  1.00  0.00     0.110 C 
ENDROOT
BRANCH   8   9
HETATM    9  N2  UNL     1      96.986 -20.585  51.986  1.00  0.00    -0.394 N 
ATOM     10  H2  UNL     1      97.365 -20.747  51.053  1.00  0.00     0.155 HD
BRANCH   9  11
HETATM   11  C6  UNL     1      97.417 -19.488  52.793  1.00  0.00     0.347 C 
BRANCH  11  12
HETATM   12  N3  UNL     1      97.302 -18.284  51.970  1.00  0.00    -0.064 N 
ATOM     13  H33 UNL     1      98.203 -17.930  51.648  1.00  0.00     0.276 HD
ATOM     14  H32 UNL     1      96.898 -18.464  51.051  1.00  0.00     0.276 HD
ATOM     15  H31 UNL     1      96.775 -17.601  52.514  1.00  0.00     0.276 HD
ENDBRANCH  11  12
ENDBRANCH   9  11
ENDBRANCH   8   9
TORSDOF 3
ENDMDL
MODEL 4
REMARK VINA RESULT: -4.455084207      2.369      3.507
REMARK  3 active torsions:
REMARK  status: ('A' for Active; 'I' for Inactive)
REMARK    1  A    between atoms: C5_8  and  N2_9 
REMARK    2  A    between atoms: N2_9  and  C6_11 
REMARK    3  A    between atoms: C6_11  and  N3_12 
ROOT
HETATM    1  C1  UNL     1      92.072 -24.846  49.274  1.00  0.00     0.042 C 
HETATM    2  C2  UNL     1      93.483 -24.364  49.485  1.00  0.00     0.204 C 
HETATM    3  N1  UNL     1      94.301 -24.875  48.400  1.00  0.00    -0.069 N 
ATOM      4  H11 UNL     1      94.108 -24.455  47.490  1.00  0.00     0.277 HD
ATOM      5  H12 UNL     1      94.084 -25.832  48.121  1.00  0.00     0.277 HD
HETATM    6  C3  UNL     1      95.648 -24.681  48.876  1.00  0.00     0.235 C 
HETATM    7  C4  UNL     1      95.585 -24.633  50.400  1.00  0.00     0.054 C 
HETATM    8  C5  UNL     1      94.149 -25.033  50.668  1.00  0.00     0.110 C 
ENDROOT
BRANCH   8   9
HETATM    9  N2  UNL     1      93.638 -24.616  51.924  1.00  0.00    -0.394 N 
ATOM     10  H2  UNL     1      92.665 -24.334  52.041  1.00  0.00     0.155 HD
BRANCH   9  11
HETATM   11  C6  UNL     1      94.560 -24.612  53.017  1.00  0.00     0.347 C 
BRANCH  11  12
HETATM   12  N3  UNL     1      94.410 -23.325  53.695  1.00  0.00    -0.064 N 
ATOM     13  H33 UNL     1      95.157 -22.667  53.476  1.00  0.00     0.276 HD
ATOM     14  H32 UNL     1      93.636 -22.769  53.332  1.00  0.00     0.276 HD
ATOM     15  H31 UNL     1      94.329 -23.523  54.692  1.00  0.00     0.276 HD
ENDBRANCH  11  12
ENDBRANCH   9  11
ENDBRANCH   8   9
TORSDOF 3
ENDMDL
MODEL 5
REMARK VINA RESULT: -4.454132188      2.108      2.788
REMARK  3 active torsions:
REMARK  status: ('A' for Active; 'I' for Inactive)
REMARK    1  A    between atoms: C5_8  and  N2_9 
REMARK    2  A    between atoms: N2_9  and  C6_11 
REMARK    3  A    between atoms: C6_11  and  N3_12 
ROOT
HETATM    1  C1  UNL     1      95.835 -24.717  48.643  1.00  0.00     0.042 C 
HETATM    2  C2  UNL     1      94.492 -25.321  48.957  1.00  0.00     0.204 C 
HETATM    3  N1  UNL     1      93.783 -25.516  47.704  1.00  0.00    -0.069 N 
ATOM      4  H11 UNL     1      94.168 -26.250  47.109  1.00  0.00     0.277 HD
ATOM      5  H12 UNL     1      93.900 -24.761  47.029  1.00  0.00     0.277 HD
HETATM    6  C3  UNL     1      92.420 -25.738  48.123  1.00  0.00     0.235 C 
HETATM    7  C4  UNL     1      92.260 -25.091  49.496  1.00  0.00     0.054 C 
HETATM    8  C5  UNL     1      93.567 -24.341  49.645  1.00  0.00     0.110 C 
ENDROOT
BRANCH   8   9
HETATM    9  N2  UNL     1      93.937 -24.048  50.983  1.00  0.00    -0.394 N 
ATOM     10  H2  UNL     1      94.199 -23.106  51.273  1.00  0.00     0.155 HD
BRANCH   9  11
HETATM   11  C6  UNL     1      93.923 -25.143  51.902  1.00  0.00     0.347 C 
BRANCH  11  12
HETATM   12  N3  UNL     1      93.113 -24.727  53.046  1.00  0.00    -0.064 N 
ATOM     13  H33 UNL     1      92.450 -23.985  52.821  1.00  0.00     0.276 HD
ATOM     14  H32 UNL     1      92.430 -25.429  53.330  1.00  0.00     0.276 HD
ATOM     15  H31 UNL     1      93.761 -24.472  53.792  1.00  0.00     0.276 HD
ENDBRANCH  11  12
ENDBRANCH   9  11
ENDBRANCH   8   9
TORSDOF 3
ENDMDL
