MODEL 1
REMARK VINA RESULT: -6.775255973      0.000      0.000
REMARK  6 active torsions:
REMARK  status: ('A' for Active; 'I' for Inactive)
REMARK       I    between atoms: N2_3  and  C2_5 
REMARK       I    between atoms: C2_5  and  N7_20 
REMARK    1  A    between atoms: N3_6  and  C3_8 
REMARK    2  A    between atoms: C4_9  and  C5_10 
REMARK    3  A    between atoms: C5_10  and  N4_11 
REMARK    4  A    between atoms: N4_11  and  C6_14 
REMARK    5  A    between atoms: C6_14  and  N5_15 
REMARK    6  A    between atoms: C10_24  and  O1_25 
ROOT
HETATM    1  N1  UNL     1      -7.103  32.036   5.194  1.00  0.00    -0.171 NA
HETATM    2  C1  UNL     1      -7.266  31.061   4.590  1.00  0.00     0.196 C 
HETATM    3  N2  UNL     1      -7.448  29.864   3.873  1.00  0.00    -0.125 N 
ATOM      4  H2  UNL     1      -6.796  29.084   3.963  1.00  0.00     0.197 HD
HETATM    5  C2  UNL     1      -8.571  29.788   3.023  1.00  0.00     0.697 C 
HETATM    6  N3  UNL     1      -8.477  30.268   1.840  1.00  0.00    -0.148 N 
ATOM      7  H3  UNL     1      -9.299  30.205   1.239  1.00  0.00     0.195 HD
HETATM    8  N7  UNL     1      -9.747  29.207   3.457  1.00  0.00    -0.207 N 
HETATM    9  C7  UNL     1     -10.898  30.109   3.827  1.00  0.00     0.221 C 
HETATM   10  C8  UNL     1     -11.846  29.324   4.529  1.00  0.00    -0.160 C 
HETATM   11  C9  UNL     1     -12.608  28.342   5.182  1.00  0.00     0.113 C 
HETATM   12  C10 UNL     1     -11.840  26.979   5.095  1.00  0.00     0.130 C 
HETATM   13  C11 UNL     1     -10.361  27.170   4.812  1.00  0.00     0.053 C 
HETATM   14  C12 UNL     1      -9.888  27.740   3.555  1.00  0.00     0.145 C 
ENDROOT
BRANCH   6  15
HETATM   15  C3  UNL     1      -7.331  30.872   1.310  1.00  0.00     0.027 C 
HETATM   16  C4  UNL     1      -6.337  31.393   0.869  1.00  0.00    -0.055 C 
BRANCH  16  17
HETATM   17  C5  UNL     1      -5.111  32.045   0.351  1.00  0.00     0.329 C 
BRANCH  17  18
HETATM   18  N4  UNL     1      -4.776  31.464  -0.942  1.00  0.00    -0.048 N 
ATOM     19  H42 UNL     1      -4.271  30.582  -0.859  1.00  0.00     0.280 HD
ATOM     20  H41 UNL     1      -5.593  31.107  -1.438  1.00  0.00     0.280 HD
BRANCH  18  21
HETATM   21  C6  UNL     1      -4.039  32.467  -1.712  1.00  0.00     0.371 C 
BRANCH  21  22
HETATM   22  N5  UNL     1      -4.408  33.791  -1.321  1.00  0.00    -0.318 N 
HETATM   23  N6  UNL     1      -4.074  34.764  -2.045  1.00  0.00    -0.348 N 
ATOM     24  H62 UNL     1      -3.544  34.592  -2.899  1.00  0.00     0.176 HD
ATOM     25  H61 UNL     1      -4.337  35.709  -1.766  1.00  0.00     0.176 HD
ATOM     26  H5  UNL     1      -4.939  33.945  -0.463  1.00  0.00     0.181 HD
ENDBRANCH  21  22
ENDBRANCH  18  21
ENDBRANCH  17  18
ENDBRANCH  16  17
ENDBRANCH   6  15
BRANCH  12  27
HETATM   27  O1  UNL     1     -12.378  26.319   4.009  1.00  0.00    -0.395 OA
ATOM     28  H1  UNL     1     -12.046  25.431   4.061  1.00  0.00     0.210 HD
ENDBRANCH  12  27
TORSDOF 6
ENDMDL
MODEL 2
REMARK VINA RESULT: -6.583705731      1.673      2.726
REMARK  6 active torsions:
REMARK  status: ('A' for Active; 'I' for Inactive)
REMARK       I    between atoms: N2_3  and  C2_5 
REMARK       I    between atoms: C2_5  and  N7_20 
REMARK    1  A    between atoms: N3_6  and  C3_8 
REMARK    2  A    between atoms: C4_9  and  C5_10 
REMARK    3  A    between atoms: C5_10  and  N4_11 
REMARK    4  A    between atoms: N4_11  and  C6_14 
REMARK    5  A    between atoms: C6_14  and  N5_15 
REMARK    6  A    between atoms: C10_24  and  O1_25 
ROOT
HETATM    1  N1  UNL     1      -8.436  27.970   0.045  1.00  0.00    -0.171 NA
HETATM    2  C1  UNL     1      -8.670  28.858   0.752  1.00  0.00     0.196 C 
HETATM    3  N2  UNL     1      -8.975  29.942   1.596  1.00  0.00    -0.125 N 
ATOM      4  H2  UNL     1      -9.581  30.703   1.288  1.00  0.00     0.197 HD
HETATM    5  C2  UNL     1      -8.409  29.930   2.887  1.00  0.00     0.697 C 
HETATM    6  N3  UNL     1      -7.221  30.384   3.039  1.00  0.00    -0.148 N 
ATOM      7  H3  UNL     1      -6.827  30.368   3.979  1.00  0.00     0.195 HD
HETATM    8  N7  UNL     1      -9.120  29.442   3.967  1.00  0.00    -0.207 N 
HETATM    9  C7  UNL     1      -8.762  28.078   4.502  1.00  0.00     0.221 C 
HETATM   10  C8  UNL     1      -9.808  27.671   5.367  1.00  0.00    -0.160 C 
HETATM   11  C9  UNL     1     -10.956  27.511   6.160  1.00  0.00     0.113 C 
HETATM   12  C10 UNL     1     -11.835  28.800   6.026  1.00  0.00     0.130 C 
HETATM   13  C11 UNL     1     -11.503  29.596   4.777  1.00  0.00     0.053 C 
HETATM   14  C12 UNL     1     -10.202  30.228   4.593  1.00  0.00     0.145 C 
ENDROOT
BRANCH   6  15
HETATM   15  C3  UNL     1      -6.425  30.900   2.010  1.00  0.00     0.027 C 
HETATM   16  C4  UNL     1      -5.749  31.337   1.112  1.00  0.00    -0.055 C 
BRANCH  16  17
HETATM   17  C5  UNL     1      -4.926  31.855  -0.006  1.00  0.00     0.329 C 
BRANCH  17  18
HETATM   18  N4  UNL     1      -3.670  32.367   0.526  1.00  0.00    -0.048 N 
ATOM     19  H42 UNL     1      -3.716  32.561   1.527  1.00  0.00     0.280 HD
ATOM     20  H41 UNL     1      -2.937  31.657   0.559  1.00  0.00     0.280 HD
BRANCH  18  21
HETATM   21  C6  UNL     1      -3.289  33.539  -0.262  1.00  0.00     0.371 C 
BRANCH  21  22
HETATM   22  N5  UNL     1      -4.203  33.758  -1.337  1.00  0.00    -0.318 N 
HETATM   23  N6  UNL     1      -4.149  34.836  -1.984  1.00  0.00    -0.348 N 
ATOM     24  H62 UNL     1      -3.453  35.537  -1.730  1.00  0.00     0.176 HD
ATOM     25  H61 UNL     1      -4.803  34.993  -2.751  1.00  0.00     0.176 HD
ATOM     26  H5  UNL     1      -4.894  33.047  -1.578  1.00  0.00     0.181 HD
ENDBRANCH  21  22
ENDBRANCH  18  21
ENDBRANCH  17  18
ENDBRANCH  16  17
ENDBRANCH   6  15
BRANCH  12  27
HETATM   27  O1  UNL     1     -11.501  29.590   7.108  1.00  0.00    -0.395 OA
ATOM     28  H1  UNL     1     -11.325  30.452   6.749  1.00  0.00     0.210 HD
ENDBRANCH  12  27
TORSDOF 6
ENDMDL
MODEL 3
REMARK VINA RESULT: -6.508753039      1.940      3.516
REMARK  6 active torsions:
REMARK  status: ('A' for Active; 'I' for Inactive)
REMARK       I    between atoms: N2_3  and  C2_5 
REMARK       I    between atoms: C2_5  and  N7_20 
REMARK    1  A    between atoms: N3_6  and  C3_8 
REMARK    2  A    between atoms: C4_9  and  C5_10 
REMARK    3  A    between atoms: C5_10  and  N4_11 
REMARK    4  A    between atoms: N4_11  and  C6_14 
REMARK    5  A    between atoms: C6_14  and  N5_15 
REMARK    6  A    between atoms: C10_24  and  O1_25 
ROOT
HETATM    1  N1  UNL     1      -5.438  28.856  -0.593  1.00  0.00    -0.171 NA
HETATM    2  C1  UNL     1      -6.079  29.637  -0.026  1.00  0.00     0.196 C 
HETATM    3  N2  UNL     1      -6.874  30.585   0.645  1.00  0.00    -0.125 N 
ATOM      4  H2  UNL     1      -7.586  31.125   0.153  1.00  0.00     0.197 HD
HETATM    5  C2  UNL     1      -6.645  30.754   2.026  1.00  0.00     0.697 C 
HETATM    6  N3  UNL     1      -5.711  31.546   2.399  1.00  0.00    -0.148 N 
ATOM      7  H3  UNL     1      -5.559  31.657   3.401  1.00  0.00     0.195 HD
HETATM    8  N7  UNL     1      -7.413  30.082   2.958  1.00  0.00    -0.207 N 
HETATM    9  C7  UNL     1      -6.807  28.894   3.662  1.00  0.00     0.221 C 
HETATM   10  C8  UNL     1      -7.861  28.198   4.304  1.00  0.00    -0.160 C 
HETATM   11  C9  UNL     1      -9.063  27.704   4.837  1.00  0.00     0.113 C 
HETATM   12  C10 UNL     1     -10.224  28.667   4.415  1.00  0.00     0.130 C 
HETATM   13  C11 UNL     1      -9.858  29.516   3.211  1.00  0.00     0.053 C 
HETATM   14  C12 UNL     1      -8.792  30.511   3.269  1.00  0.00     0.145 C 
ENDROOT
BRANCH   6  15
HETATM   15  C3  UNL     1      -4.884  32.271   1.532  1.00  0.00     0.027 C 
HETATM   16  C4  UNL     1      -4.159  32.883   0.787  1.00  0.00    -0.055 C 
BRANCH  16  17
HETATM   17  C5  UNL     1      -3.249  33.623  -0.118  1.00  0.00     0.329 C 
BRANCH  17  18
HETATM   18  N4  UNL     1      -3.854  33.698  -1.441  1.00  0.00    -0.048 N 
ATOM     19  H42 UNL     1      -4.619  34.371  -1.488  1.00  0.00     0.280 HD
ATOM     20  H41 UNL     1      -3.243  34.139  -2.130  1.00  0.00     0.280 HD
BRANCH  18  21
HETATM   21  C6  UNL     1      -4.262  32.347  -1.829  1.00  0.00     0.371 C 
BRANCH  21  22
HETATM   22  N5  UNL     1      -3.162  31.608  -2.360  1.00  0.00    -0.318 N 
HETATM   23  N6  UNL     1      -3.168  30.351  -2.284  1.00  0.00    -0.348 N 
ATOM     24  H62 UNL     1      -3.960  29.882  -1.844  1.00  0.00     0.176 HD
ATOM     25  H61 UNL     1      -2.382  29.823  -2.662  1.00  0.00     0.176 HD
ATOM     26  H5  UNL     1      -2.377  32.093  -2.796  1.00  0.00     0.181 HD
ENDBRANCH  21  22
ENDBRANCH  18  21
ENDBRANCH  17  18
ENDBRANCH  16  17
ENDBRANCH   6  15
BRANCH  12  27
HETATM   27  O1  UNL     1     -10.396  29.529   5.479  1.00  0.00    -0.395 OA
ATOM     28  H1  UNL     1     -10.258  29.003   6.258  1.00  0.00     0.210 HD
ENDBRANCH  12  27
TORSDOF 6
ENDMDL
MODEL 4
REMARK VINA RESULT: -6.474221369      1.392      1.480
REMARK  6 active torsions:
REMARK  status: ('A' for Active; 'I' for Inactive)
REMARK       I    between atoms: N2_3  and  C2_5 
REMARK       I    between atoms: C2_5  and  N7_20 
REMARK    1  A    between atoms: N3_6  and  C3_8 
REMARK    2  A    between atoms: C4_9  and  C5_10 
REMARK    3  A    between atoms: C5_10  and  N4_11 
REMARK    4  A    between atoms: N4_11  and  C6_14 
REMARK    5  A    between atoms: C6_14  and  N5_15 
REMARK    6  A    between atoms: C10_24  and  O1_25 
ROOT
HETATM    1  N1  UNL     1      -7.085  32.011   5.127  1.00  0.00    -0.171 NA
HETATM    2  C1  UNL     1      -7.256  31.019   4.554  1.00  0.00     0.196 C 
HETATM    3  N2  UNL     1      -7.451  29.801   3.876  1.00  0.00    -0.125 N 
ATOM      4  H2  UNL     1      -6.812  29.015   3.999  1.00  0.00     0.197 HD
HETATM    5  C2  UNL     1      -8.566  29.714   3.018  1.00  0.00     0.697 C 
HETATM    6  N3  UNL     1      -8.453  30.152   1.820  1.00  0.00    -0.148 N 
ATOM      7  H3  UNL     1      -9.270  30.082   1.213  1.00  0.00     0.195 HD
HETATM    8  N7  UNL     1      -9.756  29.166   3.458  1.00  0.00    -0.207 N 
HETATM    9  C7  UNL     1     -10.895  30.099   3.785  1.00  0.00     0.221 C 
HETATM   10  C8  UNL     1     -11.863  29.353   4.503  1.00  0.00    -0.160 C 
HETATM   11  C9  UNL     1     -12.648  28.405   5.181  1.00  0.00     0.113 C 
HETATM   12  C10 UNL     1     -11.901  27.029   5.149  1.00  0.00     0.130 C 
HETATM   13  C11 UNL     1     -10.416  27.186   4.874  1.00  0.00     0.053 C 
HETATM   14  C12 UNL     1      -9.921  27.706   3.604  1.00  0.00     0.145 C 
ENDROOT
BRANCH   6  15
HETATM   15  C3  UNL     1      -7.292  30.720   1.282  1.00  0.00     0.027 C 
HETATM   16  C4  UNL     1      -6.300  31.224   0.817  1.00  0.00    -0.055 C 
BRANCH  16  17
HETATM   17  C5  UNL     1      -5.096  31.860   0.234  1.00  0.00     0.329 C 
BRANCH  17  18
HETATM   18  N4  UNL     1      -3.975  30.934   0.331  1.00  0.00    -0.048 N 
ATOM     19  H42 UNL     1      -3.071  31.404   0.299  1.00  0.00     0.280 HD
ATOM     20  H41 UNL     1      -3.883  30.522   1.260  1.00  0.00     0.280 HD
BRANCH  18  21
HETATM   21  C6  UNL     1      -4.127  29.928  -0.721  1.00  0.00     0.371 C 
BRANCH  21  22
HETATM   22  N5  UNL     1      -3.329  30.248  -1.861  1.00  0.00    -0.318 N 
HETATM   23  N6  UNL     1      -3.887  30.433  -2.974  1.00  0.00    -0.348 N 
ATOM     24  H62 UNL     1      -4.901  30.350  -3.044  1.00  0.00     0.176 HD
ATOM     25  H61 UNL     1      -3.317  30.661  -3.788  1.00  0.00     0.176 HD
ATOM     26  H5  UNL     1      -2.315  30.327  -1.775  1.00  0.00     0.181 HD
ENDBRANCH  21  22
ENDBRANCH  18  21
ENDBRANCH  17  18
ENDBRANCH  16  17
ENDBRANCH   6  15
BRANCH  12  27
HETATM   27  O1  UNL     1     -12.438  26.341   4.079  1.00  0.00    -0.395 OA
ATOM     28  H1  UNL     1     -12.980  25.661   4.460  1.00  0.00     0.210 HD
ENDBRANCH  12  27
TORSDOF 6
ENDMDL
MODEL 5
REMARK VINA RESULT: -6.430404124      2.033      2.460
REMARK  6 active torsions:
REMARK  status: ('A' for Active; 'I' for Inactive)
REMARK       I    between atoms: N2_3  and  C2_5 
REMARK       I    between atoms: C2_5  and  N7_20 
REMARK    1  A    between atoms: N3_6  and  C3_8 
REMARK    2  A    between atoms: C4_9  and  C5_10 
REMARK    3  A    between atoms: C5_10  and  N4_11 
REMARK    4  A    between atoms: N4_11  and  C6_14 
REMARK    5  A    between atoms: C6_14  and  N5_15 
REMARK    6  A    between atoms: C10_24  and  O1_25 
ROOT
HETATM    1  N1  UNL     1      -7.327  31.696   4.833  1.00  0.00    -0.171 NA
HETATM    2  C1  UNL     1      -7.549  30.565   4.711  1.00  0.00     0.196 C 
HETATM    3  N2  UNL     1      -7.800  29.187   4.580  1.00  0.00    -0.125 N 
ATOM      4  H2  UNL     1      -7.098  28.491   4.833  1.00  0.00     0.197 HD
HETATM    5  C2  UNL     1      -9.065  28.808   4.085  1.00  0.00     0.697 C 
HETATM    6  N3  UNL     1      -9.241  28.774   2.818  1.00  0.00    -0.148 N 
ATOM      7  H3  UNL     1     -10.162  28.498   2.477  1.00  0.00     0.195 HD
HETATM    8  N7  UNL     1     -10.092  28.479   4.948  1.00  0.00    -0.207 N 
HETATM    9  C7  UNL     1     -11.196  29.484   5.163  1.00  0.00     0.221 C 
HETATM   10  C8  UNL     1     -11.935  29.068   6.300  1.00  0.00    -0.160 C 
HETATM   11  C9  UNL     1     -12.489  28.448   7.431  1.00  0.00     0.113 C 
HETATM   12  C10 UNL     1     -11.674  27.145   7.731  1.00  0.00     0.130 C 
HETATM   13  C11 UNL     1     -10.297  27.168   7.093  1.00  0.00     0.053 C 
HETATM   14  C12 UNL     1     -10.122  27.177   5.645  1.00  0.00     0.145 C 
ENDROOT
BRANCH   6  15
HETATM   15  C3  UNL     1      -8.264  29.087   1.865  1.00  0.00     0.027 C 
HETATM   16  C4  UNL     1      -7.410  29.352   1.056  1.00  0.00    -0.055 C 
BRANCH  16  17
HETATM   17  C5  UNL     1      -6.344  29.680   0.081  1.00  0.00     0.329 C 
BRANCH  17  18
HETATM   18  N4  UNL     1      -6.116  31.119   0.094  1.00  0.00    -0.048 N 
ATOM     19  H42 UNL     1      -5.751  31.468  -0.792  1.00  0.00     0.280 HD
ATOM     20  H41 UNL     1      -6.983  31.656   0.105  1.00  0.00     0.280 HD
BRANCH  18  21
HETATM   21  C6  UNL     1      -5.243  31.429   1.227  1.00  0.00     0.371 C 
BRANCH  21  22
HETATM   22  N5  UNL     1      -5.726  32.558   1.956  1.00  0.00    -0.318 N 
HETATM   23  N6  UNL     1      -6.957  32.820   1.946  1.00  0.00    -0.348 N 
ATOM     24  H62 UNL     1      -7.590  32.221   1.418  1.00  0.00     0.176 HD
ATOM     25  H61 UNL     1      -7.301  33.627   2.466  1.00  0.00     0.176 HD
ATOM     26  H5  UNL     1      -5.078  33.148   2.480  1.00  0.00     0.181 HD
ENDBRANCH  21  22
ENDBRANCH  18  21
ENDBRANCH  17  18
ENDBRANCH  16  17
ENDBRANCH   6  15
BRANCH  12  27
HETATM   27  O1  UNL     1     -12.379  26.121   7.132  1.00  0.00    -0.395 OA
ATOM     28  H1  UNL     1     -11.864  25.864   6.377  1.00  0.00     0.210 HD
ENDBRANCH  12  27
TORSDOF 6
ENDMDL
