MODEL 1
REMARK VINA RESULT: -6.891689005      0.000      0.000
REMARK  5 active torsions:
REMARK  status: ('A' for Active; 'I' for Inactive)
REMARK    1  A    between atoms: C2_2  and  O1_4 
REMARK    2  A    between atoms: O1_4  and  C4_5 
REMARK    3  A    between atoms: C5_8  and  N2_9 
REMARK    4  A    between atoms: N3_12  and  C8_13 
REMARK    5  A    between atoms: C12_20  and  N6_21 
ROOT
HETATM    1  C8  UNL     1      14.352   2.297  16.600  1.00  0.00     0.250 C 
HETATM    2  C9  UNL     1      14.822   0.993  17.056  1.00  0.00     0.079 C 
HETATM    3  N4  UNL     1      15.192  -0.030  17.407  1.00  0.00    -0.196 NA
ENDROOT
BRANCH   1   4
HETATM    4  N3  UNL     1      15.288   3.026  15.827  1.00  0.00    -0.358 N 
HETATM    5  C7  UNL     1      14.946   4.321  15.454  1.00  0.00     0.084 C 
HETATM    6  C6  UNL     1      15.711   4.971  14.361  1.00  0.00     0.186 C 
HETATM    7  N2  UNL     1      16.778   4.141  13.828  1.00  0.00    -0.208 N 
HETATM    8  C11 UNL     1      16.518   2.730  13.797  1.00  0.00     0.186 C 
HETATM    9  C10 UNL     1      16.351   2.331  15.248  1.00  0.00     0.084 C 
BRANCH   7  10
HETATM   10  C5  UNL     1      17.997   4.717  13.378  1.00  0.00     0.684 A 
HETATM   11  N1  UNL     1      18.225   6.010  13.534  1.00  0.00    -0.169 N 
HETATM   12  C4  UNL     1      19.374   6.676  13.141  1.00  0.00     0.182 A 
ATOM     13  H1  UNL     1      17.495   6.563  13.982  1.00  0.00     0.186 HD
HETATM   14  C13 UNL     1      20.336   5.903  12.541  1.00  0.00     0.140 A 
HETATM   15  C12 UNL     1      20.110   4.554  12.371  1.00  0.00     0.140 A 
HETATM   16  C14 UNL     1      21.604   6.433  12.061  1.00  0.00     0.107 C 
HETATM   17  N5  UNL     1      18.962   3.984  12.784  1.00  0.00    -0.175 N 
ATOM     18  H5  UNL     1      18.820   2.984  12.646  1.00  0.00     0.186 HD
HETATM   19  N7  UNL     1      22.601   6.818  11.675  1.00  0.00    -0.191 NA
BRANCH  12  20
HETATM   20  O1  UNL     1      19.479   7.981  13.356  1.00  0.00    -0.330 OA
BRANCH  20  21
HETATM   21  C2  UNL     1      19.938   8.930  14.129  1.00  0.00     0.122 C 
HETATM   22  C1  UNL     1      19.493  10.336  13.602  1.00  0.00     0.040 C 
HETATM   23  C3  UNL     1      19.363   8.816  15.566  1.00  0.00     0.040 C 
ENDBRANCH  20  21
ENDBRANCH  12  20
BRANCH  15  24
HETATM   24  N6  UNL     1      21.026   3.833  11.801  1.00  0.00    -0.384 N 
ATOM     25  H62 UNL     1      20.752   2.969  11.334  1.00  0.00     0.157 HD
ATOM     26  H61 UNL     1      22.002   4.131  11.826  1.00  0.00     0.157 HD
ENDBRANCH  15  24
ENDBRANCH   7  10
ENDBRANCH   1   4
TORSDOF 5
ENDMDL
MODEL 2
REMARK VINA RESULT: -6.850332412      3.041      6.955
REMARK  5 active torsions:
REMARK  status: ('A' for Active; 'I' for Inactive)
REMARK    1  A    between atoms: C2_2  and  O1_4 
REMARK    2  A    between atoms: O1_4  and  C4_5 
REMARK    3  A    between atoms: C5_8  and  N2_9 
REMARK    4  A    between atoms: N3_12  and  C8_13 
REMARK    5  A    between atoms: C12_20  and  N6_21 
ROOT
HETATM    1  C8  UNL     1      20.706   2.864   9.057  1.00  0.00     0.250 C 
HETATM    2  C9  UNL     1      21.974   3.468   9.454  1.00  0.00     0.079 C 
HETATM    3  N4  UNL     1      22.964   3.946   9.767  1.00  0.00    -0.196 NA
ENDROOT
BRANCH   1   4
HETATM    4  N3  UNL     1      19.832   2.564  10.131  1.00  0.00    -0.358 N 
HETATM    5  C7  UNL     1      19.594   1.224  10.413  1.00  0.00     0.084 C 
HETATM    6  C6  UNL     1      18.429   0.873  11.262  1.00  0.00     0.186 C 
HETATM    7  N2  UNL     1      17.683   2.030  11.729  1.00  0.00    -0.208 N 
HETATM    8  C11 UNL     1      17.616   3.139  10.822  1.00  0.00     0.186 C 
HETATM    9  C10 UNL     1      19.049   3.595  10.654  1.00  0.00     0.084 C 
BRANCH   7  10
HETATM   10  C5  UNL     1      17.074   2.037  13.013  1.00  0.00     0.684 A 
HETATM   11  N1  UNL     1      16.380   3.088  13.420  1.00  0.00    -0.169 N 
HETATM   12  C4  UNL     1      15.742   3.203  14.643  1.00  0.00     0.182 A 
ATOM     13  H1  UNL     1      16.310   3.878  12.780  1.00  0.00     0.186 HD
HETATM   14  C13 UNL     1      15.857   2.123  15.481  1.00  0.00     0.140 A 
HETATM   15  C12 UNL     1      16.577   1.022  15.070  1.00  0.00     0.140 A 
HETATM   16  C14 UNL     1      15.256   2.069  16.806  1.00  0.00     0.107 C 
HETATM   17  N5  UNL     1      17.169   0.992  13.860  1.00  0.00    -0.175 N 
ATOM     18  H5  UNL     1      17.697   0.165  13.581  1.00  0.00     0.186 HD
HETATM   19  N7  UNL     1      14.799   2.000  17.844  1.00  0.00    -0.191 NA
BRANCH  12  20
HETATM   20  O1  UNL     1      15.077   4.314  14.931  1.00  0.00    -0.330 OA
BRANCH  20  21
HETATM   21  C2  UNL     1      15.079   5.621  14.937  1.00  0.00     0.122 C 
HETATM   22  C1  UNL     1      16.543   6.171  15.026  1.00  0.00     0.040 C 
HETATM   23  C3  UNL     1      14.493   6.194  13.618  1.00  0.00     0.040 C 
ENDBRANCH  20  21
ENDBRANCH  12  20
BRANCH  15  24
HETATM   24  N6  UNL     1      16.681   0.007  15.871  1.00  0.00    -0.384 N 
ATOM     25  H62 UNL     1      16.552  -0.932  15.495  1.00  0.00     0.157 HD
ATOM     26  H61 UNL     1      16.887   0.154  16.860  1.00  0.00     0.157 HD
ENDBRANCH  15  24
ENDBRANCH   7  10
ENDBRANCH   1   4
TORSDOF 5
ENDMDL
MODEL 3
REMARK VINA RESULT: -6.798880843      1.748      3.551
REMARK  5 active torsions:
REMARK  status: ('A' for Active; 'I' for Inactive)
REMARK    1  A    between atoms: C2_2  and  O1_4 
REMARK    2  A    between atoms: O1_4  and  C4_5 
REMARK    3  A    between atoms: C5_8  and  N2_9 
REMARK    4  A    between atoms: N3_12  and  C8_13 
REMARK    5  A    between atoms: C12_20  and  N6_21 
ROOT
HETATM    1  C8  UNL     1      14.324   2.287  16.664  1.00  0.00     0.250 C 
HETATM    2  C9  UNL     1      14.746   0.948  17.063  1.00  0.00     0.079 C 
HETATM    3  N4  UNL     1      15.078  -0.102  17.369  1.00  0.00    -0.196 NA
ENDROOT
BRANCH   1   4
HETATM    4  N3  UNL     1      15.264   2.991  15.871  1.00  0.00    -0.358 N 
HETATM    5  C7  UNL     1      14.941   4.289  15.490  1.00  0.00     0.084 C 
HETATM    6  C6  UNL     1      15.702   4.913  14.381  1.00  0.00     0.186 C 
HETATM    7  N2  UNL     1      16.747   4.059  13.843  1.00  0.00    -0.208 N 
HETATM    8  C11 UNL     1      16.461   2.653  13.829  1.00  0.00     0.186 C 
HETATM    9  C10 UNL     1      16.306   2.271  15.285  1.00  0.00     0.084 C 
BRANCH   7  10
HETATM   10  C5  UNL     1      17.971   4.608  13.371  1.00  0.00     0.684 A 
HETATM   11  N1  UNL     1      18.788   3.883  12.626  1.00  0.00    -0.169 N 
HETATM   12  C4  UNL     1      19.999   4.313  12.109  1.00  0.00     0.182 A 
ATOM     13  H1  UNL     1      18.503   2.926  12.414  1.00  0.00     0.186 HD
HETATM   14  C13 UNL     1      20.352   5.603  12.414  1.00  0.00     0.140 A 
HETATM   15  C12 UNL     1      19.510   6.370  13.190  1.00  0.00     0.140 A 
HETATM   16  C14 UNL     1      21.589   6.223  11.961  1.00  0.00     0.107 C 
HETATM   17  N5  UNL     1      18.347   5.872  13.654  1.00  0.00    -0.175 N 
ATOM     18  H5  UNL     1      17.742   6.460  14.227  1.00  0.00     0.186 HD
HETATM   19  N7  UNL     1      22.547   6.732  11.623  1.00  0.00    -0.191 NA
BRANCH  12  20
HETATM   20  O1  UNL     1      20.727   3.484  11.374  1.00  0.00    -0.330 OA
BRANCH  20  21
HETATM   21  C2  UNL     1      20.842   2.834  10.246  1.00  0.00     0.122 C 
HETATM   22  C1  UNL     1      19.953   1.544  10.258  1.00  0.00     0.040 C 
HETATM   23  C3  UNL     1      20.336   3.683   9.049  1.00  0.00     0.040 C 
ENDBRANCH  20  21
ENDBRANCH  12  20
BRANCH  15  24
HETATM   24  N6  UNL     1      19.855   7.588  13.473  1.00  0.00    -0.384 N 
ATOM     25  H62 UNL     1      19.126   8.290  13.600  1.00  0.00     0.157 HD
ATOM     26  H61 UNL     1      20.842   7.833  13.565  1.00  0.00     0.157 HD
ENDBRANCH  15  24
ENDBRANCH   7  10
ENDBRANCH   1   4
TORSDOF 5
ENDMDL
MODEL 4
REMARK VINA RESULT: -6.686366984      3.891      7.372
REMARK  5 active torsions:
REMARK  status: ('A' for Active; 'I' for Inactive)
REMARK    1  A    between atoms: C2_2  and  O1_4 
REMARK    2  A    between atoms: O1_4  and  C4_5 
REMARK    3  A    between atoms: C5_8  and  N2_9 
REMARK    4  A    between atoms: N3_12  and  C8_13 
REMARK    5  A    between atoms: C12_20  and  N6_21 
ROOT
HETATM    1  C8  UNL     1      15.617   8.208   9.026  1.00  0.00     0.250 C 
HETATM    2  C9  UNL     1      14.268   8.337   8.483  1.00  0.00     0.079 C 
HETATM    3  N4  UNL     1      13.212   8.433   8.055  1.00  0.00    -0.196 NA
ENDROOT
BRANCH   1   4
HETATM    4  N3  UNL     1      15.749   7.241  10.053  1.00  0.00    -0.358 N 
HETATM    5  C7  UNL     1      15.166   7.524  11.283  1.00  0.00     0.084 C 
HETATM    6  C6  UNL     1      15.586   6.733  12.467  1.00  0.00     0.186 C 
HETATM    7  N2  UNL     1      16.568   5.707  12.159  1.00  0.00    -0.208 N 
HETATM    8  C11 UNL     1      17.511   6.031  11.127  1.00  0.00     0.186 C 
HETATM    9  C10 UNL     1      16.677   6.213   9.878  1.00  0.00     0.084 C 
BRANCH   7  10
HETATM   10  C5  UNL     1      16.567   4.464  12.848  1.00  0.00     0.684 A 
HETATM   11  N1  UNL     1      17.155   3.403  12.320  1.00  0.00    -0.169 N 
HETATM   12  C4  UNL     1      17.221   2.149  12.901  1.00  0.00     0.182 A 
ATOM     13  H1  UNL     1      17.598   3.520  11.408  1.00  0.00     0.186 HD
HETATM   14  C13 UNL     1      16.615   2.026  14.126  1.00  0.00     0.140 A 
HETATM   15  C12 UNL     1      15.997   3.123  14.688  1.00  0.00     0.140 A 
HETATM   16  C14 UNL     1      16.581   0.782  14.882  1.00  0.00     0.107 C 
HETATM   17  N5  UNL     1      15.979   4.311  14.053  1.00  0.00    -0.175 N 
ATOM     18  H5  UNL     1      15.515   5.107  14.490  1.00  0.00     0.186 HD
HETATM   19  N7  UNL     1      16.538  -0.174  15.493  1.00  0.00    -0.191 NA
BRANCH  12  20
HETATM   20  O1  UNL     1      17.844   1.165  12.265  1.00  0.00    -0.330 OA
BRANCH  20  21
HETATM   21  C2  UNL     1      18.204   0.662  11.114  1.00  0.00     0.122 C 
HETATM   22  C1  UNL     1      19.678   1.067  10.770  1.00  0.00     0.040 C 
HETATM   23  C3  UNL     1      18.191  -0.890  11.147  1.00  0.00     0.040 C 
ENDBRANCH  20  21
ENDBRANCH  12  20
BRANCH  15  24
HETATM   24  N6  UNL     1      15.426   2.995  15.846  1.00  0.00    -0.384 N 
ATOM     25  H62 UNL     1      15.783   3.535  16.633  1.00  0.00     0.157 HD
ATOM     26  H61 UNL     1      14.634   2.360  15.959  1.00  0.00     0.157 HD
ENDBRANCH  15  24
ENDBRANCH   7  10
ENDBRANCH   1   4
TORSDOF 5
ENDMDL
MODEL 5
REMARK VINA RESULT: -6.673986798      3.205      4.423
REMARK  5 active torsions:
REMARK  status: ('A' for Active; 'I' for Inactive)
REMARK    1  A    between atoms: C2_2  and  O1_4 
REMARK    2  A    between atoms: O1_4  and  C4_5 
REMARK    3  A    between atoms: C5_8  and  N2_9 
REMARK    4  A    between atoms: N3_12  and  C8_13 
REMARK    5  A    between atoms: C12_20  and  N6_21 
ROOT
HETATM    1  C8  UNL     1      14.875   2.418  16.985  1.00  0.00     0.250 C 
HETATM    2  C9  UNL     1      15.085   0.990  17.205  1.00  0.00     0.079 C 
HETATM    3  N4  UNL     1      15.247  -0.129  17.371  1.00  0.00    -0.196 NA
ENDROOT
BRANCH   1   4
HETATM    4  N3  UNL     1      15.492   2.933  15.818  1.00  0.00    -0.358 N 
HETATM    5  C7  UNL     1      16.881   2.908  15.759  1.00  0.00     0.084 C 
HETATM    6  C6  UNL     1      17.564   3.753  14.749  1.00  0.00     0.186 C 
HETATM    7  N2  UNL     1      16.648   4.500  13.904  1.00  0.00    -0.208 N 
HETATM    8  C11 UNL     1      15.440   4.950  14.534  1.00  0.00     0.186 C 
HETATM    9  C10 UNL     1      14.714   3.685  14.936  1.00  0.00     0.084 C 
BRANCH   7  10
HETATM   10  C5  UNL     1      16.952   4.750  12.538  1.00  0.00     0.684 A 
HETATM   11  N1  UNL     1      17.702   3.903  11.852  1.00  0.00    -0.169 N 
HETATM   12  C4  UNL     1      18.057   4.040  10.521  1.00  0.00     0.182 A 
ATOM     13  H1  UNL     1      18.047   3.079  12.345  1.00  0.00     0.186 HD
HETATM   14  C13 UNL     1      17.576   5.159   9.888  1.00  0.00     0.140 A 
HETATM   15  C12 UNL     1      16.794   6.050  10.591  1.00  0.00     0.140 A 
HETATM   16  C14 UNL     1      17.850   5.470   8.492  1.00  0.00     0.107 C 
HETATM   17  N5  UNL     1      16.496   5.840  11.888  1.00  0.00    -0.175 N 
ATOM     18  H5  UNL     1      15.916   6.516  12.385  1.00  0.00     0.186 HD
HETATM   19  N7  UNL     1      18.049   5.738   7.406  1.00  0.00    -0.191 NA
BRANCH  12  20
HETATM   20  O1  UNL     1      18.817   3.116   9.948  1.00  0.00    -0.330 OA
BRANCH  20  21
HETATM   21  C2  UNL     1      19.923   2.423   9.999  1.00  0.00     0.122 C 
HETATM   22  C1  UNL     1      21.072   3.263  10.655  1.00  0.00     0.040 C 
HETATM   23  C3  UNL     1      19.760   1.163  10.891  1.00  0.00     0.040 C 
ENDBRANCH  20  21
ENDBRANCH  12  20
BRANCH  15  24
HETATM   24  N6  UNL     1      16.347   7.106   9.983  1.00  0.00    -0.384 N 
ATOM     25  H62 UNL     1      15.342   7.200   9.835  1.00  0.00     0.157 HD
ATOM     26  H61 UNL     1      16.996   7.824   9.659  1.00  0.00     0.157 HD
ENDBRANCH  15  24
ENDBRANCH   7  10
ENDBRANCH   1   4
TORSDOF 5
ENDMDL
