MODEL 1
REMARK VINA RESULT: -7.449387798      0.000      0.000
REMARK  6 active torsions:
REMARK  status: ('A' for Active; 'I' for Inactive)
REMARK    1  A    between atoms: N1_3  and  C2_4 
REMARK    2  A    between atoms: C2_4  and  C3_5 
REMARK    3  A    between atoms: C3_5  and  C4_6 
REMARK    4  A    between atoms: C4_6  and  C5_7 
REMARK    5  A    between atoms: C13_18  and  O3_19 
REMARK    6  A    between atoms: C14_21  and  O4_22 
ROOT
HETATM    1  O1  UNL     1      15.082   5.769  15.497  1.00  0.00    -0.245 OA
HETATM    2  C1  UNL     1      15.683   4.921  14.751  1.00  0.00     0.347 A 
HETATM    3  N1  UNL     1      16.417   5.193  13.658  1.00  0.00    -0.249 N 
HETATM    4  C11 UNL     1      16.880   4.038  13.153  1.00  0.00     0.347 A 
HETATM    5  O2  UNL     1      17.614   3.872  12.120  1.00  0.00    -0.245 OA
HETATM    6  N2  UNL     1      16.434   3.048  13.933  1.00  0.00    -0.234 N 
HETATM    7  N3  UNL     1      15.712   3.587  14.897  1.00  0.00    -0.234 N 
HETATM    8  C12 UNL     1      15.125   2.680  15.869  1.00  0.00     0.188 C 
HETATM    9  C13 UNL     1      16.211   1.740  16.336  1.00  0.00     0.168 C 
HETATM   10  C14 UNL     1      16.875   0.999  15.221  1.00  0.00     0.168 C 
HETATM   11  C15 UNL     1      16.625   1.591  13.863  1.00  0.00     0.188 C 
ENDROOT
BRANCH   3  12
HETATM   12  C2  UNL     1      16.689   6.516  13.081  1.00  0.00     0.139 C 
BRANCH  12  13
HETATM   13  C3  UNL     1      15.552   6.885  12.139  1.00  0.00     0.021 C 
BRANCH  13  14
HETATM   14  C4  UNL     1      16.006   8.090  11.341  1.00  0.00     0.006 C 
BRANCH  14  15
HETATM   15  C5  UNL     1      14.822   8.964  10.963  1.00  0.00    -0.014 C 
HETATM   16  C6  UNL     1      15.085   9.737   9.698  1.00  0.00     0.004 C 
HETATM   17  C7  UNL     1      13.819  10.159   9.004  1.00  0.00     0.000 C 
HETATM   18  C8  UNL     1      12.909   9.015   8.691  1.00  0.00     0.000 C 
HETATM   19  C9  UNL     1      13.489   7.745   9.327  1.00  0.00     0.000 C 
HETATM   20  C10 UNL     1      13.631   8.042  10.806  1.00  0.00     0.004 C 
ENDBRANCH  14  15
ENDBRANCH  13  14
ENDBRANCH  12  13
ENDBRANCH   3  12
BRANCH   9  21
HETATM   21  O3  UNL     1      15.688   0.823  17.260  1.00  0.00    -0.391 OA
ATOM     22  H3  UNL     1      15.186   0.155  16.807  1.00  0.00     0.210 HD
ENDBRANCH   9  21
BRANCH  10  23
HETATM   23  O4  UNL     1      16.479  -0.338  15.231  1.00  0.00    -0.391 OA
ATOM     24  H4  UNL     1      16.133  -0.582  14.381  1.00  0.00     0.210 HD
ENDBRANCH  10  23
TORSDOF 6
ENDMDL
MODEL 2
REMARK VINA RESULT: -7.429728946      0.970      1.294
REMARK  6 active torsions:
REMARK  status: ('A' for Active; 'I' for Inactive)
REMARK    1  A    between atoms: N1_3  and  C2_4 
REMARK    2  A    between atoms: C2_4  and  C3_5 
REMARK    3  A    between atoms: C3_5  and  C4_6 
REMARK    4  A    between atoms: C4_6  and  C5_7 
REMARK    5  A    between atoms: C13_18  and  O3_19 
REMARK    6  A    between atoms: C14_21  and  O4_22 
ROOT
HETATM    1  O1  UNL     1      15.112   5.827  15.132  1.00  0.00    -0.245 OA
HETATM    2  C1  UNL     1      15.806   4.833  14.722  1.00  0.00     0.347 A 
HETATM    3  N1  UNL     1      16.845   4.878  13.870  1.00  0.00    -0.249 N 
HETATM    4  C11 UNL     1      17.306   3.630  13.689  1.00  0.00     0.347 A 
HETATM    5  O2  UNL     1      18.282   3.254  12.954  1.00  0.00    -0.245 OA
HETATM    6  N2  UNL     1      16.553   2.809  14.428  1.00  0.00    -0.234 N 
HETATM    7  N3  UNL     1      15.648   3.541  15.050  1.00  0.00    -0.234 N 
HETATM    8  C12 UNL     1      14.715   2.842  15.917  1.00  0.00     0.188 C 
HETATM    9  C13 UNL     1      15.515   1.924  16.810  1.00  0.00     0.168 C 
HETATM   10  C14 UNL     1      16.386   0.972  16.056  1.00  0.00     0.168 C 
HETATM   11  C15 UNL     1      16.599   1.351  14.617  1.00  0.00     0.188 C 
ENDROOT
BRANCH   3  12
HETATM   12  C2  UNL     1      17.411   6.071  13.226  1.00  0.00     0.139 C 
BRANCH  12  13
HETATM   13  C3  UNL     1      16.627   6.361  11.955  1.00  0.00     0.021 C 
BRANCH  13  14
HETATM   14  C4  UNL     1      16.739   7.848  11.690  1.00  0.00     0.006 C 
BRANCH  14  15
HETATM   15  C5  UNL     1      15.908   8.246  10.482  1.00  0.00    -0.014 C 
HETATM   16  C6  UNL     1      15.255   7.052   9.839  1.00  0.00     0.004 C 
HETATM   17  C7  UNL     1      14.040   7.420   9.034  1.00  0.00     0.000 C 
HETATM   18  C8  UNL     1      13.013   8.166   9.824  1.00  0.00     0.000 C 
HETATM   19  C9  UNL     1      13.593   8.470  11.211  1.00  0.00     0.000 C 
HETATM   20  C10 UNL     1      14.875   9.240  10.971  1.00  0.00     0.004 C 
ENDBRANCH  14  15
ENDBRANCH  13  14
ENDBRANCH  12  13
ENDBRANCH   3  12
BRANCH   9  21
HETATM   21  O3  UNL     1      14.656   1.203  17.652  1.00  0.00    -0.391 OA
ATOM     22  H3  UNL     1      13.776   1.202  17.295  1.00  0.00     0.210 HD
ENDBRANCH   9  21
BRANCH  10  23
HETATM   23  O4  UNL     1      15.863  -0.318  16.130  1.00  0.00    -0.391 OA
ATOM     24  H4  UNL     1      15.048  -0.368  15.645  1.00  0.00     0.210 HD
ENDBRANCH  10  23
TORSDOF 6
ENDMDL
MODEL 3
REMARK VINA RESULT: -7.377661943      2.739      4.298
REMARK  6 active torsions:
REMARK  status: ('A' for Active; 'I' for Inactive)
REMARK    1  A    between atoms: N1_3  and  C2_4 
REMARK    2  A    between atoms: C2_4  and  C3_5 
REMARK    3  A    between atoms: C3_5  and  C4_6 
REMARK    4  A    between atoms: C4_6  and  C5_7 
REMARK    5  A    between atoms: C13_18  and  O3_19 
REMARK    6  A    between atoms: C14_21  and  O4_22 
ROOT
HETATM    1  O1  UNL     1      14.954   5.621  15.457  1.00  0.00    -0.245 OA
HETATM    2  C1  UNL     1      15.561   4.747  14.747  1.00  0.00     0.347 A 
HETATM    3  N1  UNL     1      16.266   4.973  13.625  1.00  0.00    -0.249 N 
HETATM    4  C11 UNL     1      16.747   3.803  13.176  1.00  0.00     0.347 A 
HETATM    5  O2  UNL     1      17.464   3.596  12.139  1.00  0.00    -0.245 OA
HETATM    6  N2  UNL     1      16.342   2.848  14.020  1.00  0.00    -0.234 N 
HETATM    7  N3  UNL     1      15.626   3.423  14.967  1.00  0.00    -0.234 N 
HETATM    8  C12 UNL     1      15.081   2.560  16.001  1.00  0.00     0.188 C 
HETATM    9  C13 UNL     1      16.199   1.673  16.497  1.00  0.00     0.168 C 
HETATM   10  C14 UNL     1      16.859   0.886  15.412  1.00  0.00     0.168 C 
HETATM   11  C15 UNL     1      16.567   1.394  14.028  1.00  0.00     0.188 C 
ENDROOT
BRANCH   3  12
HETATM   12  C2  UNL     1      16.494   6.267  12.969  1.00  0.00     0.139 C 
BRANCH  12  13
HETATM   13  C3  UNL     1      17.964   6.636  13.108  1.00  0.00     0.021 C 
BRANCH  13  14
HETATM   14  C4  UNL     1      18.131   7.310  14.454  1.00  0.00     0.006 C 
BRANCH  14  15
HETATM   15  C5  UNL     1      19.558   7.796  14.641  1.00  0.00    -0.014 C 
HETATM   16  C6  UNL     1      20.187   8.188  13.331  1.00  0.00     0.004 C 
HETATM   17  C7  UNL     1      21.329   9.152  13.503  1.00  0.00     0.000 C 
HETATM   18  C8  UNL     1      20.946  10.392  14.246  1.00  0.00     0.000 C 
HETATM   19  C9  UNL     1      19.508  10.230  14.753  1.00  0.00     0.000 C 
HETATM   20  C10 UNL     1      19.498   8.971  15.595  1.00  0.00     0.004 C 
ENDBRANCH  14  15
ENDBRANCH  13  14
ENDBRANCH  12  13
ENDBRANCH   3  12
BRANCH   9  21
HETATM   21  O3  UNL     1      15.717   0.798  17.481  1.00  0.00    -0.391 OA
ATOM     22  H3  UNL     1      16.443   0.402  17.948  1.00  0.00     0.210 HD
ENDBRANCH   9  21
BRANCH  10  23
HETATM   23  O4  UNL     1      16.496  -0.457  15.505  1.00  0.00    -0.391 OA
ATOM     24  H4  UNL     1      16.222  -0.780  14.656  1.00  0.00     0.210 HD
ENDBRANCH  10  23
TORSDOF 6
ENDMDL
MODEL 4
REMARK VINA RESULT: -7.283883930      3.782      6.807
REMARK  6 active torsions:
REMARK  status: ('A' for Active; 'I' for Inactive)
REMARK    1  A    between atoms: N1_3  and  C2_4 
REMARK    2  A    between atoms: C2_4  and  C3_5 
REMARK    3  A    between atoms: C3_5  and  C4_6 
REMARK    4  A    between atoms: C4_6  and  C5_7 
REMARK    5  A    between atoms: C13_18  and  O3_19 
REMARK    6  A    between atoms: C14_21  and  O4_22 
ROOT
HETATM    1  O1  UNL     1      19.165   6.348  13.404  1.00  0.00    -0.245 OA
HETATM    2  C1  UNL     1      18.660   5.322  12.831  1.00  0.00     0.347 A 
HETATM    3  N1  UNL     1      17.365   4.958  12.834  1.00  0.00    -0.249 N 
HETATM    4  C11 UNL     1      17.234   3.827  12.122  1.00  0.00     0.347 A 
HETATM    5  O2  UNL     1      16.166   3.166  11.889  1.00  0.00    -0.245 OA
HETATM    6  N2  UNL     1      18.449   3.487  11.677  1.00  0.00    -0.234 N 
HETATM    7  N3  UNL     1      19.306   4.393  12.108  1.00  0.00    -0.234 N 
HETATM    8  C12 UNL     1      20.699   4.216  11.735  1.00  0.00     0.188 C 
HETATM    9  C13 UNL     1      20.748   3.949  10.249  1.00  0.00     0.168 C 
HETATM   10  C14 UNL     1      19.911   2.785   9.827  1.00  0.00     0.168 C 
HETATM   11  C15 UNL     1      18.904   2.354  10.856  1.00  0.00     0.188 C 
ENDROOT
BRANCH   3  12
HETATM   12  C2  UNL     1      16.252   5.655  13.492  1.00  0.00     0.139 C 
BRANCH  12  13
HETATM   13  C3  UNL     1      16.286   5.340  14.980  1.00  0.00     0.021 C 
BRANCH  13  14
HETATM   14  C4  UNL     1      14.959   4.699  15.333  1.00  0.00     0.006 C 
BRANCH  14  15
HETATM   15  C5  UNL     1      15.071   3.184  15.319  1.00  0.00    -0.014 C 
HETATM   16  C6  UNL     1      16.467   2.727  15.650  1.00  0.00     0.004 C 
HETATM   17  C7  UNL     1      16.504   1.320  16.179  1.00  0.00     0.000 C 
HETATM   18  C8  UNL     1      15.632   1.116  17.376  1.00  0.00     0.000 C 
HETATM   19  C9  UNL     1      14.825   2.399  17.614  1.00  0.00     0.000 C 
HETATM   20  C10 UNL     1      14.068   2.664  16.328  1.00  0.00     0.004 C 
ENDBRANCH  14  15
ENDBRANCH  13  14
ENDBRANCH  12  13
ENDBRANCH   3  12
BRANCH   9  21
HETATM   21  O3  UNL     1      22.073   3.743   9.841  1.00  0.00    -0.391 OA
ATOM     22  H3  UNL     1      22.310   2.830   9.953  1.00  0.00     0.210 HD
ENDBRANCH   9  21
BRANCH  10  23
HETATM   23  O4  UNL     1      20.726   1.706   9.487  1.00  0.00    -0.391 OA
ATOM     24  H4  UNL     1      20.215   1.035   9.051  1.00  0.00     0.210 HD
ENDBRANCH  10  23
TORSDOF 6
ENDMDL
MODEL 5
REMARK VINA RESULT: -7.267378123      1.337      2.356
REMARK  6 active torsions:
REMARK  status: ('A' for Active; 'I' for Inactive)
REMARK    1  A    between atoms: N1_3  and  C2_4 
REMARK    2  A    between atoms: C2_4  and  C3_5 
REMARK    3  A    between atoms: C3_5  and  C4_6 
REMARK    4  A    between atoms: C4_6  and  C5_7 
REMARK    5  A    between atoms: C13_18  and  O3_19 
REMARK    6  A    between atoms: C14_21  and  O4_22 
ROOT
HETATM    1  O1  UNL     1      18.716   3.956  14.254  1.00  0.00    -0.245 OA
HETATM    2  C1  UNL     1      17.478   4.159  14.509  1.00  0.00     0.347 A 
HETATM    3  N1  UNL     1      16.699   5.121  13.984  1.00  0.00    -0.249 N 
HETATM    4  C11 UNL     1      15.465   5.005  14.500  1.00  0.00     0.347 A 
HETATM    5  O2  UNL     1      14.441   5.728  14.255  1.00  0.00    -0.245 OA
HETATM    6  N2  UNL     1      15.477   3.970  15.347  1.00  0.00    -0.234 N 
HETATM    7  N3  UNL     1      16.696   3.463  15.349  1.00  0.00    -0.234 N 
HETATM    8  C12 UNL     1      16.934   2.317  16.210  1.00  0.00     0.188 C 
HETATM    9  C13 UNL     1      15.829   1.318  15.963  1.00  0.00     0.168 C 
HETATM   10  C14 UNL     1      14.460   1.884  16.164  1.00  0.00     0.168 C 
HETATM   11  C15 UNL     1      14.421   3.386  16.188  1.00  0.00     0.188 C 
ENDROOT
BRANCH   3  12
HETATM   12  C2  UNL     1      17.093   6.144  13.007  1.00  0.00     0.139 C 
BRANCH  12  13
HETATM   13  C3  UNL     1      16.958   5.565  11.606  1.00  0.00     0.021 C 
BRANCH  13  14
HETATM   14  C4  UNL     1      15.871   6.350  10.901  1.00  0.00     0.006 C 
BRANCH  14  15
HETATM   15  C5  UNL     1      15.798   7.771  11.435  1.00  0.00    -0.014 C 
HETATM   16  C6  UNL     1      16.493   8.744  10.520  1.00  0.00     0.004 C 
HETATM   17  C7  UNL     1      15.998  10.153  10.691  1.00  0.00     0.000 C 
HETATM   18  C8  UNL     1      14.520  10.285  10.505  1.00  0.00     0.000 C 
HETATM   19  C9  UNL     1      13.923   8.882  10.344  1.00  0.00     0.000 C 
HETATM   20  C10 UNL     1      14.329   8.107  11.581  1.00  0.00     0.004 C 
ENDBRANCH  14  15
ENDBRANCH  13  14
ENDBRANCH  12  13
ENDBRANCH   3  12
BRANCH   9  21
HETATM   21  O3  UNL     1      15.998   0.200  16.792  1.00  0.00    -0.391 OA
ATOM     22  H3  UNL     1      15.188  -0.294  16.842  1.00  0.00     0.210 HD
ENDBRANCH   9  21
BRANCH  10  23
HETATM   23  O4  UNL     1      13.901   1.381  17.338  1.00  0.00    -0.391 OA
ATOM     24  H4  UNL     1      13.117   0.883  17.139  1.00  0.00     0.210 HD
ENDBRANCH  10  23
TORSDOF 6
ENDMDL
