MODEL 1
REMARK VINA RESULT: -5.570579313      0.000      0.000
REMARK  5 active torsions:
REMARK  status: ('A' for Active; 'I' for Inactive)
REMARK    1  A    between atoms: C1_2  and  N2_4 
REMARK    2  A    between atoms: N2_4  and  N3_6 
REMARK    3  A    between atoms: N3_6  and  C2_8 
REMARK    4  A    between atoms: C2_8  and  N4_10 
REMARK    5  A    between atoms: N4_10  and  C3_12 
ROOT
HETATM    1  C2  UNL     1     -18.702  10.958  32.914  1.00  0.00     0.186 C 
HETATM    2  S2  UNL     1     -19.713  11.101  34.200  1.00  0.00    -0.040 SA
ENDROOT
BRANCH   1   3
HETATM    3  N3  UNL     1     -18.339   9.636  32.538  1.00  0.00    -0.274 N 
ATOM      4  H3  UNL     1     -19.035   9.048  32.080  1.00  0.00     0.189 HD
BRANCH   3   5
HETATM    5  N2  UNL     1     -17.073   9.116  32.771  1.00  0.00    -0.276 N 
ATOM      6  H2  UNL     1     -16.680   9.162  33.711  1.00  0.00     0.189 HD
BRANCH   5   7
HETATM    7  C1  UNL     1     -16.314   8.524  31.734  1.00  0.00     0.199 C 
HETATM    8  N1  UNL     1     -15.310   9.258  31.052  1.00  0.00    -0.068 NA
HETATM    9  S1  UNL     1     -16.594   6.959  31.304  1.00  0.00    -0.043 SA
ENDBRANCH   5   7
ENDBRANCH   3   5
ENDBRANCH   1   3
BRANCH   1  10
HETATM   10  N4  UNL     1     -18.231  12.091  32.227  1.00  0.00    -0.359 N 
ATOM     11  H4  UNL     1     -18.593  12.233  31.284  1.00  0.00     0.162 HD
BRANCH  10  12
HETATM   12  C3  UNL     1     -17.309  13.056  32.701  1.00  0.00     0.107 C 
HETATM   13  C4  UNL     1     -17.749  13.908  33.843  1.00  0.00     0.029 C 
HETATM   14  C5  UNL     1     -16.656  14.973  34.027  1.00  0.00     0.028 C 
HETATM   15  C6  UNL     1     -15.403  14.227  34.423  1.00  0.00     0.167 C 
HETATM   16  O1  UNL     1     -15.042  13.417  33.345  1.00  0.00    -0.389 OA
HETATM   17  C7  UNL     1     -15.968  12.438  33.089  1.00  0.00     0.192 C 
ENDBRANCH  10  12
ENDBRANCH   1  10
TORSDOF 5
ENDMDL
MODEL 2
REMARK VINA RESULT: -5.516141206      2.073      3.862
REMARK  5 active torsions:
REMARK  status: ('A' for Active; 'I' for Inactive)
REMARK    1  A    between atoms: C1_2  and  N2_4 
REMARK    2  A    between atoms: N2_4  and  N3_6 
REMARK    3  A    between atoms: N3_6  and  C2_8 
REMARK    4  A    between atoms: C2_8  and  N4_10 
REMARK    5  A    between atoms: N4_10  and  C3_12 
ROOT
HETATM    1  C2  UNL     1     -17.317   9.689  32.931  1.00  0.00     0.186 C 
HETATM    2  S2  UNL     1     -16.763   8.511  31.930  1.00  0.00    -0.040 SA
ENDROOT
BRANCH   1   3
HETATM    3  N3  UNL     1     -18.578  10.258  32.602  1.00  0.00    -0.274 N 
ATOM      4  H3  UNL     1     -18.629  10.923  31.830  1.00  0.00     0.189 HD
BRANCH   3   5
HETATM    5  N2  UNL     1     -19.741   9.943  33.291  1.00  0.00    -0.276 N 
ATOM      6  H2  UNL     1     -20.208   9.056  33.101  1.00  0.00     0.189 HD
BRANCH   5   7
HETATM    7  C1  UNL     1     -20.293  10.823  34.250  1.00  0.00     0.199 C 
HETATM    8  N1  UNL     1     -21.411  10.441  35.036  1.00  0.00    -0.068 NA
HETATM    9  S1  UNL     1     -19.637  12.318  34.467  1.00  0.00    -0.043 SA
ENDBRANCH   5   7
ENDBRANCH   3   5
ENDBRANCH   1   3
BRANCH   1  10
HETATM   10  N4  UNL     1     -16.577  10.101  34.053  1.00  0.00    -0.359 N 
ATOM     11  H4  UNL     1     -16.459   9.413  34.796  1.00  0.00     0.162 HD
BRANCH  10  12
HETATM   12  C3  UNL     1     -15.979  11.367  34.263  1.00  0.00     0.107 C 
HETATM   13  C4  UNL     1     -15.146  11.526  35.490  1.00  0.00     0.029 C 
HETATM   14  C5  UNL     1     -14.783  13.017  35.570  1.00  0.00     0.028 C 
HETATM   15  C6  UNL     1     -13.933  13.310  34.355  1.00  0.00     0.167 C 
HETATM   16  O1  UNL     1     -14.734  13.119  33.229  1.00  0.00    -0.389 OA
HETATM   17  C7  UNL     1     -15.127  11.812  33.078  1.00  0.00     0.192 C 
ENDBRANCH  10  12
ENDBRANCH   1  10
TORSDOF 5
ENDMDL
MODEL 3
REMARK VINA RESULT: -5.501336917      1.696      1.873
REMARK  5 active torsions:
REMARK  status: ('A' for Active; 'I' for Inactive)
REMARK    1  A    between atoms: C1_2  and  N2_4 
REMARK    2  A    between atoms: N2_4  and  N3_6 
REMARK    3  A    between atoms: N3_6  and  C2_8 
REMARK    4  A    between atoms: C2_8  and  N4_10 
REMARK    5  A    between atoms: N4_10  and  C3_12 
ROOT
HETATM    1  C2  UNL     1     -18.132  10.473  33.368  1.00  0.00     0.186 C 
HETATM    2  S2  UNL     1     -19.439  11.450  33.545  1.00  0.00    -0.040 SA
ENDROOT
BRANCH   1   3
HETATM    3  N3  UNL     1     -18.177   9.544  32.292  1.00  0.00    -0.274 N 
ATOM      4  H3  UNL     1     -18.633   9.822  31.423  1.00  0.00     0.189 HD
BRANCH   3   5
HETATM    5  N2  UNL     1     -17.623   8.274  32.379  1.00  0.00    -0.276 N 
ATOM      6  H2  UNL     1     -17.962   7.631  33.095  1.00  0.00     0.189 HD
BRANCH   5   7
HETATM    7  C1  UNL     1     -16.601   7.850  31.499  1.00  0.00     0.199 C 
HETATM    8  N1  UNL     1     -15.594   8.748  31.060  1.00  0.00    -0.068 NA
HETATM    9  S1  UNL     1     -16.570   6.291  30.967  1.00  0.00    -0.043 SA
ENDBRANCH   5   7
ENDBRANCH   3   5
ENDBRANCH   1   3
BRANCH   1  10
HETATM   10  N4  UNL     1     -17.031  10.561  34.237  1.00  0.00    -0.359 N 
ATOM     11  H4  UNL     1     -16.860   9.754  34.837  1.00  0.00     0.162 HD
BRANCH  10  12
HETATM   12  C3  UNL     1     -16.134  11.649  34.372  1.00  0.00     0.107 C 
HETATM   13  C4  UNL     1     -15.231  11.638  35.560  1.00  0.00     0.029 C 
HETATM   14  C5  UNL     1     -14.514  12.997  35.564  1.00  0.00     0.028 C 
HETATM   15  C6  UNL     1     -13.675  13.035  34.307  1.00  0.00     0.167 C 
HETATM   16  O1  UNL     1     -14.551  13.010  33.220  1.00  0.00    -0.389 OA
HETATM   17  C7  UNL     1     -15.255  11.835  33.139  1.00  0.00     0.192 C 
ENDBRANCH  10  12
ENDBRANCH   1  10
TORSDOF 5
ENDMDL
MODEL 4
REMARK VINA RESULT: -5.471646082      0.980      1.595
REMARK  5 active torsions:
REMARK  status: ('A' for Active; 'I' for Inactive)
REMARK    1  A    between atoms: C1_2  and  N2_4 
REMARK    2  A    between atoms: N2_4  and  N3_6 
REMARK    3  A    between atoms: N3_6  and  C2_8 
REMARK    4  A    between atoms: C2_8  and  N4_10 
REMARK    5  A    between atoms: N4_10  and  C3_12 
ROOT
HETATM    1  C2  UNL     1     -18.339  11.057  33.005  1.00  0.00     0.186 C 
HETATM    2  S2  UNL     1     -19.650  11.353  33.947  1.00  0.00    -0.040 SA
ENDROOT
BRANCH   1   3
HETATM    3  N3  UNL     1     -18.212   9.738  32.493  1.00  0.00    -0.274 N 
ATOM      4  H3  UNL     1     -18.966   9.360  31.919  1.00  0.00     0.189 HD
BRANCH   3   5
HETATM    5  N2  UNL     1     -17.101   8.944  32.743  1.00  0.00    -0.276 N 
ATOM      6  H2  UNL     1     -16.820   8.770  33.709  1.00  0.00     0.189 HD
BRANCH   5   7
HETATM    7  C1  UNL     1     -16.350   8.368  31.692  1.00  0.00     0.199 C 
HETATM    8  N1  UNL     1     -15.367   9.120  30.998  1.00  0.00    -0.068 NA
HETATM    9  S1  UNL     1     -16.614   6.801  31.258  1.00  0.00    -0.043 SA
ENDBRANCH   5   7
ENDBRANCH   3   5
ENDBRANCH   1   3
BRANCH   1  10
HETATM   10  N4  UNL     1     -17.399  12.065  32.725  1.00  0.00    -0.359 N 
ATOM     11  H4  UNL     1     -17.505  12.549  31.833  1.00  0.00     0.162 HD
BRANCH  10  12
HETATM   12  C3  UNL     1     -16.322  12.481  33.545  1.00  0.00     0.107 C 
HETATM   13  C4  UNL     1     -14.945  12.191  33.051  1.00  0.00     0.029 C 
HETATM   14  C5  UNL     1     -13.992  12.567  34.196  1.00  0.00     0.028 C 
HETATM   15  C6  UNL     1     -14.140  14.058  34.395  1.00  0.00     0.167 C 
HETATM   16  O1  UNL     1     -15.447  14.294  34.823  1.00  0.00    -0.389 OA
HETATM   17  C7  UNL     1     -16.380  13.971  33.870  1.00  0.00     0.192 C 
ENDBRANCH  10  12
ENDBRANCH   1  10
TORSDOF 5
ENDMDL
MODEL 5
REMARK VINA RESULT: -5.471244467      1.855      2.268
REMARK  5 active torsions:
REMARK  status: ('A' for Active; 'I' for Inactive)
REMARK    1  A    between atoms: C1_2  and  N2_4 
REMARK    2  A    between atoms: N2_4  and  N3_6 
REMARK    3  A    between atoms: N3_6  and  C2_8 
REMARK    4  A    between atoms: C2_8  and  N4_10 
REMARK    5  A    between atoms: N4_10  and  C3_12 
ROOT
HETATM    1  C2  UNL     1     -17.705  11.009  33.666  1.00  0.00     0.186 C 
HETATM    2  S2  UNL     1     -18.904  12.034  34.120  1.00  0.00    -0.040 SA
ENDROOT
BRANCH   1   3
HETATM    3  N3  UNL     1     -17.831  10.416  32.380  1.00  0.00    -0.274 N 
ATOM      4  H3  UNL     1     -18.672   9.879  32.168  1.00  0.00     0.189 HD
BRANCH   3   5
HETATM    5  N2  UNL     1     -16.854  10.540  31.402  1.00  0.00    -0.276 N 
ATOM      6  H2  UNL     1     -16.786  11.410  30.873  1.00  0.00     0.189 HD
BRANCH   5   7
HETATM    7  C1  UNL     1     -15.949   9.490  31.123  1.00  0.00     0.199 C 
HETATM    8  N1  UNL     1     -14.677   9.752  30.551  1.00  0.00    -0.068 NA
HETATM    9  S1  UNL     1     -16.369   7.934  31.461  1.00  0.00    -0.043 SA
ENDBRANCH   5   7
ENDBRANCH   3   5
ENDBRANCH   1   3
BRANCH   1  10
HETATM   10  N4  UNL     1     -16.613  10.743  34.511  1.00  0.00    -0.359 N 
ATOM     11  H4  UNL     1     -16.629   9.851  35.006  1.00  0.00     0.162 HD
BRANCH  10  12
HETATM   12  C3  UNL     1     -15.495  11.578  34.752  1.00  0.00     0.107 C 
HETATM   13  C4  UNL     1     -15.101  12.513  33.659  1.00  0.00     0.029 C 
HETATM   14  C5  UNL     1     -13.773  13.149  34.098  1.00  0.00     0.028 C 
HETATM   15  C6  UNL     1     -14.080  13.948  35.343  1.00  0.00     0.167 C 
HETATM   16  O1  UNL     1     -14.476  13.046  36.331  1.00  0.00    -0.389 OA
HETATM   17  C7  UNL     1     -15.652  12.409  36.022  1.00  0.00     0.192 C 
ENDBRANCH  10  12
ENDBRANCH   1  10
TORSDOF 5
ENDMDL
