MODEL 1
REMARK VINA RESULT: -7.138515894      0.000      0.000
REMARK  6 active torsions:
REMARK  status: ('A' for Active; 'I' for Inactive)
REMARK    1  A    between atoms: C2_2  and  N1_3 
REMARK    2  A    between atoms: C2_2  and  C20_28 
REMARK    3  A    between atoms: N1_3  and  C3_6 
REMARK       I    between atoms: N2_8  and  C5_9 
REMARK    4  A    between atoms: C5_9  and  C6_11 
REMARK    5  A    between atoms: C13_19  and  C14_20 
REMARK       I    between atoms: C14_20  and  N3_22 
REMARK       I    between atoms: C20_28  and  N4_30 
REMARK    6  A    between atoms: C24_34  and  C25_35 
REMARK       I    between atoms: C25_35  and  N5_37 
ROOT
HETATM    1  C3  UNL     1     -13.241  -7.505   1.189  1.00  0.00     0.219 C 
HETATM    2  C4  UNL     1     -12.356  -6.526   1.944  1.00  0.00     0.160 C 
HETATM    3  N2  UNL     1     -11.027  -7.072   1.828  1.00  0.00    -0.345 N 
HETATM    4  C5  UNL     1      -9.842  -6.308   1.675  1.00  0.00     0.256 C 
HETATM    5  O1  UNL     1      -9.904  -5.030   1.632  1.00  0.00    -0.267 OA
HETATM    6  C12 UNL     1     -11.196  -8.508   1.900  1.00  0.00     0.142 C 
HETATM    7  C13 UNL     1     -12.354  -8.670   0.907  1.00  0.00     0.128 C 
ENDROOT
BRANCH   1   8
HETATM    8  N1  UNL     1     -14.417  -7.841   1.977  1.00  0.00    -0.056 N 
ATOM      9  H12 UNL     1     -14.668  -8.828   1.919  1.00  0.00     0.278 HD
ATOM     10  H11 UNL     1     -15.280  -7.462   1.587  1.00  0.00     0.278 HD
BRANCH   8  11
HETATM   11  C2  UNL     1     -14.167  -7.399   3.330  1.00  0.00     0.273 C 
HETATM   12  C1  UNL     1     -15.258  -6.412   3.680  1.00  0.00     0.050 C 
BRANCH  11  13
HETATM   13  C20 UNL     1     -14.257  -8.558   4.313  1.00  0.00     0.251 C 
HETATM   14  O3  UNL     1     -15.226  -9.317   4.059  1.00  0.00    -0.271 OA
HETATM   15  N4  UNL     1     -13.319  -8.646   5.321  1.00  0.00    -0.337 N 
HETATM   16  C21 UNL     1     -12.180  -7.696   5.455  1.00  0.00     0.127 C 
HETATM   17  C24 UNL     1     -13.063  -9.487   6.436  1.00  0.00     0.179 C 
HETATM   18  C22 UNL     1     -11.036  -8.714   5.562  1.00  0.00     0.022 C 
HETATM   19  C23 UNL     1     -11.694 -10.027   6.012  1.00  0.00     0.037 C 
BRANCH  17  20
HETATM   20  C25 UNL     1     -13.997 -10.478   6.873  1.00  0.00     0.242 C 
HETATM   21  O4  UNL     1     -13.869 -11.712   6.694  1.00  0.00    -0.271 OA
HETATM   22  N5  UNL     1     -15.185 -10.103   7.566  1.00  0.00    -0.350 N 
HETATM   23  C26 UNL     1     -15.485  -8.732   7.833  1.00  0.00     0.126 C 
HETATM   24  C30 UNL     1     -16.095 -11.130   8.022  1.00  0.00     0.126 C 
HETATM   25  C27 UNL     1     -16.965  -8.385   7.759  1.00  0.00     0.020 C 
HETATM   26  C28 UNL     1     -17.721  -9.392   8.586  1.00  0.00     0.003 C 
HETATM   27  C29 UNL     1     -17.541 -10.732   7.860  1.00  0.00     0.020 C 
ENDBRANCH  17  20
ENDBRANCH  11  13
ENDBRANCH   8  11
ENDBRANCH   1   8
BRANCH   7  28
HETATM   28  C14 UNL     1     -12.965  -9.996   0.974  1.00  0.00     0.227 C 
HETATM   29  O2  UNL     1     -12.953 -10.562   2.119  1.00  0.00    -0.273 OA
HETATM   30  N3  UNL     1     -13.562 -10.693  -0.100  1.00  0.00    -0.352 N 
HETATM   31  C15 UNL     1     -14.145 -12.012   0.142  1.00  0.00     0.125 C 
HETATM   32  C19 UNL     1     -13.634 -10.206  -1.454  1.00  0.00     0.125 C 
HETATM   33  C16 UNL     1     -15.291 -12.218  -0.821  1.00  0.00     0.020 C 
HETATM   34  C17 UNL     1     -14.736 -12.333  -2.229  1.00  0.00     0.003 C 
HETATM   35  C18 UNL     1     -13.603 -11.364  -2.433  1.00  0.00     0.020 C 
ENDBRANCH   7  28
BRANCH   4  36
HETATM   36  C6  UNL     1      -8.502  -6.857   1.558  1.00  0.00     0.070 A 
HETATM   37  C7  UNL     1      -7.930  -6.998   0.305  1.00  0.00     0.020 A 
HETATM   38  C8  UNL     1      -6.664  -7.520   0.202  1.00  0.00     0.001 A 
HETATM   39  C9  UNL     1      -5.981  -7.895   1.345  1.00  0.00     0.003 A 
HETATM   40  C10 UNL     1      -6.561  -7.749   2.582  1.00  0.00     0.043 A 
HETATM   41  C11 UNL     1      -7.842  -7.223   2.719  1.00  0.00     0.132 A 
HETATM   42  F1  UNL     1      -8.440  -7.061   3.932  1.00  0.00    -0.205 F 
ENDBRANCH   4  36
TORSDOF 6
ENDMDL
MODEL 2
REMARK VINA RESULT: -7.122332275      0.842      1.116
REMARK  6 active torsions:
REMARK  status: ('A' for Active; 'I' for Inactive)
REMARK    1  A    between atoms: C2_2  and  N1_3 
REMARK    2  A    between atoms: C2_2  and  C20_28 
REMARK    3  A    between atoms: N1_3  and  C3_6 
REMARK       I    between atoms: N2_8  and  C5_9 
REMARK    4  A    between atoms: C5_9  and  C6_11 
REMARK    5  A    between atoms: C13_19  and  C14_20 
REMARK       I    between atoms: C14_20  and  N3_22 
REMARK       I    between atoms: C20_28  and  N4_30 
REMARK    6  A    between atoms: C24_34  and  C25_35 
REMARK       I    between atoms: C25_35  and  N5_37 
ROOT
HETATM    1  C3  UNL     1     -12.920  -7.714   1.223  1.00  0.00     0.219 C 
HETATM    2  C4  UNL     1     -11.990  -6.821   2.028  1.00  0.00     0.160 C 
HETATM    3  N2  UNL     1     -10.710  -7.482   1.972  1.00  0.00    -0.345 N 
HETATM    4  C5  UNL     1      -9.456  -6.827   1.883  1.00  0.00     0.256 C 
HETATM    5  O1  UNL     1      -9.402  -5.548   1.847  1.00  0.00    -0.267 OA
HETATM    6  C12 UNL     1     -11.009  -8.898   2.025  1.00  0.00     0.142 C 
HETATM    7  C13 UNL     1     -12.128  -8.953   0.975  1.00  0.00     0.128 C 
ENDROOT
BRANCH   1   8
HETATM    8  N1  UNL     1     -14.158  -7.947   1.951  1.00  0.00    -0.056 N 
ATOM      9  H12 UNL     1     -14.472  -8.917   1.906  1.00  0.00     0.278 HD
ATOM     10  H11 UNL     1     -14.971  -7.524   1.501  1.00  0.00     0.278 HD
BRANCH   8  11
HETATM   11  C2  UNL     1     -13.955  -7.480   3.303  1.00  0.00     0.273 C 
HETATM   12  C1  UNL     1     -15.017  -6.437   3.574  1.00  0.00     0.050 C 
BRANCH  11  13
HETATM   13  C20 UNL     1     -14.145  -8.607   4.309  1.00  0.00     0.251 C 
HETATM   14  O3  UNL     1     -15.138  -9.325   4.030  1.00  0.00    -0.271 OA
HETATM   15  N4  UNL     1     -13.256  -8.714   5.359  1.00  0.00    -0.337 N 
HETATM   16  C21 UNL     1     -12.078  -7.817   5.521  1.00  0.00     0.127 C 
HETATM   17  C24 UNL     1     -13.090  -9.537   6.504  1.00  0.00     0.179 C 
HETATM   18  C22 UNL     1     -10.992  -8.887   5.703  1.00  0.00     0.022 C 
HETATM   19  C23 UNL     1     -11.733 -10.154   6.154  1.00  0.00     0.037 C 
BRANCH  17  20
HETATM   20  C25 UNL     1     -14.090 -10.470   6.923  1.00  0.00     0.242 C 
HETATM   21  O4  UNL     1     -14.032 -11.710   6.749  1.00  0.00    -0.271 OA
HETATM   22  N5  UNL     1     -15.269 -10.024   7.591  1.00  0.00    -0.350 N 
HETATM   23  C26 UNL     1     -15.492  -8.637   7.849  1.00  0.00     0.126 C 
HETATM   24  C30 UNL     1     -16.247 -10.993   8.029  1.00  0.00     0.126 C 
HETATM   25  C27 UNL     1     -16.948  -8.203   7.743  1.00  0.00     0.020 C 
HETATM   26  C28 UNL     1     -17.779  -9.161   8.555  1.00  0.00     0.003 C 
HETATM   27  C29 UNL     1     -17.663 -10.512   7.835  1.00  0.00     0.020 C 
ENDBRANCH  17  20
ENDBRANCH  11  13
ENDBRANCH   8  11
ENDBRANCH   1   8
BRANCH   7  28
HETATM   28  C14 UNL     1     -12.856 -10.219   1.003  1.00  0.00     0.227 C 
HETATM   29  O2  UNL     1     -12.919 -10.806   2.136  1.00  0.00    -0.273 OA
HETATM   30  N3  UNL     1     -13.491 -10.839  -0.097  1.00  0.00    -0.352 N 
HETATM   31  C15 UNL     1     -14.195 -12.104   0.105  1.00  0.00     0.125 C 
HETATM   32  C19 UNL     1     -13.489 -10.321  -1.442  1.00  0.00     0.125 C 
HETATM   33  C16 UNL     1     -15.334 -12.187  -0.884  1.00  0.00     0.020 C 
HETATM   34  C17 UNL     1     -14.762 -12.324  -2.283  1.00  0.00     0.003 C 
HETATM   35  C18 UNL     1     -13.542 -11.458  -2.445  1.00  0.00     0.020 C 
ENDBRANCH   7  28
BRANCH   4  36
HETATM   36  C6  UNL     1      -8.166  -7.493   1.826  1.00  0.00     0.070 A 
HETATM   37  C7  UNL     1      -7.346  -7.487   2.942  1.00  0.00     0.020 A 
HETATM   38  C8  UNL     1      -6.127  -8.117   2.879  1.00  0.00     0.001 A 
HETATM   39  C9  UNL     1      -5.738  -8.745   1.710  1.00  0.00     0.003 A 
HETATM   40  C10 UNL     1      -6.563  -8.743   0.611  1.00  0.00     0.043 A 
HETATM   41  C11 UNL     1      -7.804  -8.115   0.643  1.00  0.00     0.132 A 
HETATM   42  F1  UNL     1      -8.644  -8.102  -0.428  1.00  0.00    -0.205 F 
ENDBRANCH   4  36
TORSDOF 6
ENDMDL
MODEL 3
REMARK VINA RESULT: -7.080498357      2.084      2.647
REMARK  6 active torsions:
REMARK  status: ('A' for Active; 'I' for Inactive)
REMARK    1  A    between atoms: C2_2  and  N1_3 
REMARK    2  A    between atoms: C2_2  and  C20_28 
REMARK    3  A    between atoms: N1_3  and  C3_6 
REMARK       I    between atoms: N2_8  and  C5_9 
REMARK    4  A    between atoms: C5_9  and  C6_11 
REMARK    5  A    between atoms: C13_19  and  C14_20 
REMARK       I    between atoms: C14_20  and  N3_22 
REMARK       I    between atoms: C20_28  and  N4_30 
REMARK    6  A    between atoms: C24_34  and  C25_35 
REMARK       I    between atoms: C25_35  and  N5_37 
ROOT
HETATM    1  C3  UNL     1     -11.860  -8.016   0.265  1.00  0.00     0.219 C 
HETATM    2  C4  UNL     1     -10.705  -7.243   0.882  1.00  0.00     0.160 C 
HETATM    3  N2  UNL     1      -9.621  -8.191   0.941  1.00  0.00    -0.345 N 
HETATM    4  C5  UNL     1      -8.255  -7.883   0.723  1.00  0.00     0.256 C 
HETATM    5  O1  UNL     1      -7.905  -6.682   0.449  1.00  0.00    -0.267 OA
HETATM    6  C12 UNL     1     -10.240  -9.461   1.258  1.00  0.00     0.142 C 
HETATM    7  C13 UNL     1     -11.393  -9.432   0.245  1.00  0.00     0.128 C 
ENDROOT
BRANCH   1   8
HETATM    8  N1  UNL     1     -13.078  -7.811   1.033  1.00  0.00    -0.056 N 
ATOM      9  H12 UNL     1     -13.436  -8.670   1.452  1.00  0.00     0.278 HD
ATOM     10  H11 UNL     1     -13.888  -7.603   0.447  1.00  0.00     0.278 HD
BRANCH   8  11
HETATM   11  C2  UNL     1     -12.804  -6.779   2.005  1.00  0.00     0.273 C 
HETATM   12  C1  UNL     1     -13.458  -5.512   1.499  1.00  0.00     0.050 C 
BRANCH  11  13
HETATM   13  C20 UNL     1     -13.425  -7.114   3.354  1.00  0.00     0.251 C 
HETATM   14  O3  UNL     1     -14.325  -7.985   3.255  1.00  0.00    -0.271 OA
HETATM   15  N4  UNL     1     -12.958  -6.464   4.478  1.00  0.00    -0.337 N 
HETATM   16  C21 UNL     1     -11.829  -5.492   4.444  1.00  0.00     0.127 C 
HETATM   17  C24 UNL     1     -13.266  -6.426   5.864  1.00  0.00     0.179 C 
HETATM   18  C22 UNL     1     -10.970  -6.093   5.566  1.00  0.00     0.022 C 
HETATM   19  C23 UNL     1     -11.932  -6.940   6.413  1.00  0.00     0.037 C 
BRANCH  17  20
HETATM   20  C25 UNL     1     -14.429  -7.060   6.403  1.00  0.00     0.242 C 
HETATM   21  O4  UNL     1     -14.422  -8.120   7.072  1.00  0.00    -0.271 OA
HETATM   22  N5  UNL     1     -15.724  -6.500   6.200  1.00  0.00    -0.350 N 
HETATM   23  C26 UNL     1     -15.902  -5.302   5.443  1.00  0.00     0.126 C 
HETATM   24  C30 UNL     1     -16.878  -7.148   6.783  1.00  0.00     0.126 C 
HETATM   25  C27 UNL     1     -17.174  -5.267   4.608  1.00  0.00     0.020 C 
HETATM   26  C28 UNL     1     -18.325  -5.654   5.498  1.00  0.00     0.003 C 
HETATM   27  C29 UNL     1     -18.077  -7.123   5.869  1.00  0.00     0.020 C 
ENDBRANCH  17  20
ENDBRANCH  11  13
ENDBRANCH   8  11
ENDBRANCH   1   8
BRANCH   7  28
HETATM   28  C14 UNL     1     -12.396 -10.461   0.513  1.00  0.00     0.227 C 
HETATM   29  O2  UNL     1     -12.492 -10.850   1.726  1.00  0.00    -0.273 OA
HETATM   30  N3  UNL     1     -13.258 -11.051  -0.439  1.00  0.00    -0.352 N 
HETATM   31  C15 UNL     1     -14.221 -12.061   0.000  1.00  0.00     0.125 C 
HETATM   32  C19 UNL     1     -13.258 -10.743  -1.847  1.00  0.00     0.125 C 
HETATM   33  C16 UNL     1     -15.433 -11.995  -0.899  1.00  0.00     0.020 C 
HETATM   34  C17 UNL     1     -15.041 -12.465  -2.289  1.00  0.00     0.003 C 
HETATM   35  C18 UNL     1     -13.671 -11.960  -2.652  1.00  0.00     0.020 C 
ENDBRANCH   7  28
BRANCH   4  36
HETATM   36  C6  UNL     1      -7.162  -8.837   0.781  1.00  0.00     0.070 A 
HETATM   37  C7  UNL     1      -6.962  -9.711  -0.275  1.00  0.00     0.020 A 
HETATM   38  C8  UNL     1      -5.927 -10.612  -0.211  1.00  0.00     0.001 A 
HETATM   39  C9  UNL     1      -5.104 -10.634   0.900  1.00  0.00     0.003 A 
HETATM   40  C10 UNL     1      -5.313  -9.761   1.939  1.00  0.00     0.043 A 
HETATM   41  C11 UNL     1      -6.352  -8.836   1.905  1.00  0.00     0.132 A 
HETATM   42  F1  UNL     1      -6.581  -7.955   2.917  1.00  0.00    -0.205 F 
ENDBRANCH   4  36
TORSDOF 6
ENDMDL
MODEL 4
REMARK VINA RESULT: -7.041241281      2.743      3.461
REMARK  6 active torsions:
REMARK  status: ('A' for Active; 'I' for Inactive)
REMARK    1  A    between atoms: C2_2  and  N1_3 
REMARK    2  A    between atoms: C2_2  and  C20_28 
REMARK    3  A    between atoms: N1_3  and  C3_6 
REMARK       I    between atoms: N2_8  and  C5_9 
REMARK    4  A    between atoms: C5_9  and  C6_11 
REMARK    5  A    between atoms: C13_19  and  C14_20 
REMARK       I    between atoms: C14_20  and  N3_22 
REMARK       I    between atoms: C20_28  and  N4_30 
REMARK    6  A    between atoms: C24_34  and  C25_35 
REMARK       I    between atoms: C25_35  and  N5_37 
ROOT
HETATM    1  C3  UNL     1     -12.114  -7.973   1.549  1.00  0.00     0.219 C 
HETATM    2  C4  UNL     1     -10.923  -7.371   2.278  1.00  0.00     0.160 C 
HETATM    3  N2  UNL     1      -9.825  -8.255   1.974  1.00  0.00    -0.345 N 
HETATM    4  C5  UNL     1      -8.485  -7.846   1.754  1.00  0.00     0.256 C 
HETATM    5  O1  UNL     1      -8.175  -6.605   1.819  1.00  0.00    -0.267 OA
HETATM    6  C12 UNL     1     -10.399  -9.583   1.949  1.00  0.00     0.142 C 
HETATM    7  C13 UNL     1     -11.632  -9.303   1.079  1.00  0.00     0.128 C 
ENDROOT
BRANCH   1   8
HETATM    8  N1  UNL     1     -13.268  -8.045   2.432  1.00  0.00    -0.056 N 
ATOM      9  H12 UNL     1     -13.100  -8.616   3.262  1.00  0.00     0.278 HD
ATOM     10  H11 UNL     1     -14.033  -8.598   2.044  1.00  0.00     0.278 HD
BRANCH   8  11
HETATM   11  C2  UNL     1     -13.653  -6.689   2.747  1.00  0.00     0.273 C 
HETATM   12  C1  UNL     1     -14.479  -6.185   1.584  1.00  0.00     0.050 C 
BRANCH  11  13
HETATM   13  C20 UNL     1     -14.527  -6.640   3.993  1.00  0.00     0.251 C 
HETATM   14  O3  UNL     1     -15.292  -7.634   4.071  1.00  0.00    -0.271 OA
HETATM   15  N4  UNL     1     -14.392  -5.571   4.854  1.00  0.00    -0.337 N 
HETATM   16  C21 UNL     1     -13.385  -4.491   4.657  1.00  0.00     0.127 C 
HETATM   17  C24 UNL     1     -15.007  -5.110   6.049  1.00  0.00     0.179 C 
HETATM   18  C22 UNL     1     -12.748  -4.507   6.054  1.00  0.00     0.022 C 
HETATM   19  C23 UNL     1     -13.789  -5.163   6.974  1.00  0.00     0.037 C 
BRANCH  17  20
HETATM   20  C25 UNL     1     -16.194  -5.710   6.574  1.00  0.00     0.242 C 
HETATM   21  O4  UNL     1     -16.218  -6.705   7.337  1.00  0.00    -0.271 OA
HETATM   22  N5  UNL     1     -17.481  -5.192   6.243  1.00  0.00    -0.350 N 
HETATM   23  C26 UNL     1     -17.624  -4.070   5.370  1.00  0.00     0.126 C 
HETATM   24  C30 UNL     1     -18.661  -5.801   6.814  1.00  0.00     0.126 C 
HETATM   25  C27 UNL     1     -18.843  -4.132   4.461  1.00  0.00     0.020 C 
HETATM   26  C28 UNL     1     -20.043  -4.454   5.312  1.00  0.00     0.003 C 
HETATM   27  C29 UNL     1     -19.803  -5.878   5.832  1.00  0.00     0.020 C 
ENDBRANCH  17  20
ENDBRANCH  11  13
ENDBRANCH   8  11
ENDBRANCH   1   8
BRANCH   7  28
HETATM   28  C14 UNL     1     -12.596 -10.402   1.108  1.00  0.00     0.227 C 
HETATM   29  O2  UNL     1     -12.816 -10.927   2.251  1.00  0.00    -0.273 OA
HETATM   30  N3  UNL     1     -13.297 -10.922  -0.003  1.00  0.00    -0.352 N 
HETATM   31  C15 UNL     1     -14.244 -12.019   0.201  1.00  0.00     0.125 C 
HETATM   32  C19 UNL     1     -13.143 -10.461  -1.360  1.00  0.00     0.125 C 
HETATM   33  C16 UNL     1     -15.338 -11.911  -0.835  1.00  0.00     0.020 C 
HETATM   34  C17 UNL     1     -14.751 -12.205  -2.204  1.00  0.00     0.003 C 
HETATM   35  C18 UNL     1     -13.379 -11.599  -2.334  1.00  0.00     0.020 C 
ENDBRANCH   7  28
BRANCH   4  36
HETATM   36  C6  UNL     1      -7.379  -8.735   1.446  1.00  0.00     0.070 A 
HETATM   37  C7  UNL     1      -6.473  -9.066   2.441  1.00  0.00     0.020 A 
HETATM   38  C8  UNL     1      -5.428  -9.905   2.141  1.00  0.00     0.001 A 
HETATM   39  C9  UNL     1      -5.296 -10.407   0.859  1.00  0.00     0.003 A 
HETATM   40  C10 UNL     1      -6.203 -10.071  -0.117  1.00  0.00     0.043 A 
HETATM   41  C11 UNL     1      -7.272  -9.223   0.155  1.00  0.00     0.132 A 
HETATM   42  F1  UNL     1      -8.190  -8.878  -0.790  1.00  0.00    -0.205 F 
ENDBRANCH   4  36
TORSDOF 6
ENDMDL
MODEL 5
REMARK VINA RESULT: -6.999674726      1.754      2.244
REMARK  6 active torsions:
REMARK  status: ('A' for Active; 'I' for Inactive)
REMARK    1  A    between atoms: C2_2  and  N1_3 
REMARK    2  A    between atoms: C2_2  and  C20_28 
REMARK    3  A    between atoms: N1_3  and  C3_6 
REMARK       I    between atoms: N2_8  and  C5_9 
REMARK    4  A    between atoms: C5_9  and  C6_11 
REMARK    5  A    between atoms: C13_19  and  C14_20 
REMARK       I    between atoms: C14_20  and  N3_22 
REMARK       I    between atoms: C20_28  and  N4_30 
REMARK    6  A    between atoms: C24_34  and  C25_35 
REMARK       I    between atoms: C25_35  and  N5_37 
ROOT
HETATM    1  C3  UNL     1     -11.668  -8.152   0.103  1.00  0.00     0.219 C 
HETATM    2  C4  UNL     1     -10.651  -7.237   0.766  1.00  0.00     0.160 C 
HETATM    3  N2  UNL     1      -9.548  -8.101   1.105  1.00  0.00    -0.345 N 
HETATM    4  C5  UNL     1      -8.178  -7.740   1.040  1.00  0.00     0.256 C 
HETATM    5  O1  UNL     1      -7.843  -6.565   0.658  1.00  0.00    -0.267 OA
HETATM    6  C12 UNL     1     -10.153  -9.355   1.500  1.00  0.00     0.142 C 
HETATM    7  C13 UNL     1     -11.144  -9.528   0.341  1.00  0.00     0.128 C 
ENDROOT
BRANCH   1   8
HETATM    8  N1  UNL     1     -12.994  -7.925   0.657  1.00  0.00    -0.056 N 
ATOM      9  H12 UNL     1     -13.522  -8.788   0.795  1.00  0.00     0.278 HD
ATOM     10  H11 UNL     1     -13.632  -7.484  -0.005  1.00  0.00     0.278 HD
BRANCH   8  11
HETATM   11  C2  UNL     1     -12.826  -7.165   1.874  1.00  0.00     0.273 C 
HETATM   12  C1  UNL     1     -13.707  -5.940   1.752  1.00  0.00     0.050 C 
BRANCH  11  13
HETATM   13  C20 UNL     1     -13.297  -7.956   3.087  1.00  0.00     0.251 C 
HETATM   14  O3  UNL     1     -14.281  -8.689   2.818  1.00  0.00    -0.271 OA
HETATM   15  N4  UNL     1     -12.629  -7.793   4.283  1.00  0.00    -0.337 N 
HETATM   16  C21 UNL     1     -11.426  -6.926   4.431  1.00  0.00     0.127 C 
HETATM   17  C24 UNL     1     -12.749  -8.264   5.617  1.00  0.00     0.179 C 
HETATM   18  C22 UNL     1     -10.490  -7.937   5.108  1.00  0.00     0.022 C 
HETATM   19  C23 UNL     1     -11.411  -9.000   5.727  1.00  0.00     0.037 C 
BRANCH  17  20
HETATM   20  C25 UNL     1     -13.888  -9.007   6.062  1.00  0.00     0.242 C 
HETATM   21  O4  UNL     1     -13.869 -10.214   6.400  1.00  0.00    -0.271 OA
HETATM   22  N5  UNL     1     -15.171  -8.391   6.149  1.00  0.00    -0.350 N 
HETATM   23  C26 UNL     1     -15.361  -7.023   5.783  1.00  0.00     0.126 C 
HETATM   24  C30 UNL     1     -16.297  -9.159   6.631  1.00  0.00     0.126 C 
HETATM   25  C27 UNL     1     -16.698  -6.730   5.116  1.00  0.00     0.020 C 
HETATM   26  C28 UNL     1     -17.784  -7.336   5.965  1.00  0.00     0.003 C 
HETATM   27  C29 UNL     1     -17.568  -8.854   5.879  1.00  0.00     0.020 C 
ENDBRANCH  17  20
ENDBRANCH  11  13
ENDBRANCH   8  11
ENDBRANCH   1   8
BRANCH   7  28
HETATM   28  C14 UNL     1     -12.131 -10.573   0.603  1.00  0.00     0.227 C 
HETATM   29  O2  UNL     1     -12.156 -11.038   1.792  1.00  0.00    -0.273 OA
HETATM   30  N3  UNL     1     -13.050 -11.103  -0.331  1.00  0.00    -0.352 N 
HETATM   31  C15 UNL     1     -13.987 -12.140   0.099  1.00  0.00     0.125 C 
HETATM   32  C19 UNL     1     -13.132 -10.707  -1.714  1.00  0.00     0.125 C 
HETATM   33  C16 UNL     1     -15.250 -12.020  -0.721  1.00  0.00     0.020 C 
HETATM   34  C17 UNL     1     -14.942 -12.401  -2.158  1.00  0.00     0.003 C 
HETATM   35  C18 UNL     1     -13.595 -11.871  -2.570  1.00  0.00     0.020 C 
ENDBRANCH   7  28
BRANCH   4  36
HETATM   36  C6  UNL     1      -7.067  -8.611   1.380  1.00  0.00     0.070 A 
HETATM   37  C7  UNL     1      -6.517  -8.551   2.650  1.00  0.00     0.020 A 
HETATM   38  C8  UNL     1      -5.464  -9.376   2.963  1.00  0.00     0.001 A 
HETATM   39  C9  UNL     1      -4.971 -10.250   2.011  1.00  0.00     0.003 A 
HETATM   40  C10 UNL     1      -5.527 -10.299   0.756  1.00  0.00     0.043 A 
HETATM   41  C11 UNL     1      -6.594  -9.477   0.408  1.00  0.00     0.132 A 
HETATM   42  F1  UNL     1      -7.169  -9.507  -0.826  1.00  0.00    -0.205 F 
ENDBRANCH   4  36
TORSDOF 6
ENDMDL
