MODEL 1
REMARK VINA RESULT: -5.733335090      0.000      0.000
REMARK  3 active torsions:
REMARK  status: ('A' for Active; 'I' for Inactive)
REMARK    1  A    between atoms: C1_2  and  C2_3 
REMARK    2  A    between atoms: C2_3  and  O2_4 
REMARK    3  A    between atoms: C13_16  and  C14_17 
ROOT
HETATM    1  C2  UNL     1      -3.618   2.449  10.937  1.00  0.00     0.111 C 
HETATM    2  C3  UNL     1      -5.058   2.818  10.967  1.00  0.00     0.050 C 
HETATM    3  C4  UNL     1      -5.466   3.038   9.504  1.00  0.00    -0.006 C 
HETATM    4  C5  UNL     1      -5.830   1.664   8.981  1.00  0.00     0.005 C 
HETATM    5  C6  UNL     1      -5.844   1.562   7.522  1.00  0.00     0.007 C 
HETATM    6  C7  UNL     1      -4.854   2.311   6.712  1.00  0.00     0.009 C 
HETATM    7  C8  UNL     1      -5.456   2.561   5.361  1.00  0.00    -0.005 A 
HETATM    8  C9  UNL     1      -4.707   2.753   4.124  1.00  0.00     0.010 A 
HETATM    9  C10 UNL     1      -5.472   3.896   4.815  1.00  0.00    -0.010 A 
HETATM   10  C11 UNL     1      -4.609   4.920   5.485  1.00  0.00     0.006 C 
HETATM   11  C12 UNL     1      -4.814   4.768   6.985  1.00  0.00     0.022 C 
HETATM   12  C13 UNL     1      -4.185   3.458   7.366  1.00  0.00     0.056 C 
HETATM   13  C15 UNL     1      -4.177   3.404   8.873  1.00  0.00     0.012 C 
HETATM   14  C16 UNL     1      -3.208   2.431   9.458  1.00  0.00     0.051 C 
ENDROOT
BRANCH   1  15
HETATM   15  C1  UNL     1      -3.296   1.138  11.537  1.00  0.00     0.269 C 
HETATM   16  O1  UNL     1      -2.884   1.048  12.682  1.00  0.00    -0.304 OA
ENDBRANCH   1  15
BRANCH   1  17
HETATM   17  O2  UNL     1      -2.899   3.437  11.607  1.00  0.00    -0.383 OA
ATOM     18  H2  UNL     1      -3.469   3.847  12.247  1.00  0.00     0.211 HD
ENDBRANCH   1  17
BRANCH  12  19
HETATM   19  C14 UNL     1      -2.725   3.544   7.019  1.00  0.00     0.182 C 
HETATM   20  O3  UNL     1      -2.107   2.663   6.405  1.00  0.00    -0.647 OA
HETATM   21  O4  UNL     1      -2.064   4.683   7.423  1.00  0.00    -0.647 OA
ENDBRANCH  12  19
TORSDOF 3
ENDMDL
MODEL 2
REMARK VINA RESULT: -5.710579373      2.149      2.918
REMARK  3 active torsions:
REMARK  status: ('A' for Active; 'I' for Inactive)
REMARK    1  A    between atoms: C1_2  and  C2_3 
REMARK    2  A    between atoms: C2_3  and  O2_4 
REMARK    3  A    between atoms: C13_16  and  C14_17 
ROOT
HETATM    1  C2  UNL     1      -2.929   2.202   8.470  1.00  0.00     0.111 C 
HETATM    2  C3  UNL     1      -3.241   3.493   9.137  1.00  0.00     0.050 C 
HETATM    3  C4  UNL     1      -4.487   4.043   8.429  1.00  0.00    -0.006 C 
HETATM    4  C5  UNL     1      -5.662   3.396   9.132  1.00  0.00     0.005 C 
HETATM    5  C6  UNL     1      -6.912   3.439   8.373  1.00  0.00     0.007 C 
HETATM    6  C7  UNL     1      -6.895   3.296   6.898  1.00  0.00     0.009 C 
HETATM    7  C8  UNL     1      -8.103   3.998   6.353  1.00  0.00    -0.005 A 
HETATM    8  C9  UNL     1      -8.771   3.678   5.096  1.00  0.00     0.010 A 
HETATM    9  C10 UNL     1      -7.956   4.968   5.294  1.00  0.00    -0.010 A 
HETATM   10  C11 UNL     1      -6.643   5.003   4.575  1.00  0.00     0.006 C 
HETATM   11  C12 UNL     1      -5.550   4.940   5.632  1.00  0.00     0.022 C 
HETATM   12  C13 UNL     1      -5.608   3.558   6.216  1.00  0.00     0.056 C 
HETATM   13  C15 UNL     1      -4.390   3.408   7.094  1.00  0.00     0.012 C 
HETATM   14  C16 UNL     1      -4.009   1.998   7.399  1.00  0.00     0.051 C 
ENDROOT
BRANCH   1  15
HETATM   15  C1  UNL     1      -2.913   1.025   9.362  1.00  0.00     0.269 C 
HETATM   16  O1  UNL     1      -2.406  -0.030   9.013  1.00  0.00    -0.304 OA
ENDBRANCH   1  15
BRANCH   1  17
HETATM   17  O2  UNL     1      -1.682   2.316   7.857  1.00  0.00    -0.383 OA
ATOM     18  H2  UNL     1      -1.811   2.444   6.925  1.00  0.00     0.211 HD
ENDBRANCH   1  17
BRANCH  12  19
HETATM   19  C14 UNL     1      -5.344   2.588   5.098  1.00  0.00     0.182 C 
HETATM   20  O3  UNL     1      -6.080   1.628   4.827  1.00  0.00    -0.647 OA
HETATM   21  O4  UNL     1      -4.208   2.806   4.351  1.00  0.00    -0.647 OA
ENDBRANCH  12  19
TORSDOF 3
ENDMDL
MODEL 3
REMARK VINA RESULT: -5.679247059      2.118      5.414
REMARK  3 active torsions:
REMARK  status: ('A' for Active; 'I' for Inactive)
REMARK    1  A    between atoms: C1_2  and  C2_3 
REMARK    2  A    between atoms: C2_3  and  O2_4 
REMARK    3  A    between atoms: C13_16  and  C14_17 
ROOT
HETATM    1  C2  UNL     1      -5.079   2.596   4.315  1.00  0.00     0.111 C 
HETATM    2  C3  UNL     1      -5.815   3.884   4.409  1.00  0.00     0.050 C 
HETATM    3  C4  UNL     1      -5.302   4.570   5.683  1.00  0.00    -0.006 C 
HETATM    4  C5  UNL     1      -4.053   5.315   5.259  1.00  0.00     0.005 C 
HETATM    5  C6  UNL     1      -3.174   5.689   6.366  1.00  0.00     0.007 C 
HETATM    6  C7  UNL     1      -3.013   4.786   7.530  1.00  0.00     0.009 C 
HETATM    7  C8  UNL     1      -2.643   5.624   8.717  1.00  0.00    -0.005 A 
HETATM    8  C9  UNL     1      -1.886   5.161   9.876  1.00  0.00     0.010 A 
HETATM    9  C10 UNL     1      -3.387   5.498   9.948  1.00  0.00    -0.010 A 
HETATM   10  C11 UNL     1      -4.294   4.314  10.081  1.00  0.00     0.006 C 
HETATM   11  C12 UNL     1      -5.064   4.190   8.775  1.00  0.00     0.022 C 
HETATM   12  C13 UNL     1      -4.066   3.767   7.735  1.00  0.00     0.056 C 
HETATM   13  C15 UNL     1      -4.852   3.417   6.496  1.00  0.00     0.012 C 
HETATM   14  C16 UNL     1      -4.126   2.555   5.518  1.00  0.00     0.051 C 
ENDROOT
BRANCH   1  15
HETATM   15  C1  UNL     1      -4.293   2.414   3.078  1.00  0.00     0.269 C 
HETATM   16  O1  UNL     1      -3.076   2.315   3.108  1.00  0.00    -0.304 OA
ENDBRANCH   1  15
BRANCH   1  17
HETATM   17  O2  UNL     1      -6.002   1.557   4.417  1.00  0.00    -0.383 OA
ATOM     18  H2  UNL     1      -6.877   1.917   4.337  1.00  0.00     0.211 HD
ENDBRANCH   1  17
BRANCH  12  19
HETATM   19  C14 UNL     1      -3.503   2.441   8.168  1.00  0.00     0.182 C 
HETATM   20  O3  UNL     1      -2.296   2.165   8.155  1.00  0.00    -0.647 OA
HETATM   21  O4  UNL     1      -4.412   1.499   8.597  1.00  0.00    -0.647 OA
ENDBRANCH  12  19
TORSDOF 3
ENDMDL
MODEL 4
REMARK VINA RESULT: -5.606631515      2.476      4.265
REMARK  3 active torsions:
REMARK  status: ('A' for Active; 'I' for Inactive)
REMARK    1  A    between atoms: C1_2  and  C2_3 
REMARK    2  A    between atoms: C2_3  and  O2_4 
REMARK    3  A    between atoms: C13_16  and  C14_17 
ROOT
HETATM    1  C2  UNL     1      -2.869   4.348   7.781  1.00  0.00     0.111 C 
HETATM    2  C3  UNL     1      -2.441   4.176   6.368  1.00  0.00     0.050 C 
HETATM    3  C4  UNL     1      -3.722   3.884   5.573  1.00  0.00    -0.006 C 
HETATM    4  C5  UNL     1      -4.297   5.243   5.232  1.00  0.00     0.005 C 
HETATM    5  C6  UNL     1      -5.709   5.219   4.852  1.00  0.00     0.007 C 
HETATM    6  C7  UNL     1      -6.644   4.279   5.514  1.00  0.00     0.009 C 
HETATM    7  C8  UNL     1      -7.765   3.993   4.559  1.00  0.00    -0.005 A 
HETATM    8  C9  UNL     1      -9.118   3.596   4.937  1.00  0.00     0.010 A 
HETATM    9  C10 UNL     1      -8.129   2.629   4.262  1.00  0.00    -0.010 A 
HETATM   10  C11 UNL     1      -7.577   1.563   5.157  1.00  0.00     0.006 C 
HETATM   11  C12 UNL     1      -6.101   1.871   5.365  1.00  0.00     0.022 C 
HETATM   12  C13 UNL     1      -6.045   3.115   6.205  1.00  0.00     0.056 C 
HETATM   13  C15 UNL     1      -4.603   3.299   6.609  1.00  0.00     0.012 C 
HETATM   14  C16 UNL     1      -4.395   4.183   7.793  1.00  0.00     0.051 C 
ENDROOT
BRANCH   1  15
HETATM   15  C1  UNL     1      -2.526   5.653   8.383  1.00  0.00     0.269 C 
HETATM   16  O1  UNL     1      -1.695   5.743   9.273  1.00  0.00    -0.304 OA
ENDBRANCH   1  15
BRANCH   1  17
HETATM   17  O2  UNL     1      -2.285   3.337   8.541  1.00  0.00    -0.383 OA
ATOM     18  H2  UNL     1      -2.457   3.509   9.459  1.00  0.00     0.211 HD
ENDBRANCH   1  17
BRANCH  12  19
HETATM   19  C14 UNL     1      -6.729   2.808   7.507  1.00  0.00     0.182 C 
HETATM   20  O3  UNL     1      -7.591   3.533   8.024  1.00  0.00    -0.647 OA
HETATM   21  O4  UNL     1      -6.351   1.644   8.140  1.00  0.00    -0.647 OA
ENDBRANCH  12  19
TORSDOF 3
ENDMDL
MODEL 5
REMARK VINA RESULT: -5.401206486      1.111      1.167
REMARK  3 active torsions:
REMARK  status: ('A' for Active; 'I' for Inactive)
REMARK    1  A    between atoms: C1_2  and  C2_3 
REMARK    2  A    between atoms: C2_3  and  O2_4 
REMARK    3  A    between atoms: C13_16  and  C14_17 
ROOT
HETATM    1  C2  UNL     1      -3.457   1.366  11.357  1.00  0.00     0.111 C 
HETATM    2  C3  UNL     1      -4.930   1.492  11.514  1.00  0.00     0.050 C 
HETATM    3  C4  UNL     1      -5.470   1.867  10.127  1.00  0.00    -0.006 C 
HETATM    4  C5  UNL     1      -5.660   0.549   9.404  1.00  0.00     0.005 C 
HETATM    5  C6  UNL     1      -5.763   0.671   7.951  1.00  0.00     0.007 C 
HETATM    6  C7  UNL     1      -4.956   1.683   7.228  1.00  0.00     0.009 C 
HETATM    7  C8  UNL     1      -5.684   2.039   5.966  1.00  0.00    -0.005 A 
HETATM    8  C9  UNL     1      -5.062   2.536   4.743  1.00  0.00     0.010 A 
HETATM    9  C10 UNL     1      -5.939   3.423   5.646  1.00  0.00    -0.010 A 
HETATM   10  C11 UNL     1      -5.194   4.456   6.433  1.00  0.00     0.006 C 
HETATM   11  C12 UNL     1      -5.266   4.044   7.896  1.00  0.00     0.022 C 
HETATM   12  C13 UNL     1      -4.422   2.808   8.029  1.00  0.00     0.056 C 
HETATM   13  C15 UNL     1      -4.298   2.525   9.505  1.00  0.00     0.012 C 
HETATM   14  C16 UNL     1      -3.155   1.641   9.878  1.00  0.00     0.051 C 
ENDROOT
BRANCH   1  15
HETATM   15  C1  UNL     1      -2.900   0.047  11.720  1.00  0.00     0.269 C 
HETATM   16  O1  UNL     1      -2.109  -0.531  10.991  1.00  0.00    -0.304 OA
ENDBRANCH   1  15
BRANCH   1  17
HETATM   17  O2  UNL     1      -2.848   2.341  12.145  1.00  0.00    -0.383 OA
ATOM     18  H2  UNL     1      -1.935   2.408  11.895  1.00  0.00     0.211 HD
ENDBRANCH   1  17
BRANCH  12  19
HETATM   19  C14 UNL     1      -3.020   3.178   7.632  1.00  0.00     0.182 C 
HETATM   20  O3  UNL     1      -2.324   2.515   6.851  1.00  0.00    -0.647 OA
HETATM   21  O4  UNL     1      -2.507   4.328   8.191  1.00  0.00    -0.647 OA
ENDBRANCH  12  19
TORSDOF 3
ENDMDL
