MODEL 1
REMARK VINA RESULT: -8.238874961      0.000      0.000
REMARK  7 active torsions:
REMARK  status: ('A' for Active; 'I' for Inactive)
REMARK    1  A    between atoms: N1_1  and  C1_4 
REMARK    2  A    between atoms: C2_7  and  S1_8 
REMARK    3  A    between atoms: S1_8  and  N3_11 
REMARK    4  A    between atoms: C3_14  and  C4_15 
REMARK    5  A    between atoms: C8_24  and  C9_25 
REMARK    6  A    between atoms: C9_25  and  N7_26 
REMARK    7  A    between atoms: C9_25  and  N8_30 
ROOT
HETATM    1  C1  UNL     1      71.725   7.061   0.119  1.00  0.00     0.678 A 
HETATM    2  N2  UNL     1      70.419   6.798   0.072  1.00  0.00    -0.178 N 
ATOM      3  H2  UNL     1      69.858   7.279  -0.631  1.00  0.00     0.185 HD
HETATM    4  C2  UNL     1      69.788   5.923   0.908  1.00  0.00     0.181 A 
HETATM    5  C6  UNL     1      70.557   5.279   1.848  1.00  0.00     0.050 A 
HETATM    6  C7  UNL     1      69.960   4.381   2.700  1.00  0.00     0.030 A 
HETATM    7  C8  UNL     1      70.794   3.755   3.625  1.00  0.00     0.015 A 
HETATM    8  C10 UNL     1      72.147   4.009   3.696  1.00  0.00     0.100 A 
HETATM    9  N9  UNL     1      72.676   4.897   2.836  1.00  0.00    -0.350 N 
ATOM     10  H9  UNL     1      73.676   5.091   2.883  1.00  0.00     0.166 HD
HETATM   11  C11 UNL     1      71.936   5.535   1.922  1.00  0.00     0.134 A 
HETATM   12  N10 UNL     1      72.440   6.413   1.050  1.00  0.00    -0.176 N 
ATOM     13  H10 UNL     1      73.441   6.605   1.096  1.00  0.00     0.186 HD
ENDROOT
BRANCH   4  14
HETATM   14  S1  UNL     1      68.102   5.599   0.821  1.00  0.00     0.313 S 
HETATM   15  O1  UNL     1      67.590   5.897   2.257  1.00  0.00    -0.196 OA
HETATM   16  O2  UNL     1      67.688   4.198   0.624  1.00  0.00    -0.196 OA
BRANCH  14  17
HETATM   17  N3  UNL     1      67.216   6.743  -0.138  1.00  0.00    -0.107 N 
HETATM   18  N4  UNL     1      67.406   7.058  -1.407  1.00  0.00    -0.260 N 
HETATM   19  C3  UNL     1      66.530   7.987  -1.821  1.00  0.00     0.185 A 
ATOM     20  H4  UNL     1      68.129   6.647  -1.997  1.00  0.00     0.190 HD
HETATM   21  C5  UNL     1      65.746   8.266  -0.739  1.00  0.00     0.295 A 
HETATM   22  O4  UNL     1      64.805   9.099  -0.755  1.00  0.00    -0.264 OA
HETATM   23  N6  UNL     1      66.197   7.490   0.255  1.00  0.00    -0.233 N 
ATOM     24  H6  UNL     1      65.804   7.477   1.196  1.00  0.00     0.193 HD
BRANCH  19  25
HETATM   25  C4  UNL     1      66.423   8.586  -3.147  1.00  0.00     0.288 C 
HETATM   26  N5  UNL     1      66.637   9.969  -3.370  1.00  0.00    -0.056 NA
HETATM   27  O3  UNL     1      66.133   7.871  -4.137  1.00  0.00    -0.269 OA
ENDBRANCH  19  25
ENDBRANCH  14  17
ENDBRANCH   4  14
BRANCH   1  28
HETATM   28  N1  UNL     1      72.291   7.911  -0.706  1.00  0.00    -0.234 N 
ATOM     29  H12 UNL     1      72.008   8.891  -0.734  1.00  0.00     0.174 HD
ATOM     30  H11 UNL     1      73.034   7.629  -1.347  1.00  0.00     0.174 HD
ENDBRANCH   1  28
BRANCH   7  31
HETATM   31  C9  UNL     1      70.201   2.781   4.564  1.00  0.00     0.412 C 
BRANCH  31  32
HETATM   32  N7  UNL     1      69.109   3.449   5.233  1.00  0.00    -0.046 N 
ATOM     33  H73 UNL     1      69.196   3.439   6.249  1.00  0.00     0.277 HD
ATOM     34  H72 UNL     1      69.123   4.462   5.111  1.00  0.00     0.277 HD
ATOM     35  H71 UNL     1      68.246   3.018   4.900  1.00  0.00     0.277 HD
ENDBRANCH  31  32
BRANCH  31  36
HETATM   36  N8  UNL     1      69.755   1.601   3.852  1.00  0.00    -0.046 N 
ATOM     37  H83 UNL     1      69.742   1.748   2.843  1.00  0.00     0.277 HD
ATOM     38  H82 UNL     1      70.448   0.852   3.887  1.00  0.00     0.277 HD
ATOM     39  H81 UNL     1      68.848   1.295   4.203  1.00  0.00     0.277 HD
ENDBRANCH  31  36
ENDBRANCH   7  31
TORSDOF 7
ENDMDL
MODEL 2
REMARK VINA RESULT: -8.169254752      2.919      3.353
REMARK  7 active torsions:
REMARK  status: ('A' for Active; 'I' for Inactive)
REMARK    1  A    between atoms: N1_1  and  C1_4 
REMARK    2  A    between atoms: C2_7  and  S1_8 
REMARK    3  A    between atoms: S1_8  and  N3_11 
REMARK    4  A    between atoms: C3_14  and  C4_15 
REMARK    5  A    between atoms: C8_24  and  C9_25 
REMARK    6  A    between atoms: C9_25  and  N7_26 
REMARK    7  A    between atoms: C9_25  and  N8_30 
ROOT
HETATM    1  C1  UNL     1      70.484   7.084  -0.083  1.00  0.00     0.678 A 
HETATM    2  N2  UNL     1      69.222   7.513  -0.042  1.00  0.00    -0.178 N 
ATOM      3  H2  UNL     1      68.991   8.372  -0.542  1.00  0.00     0.185 HD
HETATM    4  C2  UNL     1      68.221   6.871   0.626  1.00  0.00     0.181 A 
HETATM    5  C6  UNL     1      68.545   5.712   1.291  1.00  0.00     0.050 A 
HETATM    6  C7  UNL     1      67.562   5.029   1.966  1.00  0.00     0.030 A 
HETATM    7  C8  UNL     1      67.952   3.858   2.614  1.00  0.00     0.015 A 
HETATM    8  C10 UNL     1      69.249   3.394   2.590  1.00  0.00     0.100 A 
HETATM    9  N9  UNL     1      70.169   4.103   1.913  1.00  0.00    -0.350 N 
ATOM     10  H9  UNL     1      71.131   3.766   1.890  1.00  0.00     0.166 HD
HETATM   11  C11 UNL     1      69.866   5.235   1.267  1.00  0.00     0.134 A 
HETATM   12  N10 UNL     1      70.760   5.952   0.579  1.00  0.00    -0.176 N 
ATOM     13  H10 UNL     1      71.722   5.613   0.556  1.00  0.00     0.186 HD
ENDROOT
BRANCH   4  14
HETATM   14  S1  UNL     1      66.600   7.444   0.657  1.00  0.00     0.313 S 
HETATM   15  O1  UNL     1      66.595   8.604  -0.375  1.00  0.00    -0.196 OA
HETATM   16  O2  UNL     1      66.140   8.115   1.887  1.00  0.00    -0.196 OA
BRANCH  14  17
HETATM   17  N3  UNL     1      65.450   6.333  -0.019  1.00  0.00    -0.107 N 
HETATM   18  N4  UNL     1      65.354   5.928  -1.273  1.00  0.00    -0.260 N 
HETATM   19  C3  UNL     1      64.340   5.063  -1.435  1.00  0.00     0.185 A 
ATOM     20  H4  UNL     1      65.972   6.235  -2.024  1.00  0.00     0.190 HD
HETATM   21  C5  UNL     1      63.771   4.923  -0.202  1.00  0.00     0.295 A 
HETATM   22  O4  UNL     1      62.783   4.182   0.031  1.00  0.00    -0.264 OA
HETATM   23  N6  UNL     1      64.476   5.709   0.622  1.00  0.00    -0.233 N 
ATOM     24  H6  UNL     1      64.285   5.813   1.619  1.00  0.00     0.193 HD
BRANCH  19  25
HETATM   25  C4  UNL     1      63.918   4.401  -2.664  1.00  0.00     0.288 C 
HETATM   26  N5  UNL     1      63.304   5.105  -3.729  1.00  0.00    -0.056 NA
HETATM   27  O3  UNL     1      64.096   3.166  -2.805  1.00  0.00    -0.269 OA
ENDBRANCH  19  25
ENDBRANCH  14  17
ENDBRANCH   4  14
BRANCH   1  28
HETATM   28  N1  UNL     1      71.416   7.735  -0.739  1.00  0.00    -0.234 N 
ATOM     29  H12 UNL     1      71.187   8.525  -1.343  1.00  0.00     0.174 HD
ATOM     30  H11 UNL     1      72.402   7.479  -0.672  1.00  0.00     0.174 HD
ENDBRANCH   1  28
BRANCH   7  31
HETATM   31  C9  UNL     1      66.932   3.089   3.354  1.00  0.00     0.412 C 
BRANCH  31  32
HETATM   32  N7  UNL     1      66.856   3.652   4.682  1.00  0.00    -0.046 N 
ATOM     33  H73 UNL     1      67.194   4.613   4.729  1.00  0.00     0.277 HD
ATOM     34  H72 UNL     1      65.900   3.836   4.985  1.00  0.00     0.277 HD
ATOM     35  H71 UNL     1      67.358   3.019   5.304  1.00  0.00     0.277 HD
ENDBRANCH  31  32
BRANCH  31  36
HETATM   36  N8  UNL     1      65.657   3.151   2.669  1.00  0.00    -0.046 N 
ATOM     37  H83 UNL     1      65.727   3.646   1.781  1.00  0.00     0.277 HD
ATOM     38  H82 UNL     1      65.372   2.239   2.312  1.00  0.00     0.277 HD
ATOM     39  H81 UNL     1      64.946   3.560   3.276  1.00  0.00     0.277 HD
ENDBRANCH  31  36
ENDBRANCH   7  31
TORSDOF 7
ENDMDL
MODEL 3
REMARK VINA RESULT: -8.127134970      3.055      4.408
REMARK  7 active torsions:
REMARK  status: ('A' for Active; 'I' for Inactive)
REMARK    1  A    between atoms: N1_1  and  C1_4 
REMARK    2  A    between atoms: C2_7  and  S1_8 
REMARK    3  A    between atoms: S1_8  and  N3_11 
REMARK    4  A    between atoms: C3_14  and  C4_15 
REMARK    5  A    between atoms: C8_24  and  C9_25 
REMARK    6  A    between atoms: C9_25  and  N7_26 
REMARK    7  A    between atoms: C9_25  and  N8_30 
ROOT
HETATM    1  C1  UNL     1      70.249   7.315  -0.630  1.00  0.00     0.678 A 
HETATM    2  N2  UNL     1      69.190   7.712  -1.336  1.00  0.00    -0.178 N 
ATOM      3  H2  UNL     1      69.320   8.463  -2.014  1.00  0.00     0.185 HD
HETATM    4  C2  UNL     1      67.943   7.173  -1.207  1.00  0.00     0.181 A 
HETATM    5  C6  UNL     1      67.783   6.160  -0.293  1.00  0.00     0.050 A 
HETATM    6  C7  UNL     1      66.545   5.582  -0.143  1.00  0.00     0.030 A 
HETATM    7  C8  UNL     1      66.448   4.555   0.795  1.00  0.00     0.015 A 
HETATM    8  C10 UNL     1      67.526   4.126   1.539  1.00  0.00     0.100 A 
HETATM    9  N9  UNL     1      68.713   4.727   1.349  1.00  0.00    -0.350 N 
ATOM     10  H9  UNL     1      69.516   4.416   1.896  1.00  0.00     0.166 HD
HETATM   11  C11 UNL     1      68.879   5.719   0.467  1.00  0.00     0.134 A 
HETATM   12  N10 UNL     1      70.051   6.325   0.252  1.00  0.00    -0.176 N 
ATOM     13  H10 UNL     1      70.853   6.012   0.800  1.00  0.00     0.186 HD
ENDROOT
BRANCH   4  14
HETATM   14  S1  UNL     1      66.597   7.702  -2.136  1.00  0.00     0.313 S 
HETATM   15  O1  UNL     1      65.672   8.389  -1.095  1.00  0.00    -0.196 OA
HETATM   16  O2  UNL     1      65.714   6.666  -2.704  1.00  0.00    -0.196 OA
BRANCH  14  17
HETATM   17  N3  UNL     1      66.964   9.000  -3.228  1.00  0.00    -0.107 N 
HETATM   18  N4  UNL     1      66.566  10.258  -3.157  1.00  0.00    -0.260 N 
HETATM   19  C3  UNL     1      67.044  10.985  -4.179  1.00  0.00     0.185 A 
ATOM     20  H4  UNL     1      65.970  10.629  -2.417  1.00  0.00     0.190 HD
HETATM   21  C5  UNL     1      67.785  10.122  -4.933  1.00  0.00     0.295 A 
HETATM   22  O4  UNL     1      68.392  10.456  -5.982  1.00  0.00    -0.264 OA
HETATM   23  N6  UNL     1      67.709   8.934  -4.319  1.00  0.00    -0.233 N 
ATOM     24  H6  UNL     1      68.167   8.086  -4.652  1.00  0.00     0.193 HD
BRANCH  19  25
HETATM   25  C4  UNL     1      66.827  12.402  -4.446  1.00  0.00     0.288 C 
HETATM   26  N5  UNL     1      67.896  13.330  -4.519  1.00  0.00    -0.056 NA
HETATM   27  O3  UNL     1      65.663  12.837  -4.619  1.00  0.00    -0.269 OA
ENDBRANCH  19  25
ENDBRANCH  14  17
ENDBRANCH   4  14
BRANCH   1  28
HETATM   28  N1  UNL     1      71.432   7.863  -0.786  1.00  0.00    -0.234 N 
ATOM     29  H12 UNL     1      71.620   8.508  -1.554  1.00  0.00     0.174 HD
ATOM     30  H11 UNL     1      72.205   7.667  -0.149  1.00  0.00     0.174 HD
ENDBRANCH   1  28
BRANCH   7  31
HETATM   31  C9  UNL     1      65.139   3.902   0.993  1.00  0.00     0.412 C 
BRANCH  31  32
HETATM   32  N7  UNL     1      65.216   3.166   2.234  1.00  0.00    -0.046 N 
ATOM     33  H73 UNL     1      64.540   2.405   2.289  1.00  0.00     0.277 HD
ATOM     34  H72 UNL     1      66.059   2.597   2.310  1.00  0.00     0.277 HD
ATOM     35  H71 UNL     1      65.120   3.843   2.990  1.00  0.00     0.277 HD
ENDBRANCH  31  32
BRANCH  31  36
HETATM   36  N8  UNL     1      64.080   4.891   1.019  1.00  0.00    -0.046 N 
ATOM     37  H83 UNL     1      64.445   5.839   0.934  1.00  0.00     0.277 HD
ATOM     38  H82 UNL     1      63.518   4.868   0.168  1.00  0.00     0.277 HD
ATOM     39  H81 UNL     1      63.508   4.779   1.856  1.00  0.00     0.277 HD
ENDBRANCH  31  36
ENDBRANCH   7  31
TORSDOF 7
ENDMDL
MODEL 4
REMARK VINA RESULT: -8.065455770      2.973      3.843
REMARK  7 active torsions:
REMARK  status: ('A' for Active; 'I' for Inactive)
REMARK    1  A    between atoms: N1_1  and  C1_4 
REMARK    2  A    between atoms: C2_7  and  S1_8 
REMARK    3  A    between atoms: S1_8  and  N3_11 
REMARK    4  A    between atoms: C3_14  and  C4_15 
REMARK    5  A    between atoms: C8_24  and  C9_25 
REMARK    6  A    between atoms: C9_25  and  N7_26 
REMARK    7  A    between atoms: C9_25  and  N8_30 
ROOT
HETATM    1  C1  UNL     1      70.663   7.171  -0.123  1.00  0.00     0.678 A 
HETATM    2  N2  UNL     1      69.393   7.575  -0.092  1.00  0.00    -0.178 N 
ATOM      3  H2  UNL     1      69.139   8.402  -0.633  1.00  0.00     0.185 HD
HETATM    4  C2  UNL     1      68.411   6.949   0.620  1.00  0.00     0.181 A 
HETATM    5  C6  UNL     1      68.766   5.834   1.341  1.00  0.00     0.050 A 
HETATM    6  C7  UNL     1      67.804   5.167   2.061  1.00  0.00     0.030 A 
HETATM    7  C8  UNL     1      68.225   4.040   2.766  1.00  0.00     0.015 A 
HETATM    8  C10 UNL     1      69.531   3.602   2.752  1.00  0.00     0.100 A 
HETATM    9  N9  UNL     1      70.430   4.293   2.030  1.00  0.00    -0.350 N 
ATOM     10  H9  UNL     1      71.399   3.976   2.015  1.00  0.00     0.166 HD
HETATM   11  C11 UNL     1      70.097   5.384   1.329  1.00  0.00     0.134 A 
HETATM   12  N10 UNL     1      70.969   6.082   0.595  1.00  0.00    -0.176 N 
ATOM     13  H10 UNL     1      71.938   5.762   0.580  1.00  0.00     0.186 HD
ENDROOT
BRANCH   4  14
HETATM   14  S1  UNL     1      66.780   7.489   0.637  1.00  0.00     0.313 S 
HETATM   15  O1  UNL     1      66.720   8.535  -0.509  1.00  0.00    -0.196 OA
HETATM   16  O2  UNL     1      66.336   8.274   1.803  1.00  0.00    -0.196 OA
BRANCH  14  17
HETATM   17  N3  UNL     1      65.638   6.291   0.112  1.00  0.00    -0.107 N 
HETATM   18  N4  UNL     1      64.789   5.599   0.852  1.00  0.00    -0.260 N 
HETATM   19  C3  UNL     1      64.057   4.758   0.106  1.00  0.00     0.185 A 
ATOM     20  H4  UNL     1      64.702   5.694   1.864  1.00  0.00     0.190 HD
HETATM   21  C5  UNL     1      64.479   4.939  -1.179  1.00  0.00     0.295 A 
HETATM   22  O4  UNL     1      64.011   4.312  -2.163  1.00  0.00    -0.264 OA
HETATM   23  N6  UNL     1      65.435   5.875  -1.127  1.00  0.00    -0.233 N 
ATOM     24  H6  UNL     1      65.943   6.224  -1.940  1.00  0.00     0.193 HD
BRANCH  19  25
HETATM   25  C4  UNL     1      63.022   3.835   0.556  1.00  0.00     0.288 C 
HETATM   26  N5  UNL     1      63.324   2.659   1.288  1.00  0.00    -0.056 NA
HETATM   27  O3  UNL     1      61.816   4.068   0.297  1.00  0.00    -0.269 OA
ENDBRANCH  19  25
ENDBRANCH  14  17
ENDBRANCH   4  14
BRANCH   1  28
HETATM   28  N1  UNL     1      71.575   7.806  -0.822  1.00  0.00    -0.234 N 
ATOM     29  H12 UNL     1      71.585   7.766  -1.841  1.00  0.00     0.174 HD
ATOM     30  H11 UNL     1      72.306   8.362  -0.376  1.00  0.00     0.174 HD
ENDBRANCH   1  28
BRANCH   7  31
HETATM   31  C9  UNL     1      67.228   3.289   3.555  1.00  0.00     0.412 C 
BRANCH  31  32
HETATM   32  N7  UNL     1      67.069   3.986   4.810  1.00  0.00    -0.046 N 
ATOM     33  H73 UNL     1      67.093   3.364   5.619  1.00  0.00     0.277 HD
ATOM     34  H72 UNL     1      67.880   4.553   5.059  1.00  0.00     0.277 HD
ATOM     35  H71 UNL     1      66.207   4.527   4.745  1.00  0.00     0.277 HD
ENDBRANCH  31  32
BRANCH  31  36
HETATM   36  N8  UNL     1      65.977   3.194   2.831  1.00  0.00    -0.046 N 
ATOM     37  H83 UNL     1      66.120   2.893   1.867  1.00  0.00     0.277 HD
ATOM     38  H82 UNL     1      65.411   2.409   3.152  1.00  0.00     0.277 HD
ATOM     39  H81 UNL     1      65.468   4.076   2.881  1.00  0.00     0.277 HD
ENDBRANCH  31  36
ENDBRANCH   7  31
TORSDOF 7
ENDMDL
MODEL 5
REMARK VINA RESULT: -7.917591855      3.189      5.658
REMARK  7 active torsions:
REMARK  status: ('A' for Active; 'I' for Inactive)
REMARK    1  A    between atoms: N1_1  and  C1_4 
REMARK    2  A    between atoms: C2_7  and  S1_8 
REMARK    3  A    between atoms: S1_8  and  N3_11 
REMARK    4  A    between atoms: C3_14  and  C4_15 
REMARK    5  A    between atoms: C8_24  and  C9_25 
REMARK    6  A    between atoms: C9_25  and  N7_26 
REMARK    7  A    between atoms: C9_25  and  N8_30 
ROOT
HETATM    1  C1  UNL     1      72.574   5.171   2.668  1.00  0.00     0.678 A 
HETATM    2  N2  UNL     1      71.638   4.622   3.443  1.00  0.00    -0.178 N 
ATOM      3  H2  UNL     1      71.934   4.188   4.318  1.00  0.00     0.185 HD
HETATM    4  C2  UNL     1      70.309   4.604   3.136  1.00  0.00     0.181 A 
HETATM    5  C6  UNL     1      69.924   5.194   1.956  1.00  0.00     0.050 A 
HETATM    6  C7  UNL     1      68.592   5.208   1.617  1.00  0.00     0.030 A 
HETATM    7  C8  UNL     1      68.264   5.828   0.412  1.00  0.00     0.015 A 
HETATM    8  C10 UNL     1      69.211   6.402  -0.408  1.00  0.00     0.100 A 
HETATM    9  N9  UNL     1      70.499   6.360  -0.025  1.00  0.00    -0.350 N 
ATOM     10  H9  UNL     1      71.205   6.783  -0.627  1.00  0.00     0.166 HD
HETATM   11  C11 UNL     1      70.886   5.782   1.118  1.00  0.00     0.134 A 
HETATM   12  N10 UNL     1      72.158   5.735   1.526  1.00  0.00    -0.176 N 
ATOM     13  H10 UNL     1      72.864   6.160   0.923  1.00  0.00     0.186 HD
ENDROOT
BRANCH   4  14
HETATM   14  S1  UNL     1      69.124   3.892   4.157  1.00  0.00     0.313 S 
HETATM   15  O1  UNL     1      68.372   5.108   4.762  1.00  0.00    -0.196 OA
HETATM   16  O2  UNL     1      69.599   3.185   5.361  1.00  0.00    -0.196 OA
BRANCH  14  17
HETATM   17  N3  UNL     1      67.864   3.061   3.298  1.00  0.00    -0.107 N 
HETATM   18  N4  UNL     1      66.580   3.368   3.243  1.00  0.00    -0.260 N 
HETATM   19  C3  UNL     1      65.898   2.500   2.480  1.00  0.00     0.185 A 
ATOM     20  H4  UNL     1      66.161   4.165   3.722  1.00  0.00     0.190 HD
HETATM   21  C5  UNL     1      66.818   1.596   2.033  1.00  0.00     0.295 A 
HETATM   22  O4  UNL     1      66.538   0.627   1.283  1.00  0.00    -0.264 OA
HETATM   23  N6  UNL     1      67.993   1.976   2.552  1.00  0.00    -0.233 N 
ATOM     24  H6  UNL     1      68.875   1.490   2.393  1.00  0.00     0.193 HD
BRANCH  19  25
HETATM   25  C4  UNL     1      64.471   2.504   2.180  1.00  0.00     0.288 C 
HETATM   26  N5  UNL     1      63.899   3.399   1.241  1.00  0.00    -0.056 NA
HETATM   27  O3  UNL     1      63.705   1.697   2.760  1.00  0.00    -0.269 OA
ENDBRANCH  19  25
ENDBRANCH  14  17
ENDBRANCH   4  14
BRANCH   1  28
HETATM   28  N1  UNL     1      73.843   5.165   3.003  1.00  0.00    -0.234 N 
ATOM     29  H12 UNL     1      74.371   6.033   3.097  1.00  0.00     0.174 HD
ATOM     30  H11 UNL     1      74.349   4.297   3.183  1.00  0.00     0.174 HD
ENDBRANCH   1  28
BRANCH   7  31
HETATM   31  C9  UNL     1      66.846   5.869   0.003  1.00  0.00     0.412 C 
BRANCH  31  32
HETATM   32  N7  UNL     1      66.061   6.002   1.209  1.00  0.00    -0.046 N 
ATOM     33  H73 UNL     1      66.125   5.187   1.819  1.00  0.00     0.277 HD
ATOM     34  H72 UNL     1      66.444   6.685   1.863  1.00  0.00     0.277 HD
ATOM     35  H71 UNL     1      65.106   6.214   0.922  1.00  0.00     0.277 HD
ENDBRANCH  31  32
BRANCH  31  36
HETATM   36  N8  UNL     1      66.616   6.967  -0.913  1.00  0.00    -0.046 N 
ATOM     37  H83 UNL     1      66.868   7.865  -0.499  1.00  0.00     0.277 HD
ATOM     38  H82 UNL     1      67.282   6.964  -1.685  1.00  0.00     0.277 HD
ATOM     39  H81 UNL     1      65.651   6.960  -1.242  1.00  0.00     0.277 HD
ENDBRANCH  31  36
ENDBRANCH   7  31
TORSDOF 7
ENDMDL
