MODEL 1
REMARK VINA RESULT: -7.535788382      0.000      0.000
REMARK  5 active torsions:
REMARK  status: ('A' for Active; 'I' for Inactive)
REMARK    1  A    between atoms: C5_5  and  N1_6 
REMARK    2  A    between atoms: N1_6  and  S1_8 
REMARK    3  A    between atoms: S1_8  and  C6_11 
REMARK    4  A    between atoms: C6_11  and  C7_12 
REMARK       I    between atoms: N2_17  and  C10_18 
REMARK       I    between atoms: C10_18  and  N3_20 
REMARK    5  A    between atoms: N3_20  and  C11_22 
ROOT
HETATM    1  C1  UNL     1      11.759 -28.439 -20.845  1.00  0.00     0.016 C 
HETATM    2  C2  UNL     1      12.209 -27.189 -20.086  1.00  0.00    -0.035 C 
HETATM    3  C3  UNL     1      10.994 -26.805 -19.219  1.00  0.00     0.012 C 
HETATM    4  C4  UNL     1      10.234 -25.913 -20.215  1.00  0.00     0.027 C 
HETATM    5  C5  UNL     1      11.410 -25.021 -20.633  1.00  0.00     0.099 C 
HETATM    6  C8  UNL     1      12.432 -26.063 -21.012  1.00  0.00     0.035 C 
HETATM    7  C9  UNL     1      13.815 -25.535 -21.105  1.00  0.00     0.135 C 
HETATM    8  N2  UNL     1      14.853 -26.391 -20.609  1.00  0.00    -0.334 N 
HETATM    9  C10 UNL     1      16.188 -25.905 -20.580  1.00  0.00     0.318 C 
HETATM   10  O5  UNL     1      17.115 -26.671 -20.138  1.00  0.00    -0.247 OA
HETATM   11  N3  UNL     1      16.500 -24.594 -21.031  1.00  0.00    -0.338 N 
ATOM     12  H3  UNL     1      15.746 -24.001 -21.380  1.00  0.00     0.164 HD
HETATM   13  C18 UNL     1      14.572 -27.735 -20.134  1.00  0.00     0.128 C 
HETATM   14  C19 UNL     1      13.352 -27.572 -19.215  1.00  0.00     0.029 C 
ENDROOT
BRANCH  11  15
HETATM   15  C11 UNL     1      17.849 -24.070 -21.014  1.00  0.00     0.086 C 
HETATM   16  C12 UNL     1      18.549 -24.351 -22.298  1.00  0.00     0.025 C 
HETATM   17  C13 UNL     1      18.970 -23.105 -23.038  1.00  0.00     0.002 C 
HETATM   18  C14 UNL     1      19.920 -22.243 -22.287  1.00  0.00     0.000 C 
HETATM   19  C15 UNL     1      20.288 -22.743 -20.930  1.00  0.00     0.000 C 
HETATM   20  C16 UNL     1      19.206 -22.333 -19.942  1.00  0.00     0.002 C 
HETATM   21  C17 UNL     1      17.870 -22.612 -20.612  1.00  0.00     0.025 C 
ENDBRANCH  11  15
BRANCH   5  22
HETATM   22  N1  UNL     1      11.759 -24.268 -19.468  1.00  0.00    -0.314 N 
ATOM     23  H1  UNL     1      12.138 -24.688 -18.619  1.00  0.00     0.172 HD
BRANCH  22  24
HETATM   24  S1  UNL     1      11.475 -22.590 -19.648  1.00  0.00     0.236 S 
HETATM   25  O1  UNL     1      11.309 -22.302 -21.116  1.00  0.00    -0.205 OA
HETATM   26  O2  UNL     1      10.240 -22.111 -18.959  1.00  0.00    -0.205 OA
BRANCH  24  27
HETATM   27  C6  UNL     1      12.904 -21.639 -19.111  1.00  0.00     0.275 C 
BRANCH  27  28
HETATM   28  C7  UNL     1      14.147 -22.263 -19.610  1.00  0.00     0.188 C 
HETATM   29  O3  UNL     1      14.829 -23.050 -18.911  1.00  0.00    -0.647 OA
HETATM   30  O4  UNL     1      14.592 -21.980 -20.887  1.00  0.00    -0.647 OA
ENDBRANCH  27  28
ENDBRANCH  24  27
ENDBRANCH  22  24
ENDBRANCH   5  22
TORSDOF 5
ENDMDL
MODEL 2
REMARK VINA RESULT: -7.454185156      2.978      5.085
REMARK  5 active torsions:
REMARK  status: ('A' for Active; 'I' for Inactive)
REMARK    1  A    between atoms: C5_5  and  N1_6 
REMARK    2  A    between atoms: N1_6  and  S1_8 
REMARK    3  A    between atoms: S1_8  and  C6_11 
REMARK    4  A    between atoms: C6_11  and  C7_12 
REMARK       I    between atoms: N2_17  and  C10_18 
REMARK       I    between atoms: C10_18  and  N3_20 
REMARK    5  A    between atoms: N3_20  and  C11_22 
ROOT
HETATM    1  C1  UNL     1      11.900 -23.926 -20.915  1.00  0.00     0.016 C 
HETATM    2  C2  UNL     1      13.310 -24.349 -21.335  1.00  0.00    -0.035 C 
HETATM    3  C3  UNL     1      13.198 -25.864 -21.593  1.00  0.00     0.012 C 
HETATM    4  C4  UNL     1      13.474 -26.392 -20.176  1.00  0.00     0.027 C 
HETATM    5  C5  UNL     1      14.744 -25.577 -19.895  1.00  0.00     0.099 C 
HETATM    6  C8  UNL     1      14.261 -24.186 -20.220  1.00  0.00     0.035 C 
HETATM    7  C9  UNL     1      15.357 -23.205 -20.412  1.00  0.00     0.135 C 
HETATM    8  N2  UNL     1      15.172 -22.246 -21.462  1.00  0.00    -0.334 N 
HETATM    9  C10 UNL     1      16.226 -21.342 -21.760  1.00  0.00     0.318 C 
HETATM   10  O5  UNL     1      16.058 -20.485 -22.697  1.00  0.00    -0.247 OA
HETATM   11  N3  UNL     1      17.449 -21.380 -21.038  1.00  0.00    -0.338 N 
ATOM     12  H3  UNL     1      17.561 -22.071 -20.295  1.00  0.00     0.164 HD
HETATM   13  C18 UNL     1      13.937 -22.182 -22.226  1.00  0.00     0.128 C 
HETATM   14  C19 UNL     1      13.639 -23.641 -22.600  1.00  0.00     0.029 C 
ENDROOT
BRANCH  11  15
HETATM   15  C11 UNL     1      18.542 -20.473 -21.318  1.00  0.00     0.086 C 
HETATM   16  C12 UNL     1      18.445 -19.243 -20.484  1.00  0.00     0.025 C 
HETATM   17  C13 UNL     1      19.624 -19.047 -19.563  1.00  0.00     0.002 C 
HETATM   18  C14 UNL     1      20.928 -18.909 -20.266  1.00  0.00     0.000 C 
HETATM   19  C15 UNL     1      20.856 -18.999 -21.753  1.00  0.00     0.000 C 
HETATM   20  C16 UNL     1      20.844 -20.464 -22.160  1.00  0.00     0.002 C 
HETATM   21  C17 UNL     1      19.879 -21.173 -21.223  1.00  0.00     0.025 C 
ENDBRANCH  11  15
BRANCH   5  22
HETATM   22  N1  UNL     1      15.731 -26.072 -20.804  1.00  0.00    -0.314 N 
ATOM     23  H1  UNL     1      15.604 -26.095 -21.816  1.00  0.00     0.172 HD
BRANCH  22  24
HETATM   24  S1  UNL     1      17.148 -26.622 -20.016  1.00  0.00     0.236 S 
HETATM   25  O1  UNL     1      17.466 -25.656 -18.907  1.00  0.00    -0.205 OA
HETATM   26  O2  UNL     1      17.007 -27.975 -19.400  1.00  0.00    -0.205 OA
BRANCH  24  27
HETATM   27  C6  UNL     1      18.557 -26.581 -21.133  1.00  0.00     0.275 C 
BRANCH  27  28
HETATM   28  C7  UNL     1      19.020 -25.191 -21.317  1.00  0.00     0.188 C 
HETATM   29  O3  UNL     1      18.291 -24.303 -21.820  1.00  0.00    -0.647 OA
HETATM   30  O4  UNL     1      20.298 -24.836 -20.932  1.00  0.00    -0.647 OA
ENDBRANCH  27  28
ENDBRANCH  24  27
ENDBRANCH  22  24
ENDBRANCH   5  22
TORSDOF 5
ENDMDL
MODEL 3
REMARK VINA RESULT: -7.447828695      2.687      7.215
REMARK  5 active torsions:
REMARK  status: ('A' for Active; 'I' for Inactive)
REMARK    1  A    between atoms: C5_5  and  N1_6 
REMARK    2  A    between atoms: N1_6  and  S1_8 
REMARK    3  A    between atoms: S1_8  and  C6_11 
REMARK    4  A    between atoms: C6_11  and  C7_12 
REMARK       I    between atoms: N2_17  and  C10_18 
REMARK       I    between atoms: C10_18  and  N3_20 
REMARK    5  A    between atoms: N3_20  and  C11_22 
ROOT
HETATM    1  C1  UNL     1      15.800 -19.486 -21.614  1.00  0.00     0.016 C 
HETATM    2  C2  UNL     1      16.290 -20.717 -20.847  1.00  0.00    -0.035 C 
HETATM    3  C3  UNL     1      17.629 -20.279 -20.225  1.00  0.00     0.012 C 
HETATM    4  C4  UNL     1      18.581 -20.633 -21.379  1.00  0.00     0.027 C 
HETATM    5  C5  UNL     1      18.083 -22.063 -21.626  1.00  0.00     0.099 C 
HETATM    6  C8  UNL     1      16.602 -21.822 -21.772  1.00  0.00     0.035 C 
HETATM    7  C9  UNL     1      15.784 -23.053 -21.647  1.00  0.00     0.135 C 
HETATM    8  N2  UNL     1      14.545 -22.920 -20.937  1.00  0.00    -0.334 N 
HETATM    9  C10 UNL     1      13.762 -24.081 -20.699  1.00  0.00     0.318 C 
HETATM   10  O5  UNL     1      12.655 -23.961 -20.066  1.00  0.00    -0.247 OA
HETATM   11  N3  UNL     1      14.191 -25.358 -21.149  1.00  0.00    -0.338 N 
ATOM     12  H3  UNL     1      15.076 -25.432 -21.651  1.00  0.00     0.164 HD
HETATM   13  C18 UNL     1      14.077 -21.631 -20.456  1.00  0.00     0.128 C 
HETATM   14  C19 UNL     1      15.302 -21.006 -19.773  1.00  0.00     0.029 C 
ENDROOT
BRANCH  11  15
HETATM   15  C11 UNL     1      13.416 -26.560 -20.922  1.00  0.00     0.086 C 
HETATM   16  C12 UNL     1      14.280 -27.772 -20.973  1.00  0.00     0.025 C 
HETATM   17  C13 UNL     1      14.304 -28.548 -19.678  1.00  0.00     0.002 C 
HETATM   18  C14 UNL     1      12.975 -29.065 -19.255  1.00  0.00     0.000 C 
HETATM   19  C15 UNL     1      11.845 -28.723 -20.166  1.00  0.00     0.000 C 
HETATM   20  C16 UNL     1      11.352 -27.321 -19.839  1.00  0.00     0.002 C 
HETATM   21  C17 UNL     1      12.587 -26.452 -19.661  1.00  0.00     0.025 C 
ENDBRANCH  11  15
BRANCH   5  22
HETATM   22  N1  UNL     1      18.435 -22.804 -20.455  1.00  0.00    -0.314 N 
ATOM     23  H1  UNL     1      18.126 -22.553 -19.516  1.00  0.00     0.172 HD
BRANCH  22  24
HETATM   24  S1  UNL     1      19.429 -24.156 -20.794  1.00  0.00     0.236 S 
HETATM   25  O1  UNL     1      19.214 -24.540 -22.233  1.00  0.00    -0.205 OA
HETATM   26  O2  UNL     1      20.888 -23.890 -20.618  1.00  0.00    -0.205 OA
BRANCH  24  27
HETATM   27  C6  UNL     1      18.926 -25.580 -19.817  1.00  0.00     0.275 C 
BRANCH  27  28
HETATM   28  C7  UNL     1      17.727 -25.251 -19.018  1.00  0.00     0.188 C 
HETATM   29  O3  UNL     1      16.583 -25.658 -19.329  1.00  0.00    -0.647 OA
HETATM   30  O4  UNL     1      17.850 -24.465 -17.888  1.00  0.00    -0.647 OA
ENDBRANCH  27  28
ENDBRANCH  24  27
ENDBRANCH  22  24
ENDBRANCH   5  22
TORSDOF 5
ENDMDL
MODEL 4
REMARK VINA RESULT: -7.337241878      3.344      5.906
REMARK  5 active torsions:
REMARK  status: ('A' for Active; 'I' for Inactive)
REMARK    1  A    between atoms: C5_5  and  N1_6 
REMARK    2  A    between atoms: N1_6  and  S1_8 
REMARK    3  A    between atoms: S1_8  and  C6_11 
REMARK    4  A    between atoms: C6_11  and  C7_12 
REMARK       I    between atoms: N2_17  and  C10_18 
REMARK       I    between atoms: C10_18  and  N3_20 
REMARK    5  A    between atoms: N3_20  and  C11_22 
ROOT
HETATM    1  C1  UNL     1      13.059 -26.980 -19.820  1.00  0.00     0.016 C 
HETATM    2  C2  UNL     1      14.199 -26.310 -20.591  1.00  0.00    -0.035 C 
HETATM    3  C3  UNL     1      14.980 -27.479 -21.221  1.00  0.00     0.012 C 
HETATM    4  C4  UNL     1      15.954 -27.791 -20.073  1.00  0.00     0.027 C 
HETATM    5  C5  UNL     1      16.446 -26.358 -19.824  1.00  0.00     0.099 C 
HETATM    6  C8  UNL     1      15.131 -25.635 -19.669  1.00  0.00     0.035 C 
HETATM    7  C9  UNL     1      15.246 -24.161 -19.790  1.00  0.00     0.135 C 
HETATM    8  N2  UNL     1      14.184 -23.500 -20.492  1.00  0.00    -0.334 N 
HETATM    9  C10 UNL     1      14.282 -22.102 -20.727  1.00  0.00     0.318 C 
HETATM   10  O5  UNL     1      13.332 -21.513 -21.352  1.00  0.00    -0.247 OA
HETATM   11  N3  UNL     1      15.410 -21.363 -20.280  1.00  0.00    -0.338 N 
ATOM     12  H3  UNL     1      16.155 -21.852 -19.784  1.00  0.00     0.164 HD
HETATM   13  C18 UNL     1      13.018 -24.225 -20.969  1.00  0.00     0.128 C 
HETATM   14  C19 UNL     1      13.594 -25.470 -21.659  1.00  0.00     0.029 C 
ENDROOT
BRANCH  11  15
HETATM   15  C11 UNL     1      15.539 -19.938 -20.505  1.00  0.00     0.086 C 
HETATM   16  C12 UNL     1      14.916 -19.162 -19.396  1.00  0.00     0.025 C 
HETATM   17  C13 UNL     1      15.894 -18.286 -18.653  1.00  0.00     0.002 C 
HETATM   18  C14 UNL     1      16.549 -17.252 -19.498  1.00  0.00     0.000 C 
HETATM   19  C15 UNL     1      16.142 -17.260 -20.934  1.00  0.00     0.000 C 
HETATM   20  C16 UNL     1      16.956 -18.313 -21.672  1.00  0.00     0.002 C 
HETATM   21  C17 UNL     1      16.973 -19.552 -20.791  1.00  0.00     0.025 C 
ENDBRANCH  11  15
BRANCH   5  22
HETATM   22  N1  UNL     1      17.173 -25.988 -20.999  1.00  0.00    -0.314 N 
ATOM     23  H1  UNL     1      16.771 -25.996 -21.936  1.00  0.00     0.172 HD
BRANCH  22  24
HETATM   24  S1  UNL     1      18.788 -25.529 -20.666  1.00  0.00     0.236 S 
HETATM   25  O1  UNL     1      19.286 -24.711 -21.826  1.00  0.00    -0.205 OA
HETATM   26  O2  UNL     1      18.935 -24.694 -19.437  1.00  0.00    -0.205 OA
BRANCH  24  27
HETATM   27  C6  UNL     1      19.856 -26.973 -20.578  1.00  0.00     0.275 C 
BRANCH  27  28
HETATM   28  C7  UNL     1      20.137 -27.314 -19.169  1.00  0.00     0.188 C 
HETATM   29  O3  UNL     1      19.231 -27.636 -18.364  1.00  0.00    -0.647 OA
HETATM   30  O4  UNL     1      21.436 -27.278 -18.699  1.00  0.00    -0.647 OA
ENDBRANCH  27  28
ENDBRANCH  24  27
ENDBRANCH  22  24
ENDBRANCH   5  22
TORSDOF 5
ENDMDL
MODEL 5
REMARK VINA RESULT: -7.282194461      3.227      5.639
REMARK  5 active torsions:
REMARK  status: ('A' for Active; 'I' for Inactive)
REMARK    1  A    between atoms: C5_5  and  N1_6 
REMARK    2  A    between atoms: N1_6  and  S1_8 
REMARK    3  A    between atoms: S1_8  and  C6_11 
REMARK    4  A    between atoms: C6_11  and  C7_12 
REMARK       I    between atoms: N2_17  and  C10_18 
REMARK       I    between atoms: C10_18  and  N3_20 
REMARK    5  A    between atoms: N3_20  and  C11_22 
ROOT
HETATM    1  C1  UNL     1      12.924 -26.812 -19.972  1.00  0.00     0.016 C 
HETATM    2  C2  UNL     1      14.121 -26.166 -20.673  1.00  0.00    -0.035 C 
HETATM    3  C3  UNL     1      14.911 -27.351 -21.261  1.00  0.00     0.012 C 
HETATM    4  C4  UNL     1      15.809 -27.688 -20.060  1.00  0.00     0.027 C 
HETATM    5  C5  UNL     1      16.317 -26.268 -19.777  1.00  0.00     0.099 C 
HETATM    6  C8  UNL     1      15.013 -25.515 -19.696  1.00  0.00     0.035 C 
HETATM    7  C9  UNL     1      15.167 -24.044 -19.804  1.00  0.00     0.135 C 
HETATM    8  N2  UNL     1      14.163 -23.357 -20.564  1.00  0.00    -0.334 N 
HETATM    9  C10 UNL     1      14.306 -21.961 -20.787  1.00  0.00     0.318 C 
HETATM   10  O5  UNL     1      13.408 -21.349 -21.464  1.00  0.00    -0.247 OA
HETATM   11  N3  UNL     1      15.422 -21.249 -20.272  1.00  0.00    -0.338 N 
ATOM     12  H3  UNL     1      16.126 -21.756 -19.735  1.00  0.00     0.164 HD
HETATM   13  C18 UNL     1      13.011 -24.054 -21.110  1.00  0.00     0.128 C 
HETATM   14  C19 UNL     1      13.598 -25.310 -21.771  1.00  0.00     0.029 C 
ENDROOT
BRANCH  11  15
HETATM   15  C11 UNL     1      15.596 -19.827 -20.483  1.00  0.00     0.086 C 
HETATM   16  C12 UNL     1      15.025 -19.044 -19.352  1.00  0.00     0.025 C 
HETATM   17  C13 UNL     1      16.049 -18.211 -18.620  1.00  0.00     0.002 C 
HETATM   18  C14 UNL     1      16.721 -17.190 -19.468  1.00  0.00     0.000 C 
HETATM   19  C15 UNL     1      16.283 -17.166 -20.894  1.00  0.00     0.000 C 
HETATM   20  C16 UNL     1      17.043 -18.237 -21.662  1.00  0.00     0.002 C 
HETATM   21  C17 UNL     1      17.036 -19.487 -20.796  1.00  0.00     0.025 C 
ENDBRANCH  11  15
BRANCH   5  22
HETATM   22  N1  UNL     1      17.120 -25.911 -20.906  1.00  0.00    -0.314 N 
ATOM     23  H1  UNL     1      16.736 -25.712 -21.829  1.00  0.00     0.172 HD
BRANCH  22  24
HETATM   24  S1  UNL     1      18.792 -25.853 -20.544  1.00  0.00     0.236 S 
HETATM   25  O1  UNL     1      18.956 -26.100 -19.069  1.00  0.00    -0.205 OA
HETATM   26  O2  UNL     1      19.599 -26.886 -21.260  1.00  0.00    -0.205 OA
BRANCH  24  27
HETATM   27  C6  UNL     1      19.455 -24.210 -20.852  1.00  0.00     0.275 C 
BRANCH  27  28
HETATM   28  C7  UNL     1      18.764 -23.589 -22.001  1.00  0.00     0.188 C 
HETATM   29  O3  UNL     1      19.210 -23.664 -23.170  1.00  0.00    -0.647 OA
HETATM   30  O4  UNL     1      17.587 -22.895 -21.800  1.00  0.00    -0.647 OA
ENDBRANCH  27  28
ENDBRANCH  24  27
ENDBRANCH  22  24
ENDBRANCH   5  22
TORSDOF 5
ENDMDL
