MODEL 1
REMARK VINA RESULT: -6.451231294      0.000      0.000
REMARK  6 active torsions:
REMARK  status: ('A' for Active; 'I' for Inactive)
REMARK    1  A    between atoms: C4_6  and  C5_7 
REMARK    2  A    between atoms: C5_7  and  N2_8 
REMARK    3  A    between atoms: C5_7  and  C6_12 
REMARK    4  A    between atoms: C6_12  and  C7_13 
REMARK    5  A    between atoms: C7_13  and  N3_14 
REMARK    6  A    between atoms: N3_14  and  C8_16 
ROOT
HETATM    1  C6  UNL     1      32.471  15.235  55.054  1.00  0.00     0.011 A 
HETATM    2  C18 UNL     1      33.055  14.211  54.169  1.00  0.00     0.014 A 
HETATM    3  C19 UNL     1      33.297  14.027  55.597  1.00  0.00     0.014 A 
ENDROOT
BRANCH   1   4
HETATM    4  C5  UNL     1      33.132  16.570  55.120  1.00  0.00     0.268 C 
BRANCH   4   5
HETATM    5  C4  UNL     1      32.351  17.545  55.918  1.00  0.00     0.155 A 
HETATM    6  N1  UNL     1      31.502  18.458  55.427  1.00  0.00    -0.346 N 
HETATM    7  C3  UNL     1      30.976  19.159  56.440  1.00  0.00     0.122 A 
ATOM      8  H1  UNL     1      31.290  18.598  54.439  1.00  0.00     0.167 HD
HETATM    9  C2  UNL     1      31.535  18.643  57.587  1.00  0.00     0.066 A 
HETATM   10  C1  UNL     1      31.257  19.097  58.995  1.00  0.00     0.078 C 
HETATM   11  O1  UNL     1      32.343  17.687  57.216  1.00  0.00    -0.299 OA
ENDBRANCH   4   5
BRANCH   4  12
HETATM   12  N2  UNL     1      33.333  17.059  53.768  1.00  0.00    -0.067 N 
ATOM     13  H23 UNL     1      32.670  16.644  53.113  1.00  0.00     0.275 HD
ATOM     14  H22 UNL     1      33.052  18.034  53.673  1.00  0.00     0.275 HD
ATOM     15  H21 UNL     1      34.299  16.913  53.471  1.00  0.00     0.275 HD
ENDBRANCH   4  12
ENDBRANCH   1   4
BRANCH   1  16
HETATM   16  C7  UNL     1      31.045  15.165  55.564  1.00  0.00     0.126 C 
BRANCH  16  17
HETATM   17  N3  UNL     1      30.068  15.047  54.543  1.00  0.00    -0.412 N 
ATOM     18  H3  UNL     1      30.125  15.605  53.691  1.00  0.00     0.154 HD
BRANCH  17  19
HETATM   19  C8  UNL     1      29.007  14.126  54.750  1.00  0.00     0.026 C 
HETATM   20  C9  UNL     1      28.495  14.340  56.182  1.00  0.00     0.035 C 
HETATM   21  C10 UNL     1      27.551  13.262  56.608  1.00  0.00    -0.012 C 
HETATM   22  C11 UNL     1      26.351  13.295  55.662  1.00  0.00     0.009 C 
HETATM   23  C15 UNL     1      28.171  11.902  56.505  1.00  0.00     0.009 C 
HETATM   24  C12 UNL     1      26.849  13.095  54.247  1.00  0.00    -0.012 C 
HETATM   25  C13 UNL     1      27.434  11.732  54.109  1.00  0.00     0.009 C 
HETATM   26  C17 UNL     1      27.825  14.198  53.860  1.00  0.00     0.035 C 
HETATM   27  C14 UNL     1      28.597  11.658  55.085  1.00  0.00    -0.012 C 
HETATM   28  C16 UNL     1      29.578  12.727  54.688  1.00  0.00     0.035 C 
ENDBRANCH  17  19
ENDBRANCH  16  17
ENDBRANCH   1  16
TORSDOF 6
ENDMDL
MODEL 2
REMARK VINA RESULT: -6.370582085      1.235      1.550
REMARK  6 active torsions:
REMARK  status: ('A' for Active; 'I' for Inactive)
REMARK    1  A    between atoms: C4_6  and  C5_7 
REMARK    2  A    between atoms: C5_7  and  N2_8 
REMARK    3  A    between atoms: C5_7  and  C6_12 
REMARK    4  A    between atoms: C6_12  and  C7_13 
REMARK    5  A    between atoms: C7_13  and  N3_14 
REMARK    6  A    between atoms: N3_14  and  C8_16 
ROOT
HETATM    1  C6  UNL     1      31.608  14.913  55.018  1.00  0.00     0.011 A 
HETATM    2  C18 UNL     1      32.290  14.005  54.078  1.00  0.00     0.014 A 
HETATM    3  C19 UNL     1      32.561  13.772  55.493  1.00  0.00     0.014 A 
ENDROOT
BRANCH   1   4
HETATM    4  C5  UNL     1      32.124  16.305  55.154  1.00  0.00     0.268 C 
BRANCH   4   5
HETATM    5  C4  UNL     1      31.692  16.943  56.420  1.00  0.00     0.155 A 
HETATM    6  N1  UNL     1      30.874  17.998  56.527  1.00  0.00    -0.346 N 
HETATM    7  C3  UNL     1      30.705  18.295  57.822  1.00  0.00     0.122 A 
ATOM      8  H1  UNL     1      30.447  18.497  55.746  1.00  0.00     0.167 HD
HETATM    9  C2  UNL     1      31.455  17.377  58.521  1.00  0.00     0.066 A 
HETATM   10  C1  UNL     1      31.590  17.293  60.018  1.00  0.00     0.078 C 
HETATM   11  O1  UNL     1      32.020  16.599  57.638  1.00  0.00    -0.299 OA
ENDBRANCH   4   5
BRANCH   4  12
HETATM   12  N2  UNL     1      31.680  17.082  54.011  1.00  0.00    -0.067 N 
ATOM     13  H23 UNL     1      30.673  17.241  54.031  1.00  0.00     0.275 HD
ATOM     14  H22 UNL     1      31.989  18.051  54.070  1.00  0.00     0.275 HD
ATOM     15  H21 UNL     1      31.977  16.642  53.139  1.00  0.00     0.275 HD
ENDBRANCH   4  12
ENDBRANCH   1   4
BRANCH   1  16
HETATM   16  C7  UNL     1      30.201  14.665  55.526  1.00  0.00     0.126 C 
BRANCH  16  17
HETATM   17  N3  UNL     1      29.266  14.337  54.513  1.00  0.00    -0.412 N 
ATOM     18  H3  UNL     1      29.053  14.991  53.759  1.00  0.00     0.154 HD
BRANCH  17  19
HETATM   19  C8  UNL     1      28.636  13.066  54.583  1.00  0.00     0.026 C 
HETATM   20  C9  UNL     1      28.900  12.509  55.990  1.00  0.00     0.035 C 
HETATM   21  C10 UNL     1      28.507  11.071  56.107  1.00  0.00    -0.012 C 
HETATM   22  C11 UNL     1      27.007  10.975  55.829  1.00  0.00     0.009 C 
HETATM   23  C15 UNL     1      29.209  10.215  55.099  1.00  0.00     0.009 C 
HETATM   24  C12 UNL     1      26.738  11.533  54.448  1.00  0.00    -0.012 C 
HETATM   25  C13 UNL     1      27.394  10.673  53.423  1.00  0.00     0.009 C 
HETATM   26  C17 UNL     1      27.173  12.990  54.363  1.00  0.00     0.035 C 
HETATM   27  C14 UNL     1      28.885  10.709  53.717  1.00  0.00    -0.012 C 
HETATM   28  C16 UNL     1      29.325  12.143  53.605  1.00  0.00     0.035 C 
ENDBRANCH  17  19
ENDBRANCH  16  17
ENDBRANCH   1  16
TORSDOF 6
ENDMDL
MODEL 3
REMARK VINA RESULT: -6.367367433      1.379      2.290
REMARK  6 active torsions:
REMARK  status: ('A' for Active; 'I' for Inactive)
REMARK    1  A    between atoms: C4_6  and  C5_7 
REMARK    2  A    between atoms: C5_7  and  N2_8 
REMARK    3  A    between atoms: C5_7  and  C6_12 
REMARK    4  A    between atoms: C6_12  and  C7_13 
REMARK    5  A    between atoms: C7_13  and  N3_14 
REMARK    6  A    between atoms: N3_14  and  C8_16 
ROOT
HETATM    1  C6  UNL     1      32.485  14.463  54.774  1.00  0.00     0.011 A 
HETATM    2  C18 UNL     1      33.361  13.960  53.700  1.00  0.00     0.014 A 
HETATM    3  C19 UNL     1      33.975  14.069  55.020  1.00  0.00     0.014 A 
ENDROOT
BRANCH   1   4
HETATM    4  C5  UNL     1      32.172  15.921  54.806  1.00  0.00     0.268 C 
BRANCH   4   5
HETATM    5  C4  UNL     1      31.921  16.411  56.181  1.00  0.00     0.155 A 
HETATM    6  N1  UNL     1      30.741  16.826  56.661  1.00  0.00    -0.346 N 
HETATM    7  C3  UNL     1      30.891  17.193  57.941  1.00  0.00     0.122 A 
ATOM      8  H1  UNL     1      29.867  16.858  56.136  1.00  0.00     0.167 HD
HETATM    9  C2  UNL     1      32.218  16.988  58.239  1.00  0.00     0.066 A 
HETATM   10  C1  UNL     1      32.883  17.249  59.564  1.00  0.00     0.078 C 
HETATM   11  O1  UNL     1      32.782  16.523  57.157  1.00  0.00    -0.299 OA
ENDBRANCH   4   5
BRANCH   4  12
HETATM   12  N2  UNL     1      31.024  16.171  53.953  1.00  0.00    -0.067 N 
ATOM     13  H23 UNL     1      31.283  16.188  52.967  1.00  0.00     0.275 HD
ATOM     14  H22 UNL     1      30.389  15.374  53.932  1.00  0.00     0.275 HD
ATOM     15  H21 UNL     1      30.546  17.028  54.234  1.00  0.00     0.275 HD
ENDBRANCH   4  12
ENDBRANCH   1   4
BRANCH   1  16
HETATM   16  C7  UNL     1      31.566  13.561  55.575  1.00  0.00     0.126 C 
BRANCH  16  17
HETATM   17  N3  UNL     1      30.823  12.644  54.790  1.00  0.00    -0.412 N 
ATOM     18  H3  UNL     1      31.249  12.157  54.001  1.00  0.00     0.154 HD
BRANCH  17  19
HETATM   19  C8  UNL     1      29.464  12.428  55.140  1.00  0.00     0.026 C 
HETATM   20  C9  UNL     1      28.774  11.809  53.915  1.00  0.00     0.035 C 
HETATM   21  C10 UNL     1      27.288  11.768  54.067  1.00  0.00    -0.012 C 
HETATM   22  C11 UNL     1      26.969  10.901  55.284  1.00  0.00     0.009 C 
HETATM   23  C15 UNL     1      26.714  13.129  54.319  1.00  0.00     0.009 C 
HETATM   24  C12 UNL     1      27.654  11.500  56.494  1.00  0.00    -0.012 C 
HETATM   25  C13 UNL     1      27.070  12.838  56.789  1.00  0.00     0.009 C 
HETATM   26  C17 UNL     1      29.162  11.544  56.290  1.00  0.00     0.035 C 
HETATM   27  C14 UNL     1      27.327  13.702  55.565  1.00  0.00    -0.012 C 
HETATM   28  C16 UNL     1      28.818  13.774  55.377  1.00  0.00     0.035 C 
ENDBRANCH  17  19
ENDBRANCH  16  17
ENDBRANCH   1  16
TORSDOF 6
ENDMDL
MODEL 4
REMARK VINA RESULT: -6.304801287      1.224      1.820
REMARK  6 active torsions:
REMARK  status: ('A' for Active; 'I' for Inactive)
REMARK    1  A    between atoms: C4_6  and  C5_7 
REMARK    2  A    between atoms: C5_7  and  N2_8 
REMARK    3  A    between atoms: C5_7  and  C6_12 
REMARK    4  A    between atoms: C6_12  and  C7_13 
REMARK    5  A    between atoms: C7_13  and  N3_14 
REMARK    6  A    between atoms: N3_14  and  C8_16 
ROOT
HETATM    1  C6  UNL     1      31.679  14.972  55.040  1.00  0.00     0.011 A 
HETATM    2  C18 UNL     1      32.391  14.079  54.107  1.00  0.00     0.014 A 
HETATM    3  C19 UNL     1      32.670  13.868  55.524  1.00  0.00     0.014 A 
ENDROOT
BRANCH   1   4
HETATM    4  C5  UNL     1      32.148  16.382  55.164  1.00  0.00     0.268 C 
BRANCH   4   5
HETATM    5  C4  UNL     1      31.701  17.013  56.427  1.00  0.00     0.155 A 
HETATM    6  N1  UNL     1      30.887  18.073  56.529  1.00  0.00    -0.346 N 
HETATM    7  C3  UNL     1      30.701  18.362  57.824  1.00  0.00     0.122 A 
ATOM      8  H1  UNL     1      30.474  18.579  55.746  1.00  0.00     0.167 HD
HETATM    9  C2  UNL     1      31.436  17.435  58.527  1.00  0.00     0.066 A 
HETATM   10  C1  UNL     1      31.548  17.339  60.025  1.00  0.00     0.078 C 
HETATM   11  O1  UNL     1      32.009  16.660  57.647  1.00  0.00    -0.299 OA
ENDBRANCH   4   5
BRANCH   4  12
HETATM   12  N2  UNL     1      31.672  17.135  54.017  1.00  0.00    -0.067 N 
ATOM     13  H23 UNL     1      31.273  16.525  53.304  1.00  0.00     0.275 HD
ATOM     14  H22 UNL     1      30.837  17.676  54.241  1.00  0.00     0.275 HD
ATOM     15  H21 UNL     1      32.414  17.724  53.639  1.00  0.00     0.275 HD
ENDBRANCH   4  12
ENDBRANCH   1   4
BRANCH   1  16
HETATM   16  C7  UNL     1      30.281  14.681  55.550  1.00  0.00     0.126 C 
BRANCH  16  17
HETATM   17  N3  UNL     1      29.357  14.317  54.539  1.00  0.00    -0.412 N 
ATOM     18  H3  UNL     1      29.044  14.993  53.841  1.00  0.00     0.154 HD
BRANCH  17  19
HETATM   19  C8  UNL     1      28.881  12.979  54.532  1.00  0.00     0.026 C 
HETATM   20  C9  UNL     1      27.358  13.042  54.345  1.00  0.00     0.035 C 
HETATM   21  C10 UNL     1      26.708  11.715  54.574  1.00  0.00    -0.012 C 
HETATM   22  C11 UNL     1      27.276  10.736  53.547  1.00  0.00     0.009 C 
HETATM   23  C15 UNL     1      27.015  11.170  55.935  1.00  0.00     0.009 C 
HETATM   24  C12 UNL     1      28.779  10.677  53.718  1.00  0.00    -0.012 C 
HETATM   25  C13 UNL     1      29.109  10.099  55.050  1.00  0.00     0.009 C 
HETATM   26  C17 UNL     1      29.398  12.051  53.500  1.00  0.00     0.035 C 
HETATM   27  C14 UNL     1      28.504  11.029  56.089  1.00  0.00    -0.012 C 
HETATM   28  C16 UNL     1      29.136  12.381  55.896  1.00  0.00     0.035 C 
ENDBRANCH  17  19
ENDBRANCH  16  17
ENDBRANCH   1  16
TORSDOF 6
ENDMDL
MODEL 5
REMARK VINA RESULT: -6.298433777      0.544      1.313
REMARK  6 active torsions:
REMARK  status: ('A' for Active; 'I' for Inactive)
REMARK    1  A    between atoms: C4_6  and  C5_7 
REMARK    2  A    between atoms: C5_7  and  N2_8 
REMARK    3  A    between atoms: C5_7  and  C6_12 
REMARK    4  A    between atoms: C6_12  and  C7_13 
REMARK    5  A    between atoms: C7_13  and  N3_14 
REMARK    6  A    between atoms: N3_14  and  C8_16 
ROOT
HETATM    1  C6  UNL     1      32.358  15.115  54.924  1.00  0.00     0.011 A 
HETATM    2  C18 UNL     1      32.996  14.041  54.140  1.00  0.00     0.014 A 
HETATM    3  C19 UNL     1      33.047  13.883  55.590  1.00  0.00     0.014 A 
ENDROOT
BRANCH   1   4
HETATM    4  C5  UNL     1      33.072  16.418  55.048  1.00  0.00     0.268 C 
BRANCH   4   5
HETATM    5  C4  UNL     1      32.302  17.407  55.837  1.00  0.00     0.155 A 
HETATM    6  N1  UNL     1      31.591  18.427  55.336  1.00  0.00    -0.346 N 
HETATM    7  C3  UNL     1      31.028  19.107  56.343  1.00  0.00     0.122 A 
ATOM      8  H1  UNL     1      31.494  18.650  54.345  1.00  0.00     0.167 HD
HETATM    9  C2  UNL     1      31.419  18.468  57.496  1.00  0.00     0.066 A 
HETATM   10  C1  UNL     1      31.040  18.854  58.901  1.00  0.00     0.078 C 
HETATM   11  O1  UNL     1      32.175  17.466  57.136  1.00  0.00    -0.299 OA
ENDBRANCH   4   5
BRANCH   4  12
HETATM   12  N2  UNL     1      33.350  16.926  53.717  1.00  0.00    -0.067 N 
ATOM     13  H23 UNL     1      34.145  17.565  53.714  1.00  0.00     0.275 HD
ATOM     14  H22 UNL     1      33.733  16.203  53.108  1.00  0.00     0.275 HD
ATOM     15  H21 UNL     1      32.517  17.357  53.314  1.00  0.00     0.275 HD
ENDBRANCH   4  12
ENDBRANCH   1   4
BRANCH   1  16
HETATM   16  C7  UNL     1      30.878  15.126  55.250  1.00  0.00     0.126 C 
BRANCH  16  17
HETATM   17  N3  UNL     1      30.046  14.686  54.190  1.00  0.00    -0.412 N 
ATOM     18  H3  UNL     1      30.090  15.121  53.268  1.00  0.00     0.154 HD
BRANCH  17  19
HETATM   19  C8  UNL     1      29.149  13.617  54.456  1.00  0.00     0.026 C 
HETATM   20  C9  UNL     1      27.740  14.108  54.091  1.00  0.00     0.035 C 
HETATM   21  C10 UNL     1      26.678  13.168  54.563  1.00  0.00    -0.012 C 
HETATM   22  C11 UNL     1      26.908  11.823  53.875  1.00  0.00     0.009 C 
HETATM   23  C15 UNL     1      26.751  12.938  56.042  1.00  0.00     0.009 C 
HETATM   24  C12 UNL     1      28.299  11.338  54.222  1.00  0.00    -0.012 C 
HETATM   25  C13 UNL     1      28.385  11.063  55.684  1.00  0.00     0.009 C 
HETATM   26  C17 UNL     1      29.349  12.332  53.746  1.00  0.00     0.035 C 
HETATM   27  C14 UNL     1      28.102  12.379  56.390  1.00  0.00    -0.012 C 
HETATM   28  C16 UNL     1      29.155  13.356  55.945  1.00  0.00     0.035 C 
ENDBRANCH  17  19
ENDBRANCH  16  17
ENDBRANCH   1  16
TORSDOF 6
ENDMDL
