MODEL 1
REMARK VINA RESULT: -4.852130481      0.000      0.000
REMARK  2 active torsions:
REMARK  status: ('A' for Active; 'I' for Inactive)
REMARK    1  A    between atoms: S1_2  and  C3_4 
REMARK    2  A    between atoms: C7_8  and  O1_9 
ROOT
HETATM    1  C3  UNL     1      15.216   1.588  15.223  1.00  0.00     0.065 C 
HETATM    2  C4  UNL     1      13.768   1.508  15.679  1.00  0.00     0.017 C 
HETATM    3  C5  UNL     1      13.806   1.148  17.136  1.00  0.00     0.004 C 
HETATM    4  C6  UNL     1      15.288   1.003  17.501  1.00  0.00     0.033 C 
HETATM    5  C7  UNL     1      15.880   0.643  16.164  1.00  0.00     0.131 C 
ENDROOT
BRANCH   1   6
HETATM    6  S1  UNL     1      15.684   3.249  15.337  1.00  0.00    -0.221 SA
HETATM    7  C1  UNL     1      17.298   3.657  14.895  1.00  0.00     0.078 C 
HETATM    8  C2  UNL     1      14.443   4.207  14.497  1.00  0.00     0.078 C 
ENDBRANCH   1   6
BRANCH   5   9
HETATM    9  O1  UNL     1      17.243   0.638  16.130  1.00  0.00    -0.394 OA
ATOM     10  H1  UNL     1      17.672   0.252  16.885  1.00  0.00     0.210 HD
ENDBRANCH   5   9
TORSDOF 2
ENDMDL
MODEL 2
REMARK VINA RESULT: -4.658019390      1.730      2.142
REMARK  2 active torsions:
REMARK  status: ('A' for Active; 'I' for Inactive)
REMARK    1  A    between atoms: S1_2  and  C3_4 
REMARK    2  A    between atoms: C7_8  and  O1_9 
ROOT
HETATM    1  C3  UNL     1      14.356   1.231  15.712  1.00  0.00     0.065 C 
HETATM    2  C4  UNL     1      13.886   2.650  15.986  1.00  0.00     0.017 C 
HETATM    3  C5  UNL     1      14.250   2.945  17.411  1.00  0.00     0.004 C 
HETATM    4  C6  UNL     1      14.913   1.674  17.954  1.00  0.00     0.033 C 
HETATM    5  C7  UNL     1      14.291   0.624  17.071  1.00  0.00     0.131 C 
ENDROOT
BRANCH   1   6
HETATM    6  S1  UNL     1      15.925   1.354  14.995  1.00  0.00    -0.221 SA
HETATM    7  C1  UNL     1      16.509  -0.004  14.111  1.00  0.00     0.078 C 
HETATM    8  C2  UNL     1      15.971   2.881  14.084  1.00  0.00     0.078 C 
ENDBRANCH   1   6
BRANCH   5   9
HETATM    9  O1  UNL     1      14.841  -0.617  17.190  1.00  0.00    -0.394 OA
ATOM     10  H1  UNL     1      14.293  -1.273  17.606  1.00  0.00     0.210 HD
ENDBRANCH   5   9
TORSDOF 2
ENDMDL
MODEL 3
REMARK VINA RESULT: -4.624340382      2.304      3.054
REMARK  2 active torsions:
REMARK  status: ('A' for Active; 'I' for Inactive)
REMARK    1  A    between atoms: S1_2  and  C3_4 
REMARK    2  A    between atoms: C7_8  and  O1_9 
ROOT
HETATM    1  C3  UNL     1      15.688   1.254  14.385  1.00  0.00     0.065 C 
HETATM    2  C4  UNL     1      15.033   2.615  14.221  1.00  0.00     0.017 C 
HETATM    3  C5  UNL     1      15.919   3.596  14.931  1.00  0.00     0.004 C 
HETATM    4  C6  UNL     1      17.075   2.779  15.518  1.00  0.00     0.033 C 
HETATM    5  C7  UNL     1      16.427   1.428  15.667  1.00  0.00     0.131 C 
ENDROOT
BRANCH   1   6
HETATM    6  S1  UNL     1      16.647   0.988  12.971  1.00  0.00    -0.221 SA
HETATM    7  C1  UNL     1      16.745  -0.620  12.361  1.00  0.00     0.078 C 
HETATM    8  C2  UNL     1      16.146   2.189  11.758  1.00  0.00     0.078 C 
ENDBRANCH   1   6
BRANCH   5   9
HETATM    9  O1  UNL     1      17.284   0.420  15.995  1.00  0.00    -0.394 OA
ATOM     10  H1  UNL     1      17.384   0.251  16.925  1.00  0.00     0.210 HD
ENDBRANCH   5   9
TORSDOF 2
ENDMDL
MODEL 4
REMARK VINA RESULT: -4.613578156      1.347      1.501
REMARK  2 active torsions:
REMARK  status: ('A' for Active; 'I' for Inactive)
REMARK    1  A    between atoms: S1_2  and  C3_4 
REMARK    2  A    between atoms: C7_8  and  O1_9 
ROOT
HETATM    1  C3  UNL     1      14.249   1.597  15.833  1.00  0.00     0.065 C 
HETATM    2  C4  UNL     1      13.642   2.508  16.887  1.00  0.00     0.017 C 
HETATM    3  C5  UNL     1      14.345   2.188  18.173  1.00  0.00     0.004 C 
HETATM    4  C6  UNL     1      15.344   1.072  17.849  1.00  0.00     0.033 C 
HETATM    5  C7  UNL     1      14.683   0.433  16.655  1.00  0.00     0.131 C 
ENDROOT
BRANCH   1   6
HETATM    6  S1  UNL     1      15.501   2.500  15.052  1.00  0.00    -0.221 SA
HETATM    7  C1  UNL     1      16.051   1.943  13.518  1.00  0.00     0.078 C 
HETATM    8  C2  UNL     1      15.005   4.208  15.062  1.00  0.00     0.078 C 
ENDBRANCH   1   6
BRANCH   5   9
HETATM    9  O1  UNL     1      15.449  -0.493  16.011  1.00  0.00    -0.394 OA
ATOM     10  H1  UNL     1      15.219  -1.401  16.171  1.00  0.00     0.210 HD
ENDBRANCH   5   9
TORSDOF 2
ENDMDL
MODEL 5
REMARK VINA RESULT: -4.430946230      3.911      5.186
REMARK  2 active torsions:
REMARK  status: ('A' for Active; 'I' for Inactive)
REMARK    1  A    between atoms: S1_2  and  C3_4 
REMARK    2  A    between atoms: C7_8  and  O1_9 
ROOT
HETATM    1  C3  UNL     1      16.023   1.033  11.981  1.00  0.00     0.065 C 
HETATM    2  C4  UNL     1      16.960  -0.153  11.821  1.00  0.00     0.017 C 
HETATM    3  C5  UNL     1      18.238   0.396  11.256  1.00  0.00     0.004 C 
HETATM    4  C6  UNL     1      18.014   1.901  11.076  1.00  0.00     0.033 C 
HETATM    5  C7  UNL     1      16.517   1.953  10.919  1.00  0.00     0.131 C 
ENDROOT
BRANCH   1   6
HETATM    6  S1  UNL     1      16.185   1.581  13.614  1.00  0.00    -0.221 SA
HETATM    7  C1  UNL     1      14.963   2.624  14.233  1.00  0.00     0.078 C 
HETATM    8  C2  UNL     1      16.491   0.149  14.624  1.00  0.00     0.078 C 
ENDBRANCH   1   6
BRANCH   5   9
HETATM    9  O1  UNL     1      15.987   3.209  10.933  1.00  0.00    -0.394 OA
ATOM     10  H1  UNL     1      16.593   3.909  11.149  1.00  0.00     0.210 HD
ENDBRANCH   5   9
TORSDOF 2
ENDMDL
