MODEL 1
REMARK VINA RESULT: -10.274855699      0.000      0.000
REMARK  12 active torsions:
REMARK  status: ('A' for Active; 'I' for Inactive)
REMARK    1  A    between atoms: C2_2  and  C3_3 
REMARK    2  A    between atoms: C2_2  and  C13_13 
REMARK    3  A    between atoms: C3_3  and  C4_4 
REMARK    4  A    between atoms: C4_4  and  C7_7 
REMARK    5  A    between atoms: C14_15  and  C15_16 
REMARK    6  A    between atoms: C15_16  and  O2_17 
REMARK    7  A    between atoms: O2_17  and  C16_18 
REMARK    8  A    between atoms: C16_18  and  C17_20 
REMARK    9  A    between atoms: C22_25  and  N1_26 
REMARK   10  A    between atoms: C26_32  and  O4_33 
REMARK   11  A    between atoms: C27_35  and  O5_36 
REMARK   12  A    between atoms: C28_38  and  O6_39 
ROOT
HETATM    1  C13 UNL     1      23.140  45.815   2.474  1.00  0.00     0.157 C 
HETATM    2  O1  UNL     1      23.046  46.039   1.109  1.00  0.00    -0.373 OA
HETATM    3  C14 UNL     1      23.025  47.429   0.813  1.00  0.00     0.177 C 
HETATM    4  C26 UNL     1      22.434  48.245   1.866  1.00  0.00     0.180 C 
HETATM    5  C27 UNL     1      21.293  47.364   2.492  1.00  0.00     0.180 C 
HETATM    6  C28 UNL     1      22.073  46.336   3.339  1.00  0.00     0.178 C 
ENDROOT
BRANCH   3   7
HETATM    7  C15 UNL     1      24.260  47.857   0.151  1.00  0.00     0.213 C 
BRANCH   7   8
HETATM    8  O2  UNL     1      24.630  47.221  -0.999  1.00  0.00    -0.315 OA
BRANCH   8   9
HETATM    9  C16 UNL     1      25.270  46.073  -1.293  1.00  0.00     0.295 C 
HETATM   10  O3  UNL     1      26.440  45.919  -0.816  1.00  0.00    -0.259 OA
BRANCH   9  11
HETATM   11  C17 UNL     1      24.748  44.979  -2.108  1.00  0.00     0.068 A 
HETATM   12  C18 UNL     1      24.707  43.695  -1.559  1.00  0.00     0.020 A 
HETATM   13  C19 UNL     1      24.216  42.624  -2.247  1.00  0.00     0.001 A 
HETATM   14  C20 UNL     1      23.738  42.774  -3.528  1.00  0.00     0.002 A 
HETATM   15  C21 UNL     1      23.769  44.022  -4.089  1.00  0.00     0.032 A 
HETATM   16  C22 UNL     1      24.270  45.097  -3.374  1.00  0.00     0.072 A 
BRANCH  16  17
HETATM   17  N1  UNL     1      24.290  46.366  -4.013  1.00  0.00    -0.267 N 
HETATM   18  C23 UNL     1      24.948  46.702  -5.120  1.00  0.00     0.118 A 
HETATM   19  C24 UNL     1      24.683  48.038  -5.364  1.00  0.00     0.038 A 
HETATM   20  C25 UNL     1      23.840  48.464  -4.349  1.00  0.00     0.109 A 
HETATM   21  N2  UNL     1      23.624  47.414  -3.545  1.00  0.00    -0.305 N 
ATOM     22  H2  UNL     1      23.041  47.420  -2.709  1.00  0.00     0.186 HD
ENDBRANCH  16  17
ENDBRANCH   9  11
ENDBRANCH   8   9
ENDBRANCH   7   8
ENDBRANCH   3   7
BRANCH   4  23
HETATM   23  O4  UNL     1      21.838  49.431   1.421  1.00  0.00    -0.390 OA
ATOM     24  H4  UNL     1      22.382  49.958   0.849  1.00  0.00     0.210 HD
ENDBRANCH   4  23
BRANCH   1  25
HETATM   25  C2  UNL     1      23.732  44.530   2.821  1.00  0.00     0.014 C 
HETATM   26  C1  UNL     1      25.311  44.860   2.809  1.00  0.00     0.012 C 
BRANCH  25  27
HETATM   27  C3  UNL     1      23.614  43.307   2.007  1.00  0.00     0.020 C 
BRANCH  27  28
HETATM   28  C4  UNL     1      22.451  42.473   1.869  1.00  0.00    -0.020 C 
HETATM   29  C5  UNL     1      22.110  42.093   0.464  1.00  0.00     0.020 C 
HETATM   30  C6  UNL     1      21.173  43.219   2.374  1.00  0.00     0.020 C 
BRANCH  28  31
HETATM   31  C7  UNL     1      22.445  41.229   2.668  1.00  0.00    -0.050 A 
HETATM   32  C8  UNL     1      21.653  40.195   2.231  1.00  0.00     0.008 A 
HETATM   33  C9  UNL     1      21.615  39.001   2.965  1.00  0.00     0.001 A 
HETATM   34  C10 UNL     1      22.368  38.860   4.120  1.00  0.00     0.000 A 
HETATM   35  C11 UNL     1      23.167  39.909   4.555  1.00  0.00     0.001 A 
HETATM   36  C12 UNL     1      23.181  41.088   3.799  1.00  0.00     0.008 A 
ENDBRANCH  28  31
ENDBRANCH  27  28
ENDBRANCH  25  27
ENDBRANCH   1  25
BRANCH   5  37
HETATM   37  O5  UNL     1      20.558  48.207   3.283  1.00  0.00    -0.390 OA
ATOM     38  H5  UNL     1      20.011  48.710   2.691  1.00  0.00     0.210 HD
ENDBRANCH   5  37
BRANCH   6  39
HETATM   39  O6  UNL     1      22.602  47.168   4.391  1.00  0.00    -0.390 OA
ATOM     40  H6  UNL     1      21.997  47.862   4.624  1.00  0.00     0.210 HD
ENDBRANCH   6  39
TORSDOF 12
ENDMDL
MODEL 2
REMARK VINA RESULT: -10.144341041      2.413      6.419
REMARK  12 active torsions:
REMARK  status: ('A' for Active; 'I' for Inactive)
REMARK    1  A    between atoms: C2_2  and  C3_3 
REMARK    2  A    between atoms: C2_2  and  C13_13 
REMARK    3  A    between atoms: C3_3  and  C4_4 
REMARK    4  A    between atoms: C4_4  and  C7_7 
REMARK    5  A    between atoms: C14_15  and  C15_16 
REMARK    6  A    between atoms: C15_16  and  O2_17 
REMARK    7  A    between atoms: O2_17  and  C16_18 
REMARK    8  A    between atoms: C16_18  and  C17_20 
REMARK    9  A    between atoms: C22_25  and  N1_26 
REMARK   10  A    between atoms: C26_32  and  O4_33 
REMARK   11  A    between atoms: C27_35  and  O5_36 
REMARK   12  A    between atoms: C28_38  and  O6_39 
ROOT
HETATM    1  C13 UNL     1      22.348  46.967   2.263  1.00  0.00     0.157 C 
HETATM    2  O1  UNL     1      22.494  45.705   2.819  1.00  0.00    -0.373 OA
HETATM    3  C14 UNL     1      21.307  45.293   3.485  1.00  0.00     0.177 C 
HETATM    4  C26 UNL     1      20.530  46.396   4.035  1.00  0.00     0.180 C 
HETATM    5  C27 UNL     1      21.584  47.468   4.494  1.00  0.00     0.180 C 
HETATM    6  C28 UNL     1      22.049  48.091   3.161  1.00  0.00     0.178 C 
ENDROOT
BRANCH   3   7
HETATM    7  C15 UNL     1      20.640  44.202   2.770  1.00  0.00     0.213 C 
BRANCH   7   8
HETATM    8  O2  UNL     1      21.338  43.543   1.801  1.00  0.00    -0.315 OA
BRANCH   8   9
HETATM    9  C16 UNL     1      21.703  42.265   1.587  1.00  0.00     0.295 C 
HETATM   10  O3  UNL     1      21.715  41.855   0.383  1.00  0.00    -0.259 OA
BRANCH   9  11
HETATM   11  C17 UNL     1      22.092  41.297   2.610  1.00  0.00     0.068 A 
HETATM   12  C18 UNL     1      21.340  40.127   2.746  1.00  0.00     0.020 A 
HETATM   13  C19 UNL     1      21.650  39.165   3.663  1.00  0.00     0.001 A 
HETATM   14  C20 UNL     1      22.730  39.317   4.500  1.00  0.00     0.002 A 
HETATM   15  C21 UNL     1      23.482  40.456   4.388  1.00  0.00     0.032 A 
HETATM   16  C22 UNL     1      23.153  41.421   3.450  1.00  0.00     0.072 A 
BRANCH  16  17
HETATM   17  N1  UNL     1      23.961  42.588   3.389  1.00  0.00    -0.267 N 
HETATM   18  C23 UNL     1      24.577  43.197   4.399  1.00  0.00     0.118 A 
HETATM   19  C24 UNL     1      25.237  44.294   3.874  1.00  0.00     0.038 A 
HETATM   20  C25 UNL     1      24.977  44.295   2.513  1.00  0.00     0.109 A 
HETATM   21  N2  UNL     1      24.195  43.238   2.256  1.00  0.00    -0.305 N 
ATOM     22  H2  UNL     1      23.837  42.975   1.338  1.00  0.00     0.186 HD
ENDBRANCH  16  17
ENDBRANCH   9  11
ENDBRANCH   8   9
ENDBRANCH   7   8
ENDBRANCH   3   7
BRANCH   4  23
HETATM   23  O4  UNL     1      19.766  46.068   5.161  1.00  0.00    -0.390 OA
ATOM     24  H4  UNL     1      19.681  46.765   5.800  1.00  0.00     0.210 HD
ENDBRANCH   4  23
BRANCH   1  25
HETATM   25  C2  UNL     1      23.228  47.217   1.129  1.00  0.00     0.014 C 
HETATM   26  C1  UNL     1      22.786  48.697   0.666  1.00  0.00     0.012 C 
BRANCH  25  27
HETATM   27  C3  UNL     1      23.225  46.433  -0.120  1.00  0.00     0.020 C 
BRANCH  27  28
HETATM   28  C4  UNL     1      24.313  46.289  -1.049  1.00  0.00    -0.020 C 
HETATM   29  C5  UNL     1      25.676  46.390  -0.445  1.00  0.00     0.020 C 
HETATM   30  C6  UNL     1      24.289  47.437  -2.110  1.00  0.00     0.020 C 
BRANCH  28  31
HETATM   31  C7  UNL     1      24.298  45.068  -1.883  1.00  0.00    -0.050 A 
HETATM   32  C8  UNL     1      24.670  45.191  -3.200  1.00  0.00     0.008 A 
HETATM   33  C9  UNL     1      24.662  44.057  -4.024  1.00  0.00     0.001 A 
HETATM   34  C10 UNL     1      24.285  42.823  -3.521  1.00  0.00     0.000 A 
HETATM   35  C11 UNL     1      23.912  42.706  -2.189  1.00  0.00     0.001 A 
HETATM   36  C12 UNL     1      23.929  43.858  -1.393  1.00  0.00     0.008 A 
ENDBRANCH  28  31
ENDBRANCH  27  28
ENDBRANCH  25  27
ENDBRANCH   1  25
BRANCH   5  37
HETATM   37  O5  UNL     1      20.894  48.374   5.255  1.00  0.00    -0.390 OA
ATOM     38  H5  UNL     1      21.468  49.124   5.353  1.00  0.00     0.210 HD
ENDBRANCH   5  37
BRANCH   6  39
HETATM   39  O6  UNL     1      20.866  48.801   2.744  1.00  0.00    -0.390 OA
ATOM     40  H6  UNL     1      20.915  49.723   2.969  1.00  0.00     0.210 HD
ENDBRANCH   6  39
TORSDOF 12
ENDMDL
MODEL 3
REMARK VINA RESULT: -10.068146291      4.098      7.535
REMARK  12 active torsions:
REMARK  status: ('A' for Active; 'I' for Inactive)
REMARK    1  A    between atoms: C2_2  and  C3_3 
REMARK    2  A    between atoms: C2_2  and  C13_13 
REMARK    3  A    between atoms: C3_3  and  C4_4 
REMARK    4  A    between atoms: C4_4  and  C7_7 
REMARK    5  A    between atoms: C14_15  and  C15_16 
REMARK    6  A    between atoms: C15_16  and  O2_17 
REMARK    7  A    between atoms: O2_17  and  C16_18 
REMARK    8  A    between atoms: C16_18  and  C17_20 
REMARK    9  A    between atoms: C22_25  and  N1_26 
REMARK   10  A    between atoms: C26_32  and  O4_33 
REMARK   11  A    between atoms: C27_35  and  O5_36 
REMARK   12  A    between atoms: C28_38  and  O6_39 
ROOT
HETATM    1  C13 UNL     1      23.426  45.909   2.547  1.00  0.00     0.157 C 
HETATM    2  O1  UNL     1      23.392  46.915   3.502  1.00  0.00    -0.373 OA
HETATM    3  C14 UNL     1      22.414  47.896   3.184  1.00  0.00     0.177 C 
HETATM    4  C26 UNL     1      22.184  48.054   1.754  1.00  0.00     0.180 C 
HETATM    5  C27 UNL     1      23.579  47.810   1.072  1.00  0.00     0.180 C 
HETATM    6  C28 UNL     1      23.746  46.278   1.161  1.00  0.00     0.178 C 
ENDROOT
BRANCH   3   7
HETATM    7  C15 UNL     1      21.284  47.852   4.115  1.00  0.00     0.213 C 
BRANCH   7   8
HETATM    8  O2  UNL     1      21.388  47.056   5.218  1.00  0.00    -0.315 OA
BRANCH   8   9
HETATM    9  C16 UNL     1      20.532  46.600   6.152  1.00  0.00     0.295 C 
HETATM   10  O3  UNL     1      19.431  46.109   5.744  1.00  0.00    -0.259 OA
BRANCH   9  11
HETATM   11  C17 UNL     1      20.746  46.612   7.598  1.00  0.00     0.068 A 
HETATM   12  C18 UNL     1      20.629  45.411   8.302  1.00  0.00     0.020 A 
HETATM   13  C19 UNL     1      20.833  45.335   9.649  1.00  0.00     0.001 A 
HETATM   14  C20 UNL     1      21.164  46.457  10.372  1.00  0.00     0.002 A 
HETATM   15  C21 UNL     1      21.282  47.646   9.706  1.00  0.00     0.032 A 
HETATM   16  C22 UNL     1      21.073  47.704   8.337  1.00  0.00     0.072 A 
BRANCH  16  17
HETATM   17  N1  UNL     1      21.195  48.968   7.702  1.00  0.00    -0.267 N 
HETATM   18  C23 UNL     1      22.285  49.726   7.613  1.00  0.00     0.118 A 
HETATM   19  C24 UNL     1      21.934  50.869   6.917  1.00  0.00     0.038 A 
HETATM   20  C25 UNL     1      20.590  50.742   6.604  1.00  0.00     0.109 A 
HETATM   21  N2  UNL     1      20.175  49.569   7.100  1.00  0.00    -0.305 N 
ATOM     22  H2  UNL     1      19.229  49.197   7.027  1.00  0.00     0.186 HD
ENDBRANCH  16  17
ENDBRANCH   9  11
ENDBRANCH   8   9
ENDBRANCH   7   8
ENDBRANCH   3   7
BRANCH   4  23
HETATM   23  O4  UNL     1      21.758  49.330   1.367  1.00  0.00    -0.390 OA
ATOM     24  H4  UNL     1      21.015  49.339   0.777  1.00  0.00     0.210 HD
ENDBRANCH   4  23
BRANCH   1  25
HETATM   25  C2  UNL     1      23.931  44.638   3.047  1.00  0.00     0.014 C 
HETATM   26  C1  UNL     1      25.518  44.909   3.146  1.00  0.00     0.012 C 
BRANCH  25  27
HETATM   27  C3  UNL     1      23.830  43.355   2.328  1.00  0.00     0.020 C 
BRANCH  27  28
HETATM   28  C4  UNL     1      22.626  42.625   2.033  1.00  0.00    -0.020 C 
HETATM   29  C5  UNL     1      22.362  42.405   0.579  1.00  0.00     0.020 C 
HETATM   30  C6  UNL     1      21.368  43.412   2.526  1.00  0.00     0.020 C 
BRANCH  28  31
HETATM   31  C7  UNL     1      22.480  41.316   2.703  1.00  0.00    -0.050 A 
HETATM   32  C8  UNL     1      21.617  40.405   2.143  1.00  0.00     0.008 A 
HETATM   33  C9  UNL     1      21.447  39.154   2.753  1.00  0.00     0.001 A 
HETATM   34  C10 UNL     1      22.139  38.834   3.909  1.00  0.00     0.000 A 
HETATM   35  C11 UNL     1      23.011  39.758   4.469  1.00  0.00     0.001 A 
HETATM   36  C12 UNL     1      23.158  40.999   3.835  1.00  0.00     0.008 A 
ENDBRANCH  28  31
ENDBRANCH  27  28
ENDBRANCH  25  27
ENDBRANCH   1  25
BRANCH   5  37
HETATM   37  O5  UNL     1      23.440  48.222  -0.227  1.00  0.00    -0.390 OA
ATOM     38  H5  UNL     1      23.912  47.588  -0.754  1.00  0.00     0.210 HD
ENDBRANCH   5  37
BRANCH   6  39
HETATM   39  O6  UNL     1      22.732  45.821   0.244  1.00  0.00    -0.390 OA
ATOM     40  H6  UNL     1      23.114  45.483  -0.558  1.00  0.00     0.210 HD
ENDBRANCH   6  39
TORSDOF 12
ENDMDL
MODEL 4
REMARK VINA RESULT: -9.989969410      1.409      2.221
REMARK  12 active torsions:
REMARK  status: ('A' for Active; 'I' for Inactive)
REMARK    1  A    between atoms: C2_2  and  C3_3 
REMARK    2  A    between atoms: C2_2  and  C13_13 
REMARK    3  A    between atoms: C3_3  and  C4_4 
REMARK    4  A    between atoms: C4_4  and  C7_7 
REMARK    5  A    between atoms: C14_15  and  C15_16 
REMARK    6  A    between atoms: C15_16  and  O2_17 
REMARK    7  A    between atoms: O2_17  and  C16_18 
REMARK    8  A    between atoms: C16_18  and  C17_20 
REMARK    9  A    between atoms: C22_25  and  N1_26 
REMARK   10  A    between atoms: C26_32  and  O4_33 
REMARK   11  A    between atoms: C27_35  and  O5_36 
REMARK   12  A    between atoms: C28_38  and  O6_39 
ROOT
HETATM    1  C13 UNL     1      24.310  45.607   2.487  1.00  0.00     0.157 C 
HETATM    2  O1  UNL     1      23.526  46.751   2.454  1.00  0.00    -0.373 OA
HETATM    3  C14 UNL     1      24.035  47.700   1.528  1.00  0.00     0.177 C 
HETATM    4  C26 UNL     1      25.481  47.638   1.357  1.00  0.00     0.180 C 
HETATM    5  C27 UNL     1      26.055  47.246   2.767  1.00  0.00     0.180 C 
HETATM    6  C28 UNL     1      25.721  45.743   2.872  1.00  0.00     0.178 C 
ENDROOT
BRANCH   3   7
HETATM    7  C15 UNL     1      23.158  47.838   0.362  1.00  0.00     0.213 C 
BRANCH   7   8
HETATM    8  O2  UNL     1      23.189  46.859  -0.588  1.00  0.00    -0.315 OA
BRANCH   8   9
HETATM    9  C16 UNL     1      23.979  46.571  -1.639  1.00  0.00     0.295 C 
HETATM   10  O3  UNL     1      24.757  47.489  -2.053  1.00  0.00    -0.259 OA
BRANCH   9  11
HETATM   11  C17 UNL     1      24.035  45.297  -2.353  1.00  0.00     0.068 A 
HETATM   12  C18 UNL     1      24.155  44.119  -1.613  1.00  0.00     0.020 A 
HETATM   13  C19 UNL     1      24.194  42.889  -2.203  1.00  0.00     0.001 A 
HETATM   14  C20 UNL     1      24.116  42.766  -3.570  1.00  0.00     0.002 A 
HETATM   15  C21 UNL     1      24.000  43.906  -4.318  1.00  0.00     0.032 A 
HETATM   16  C22 UNL     1      23.961  45.146  -3.701  1.00  0.00     0.072 A 
BRANCH  16  17
HETATM   17  N1  UNL     1      23.854  46.295  -4.529  1.00  0.00    -0.267 N 
HETATM   18  C23 UNL     1      22.741  46.843  -5.010  1.00  0.00     0.118 A 
HETATM   19  C24 UNL     1      23.118  47.935  -5.771  1.00  0.00     0.038 A 
HETATM   20  C25 UNL     1      24.502  47.998  -5.710  1.00  0.00     0.109 A 
HETATM   21  N2  UNL     1      24.913  46.980  -4.943  1.00  0.00    -0.305 N 
ATOM     22  H2  UNL     1      25.883  46.766  -4.713  1.00  0.00     0.186 HD
ENDBRANCH  16  17
ENDBRANCH   9  11
ENDBRANCH   8   9
ENDBRANCH   7   8
ENDBRANCH   3   7
BRANCH   4  23
HETATM   23  O4  UNL     1      26.080  48.850   0.995  1.00  0.00    -0.390 OA
ATOM     24  H4  UNL     1      26.404  48.882   0.103  1.00  0.00     0.210 HD
ENDBRANCH   4  23
BRANCH   1  25
HETATM   25  C2  UNL     1      23.596  44.415   2.925  1.00  0.00     0.014 C 
HETATM   26  C1  UNL     1      24.382  44.015   4.275  1.00  0.00     0.012 C 
BRANCH  25  27
HETATM   27  C3  UNL     1      23.524  43.155   2.163  1.00  0.00     0.020 C 
BRANCH  27  28
HETATM   28  C4  UNL     1      22.358  42.342   1.949  1.00  0.00    -0.020 C 
HETATM   29  C5  UNL     1      22.083  41.996   0.521  1.00  0.00     0.020 C 
HETATM   30  C6  UNL     1      21.067  43.096   2.406  1.00  0.00     0.020 C 
BRANCH  28  31
HETATM   31  C7  UNL     1      22.294  41.082   2.720  1.00  0.00    -0.050 A 
HETATM   32  C8  UNL     1      21.407  40.121   2.298  1.00  0.00     0.008 A 
HETATM   33  C9  UNL     1      21.313  38.915   3.007  1.00  0.00     0.001 A 
HETATM   34  C10 UNL     1      22.104  38.689   4.122  1.00  0.00     0.000 A 
HETATM   35  C11 UNL     1      23.000  39.664   4.541  1.00  0.00     0.001 A 
HETATM   36  C12 UNL     1      23.069  40.857   3.811  1.00  0.00     0.008 A 
ENDBRANCH  28  31
ENDBRANCH  27  28
ENDBRANCH  25  27
ENDBRANCH   1  25
BRANCH   5  37
HETATM   37  O5  UNL     1      27.408  47.452   2.693  1.00  0.00    -0.390 OA
ATOM     38  H5  UNL     1      27.746  46.766   2.130  1.00  0.00     0.210 HD
ENDBRANCH   5  37
BRANCH   6  39
HETATM   39  O6  UNL     1      26.598  45.179   1.877  1.00  0.00    -0.390 OA
ATOM     40  H6  UNL     1      27.155  44.503   2.246  1.00  0.00     0.210 HD
ENDBRANCH   6  39
TORSDOF 12
ENDMDL
MODEL 5
REMARK VINA RESULT: -9.842508020      2.480      6.222
REMARK  12 active torsions:
REMARK  status: ('A' for Active; 'I' for Inactive)
REMARK    1  A    between atoms: C2_2  and  C3_3 
REMARK    2  A    between atoms: C2_2  and  C13_13 
REMARK    3  A    between atoms: C3_3  and  C4_4 
REMARK    4  A    between atoms: C4_4  and  C7_7 
REMARK    5  A    between atoms: C14_15  and  C15_16 
REMARK    6  A    between atoms: C15_16  and  O2_17 
REMARK    7  A    between atoms: O2_17  and  C16_18 
REMARK    8  A    between atoms: C16_18  and  C17_20 
REMARK    9  A    between atoms: C22_25  and  N1_26 
REMARK   10  A    between atoms: C26_32  and  O4_33 
REMARK   11  A    between atoms: C27_35  and  O5_36 
REMARK   12  A    between atoms: C28_38  and  O6_39 
ROOT
HETATM    1  C13 UNL     1      22.742  47.330   3.013  1.00  0.00     0.157 C 
HETATM    2  O1  UNL     1      22.983  46.391   4.005  1.00  0.00    -0.373 OA
HETATM    3  C14 UNL     1      21.777  45.776   4.438  1.00  0.00     0.177 C 
HETATM    4  C26 UNL     1      20.606  46.637   4.328  1.00  0.00     0.180 C 
HETATM    5  C27 UNL     1      21.122  48.091   4.628  1.00  0.00     0.180 C 
HETATM    6  C28 UNL     1      21.870  48.468   3.332  1.00  0.00     0.178 C 
ENDROOT
BRANCH   3   7
HETATM    7  C15 UNL     1      21.706  44.374   4.018  1.00  0.00     0.213 C 
BRANCH   7   8
HETATM    8  O2  UNL     1      22.821  43.807   3.474  1.00  0.00    -0.315 OA
BRANCH   8   9
HETATM    9  C16 UNL     1      23.363  42.574   3.473  1.00  0.00     0.295 C 
HETATM   10  O3  UNL     1      24.567  42.466   3.871  1.00  0.00    -0.259 OA
BRANCH   9  11
HETATM   11  C17 UNL     1      22.698  41.340   3.061  1.00  0.00     0.068 A 
HETATM   12  C18 UNL     1      22.561  40.310   3.994  1.00  0.00     0.020 A 
HETATM   13  C19 UNL     1      21.936  39.134   3.695  1.00  0.00     0.001 A 
HETATM   14  C20 UNL     1      21.412  38.920   2.442  1.00  0.00     0.002 A 
HETATM   15  C21 UNL     1      21.535  39.913   1.509  1.00  0.00     0.032 A 
HETATM   16  C22 UNL     1      22.171  41.101   1.832  1.00  0.00     0.072 A 
BRANCH  16  17
HETATM   17  N1  UNL     1      22.282  42.090   0.819  1.00  0.00    -0.267 N 
HETATM   18  C23 UNL     1      22.885  41.974  -0.362  1.00  0.00     0.118 A 
HETATM   19  C24 UNL     1      22.751  43.188  -1.011  1.00  0.00     0.038 A 
HETATM   20  C25 UNL     1      22.042  44.016  -0.155  1.00  0.00     0.109 A 
HETATM   21  N2  UNL     1      21.774  43.309   0.951  1.00  0.00    -0.305 N 
ATOM     22  H2  UNL     1      21.262  43.653   1.763  1.00  0.00     0.186 HD
ENDBRANCH  16  17
ENDBRANCH   9  11
ENDBRANCH   8   9
ENDBRANCH   7   8
ENDBRANCH   3   7
BRANCH   4  23
HETATM   23  O4  UNL     1      19.591  46.365   5.253  1.00  0.00    -0.390 OA
ATOM     24  H4  UNL     1      19.235  47.131   5.688  1.00  0.00     0.210 HD
ENDBRANCH   4  23
BRANCH   1  25
HETATM   25  C2  UNL     1      23.883  47.569   2.139  1.00  0.00     0.014 C 
HETATM   26  C1  UNL     1      23.896  49.178   2.018  1.00  0.00     0.012 C 
BRANCH  25  27
HETATM   27  C3  UNL     1      23.981  47.102   0.745  1.00  0.00     0.020 C 
BRANCH  27  28
HETATM   28  C4  UNL     1      25.070  46.373   0.154  1.00  0.00    -0.020 C 
HETATM   29  C5  UNL     1      25.357  45.048   0.783  1.00  0.00     0.020 C 
HETATM   30  C6  UNL     1      26.412  47.160   0.313  1.00  0.00     0.020 C 
BRANCH  28  31
HETATM   31  C7  UNL     1      24.988  46.151  -1.305  1.00  0.00    -0.050 A 
HETATM   32  C8  UNL     1      24.308  47.081  -2.055  1.00  0.00     0.008 A 
HETATM   33  C9  UNL     1      24.204  46.901  -3.442  1.00  0.00     0.001 A 
HETATM   34  C10 UNL     1      24.778  45.800  -4.055  1.00  0.00     0.000 A 
HETATM   35  C11 UNL     1      25.465  44.866  -3.292  1.00  0.00     0.001 A 
HETATM   36  C12 UNL     1      25.551  45.074  -1.909  1.00  0.00     0.008 A 
ENDBRANCH  28  31
ENDBRANCH  27  28
ENDBRANCH  25  27
ENDBRANCH   1  25
BRANCH   5  37
HETATM   37  O5  UNL     1      20.002  48.861   4.800  1.00  0.00    -0.390 OA
ATOM     38  H5  UNL     1      20.102  49.282   5.645  1.00  0.00     0.210 HD
ENDBRANCH   5  37
BRANCH   6  39
HETATM   39  O6  UNL     1      20.783  48.582   2.392  1.00  0.00    -0.390 OA
ATOM     40  H6  UNL     1      19.940  48.523   2.825  1.00  0.00     0.210 HD
ENDBRANCH   6  39
TORSDOF 12
ENDMDL
