MODEL 1
REMARK VINA RESULT: -6.837062852      0.000      0.000
REMARK  10 active torsions:
REMARK  status: ('A' for Active; 'I' for Inactive)
REMARK    1  A    between atoms: C2_2  and  C4_4 
REMARK    2  A    between atoms: C4_4  and  C5_5 
REMARK    3  A    between atoms: C11_14  and  C12_15 
REMARK       I    between atoms: C12_15  and  N2_17 
REMARK    4  A    between atoms: N2_17  and  C13_19 
REMARK    5  A    between atoms: C13_19  and  C14_20 
REMARK    6  A    between atoms: C18_24  and  O3_25 
REMARK    7  A    between atoms: C18_24  and  C19_27 
REMARK       I    between atoms: C19_27  and  N3_29 
REMARK    8  A    between atoms: N3_29  and  C20_31 
REMARK    9  A    between atoms: C20_31  and  C21_32 
REMARK   10  A    between atoms: C21_32  and  N4_33 
ROOT
HETATM    1  C5  UNL     1      18.448  62.288  24.657  1.00  0.00     0.177 C 
HETATM    2  N1  UNL     1      18.835  63.450  25.384  1.00  0.00    -0.347 N 
ATOM      3  H1  UNL     1      19.739  63.838  25.115  1.00  0.00     0.163 HD
HETATM    4  C6  UNL     1      18.183  64.146  26.401  1.00  0.00     0.222 C 
HETATM    5  O1  UNL     1      18.838  64.269  27.506  1.00  0.00    -0.273 OA
HETATM    6  C7  UNL     1      16.846  64.774  26.421  1.00  0.00     0.078 C 
HETATM    7  C8  UNL     1      17.021  66.227  26.790  1.00  0.00     0.020 C 
HETATM    8  C9  UNL     1      15.907  64.485  25.342  1.00  0.00     0.012 C 
HETATM    9  C10 UNL     1      14.461  64.649  25.889  1.00  0.00     0.012 C 
HETATM   10  C11 UNL     1      15.920  65.256  24.078  1.00  0.00     0.148 C 
HETATM   11  C18 UNL     1      16.970  64.950  23.075  1.00  0.00     0.230 C 
HETATM   12  N5  UNL     1      17.085  63.538  22.835  1.00  0.00    -0.319 N 
ATOM     13  H5  UNL     1      16.341  63.146  22.260  1.00  0.00     0.166 HD
HETATM   14  C25 UNL     1      18.039  62.611  23.255  1.00  0.00     0.243 C 
HETATM   15  O5  UNL     1      18.646  61.951  22.338  1.00  0.00    -0.271 OA
ENDROOT
BRANCH  11  16
HETATM   16  O3  UNL     1      18.200  65.558  23.412  1.00  0.00    -0.362 OA
ATOM     17  H3  UNL     1      18.931  65.108  23.007  1.00  0.00     0.213 HD
ENDBRANCH  11  16
BRANCH  11  18
HETATM   18  C19 UNL     1      16.676  65.611  21.765  1.00  0.00     0.274 C 
HETATM   19  O4  UNL     1      16.681  66.850  21.807  1.00  0.00    -0.268 OA
HETATM   20  N3  UNL     1      16.411  64.962  20.556  1.00  0.00    -0.355 N 
ATOM     21  H3  UNL     1      16.421  63.942  20.579  1.00  0.00     0.162 HD
BRANCH  20  22
HETATM   22  C20 UNL     1      16.130  65.556  19.307  1.00  0.00     0.150 C 
BRANCH  22  23
HETATM   23  C21 UNL     1      14.737  66.047  19.091  1.00  0.00     0.255 C 
BRANCH  23  24
HETATM   24  N4  UNL     1      14.595  67.414  18.743  1.00  0.00    -0.077 N 
HETATM   25  C22 UNL     1      13.775  67.714  17.607  1.00  0.00     0.271 C 
HETATM   26  C23 UNL     1      15.906  68.061  18.598  1.00  0.00     0.271 C 
HETATM   27  C24 UNL     1      13.974  68.124  19.876  1.00  0.00     0.271 C 
ENDBRANCH  23  24
ENDBRANCH  22  23
ENDBRANCH  20  22
ENDBRANCH  11  18
BRANCH  10  28
HETATM   28  C12 UNL     1      14.583  65.117  23.453  1.00  0.00     0.227 C 
HETATM   29  O2  UNL     1      14.109  63.969  23.117  1.00  0.00    -0.273 OA
HETATM   30  N2  UNL     1      13.715  66.219  23.169  1.00  0.00    -0.360 N 
ATOM     31  H2  UNL     1      14.024  67.163  23.401  1.00  0.00     0.162 HD
BRANCH  30  32
HETATM   32  C13 UNL     1      12.417  66.040  22.564  1.00  0.00     0.131 C 
BRANCH  32  33
HETATM   33  C14 UNL     1      11.433  67.094  22.942  1.00  0.00    -0.035 C 
HETATM   34  C15 UNL     1      10.657  66.801  24.187  1.00  0.00     0.016 C 
HETATM   35  C16 UNL     1      10.522  67.369  21.752  1.00  0.00     0.016 C 
HETATM   36  C17 UNL     1      12.211  68.385  23.178  1.00  0.00     0.016 C 
ENDBRANCH  32  33
ENDBRANCH  30  32
ENDBRANCH  10  28
BRANCH   1  37
HETATM   37  C4  UNL     1      19.408  61.148  24.690  1.00  0.00     0.038 C 
BRANCH  37  38
HETATM   38  C2  UNL     1      18.961  59.785  25.025  1.00  0.00    -0.020 C 
HETATM   39  C1  UNL     1      19.990  59.164  26.032  1.00  0.00     0.009 C 
HETATM   40  C3  UNL     1      19.172  58.868  23.807  1.00  0.00     0.009 C 
ENDBRANCH  37  38
ENDBRANCH   1  37
TORSDOF 10
ENDMDL
MODEL 2
REMARK VINA RESULT: -6.773832425      0.879      1.082
REMARK  10 active torsions:
REMARK  status: ('A' for Active; 'I' for Inactive)
REMARK    1  A    between atoms: C2_2  and  C4_4 
REMARK    2  A    between atoms: C4_4  and  C5_5 
REMARK    3  A    between atoms: C11_14  and  C12_15 
REMARK       I    between atoms: C12_15  and  N2_17 
REMARK    4  A    between atoms: N2_17  and  C13_19 
REMARK    5  A    between atoms: C13_19  and  C14_20 
REMARK    6  A    between atoms: C18_24  and  O3_25 
REMARK    7  A    between atoms: C18_24  and  C19_27 
REMARK       I    between atoms: C19_27  and  N3_29 
REMARK    8  A    between atoms: N3_29  and  C20_31 
REMARK    9  A    between atoms: C20_31  and  C21_32 
REMARK   10  A    between atoms: C21_32  and  N4_33 
ROOT
HETATM    1  C5  UNL     1      18.650  61.953  24.810  1.00  0.00     0.177 C 
HETATM    2  N1  UNL     1      19.135  63.172  25.367  1.00  0.00    -0.347 N 
ATOM      3  H1  UNL     1      20.030  63.484  24.991  1.00  0.00     0.163 HD
HETATM    4  C6  UNL     1      18.589  64.008  26.340  1.00  0.00     0.222 C 
HETATM    5  O1  UNL     1      19.332  64.225  27.373  1.00  0.00    -0.273 OA
HETATM    6  C7  UNL     1      17.282  64.696  26.382  1.00  0.00     0.078 C 
HETATM    7  C8  UNL     1      17.540  66.171  26.565  1.00  0.00     0.020 C 
HETATM    8  C9  UNL     1      16.254  64.330  25.414  1.00  0.00     0.012 C 
HETATM    9  C10 UNL     1      14.861  64.622  26.041  1.00  0.00     0.012 C 
HETATM   10  C11 UNL     1      16.200  64.950  24.071  1.00  0.00     0.148 C 
HETATM   11  C18 UNL     1      17.157  64.484  23.038  1.00  0.00     0.230 C 
HETATM   12  N5  UNL     1      17.200  63.050  22.958  1.00  0.00    -0.319 N 
ATOM     13  H5  UNL     1      16.399  62.630  22.486  1.00  0.00     0.166 HD
HETATM   14  C25 UNL     1      18.148  62.134  23.413  1.00  0.00     0.243 C 
HETATM   15  O5  UNL     1      18.657  61.346  22.539  1.00  0.00    -0.271 OA
ENDROOT
BRANCH  11  16
HETATM   16  O3  UNL     1      18.431  65.069  23.213  1.00  0.00    -0.362 OA
ATOM     17  H3  UNL     1      19.059  64.724  22.590  1.00  0.00     0.213 HD
ENDBRANCH  11  16
BRANCH  11  18
HETATM   18  C19 UNL     1      16.790  65.004  21.685  1.00  0.00     0.274 C 
HETATM   19  O4  UNL     1      16.484  64.124  20.866  1.00  0.00    -0.268 OA
HETATM   20  N3  UNL     1      16.767  66.347  21.296  1.00  0.00    -0.355 N 
ATOM     21  H3  UNL     1      17.026  67.028  22.009  1.00  0.00     0.162 HD
BRANCH  20  22
HETATM   22  C20 UNL     1      16.425  66.868  20.029  1.00  0.00     0.150 C 
BRANCH  22  23
HETATM   23  C21 UNL     1      15.304  67.852  19.985  1.00  0.00     0.255 C 
BRANCH  23  24
HETATM   24  N4  UNL     1      14.503  67.847  18.814  1.00  0.00    -0.077 N 
HETATM   25  C22 UNL     1      14.844  68.786  17.788  1.00  0.00     0.271 C 
HETATM   26  C23 UNL     1      13.077  67.968  19.149  1.00  0.00     0.271 C 
HETATM   27  C24 UNL     1      14.605  66.519  18.182  1.00  0.00     0.271 C 
ENDBRANCH  23  24
ENDBRANCH  22  23
ENDBRANCH  20  22
ENDBRANCH  11  18
BRANCH  10  28
HETATM   28  C12 UNL     1      14.814  64.804  23.564  1.00  0.00     0.227 C 
HETATM   29  O2  UNL     1      14.284  63.648  23.367  1.00  0.00    -0.273 OA
HETATM   30  N2  UNL     1      13.956  65.906  23.250  1.00  0.00    -0.360 N 
ATOM     31  H2  UNL     1      14.308  66.856  23.375  1.00  0.00     0.162 HD
BRANCH  30  32
HETATM   32  C13 UNL     1      12.611  65.720  22.764  1.00  0.00     0.131 C 
BRANCH  32  33
HETATM   33  C14 UNL     1      11.687  66.833  23.125  1.00  0.00    -0.035 C 
HETATM   34  C15 UNL     1      11.209  66.808  24.542  1.00  0.00     0.016 C 
HETATM   35  C16 UNL     1      10.531  66.856  22.132  1.00  0.00     0.016 C 
HETATM   36  C17 UNL     1      12.442  68.142  22.917  1.00  0.00     0.016 C 
ENDBRANCH  32  33
ENDBRANCH  30  32
ENDBRANCH  10  28
BRANCH   1  37
HETATM   37  C4  UNL     1      19.566  60.782  24.908  1.00  0.00     0.038 C 
BRANCH  37  38
HETATM   38  C2  UNL     1      19.085  59.477  25.395  1.00  0.00    -0.020 C 
HETATM   39  C1  UNL     1      20.207  58.842  26.289  1.00  0.00     0.009 C 
HETATM   40  C3  UNL     1      19.058  58.477  24.226  1.00  0.00     0.009 C 
ENDBRANCH  37  38
ENDBRANCH   1  37
TORSDOF 10
ENDMDL
MODEL 3
REMARK VINA RESULT: -6.729170462      0.795      1.140
REMARK  10 active torsions:
REMARK  status: ('A' for Active; 'I' for Inactive)
REMARK    1  A    between atoms: C2_2  and  C4_4 
REMARK    2  A    between atoms: C4_4  and  C5_5 
REMARK    3  A    between atoms: C11_14  and  C12_15 
REMARK       I    between atoms: C12_15  and  N2_17 
REMARK    4  A    between atoms: N2_17  and  C13_19 
REMARK    5  A    between atoms: C13_19  and  C14_20 
REMARK    6  A    between atoms: C18_24  and  O3_25 
REMARK    7  A    between atoms: C18_24  and  C19_27 
REMARK       I    between atoms: C19_27  and  N3_29 
REMARK    8  A    between atoms: N3_29  and  C20_31 
REMARK    9  A    between atoms: C20_31  and  C21_32 
REMARK   10  A    between atoms: C21_32  and  N4_33 
ROOT
HETATM    1  C5  UNL     1      18.467  62.403  24.603  1.00  0.00     0.177 C 
HETATM    2  N1  UNL     1      18.888  63.606  25.240  1.00  0.00    -0.347 N 
ATOM      3  H1  UNL     1      19.783  63.969  24.914  1.00  0.00     0.163 HD
HETATM    4  C6  UNL     1      18.277  64.369  26.234  1.00  0.00     0.222 C 
HETATM    5  O1  UNL     1      18.974  64.557  27.303  1.00  0.00    -0.273 OA
HETATM    6  C7  UNL     1      16.945  65.008  26.263  1.00  0.00     0.078 C 
HETATM    7  C8  UNL     1      17.141  66.480  26.533  1.00  0.00     0.020 C 
HETATM    8  C9  UNL     1      15.965  64.658  25.240  1.00  0.00     0.012 C 
HETATM    9  C10 UNL     1      14.542  64.867  25.829  1.00  0.00     0.012 C 
HETATM   10  C11 UNL     1      15.935  65.347  23.931  1.00  0.00     0.148 C 
HETATM   11  C18 UNL     1      16.945  64.971  22.910  1.00  0.00     0.230 C 
HETATM   12  N5  UNL     1      17.044  63.545  22.757  1.00  0.00    -0.319 N 
ATOM     13  H5  UNL     1      16.276  63.123  22.236  1.00  0.00     0.166 HD
HETATM   14  C25 UNL     1      18.008  62.640  23.199  1.00  0.00     0.243 C 
HETATM   15  O5  UNL     1      18.577  61.918  22.305  1.00  0.00    -0.271 OA
ENDROOT
BRANCH  11  16
HETATM   16  O3  UNL     1      18.190  65.589  23.162  1.00  0.00    -0.362 OA
ATOM     17  H3  UNL     1      18.517  65.370  24.027  1.00  0.00     0.213 HD
ENDBRANCH  11  16
BRANCH  11  18
HETATM   18  C19 UNL     1      16.606  65.549  21.573  1.00  0.00     0.274 C 
HETATM   19  O4  UNL     1      16.235  64.713  20.736  1.00  0.00    -0.268 OA
HETATM   20  N3  UNL     1      16.674  66.899  21.218  1.00  0.00    -0.355 N 
ATOM     21  H3  UNL     1      16.985  67.543  21.946  1.00  0.00     0.162 HD
BRANCH  20  22
HETATM   22  C20 UNL     1      16.362  67.474  19.967  1.00  0.00     0.150 C 
BRANCH  22  23
HETATM   23  C21 UNL     1      15.063  68.203  19.866  1.00  0.00     0.255 C 
BRANCH  23  24
HETATM   24  N4  UNL     1      14.257  67.906  18.737  1.00  0.00    -0.077 N 
HETATM   25  C22 UNL     1      14.289  66.559  18.251  1.00  0.00     0.271 C 
HETATM   26  C23 UNL     1      14.526  68.842  17.636  1.00  0.00     0.271 C 
HETATM   27  C24 UNL     1      12.849  68.166  19.086  1.00  0.00     0.271 C 
ENDBRANCH  23  24
ENDBRANCH  22  23
ENDBRANCH  20  22
ENDBRANCH  11  18
BRANCH  10  28
HETATM   28  C12 UNL     1      14.575  65.179  23.365  1.00  0.00     0.227 C 
HETATM   29  O2  UNL     1      14.077  64.015  23.133  1.00  0.00    -0.273 OA
HETATM   30  N2  UNL     1      13.708  66.268  23.030  1.00  0.00    -0.360 N 
ATOM     31  H2  UNL     1      14.035  67.222  23.181  1.00  0.00     0.162 HD
BRANCH  30  32
HETATM   32  C13 UNL     1      12.387  66.061  22.487  1.00  0.00     0.131 C 
BRANCH  32  33
HETATM   33  C14 UNL     1      11.443  67.178  22.775  1.00  0.00    -0.035 C 
HETATM   34  C15 UNL     1      10.353  67.345  21.764  1.00  0.00     0.016 C 
HETATM   35  C16 UNL     1      12.241  68.460  22.972  1.00  0.00     0.016 C 
HETATM   36  C17 UNL     1      10.784  66.886  24.119  1.00  0.00     0.016 C 
ENDBRANCH  32  33
ENDBRANCH  30  32
ENDBRANCH  10  28
BRANCH   1  37
HETATM   37  C4  UNL     1      19.422  61.261  24.673  1.00  0.00     0.038 C 
BRANCH  37  38
HETATM   38  C2  UNL     1      18.975  59.917  25.082  1.00  0.00    -0.020 C 
HETATM   39  C1  UNL     1      20.009  59.348  26.115  1.00  0.00     0.009 C 
HETATM   40  C3  UNL     1      19.178  58.938  23.913  1.00  0.00     0.009 C 
ENDBRANCH  37  38
ENDBRANCH   1  37
TORSDOF 10
ENDMDL
MODEL 4
REMARK VINA RESULT: -6.636706166      1.471      1.740
REMARK  10 active torsions:
REMARK  status: ('A' for Active; 'I' for Inactive)
REMARK    1  A    between atoms: C2_2  and  C4_4 
REMARK    2  A    between atoms: C4_4  and  C5_5 
REMARK    3  A    between atoms: C11_14  and  C12_15 
REMARK       I    between atoms: C12_15  and  N2_17 
REMARK    4  A    between atoms: N2_17  and  C13_19 
REMARK    5  A    between atoms: C13_19  and  C14_20 
REMARK    6  A    between atoms: C18_24  and  O3_25 
REMARK    7  A    between atoms: C18_24  and  C19_27 
REMARK       I    between atoms: C19_27  and  N3_29 
REMARK    8  A    between atoms: N3_29  and  C20_31 
REMARK    9  A    between atoms: C20_31  and  C21_32 
REMARK   10  A    between atoms: C21_32  and  N4_33 
ROOT
HETATM    1  C5  UNL     1      18.369  63.402  24.503  1.00  0.00     0.177 C 
HETATM    2  N1  UNL     1      18.896  64.725  24.555  1.00  0.00    -0.347 N 
ATOM      3  H1  UNL     1      19.748  64.865  24.013  1.00  0.00     0.163 HD
HETATM    4  C6  UNL     1      18.439  65.860  25.225  1.00  0.00     0.222 C 
HETATM    5  O1  UNL     1      19.275  66.402  26.044  1.00  0.00    -0.273 OA
HETATM    6  C7  UNL     1      17.136  66.554  25.145  1.00  0.00     0.078 C 
HETATM    7  C8  UNL     1      17.399  67.994  24.781  1.00  0.00     0.020 C 
HETATM    8  C9  UNL     1      16.023  65.902  24.464  1.00  0.00     0.012 C 
HETATM    9  C10 UNL     1      14.694  66.428  25.077  1.00  0.00     0.012 C 
HETATM   10  C11 UNL     1      15.836  66.020  23.001  1.00  0.00     0.148 C 
HETATM   11  C18 UNL     1      16.694  65.201  22.109  1.00  0.00     0.230 C 
HETATM   12  N5  UNL     1      16.740  63.827  22.528  1.00  0.00    -0.319 N 
ATOM     13  H5  UNL     1      15.901  63.290  22.308  1.00  0.00     0.166 HD
HETATM   14  C25 UNL     1      17.734  63.101  23.183  1.00  0.00     0.243 C 
HETATM   15  O5  UNL     1      18.163  62.046  22.594  1.00  0.00    -0.271 OA
ENDROOT
BRANCH  11  16
HETATM   16  O3  UNL     1      17.974  65.777  21.952  1.00  0.00    -0.362 OA
ATOM     17  H3  UNL     1      18.652  65.112  21.922  1.00  0.00     0.213 HD
ENDBRANCH  11  16
BRANCH  11  18
HETATM   18  C19 UNL     1      16.194  65.230  20.700  1.00  0.00     0.274 C 
HETATM   19  O4  UNL     1      16.159  64.120  20.149  1.00  0.00    -0.268 OA
HETATM   20  N3  UNL     1      15.782  66.364  19.994  1.00  0.00    -0.355 N 
ATOM     21  H3  UNL     1      15.831  67.251  20.497  1.00  0.00     0.162 HD
BRANCH  20  22
HETATM   22  C20 UNL     1      15.307  66.424  18.666  1.00  0.00     0.150 C 
BRANCH  22  23
HETATM   23  C21 UNL     1      13.894  66.865  18.475  1.00  0.00     0.255 C 
BRANCH  23  24
HETATM   24  N4  UNL     1      13.690  68.248  18.239  1.00  0.00    -0.077 N 
HETATM   25  C22 UNL     1      14.572  68.887  17.309  1.00  0.00     0.271 C 
HETATM   26  C23 UNL     1      13.662  69.001  19.500  1.00  0.00     0.271 C 
HETATM   27  C24 UNL     1      12.335  68.434  17.687  1.00  0.00     0.271 C 
ENDBRANCH  23  24
ENDBRANCH  22  23
ENDBRANCH  20  22
ENDBRANCH  11  18
BRANCH  10  28
HETATM   28  C12 UNL     1      14.409  65.743  22.706  1.00  0.00     0.227 C 
HETATM   29  O2  UNL     1      13.900  64.572  22.866  1.00  0.00    -0.273 OA
HETATM   30  N2  UNL     1      13.485  66.726  22.227  1.00  0.00    -0.360 N 
ATOM     31  H2  UNL     1      13.816  67.678  22.070  1.00  0.00     0.162 HD
BRANCH  30  32
HETATM   32  C13 UNL     1      12.102  66.416  21.958  1.00  0.00     0.131 C 
BRANCH  32  33
HETATM   33  C14 UNL     1      11.158  67.491  22.375  1.00  0.00    -0.035 C 
HETATM   34  C15 UNL     1      10.237  67.111  23.491  1.00  0.00     0.016 C 
HETATM   35  C16 UNL     1      10.399  67.984  21.149  1.00  0.00     0.016 C 
HETATM   36  C17 UNL     1      11.994  68.676  22.851  1.00  0.00     0.016 C 
ENDBRANCH  32  33
ENDBRANCH  30  32
ENDBRANCH  10  28
BRANCH   1  37
HETATM   37  C4  UNL     1      19.300  62.314  24.916  1.00  0.00     0.038 C 
BRANCH  37  38
HETATM   38  C2  UNL     1      19.047  61.514  26.128  1.00  0.00    -0.020 C 
HETATM   39  C1  UNL     1      19.734  62.230  27.341  1.00  0.00     0.009 C 
HETATM   40  C3  UNL     1      19.874  60.218  26.062  1.00  0.00     0.009 C 
ENDBRANCH  37  38
ENDBRANCH   1  37
TORSDOF 10
ENDMDL
MODEL 5
REMARK VINA RESULT: -6.632295224      2.322      8.212
REMARK  10 active torsions:
REMARK  status: ('A' for Active; 'I' for Inactive)
REMARK    1  A    between atoms: C2_2  and  C4_4 
REMARK    2  A    between atoms: C4_4  and  C5_5 
REMARK    3  A    between atoms: C11_14  and  C12_15 
REMARK       I    between atoms: C12_15  and  N2_17 
REMARK    4  A    between atoms: N2_17  and  C13_19 
REMARK    5  A    between atoms: C13_19  and  C14_20 
REMARK    6  A    between atoms: C18_24  and  O3_25 
REMARK    7  A    between atoms: C18_24  and  C19_27 
REMARK       I    between atoms: C19_27  and  N3_29 
REMARK    8  A    between atoms: N3_29  and  C20_31 
REMARK    9  A    between atoms: C20_31  and  C21_32 
REMARK   10  A    between atoms: C21_32  and  N4_33 
ROOT
HETATM    1  C5  UNL     1      13.382  67.263  20.865  1.00  0.00     0.177 C 
HETATM    2  N1  UNL     1      14.401  68.245  21.037  1.00  0.00    -0.347 N 
ATOM      3  H1  UNL     1      14.144  69.021  21.646  1.00  0.00     0.163 HD
HETATM    4  C6  UNL     1      15.690  68.319  20.509  1.00  0.00     0.222 C 
HETATM    5  O1  UNL     1      15.957  69.383  19.831  1.00  0.00    -0.273 OA
HETATM    6  C7  UNL     1      16.815  67.366  20.605  1.00  0.00     0.078 C 
HETATM    7  C8  UNL     1      17.997  68.101  21.187  1.00  0.00     0.020 C 
HETATM    8  C9  UNL     1      16.568  66.022  21.113  1.00  0.00     0.012 C 
HETATM    9  C10 UNL     1      17.625  65.060  20.500  1.00  0.00     0.012 C 
HETATM   10  C11 UNL     1      16.590  65.728  22.564  1.00  0.00     0.148 C 
HETATM   11  C18 UNL     1      15.413  66.115  23.381  1.00  0.00     0.230 C 
HETATM   12  N5  UNL     1      14.180  65.696  22.774  1.00  0.00    -0.319 N 
ATOM     13  H5  UNL     1      13.984  64.699  22.862  1.00  0.00     0.166 HD
HETATM   14  C25 UNL     1      13.205  66.418  22.086  1.00  0.00     0.243 C 
HETATM   15  O5  UNL     1      12.009  66.356  22.545  1.00  0.00    -0.271 OA
ENDROOT
BRANCH  11  16
HETATM   16  O3  UNL     1      15.436  67.490  23.700  1.00  0.00    -0.362 OA
ATOM     17  H3  UNL     1      14.567  67.871  23.656  1.00  0.00     0.213 HD
ENDBRANCH  11  16
BRANCH  11  18
HETATM   18  C19 UNL     1      15.478  65.506  24.746  1.00  0.00     0.274 C 
HETATM   19  O4  UNL     1      16.538  65.724  25.352  1.00  0.00    -0.268 OA
HETATM   20  N3  UNL     1      14.477  64.746  25.358  1.00  0.00    -0.355 N 
ATOM     21  H3  UNL     1      13.626  64.599  24.815  1.00  0.00     0.162 HD
BRANCH  20  22
HETATM   22  C20 UNL     1      14.509  64.159  26.642  1.00  0.00     0.150 C 
BRANCH  22  23
HETATM   23  C21 UNL     1      13.618  62.983  26.867  1.00  0.00     0.255 C 
BRANCH  23  24
HETATM   24  N4  UNL     1      12.543  63.168  27.773  1.00  0.00    -0.077 N 
HETATM   25  C22 UNL     1      11.576  64.171  27.440  1.00  0.00     0.271 C 
HETATM   26  C23 UNL     1      13.036  63.384  29.140  1.00  0.00     0.271 C 
HETATM   27  C24 UNL     1      11.785  61.907  27.866  1.00  0.00     0.271 C 
ENDBRANCH  23  24
ENDBRANCH  22  23
ENDBRANCH  20  22
ENDBRANCH  11  18
BRANCH  10  28
HETATM   28  C12 UNL     1      16.848  64.276  22.725  1.00  0.00     0.227 C 
HETATM   29  O2  UNL     1      16.014  63.390  22.308  1.00  0.00    -0.273 OA
HETATM   30  N2  UNL     1      18.020  63.736  23.345  1.00  0.00    -0.360 N 
ATOM     31  H2  UNL     1      18.726  64.378  23.707  1.00  0.00     0.162 HD
BRANCH  30  32
HETATM   32  C13 UNL     1      18.236  62.316  23.477  1.00  0.00     0.131 C 
BRANCH  32  33
HETATM   33  C14 UNL     1      18.575  61.891  24.864  1.00  0.00    -0.035 C 
HETATM   34  C15 UNL     1      19.644  62.707  25.520  1.00  0.00     0.016 C 
HETATM   35  C16 UNL     1      18.914  60.405  24.856  1.00  0.00     0.016 C 
HETATM   36  C17 UNL     1      17.311  62.025  25.708  1.00  0.00     0.016 C 
ENDBRANCH  32  33
ENDBRANCH  30  32
ENDBRANCH  10  28
BRANCH   1  37
HETATM   37  C4  UNL     1      12.072  67.765  20.361  1.00  0.00     0.038 C 
BRANCH  37  38
HETATM   38  C2  UNL     1      11.991  68.974  19.524  1.00  0.00    -0.020 C 
HETATM   39  C1  UNL     1      10.629  69.690  19.825  1.00  0.00     0.009 C 
HETATM   40  C3  UNL     1      11.773  68.562  18.057  1.00  0.00     0.009 C 
ENDBRANCH  37  38
ENDBRANCH   1  37
TORSDOF 10
ENDMDL
