MODEL 1
REMARK VINA RESULT: -6.905955031      0.000      0.000
REMARK  3 active torsions:
REMARK  status: ('A' for Active; 'I' for Inactive)
REMARK       I    between atoms: C2_4  and  N2_5 
REMARK       I    between atoms: C2_4  and  N3_8 
REMARK    1  A    between atoms: N2_5  and  C3_6 
REMARK    2  A    between atoms: N3_8  and  C4_10 
REMARK    3  A    between atoms: C4_10  and  C5_11 
ROOT
HETATM    1  C5  UNL     1      12.643  10.510  16.666  1.00  0.00     0.159 C 
HETATM    2  C6  UNL     1      13.265  10.262  15.398  1.00  0.00    -0.061 C 
HETATM    3  N4  UNL     1      13.688  10.379  14.115  1.00  0.00    -0.358 N 
ATOM      4  H4  UNL     1      14.386   9.771  13.686  1.00  0.00     0.168 HD
HETATM    5  C7  UNL     1      13.010  11.506  13.405  1.00  0.00     0.148 C 
HETATM    6  C8  UNL     1      12.653  12.651  14.251  1.00  0.00     0.141 C 
HETATM    7  N5  UNL     1      11.718  12.530  15.347  1.00  0.00    -0.377 N 
ATOM      8  H5  UNL     1      10.927  13.170  15.279  1.00  0.00     0.160 HD
HETATM    9  C9  UNL     1      11.676  11.694  16.511  1.00  0.00     0.089 C 
HETATM   10  N6  UNL     1      10.838  11.898  17.434  1.00  0.00    -0.388 N 
ATOM     11  H61 UNL     1      10.196  12.684  17.332  1.00  0.00     0.157 HD
ATOM     12  H62 UNL     1      10.809  11.303  18.262  1.00  0.00     0.157 HD
ENDROOT
BRANCH   1  13
HETATM   13  C4  UNL     1      13.598  10.938  17.801  1.00  0.00     0.149 C 
BRANCH  13  14
HETATM   14  N3  UNL     1      14.097  12.240  17.514  1.00  0.00    -0.349 N 
HETATM   15  C2  UNL     1      14.575  13.123  18.546  1.00  0.00     0.253 C 
HETATM   16  N1  UNL     1      13.731  13.207  19.585  1.00  0.00    -0.355 N 
HETATM   17  N2  UNL     1      15.698  13.852  18.609  1.00  0.00    -0.344 NA
HETATM   18  C1  UNL     1      14.029  14.047  20.719  1.00  0.00     0.150 C 
ATOM     19  H1  UNL     1      12.866  12.669  19.573  1.00  0.00     0.163 HD
ATOM     20  H3  UNL     1      14.116  12.558  16.545  1.00  0.00     0.163 HD
BRANCH  17  21
HETATM   21  C3  UNL     1      16.842  14.592  18.669  1.00  0.00     0.445 C 
HETATM   22  O1  UNL     1      17.361  15.297  19.574  1.00  0.00    -0.268 OA
ENDBRANCH  17  21
ENDBRANCH  13  14
ENDBRANCH   1  13
TORSDOF 3
ENDMDL
MODEL 2
REMARK VINA RESULT: -6.751972394      4.518      7.307
REMARK  3 active torsions:
REMARK  status: ('A' for Active; 'I' for Inactive)
REMARK       I    between atoms: C2_4  and  N2_5 
REMARK       I    between atoms: C2_4  and  N3_8 
REMARK    1  A    between atoms: N2_5  and  C3_6 
REMARK    2  A    between atoms: N3_8  and  C4_10 
REMARK    3  A    between atoms: C4_10  and  C5_11 
ROOT
HETATM    1  C5  UNL     1      12.933  10.662  13.864  1.00  0.00     0.159 C 
HETATM    2  C6  UNL     1      12.309  11.847  14.375  1.00  0.00    -0.061 C 
HETATM    3  N4  UNL     1      11.870  12.829  15.201  1.00  0.00    -0.358 N 
ATOM      4  H4  UNL     1      11.462  13.706  14.878  1.00  0.00     0.168 HD
HETATM    5  C7  UNL     1      12.056  12.473  16.640  1.00  0.00     0.148 C 
HETATM    6  C8  UNL     1      13.224  11.630  16.928  1.00  0.00     0.141 C 
HETATM    7  N5  UNL     1      13.357  10.297  16.386  1.00  0.00    -0.377 N 
ATOM      8  H5  UNL     1      13.483   9.579  17.099  1.00  0.00     0.160 HD
HETATM    9  C9  UNL     1      13.348   9.778  15.050  1.00  0.00     0.089 C 
HETATM   10  N6  UNL     1      13.667   8.579  14.811  1.00  0.00    -0.388 N 
ATOM     11  H61 UNL     1      13.943   7.992  15.598  1.00  0.00     0.157 HD
ATOM     12  H62 UNL     1      13.661   8.210  13.860  1.00  0.00     0.157 HD
ENDROOT
BRANCH   1  13
HETATM   13  C4  UNL     1      14.241  10.888  13.075  1.00  0.00     0.149 C 
BRANCH  13  14
HETATM   14  N3  UNL     1      14.031  10.502  11.720  1.00  0.00    -0.349 N 
HETATM   15  C2  UNL     1      15.124  10.206  10.830  1.00  0.00     0.253 C 
HETATM   16  N1  UNL     1      16.086  11.140  10.865  1.00  0.00    -0.355 N 
HETATM   17  N2  UNL     1      15.304   9.172   9.996  1.00  0.00    -0.344 NA
HETATM   18  C1  UNL     1      17.263  11.028  10.038  1.00  0.00     0.150 C 
ATOM     19  H1  UNL     1      15.983  11.942  11.486  1.00  0.00     0.163 HD
ATOM     20  H3  UNL     1      13.077  10.432  11.370  1.00  0.00     0.163 HD
BRANCH  17  21
HETATM   21  C3  UNL     1      15.484   8.119   9.148  1.00  0.00     0.445 C 
HETATM   22  O1  UNL     1      15.935   8.029   7.977  1.00  0.00    -0.268 OA
ENDBRANCH  17  21
ENDBRANCH  13  14
ENDBRANCH   1  13
TORSDOF 3
ENDMDL
MODEL 3
REMARK VINA RESULT: -6.677875941      5.538      8.045
REMARK  3 active torsions:
REMARK  status: ('A' for Active; 'I' for Inactive)
REMARK       I    between atoms: C2_4  and  N2_5 
REMARK       I    between atoms: C2_4  and  N3_8 
REMARK    1  A    between atoms: N2_5  and  C3_6 
REMARK    2  A    between atoms: N3_8  and  C4_10 
REMARK    3  A    between atoms: C4_10  and  C5_11 
ROOT
HETATM    1  C5  UNL     1      17.743   8.980  11.289  1.00  0.00     0.159 C 
HETATM    2  C6  UNL     1      17.446  10.137  10.496  1.00  0.00    -0.061 C 
HETATM    3  N4  UNL     1      17.094  10.951   9.471  1.00  0.00    -0.358 N 
ATOM      4  H4  UNL     1      16.913  11.950   9.572  1.00  0.00     0.168 HD
HETATM    5  C7  UNL     1      17.002  10.211   8.176  1.00  0.00     0.148 C 
HETATM    6  C8  UNL     1      16.572   8.811   8.287  1.00  0.00     0.141 C 
HETATM    7  N5  UNL     1      17.346   7.829   9.011  1.00  0.00    -0.377 N 
ATOM      8  H5  UNL     1      17.605   7.020   8.446  1.00  0.00     0.160 HD
HETATM    9  C9  UNL     1      17.824   7.759  10.361  1.00  0.00     0.089 C 
HETATM   10  N6  UNL     1      18.336   6.699  10.820  1.00  0.00    -0.388 N 
ATOM     11  H61 UNL     1      18.390   5.888  10.204  1.00  0.00     0.157 HD
ATOM     12  H62 UNL     1      18.676   6.650  11.780  1.00  0.00     0.157 HD
ENDROOT
BRANCH   1  13
HETATM   13  C4  UNL     1      16.672   8.599  12.334  1.00  0.00     0.149 C 
BRANCH  13  14
HETATM   14  N3  UNL     1      15.387   8.919  11.809  1.00  0.00    -0.349 N 
HETATM   15  C2  UNL     1      14.472   9.789  12.501  1.00  0.00     0.253 C 
HETATM   16  N1  UNL     1      14.338   9.473  13.797  1.00  0.00    -0.355 N 
HETATM   17  N2  UNL     1      13.755  10.827  12.047  1.00  0.00    -0.344 NA
HETATM   18  C1  UNL     1      13.459  10.223  14.661  1.00  0.00     0.150 C 
ATOM     19  H1  UNL     1      14.866   8.688  14.179  1.00  0.00     0.163 HD
ATOM     20  H3  UNL     1      15.106   8.519  10.914  1.00  0.00     0.163 HD
BRANCH  17  21
HETATM   21  C3  UNL     1      13.027  11.882  11.582  1.00  0.00     0.445 C 
HETATM   22  O1  UNL     1      12.648  12.221  10.430  1.00  0.00    -0.268 OA
ENDBRANCH  17  21
ENDBRANCH  13  14
ENDBRANCH   1  13
TORSDOF 3
ENDMDL
MODEL 4
REMARK VINA RESULT: -6.516030541      3.165      5.740
REMARK  3 active torsions:
REMARK  status: ('A' for Active; 'I' for Inactive)
REMARK       I    between atoms: C2_4  and  N2_5 
REMARK       I    between atoms: C2_4  and  N3_8 
REMARK    1  A    between atoms: N2_5  and  C3_6 
REMARK    2  A    between atoms: N3_8  and  C4_10 
REMARK    3  A    between atoms: C4_10  and  C5_11 
ROOT
HETATM    1  C5  UNL     1      13.477  10.734  16.999  1.00  0.00     0.159 C 
HETATM    2  C6  UNL     1      13.026   9.633  17.799  1.00  0.00    -0.061 C 
HETATM    3  N4  UNL     1      12.432   8.887  18.764  1.00  0.00    -0.358 N 
ATOM      4  H4  UNL     1      12.348   7.871  18.730  1.00  0.00     0.168 HD
HETATM    5  C7  UNL     1      11.914   9.732  19.882  1.00  0.00     0.148 C 
HETATM    6  C8  UNL     1      11.456  11.071  19.492  1.00  0.00     0.141 C 
HETATM    7  N5  UNL     1      12.352  12.049  18.917  1.00  0.00    -0.377 N 
ATOM      8  H5  UNL     1      12.383  12.926  19.436  1.00  0.00     0.160 HD
HETATM    9  C9  UNL     1      13.206  12.037  17.765  1.00  0.00     0.089 C 
HETATM   10  N6  UNL     1      13.768  13.092  17.356  1.00  0.00    -0.388 N 
ATOM     11  H61 UNL     1      13.588  13.957  17.864  1.00  0.00     0.157 HD
ATOM     12  H62 UNL     1      14.376  13.083  16.537  1.00  0.00     0.157 HD
ENDROOT
BRANCH   1  13
HETATM   13  C4  UNL     1      12.746  10.918  15.652  1.00  0.00     0.149 C 
BRANCH  13  14
HETATM   14  N3  UNL     1      13.384  10.108  14.670  1.00  0.00    -0.349 N 
HETATM   15  C2  UNL     1      13.774  10.626  13.384  1.00  0.00     0.253 C 
HETATM   16  N1  UNL     1      12.796  11.327  12.791  1.00  0.00    -0.355 N 
HETATM   17  N2  UNL     1      14.931  10.504  12.717  1.00  0.00    -0.344 NA
HETATM   18  C1  UNL     1      12.989  11.923  11.492  1.00  0.00     0.150 C 
ATOM     19  H1  UNL     1      11.901  11.440  13.267  1.00  0.00     0.163 HD
ATOM     20  H3  UNL     1      13.571   9.129  14.884  1.00  0.00     0.163 HD
BRANCH  17  21
HETATM   21  C3  UNL     1      16.109  10.378  12.042  1.00  0.00     0.445 C 
HETATM   22  O1  UNL     1      16.714  11.123  11.227  1.00  0.00    -0.268 OA
ENDBRANCH  17  21
ENDBRANCH  13  14
ENDBRANCH   1  13
TORSDOF 3
ENDMDL
MODEL 5
REMARK VINA RESULT: -6.495062136      2.896      3.879
REMARK  3 active torsions:
REMARK  status: ('A' for Active; 'I' for Inactive)
REMARK       I    between atoms: C2_4  and  N2_5 
REMARK       I    between atoms: C2_4  and  N3_8 
REMARK    1  A    between atoms: N2_5  and  C3_6 
REMARK    2  A    between atoms: N3_8  and  C4_10 
REMARK    3  A    between atoms: C4_10  and  C5_11 
ROOT
HETATM    1  C5  UNL     1      12.860  10.740  14.694  1.00  0.00     0.159 C 
HETATM    2  C6  UNL     1      13.622   9.548  14.457  1.00  0.00    -0.061 C 
HETATM    3  N4  UNL     1      14.483   8.641  13.933  1.00  0.00    -0.358 N 
ATOM      4  H4  UNL     1      14.743   7.768  14.392  1.00  0.00     0.168 HD
HETATM    5  C7  UNL     1      15.005   9.073  12.601  1.00  0.00     0.148 C 
HETATM    6  C8  UNL     1      15.148  10.525  12.428  1.00  0.00     0.141 C 
HETATM    7  N5  UNL     1      14.012  11.416  12.482  1.00  0.00    -0.377 N 
ATOM      8  H5  UNL     1      13.902  11.987  11.644  1.00  0.00     0.160 HD
HETATM    9  C9  UNL     1      13.006  11.662  13.474  1.00  0.00     0.089 C 
HETATM   10  N6  UNL     1      12.205  12.633  13.368  1.00  0.00    -0.388 N 
ATOM     11  H61 UNL     1      12.302  13.246  12.559  1.00  0.00     0.157 HD
ATOM     12  H62 UNL     1      11.490  12.808  14.074  1.00  0.00     0.157 HD
ENDROOT
BRANCH   1  13
HETATM   13  C4  UNL     1      13.329  11.601  15.887  1.00  0.00     0.149 C 
BRANCH  13  14
HETATM   14  N3  UNL     1      13.127  10.864  17.090  1.00  0.00    -0.349 N 
HETATM   15  C2  UNL     1      12.887  11.512  18.353  1.00  0.00     0.253 C 
HETATM   16  N1  UNL     1      13.756  12.503  18.599  1.00  0.00    -0.355 N 
HETATM   17  N2  UNL     1      11.958  11.267  19.288  1.00  0.00    -0.344 NA
HETATM   18  C1  UNL     1      13.685  13.270  19.818  1.00  0.00     0.150 C 
ATOM     19  H1  UNL     1      14.478  12.718  17.912  1.00  0.00     0.163 HD
ATOM     20  H3  UNL     1      13.154   9.846  17.054  1.00  0.00     0.163 HD
BRANCH  17  21
HETATM   21  C3  UNL     1      11.011  11.014  20.236  1.00  0.00     0.445 C 
HETATM   22  O1  UNL     1       9.753  11.064  20.227  1.00  0.00    -0.268 OA
ENDBRANCH  17  21
ENDBRANCH  13  14
ENDBRANCH   1  13
TORSDOF 3
ENDMDL
