MODEL 1
REMARK VINA RESULT: -7.293258294      0.000      0.000
REMARK  4 active torsions:
REMARK  status: ('A' for Active; 'I' for Inactive)
REMARK    1  A    between atoms: N3_6  and  N4_8 
REMARK    2  A    between atoms: N4_8  and  C4_10 
REMARK    3  A    between atoms: C4_10  and  N5_12 
REMARK    4  A    between atoms: N5_12  and  C5_14 
ROOT
HETATM    1  N1  UNL     1      17.150  10.452   0.411  1.00  0.00    -0.189 NA
HETATM    2  C1  UNL     1      16.576  10.334   1.411  1.00  0.00     0.130 C 
HETATM    3  C2  UNL     1      15.871  10.212   2.642  1.00  0.00     0.209 C 
HETATM    4  C3  UNL     1      15.857  11.298   3.562  1.00  0.00     0.130 C 
HETATM    5  N2  UNL     1      15.865  12.181   4.303  1.00  0.00    -0.189 NA
HETATM    6  N3  UNL     1      15.264   9.148   2.913  1.00  0.00    -0.280 N 
ATOM      7  H3  UNL     1      14.783   9.136   3.812  1.00  0.00     0.188 HD
ENDROOT
BRANCH   6   8
HETATM    8  N4  UNL     1      15.154   8.003   2.175  1.00  0.00    -0.275 N 
ATOM      9  H4  UNL     1      14.950   8.090   1.180  1.00  0.00     0.189 HD
BRANCH   8  10
HETATM   10  C4  UNL     1      15.312   6.678   2.725  1.00  0.00     0.191 C 
HETATM   11  S1  UNL     1      14.272   6.218   3.870  1.00  0.00    -0.039 SA
BRANCH  10  12
HETATM   12  N5  UNL     1      16.324   5.825   2.240  1.00  0.00    -0.332 N 
ATOM     13  H5  UNL     1      17.280   6.073   2.495  1.00  0.00     0.168 HD
BRANCH  12  14
HETATM   14  C5  UNL     1      16.171   4.670   1.446  1.00  0.00     0.034 A 
HETATM   15  C6  UNL     1      16.955   3.554   1.461  1.00  0.00     0.029 A 
HETATM   16  C7  UNL     1      16.705   2.436   0.658  1.00  0.00     0.002 A 
HETATM   17  C8  UNL     1      15.633   2.425  -0.197  1.00  0.00     0.000 A 
HETATM   18  C9  UNL     1      14.820   3.535  -0.241  1.00  0.00     0.002 A 
HETATM   19  C10 UNL     1      15.074   4.619   0.548  1.00  0.00     0.029 A 
ENDBRANCH  12  14
ENDBRANCH  10  12
ENDBRANCH   8  10
ENDBRANCH   6   8
TORSDOF 4
ENDMDL
MODEL 2
REMARK VINA RESULT: -7.233071517      0.587      1.315
REMARK  4 active torsions:
REMARK  status: ('A' for Active; 'I' for Inactive)
REMARK    1  A    between atoms: N3_6  and  N4_8 
REMARK    2  A    between atoms: N4_8  and  C4_10 
REMARK    3  A    between atoms: C4_10  and  N5_12 
REMARK    4  A    between atoms: N5_12  and  C5_14 
ROOT
HETATM    1  N1  UNL     1      17.959  11.040   1.245  1.00  0.00    -0.189 NA
HETATM    2  C1  UNL     1      17.062  10.755   1.920  1.00  0.00     0.130 C 
HETATM    3  C2  UNL     1      15.952  10.427   2.750  1.00  0.00     0.209 C 
HETATM    4  C3  UNL     1      15.295  11.449   3.492  1.00  0.00     0.130 C 
HETATM    5  N2  UNL     1      14.780  12.285   4.096  1.00  0.00    -0.189 NA
HETATM    6  N3  UNL     1      15.556   9.239   2.826  1.00  0.00    -0.280 N 
ATOM      7  H3  UNL     1      14.757   9.084   3.441  1.00  0.00     0.188 HD
ENDROOT
BRANCH   6   8
HETATM    8  N4  UNL     1      16.042   8.124   2.202  1.00  0.00    -0.275 N 
ATOM      9  H4  UNL     1      16.653   8.252   1.396  1.00  0.00     0.189 HD
BRANCH   8  10
HETATM   10  C4  UNL     1      15.739   6.777   2.620  1.00  0.00     0.191 C 
HETATM   11  S1  UNL     1      14.435   6.558   3.545  1.00  0.00    -0.039 SA
BRANCH  10  12
HETATM   12  N5  UNL     1      16.551   5.705   2.198  1.00  0.00    -0.332 N 
ATOM     13  H5  UNL     1      17.523   5.730   2.502  1.00  0.00     0.168 HD
BRANCH  12  14
HETATM   14  C5  UNL     1      16.176   4.600   1.404  1.00  0.00     0.034 A 
HETATM   15  C6  UNL     1      15.103   4.517   0.567  1.00  0.00     0.029 A 
HETATM   16  C7  UNL     1      14.829   3.389  -0.212  1.00  0.00     0.002 A 
HETATM   17  C8  UNL     1      15.654   2.295  -0.158  1.00  0.00     0.000 A 
HETATM   18  C9  UNL     1      16.747   2.341   0.677  1.00  0.00     0.002 A 
HETATM   19  C10 UNL     1      17.004   3.449   1.431  1.00  0.00     0.029 A 
ENDBRANCH  12  14
ENDBRANCH  10  12
ENDBRANCH   8  10
ENDBRANCH   6   8
TORSDOF 4
ENDMDL
MODEL 3
REMARK VINA RESULT: -7.183216510      1.102      1.300
REMARK  4 active torsions:
REMARK  status: ('A' for Active; 'I' for Inactive)
REMARK    1  A    between atoms: N3_6  and  N4_8 
REMARK    2  A    between atoms: N4_8  and  C4_10 
REMARK    3  A    between atoms: C4_10  and  N5_12 
REMARK    4  A    between atoms: N5_12  and  C5_14 
ROOT
HETATM    1  N1  UNL     1      17.129  10.438   0.010  1.00  0.00    -0.189 NA
HETATM    2  C1  UNL     1      16.575  10.212   1.002  1.00  0.00     0.130 C 
HETATM    3  C2  UNL     1      15.883   9.956   2.221  1.00  0.00     0.209 C 
HETATM    4  C3  UNL     1      15.320  11.036   2.957  1.00  0.00     0.130 C 
HETATM    5  N2  UNL     1      14.880  11.922   3.549  1.00  0.00    -0.189 NA
HETATM    6  N3  UNL     1      15.772   8.780   2.642  1.00  0.00    -0.280 N 
ATOM      7  H3  UNL     1      15.264   8.677   3.520  1.00  0.00     0.188 HD
ENDROOT
BRANCH   6   8
HETATM    8  N4  UNL     1      16.234   7.617   2.092  1.00  0.00    -0.275 N 
ATOM      9  H4  UNL     1      17.219   7.565   1.833  1.00  0.00     0.189 HD
BRANCH   8  10
HETATM   10  C4  UNL     1      15.406   6.458   1.857  1.00  0.00     0.191 C 
HETATM   11  S1  UNL     1      14.609   5.843   3.118  1.00  0.00    -0.039 SA
BRANCH  10  12
HETATM   12  N5  UNL     1      15.291   5.921   0.559  1.00  0.00    -0.332 N 
ATOM     13  H5  UNL     1      15.471   6.565  -0.211  1.00  0.00     0.168 HD
BRANCH  12  14
HETATM   14  C5  UNL     1      14.958   4.599   0.199  1.00  0.00     0.034 A 
HETATM   15  C6  UNL     1      15.763   3.500   0.272  1.00  0.00     0.029 A 
HETATM   16  C7  UNL     1      15.333   2.216  -0.076  1.00  0.00     0.002 A 
HETATM   17  C8  UNL     1      14.050   2.011  -0.515  1.00  0.00     0.000 A 
HETATM   18  C9  UNL     1      13.209   3.097  -0.603  1.00  0.00     0.002 A 
HETATM   19  C10 UNL     1      13.639   4.345  -0.260  1.00  0.00     0.029 A 
ENDBRANCH  12  14
ENDBRANCH  10  12
ENDBRANCH   8  10
ENDBRANCH   6   8
TORSDOF 4
ENDMDL
MODEL 4
REMARK VINA RESULT: -7.157468556      1.066      1.701
REMARK  4 active torsions:
REMARK  status: ('A' for Active; 'I' for Inactive)
REMARK    1  A    between atoms: N3_6  and  N4_8 
REMARK    2  A    between atoms: N4_8  and  C4_10 
REMARK    3  A    between atoms: C4_10  and  N5_12 
REMARK    4  A    between atoms: N5_12  and  C5_14 
ROOT
HETATM    1  N1  UNL     1      17.097  10.411  -0.007  1.00  0.00    -0.189 NA
HETATM    2  C1  UNL     1      16.566  10.177   0.996  1.00  0.00     0.130 C 
HETATM    3  C2  UNL     1      15.902   9.911   2.228  1.00  0.00     0.209 C 
HETATM    4  C3  UNL     1      15.348  10.984   2.981  1.00  0.00     0.130 C 
HETATM    5  N2  UNL     1      14.915  11.863   3.587  1.00  0.00    -0.189 NA
HETATM    6  N3  UNL     1      15.808   8.732   2.646  1.00  0.00    -0.280 N 
ATOM      7  H3  UNL     1      15.320   8.621   3.535  1.00  0.00     0.188 HD
ENDROOT
BRANCH   6   8
HETATM    8  N4  UNL     1      16.265   7.574   2.081  1.00  0.00    -0.275 N 
ATOM      9  H4  UNL     1      17.249   7.523   1.820  1.00  0.00     0.189 HD
BRANCH   8  10
HETATM   10  C4  UNL     1      15.434   6.422   1.832  1.00  0.00     0.191 C 
HETATM   11  S1  UNL     1      14.512   5.891   3.045  1.00  0.00    -0.039 SA
BRANCH  10  12
HETATM   12  N5  UNL     1      15.421   5.819   0.558  1.00  0.00    -0.332 N 
ATOM     13  H5  UNL     1      15.781   6.384  -0.210  1.00  0.00     0.168 HD
BRANCH  12  14
HETATM   14  C5  UNL     1      14.971   4.525   0.220  1.00  0.00     0.034 A 
HETATM   15  C6  UNL     1      13.745   4.185  -0.272  1.00  0.00     0.029 A 
HETATM   16  C7  UNL     1      13.399   2.874  -0.614  1.00  0.00     0.002 A 
HETATM   17  C8  UNL     1      14.304   1.856  -0.460  1.00  0.00     0.000 A 
HETATM   18  C9  UNL     1      15.552   2.161   0.037  1.00  0.00     0.002 A 
HETATM   19  C10 UNL     1      15.879   3.444   0.365  1.00  0.00     0.029 A 
ENDBRANCH  12  14
ENDBRANCH  10  12
ENDBRANCH   8  10
ENDBRANCH   6   8
TORSDOF 4
ENDMDL
MODEL 5
REMARK VINA RESULT: -7.138293376      2.339      3.155
REMARK  4 active torsions:
REMARK  status: ('A' for Active; 'I' for Inactive)
REMARK    1  A    between atoms: N3_6  and  N4_8 
REMARK    2  A    between atoms: N4_8  and  C4_10 
REMARK    3  A    between atoms: C4_10  and  N5_12 
REMARK    4  A    between atoms: N5_12  and  C5_14 
ROOT
HETATM    1  N1  UNL     1      12.949  10.183   1.474  1.00  0.00    -0.189 NA
HETATM    2  C1  UNL     1      13.957   9.659   1.245  1.00  0.00     0.130 C 
HETATM    3  C2  UNL     1      15.207   9.036   0.965  1.00  0.00     0.209 C 
HETATM    4  C3  UNL     1      16.303   9.821   0.509  1.00  0.00     0.130 C 
HETATM    5  N2  UNL     1      17.179  10.467   0.129  1.00  0.00    -0.189 NA
HETATM    6  N3  UNL     1      15.338   7.799   1.121  1.00  0.00    -0.280 N 
ATOM      7  H3  UNL     1      16.262   7.426   0.899  1.00  0.00     0.188 HD
ENDROOT
BRANCH   6   8
HETATM    8  N4  UNL     1      14.421   6.878   1.544  1.00  0.00    -0.275 N 
ATOM      9  H4  UNL     1      14.363   6.681   2.543  1.00  0.00     0.189 HD
BRANCH   8  10
HETATM   10  C4  UNL     1      13.531   6.168   0.658  1.00  0.00     0.191 C 
HETATM   11  S1  UNL     1      11.945   6.361   0.883  1.00  0.00    -0.039 SA
BRANCH  10  12
HETATM   12  N5  UNL     1      14.053   5.367  -0.378  1.00  0.00    -0.332 N 
ATOM     13  H5  UNL     1      14.463   5.864  -1.167  1.00  0.00     0.168 HD
BRANCH  12  14
HETATM   14  C5  UNL     1      14.075   3.958  -0.451  1.00  0.00     0.034 A 
HETATM   15  C6  UNL     1      13.053   3.140  -0.834  1.00  0.00     0.029 A 
HETATM   16  C7  UNL     1      13.178   1.749  -0.910  1.00  0.00     0.002 A 
HETATM   17  C8  UNL     1      14.366   1.143  -0.592  1.00  0.00     0.000 A 
HETATM   18  C9  UNL     1      15.420   1.937  -0.200  1.00  0.00     0.002 A 
HETATM   19  C10 UNL     1      15.286   3.293  -0.130  1.00  0.00     0.029 A 
ENDBRANCH  12  14
ENDBRANCH  10  12
ENDBRANCH   8  10
ENDBRANCH   6   8
TORSDOF 4
ENDMDL
