MODEL 1
REMARK VINA RESULT: -6.359045613      0.000      0.000
REMARK  18 active torsions:
REMARK  status: ('A' for Active; 'I' for Inactive)
REMARK    1  A    between atoms: N1_2  and  C2_4 
REMARK    2  A    between atoms: C3_5  and  N2_6 
REMARK    3  A    between atoms: C5_11  and  N3_12 
REMARK    4  A    between atoms: C6_16  and  O1_17 
REMARK    5  A    between atoms: O1_17  and  C7_18 
REMARK    6  A    between atoms: C8_19  and  N4_20 
REMARK    7  A    between atoms: C10_27  and  C11_28 
REMARK    8  A    between atoms: C11_28  and  O3_30 
REMARK    9  A    between atoms: N6_35  and  O4_36 
REMARK   10  A    between atoms: N7_39  and  C17_40 
REMARK   11  A    between atoms: C17_40  and  O5_41 
REMARK   12  A    between atoms: C18_43  and  O6_44 
REMARK   13  A    between atoms: O6_44  and  C19_45 
REMARK   14  A    between atoms: C19_45  and  O7_46 
REMARK   15  A    between atoms: C19_45  and  C20_48 
REMARK   16  A    between atoms: C20_48  and  O8_49 
REMARK   17  A    between atoms: C20_48  and  C21_51 
REMARK   18  A    between atoms: C21_51  and  O9_52 
ROOT
HETATM    1  C2  UNL     1      -7.458   9.734  59.166  1.00  0.00     0.138 C 
HETATM    2  C3  UNL     1      -8.230  10.826  59.786  1.00  0.00     0.210 C 
HETATM    3  C4  UNL     1      -7.967  12.118  59.038  1.00  0.00     0.070 C 
HETATM    4  C5  UNL     1      -7.139  11.985  57.828  1.00  0.00     0.217 C 
HETATM    5  C6  UNL     1      -5.916  11.097  57.914  1.00  0.00     0.185 C 
HETATM    6  C18 UNL     1      -5.975  10.117  59.052  1.00  0.00     0.180 C 
ENDROOT
BRANCH   5   7
HETATM    7  O1  UNL     1      -5.587  10.554  56.690  1.00  0.00    -0.345 OA
BRANCH   7   8
HETATM    8  C7  UNL     1      -4.243  10.161  56.742  1.00  0.00     0.397 C 
HETATM    9  C8  UNL     1      -3.899   8.821  56.267  1.00  0.00     0.268 C 
HETATM   10  C9  UNL     1      -2.456   8.916  55.722  1.00  0.00     0.162 C 
HETATM   11  N5  UNL     1      -2.262   8.277  54.504  1.00  0.00    -0.398 N 
HETATM   12  C16 UNL     1      -2.253  10.402  55.726  1.00  0.00     0.353 C 
HETATM   13  C10 UNL     1      -1.638   8.926  53.417  1.00  0.00     0.202 C 
ATOM     14  H5  UNL     1      -2.580   7.314  54.392  1.00  0.00     0.154 HD
HETATM   15  C13 UNL     1      -0.594   9.892  54.043  1.00  0.00     0.063 C 
HETATM   16  C14 UNL     1       0.316   9.178  55.017  1.00  0.00     0.037 C 
HETATM   17  C15 UNL     1       0.267  10.538  53.030  1.00  0.00     0.037 C 
HETATM   18  N6  UNL     1      -1.380  10.912  54.697  1.00  0.00    -0.153 NA
HETATM   19  N7  UNL     1      -3.519  11.034  55.761  1.00  0.00     0.164 N 
BRANCH   9  20
HETATM   20  N4  UNL     1      -3.955   7.909  57.381  1.00  0.00    -0.069 N 
ATOM     21  H43 UNL     1      -3.108   7.349  57.469  1.00  0.00     0.275 HD
ATOM     22  H42 UNL     1      -3.902   8.387  58.280  1.00  0.00     0.275 HD
ATOM     23  H41 UNL     1      -4.795   7.336  57.292  1.00  0.00     0.275 HD
ENDBRANCH   9  20
BRANCH  13  24
HETATM   24  C11 UNL     1      -0.909   7.976  52.538  1.00  0.00     0.283 C 
HETATM   25  O2  UNL     1      -0.395   6.896  52.810  1.00  0.00    -0.263 OA
BRANCH  24  26
HETATM   26  O3  UNL     1      -0.829   8.420  51.192  1.00  0.00    -0.325 OA
HETATM   27  C12 UNL     1       0.346   8.696  50.482  1.00  0.00     0.213 C 
ENDBRANCH  24  26
ENDBRANCH  13  24
BRANCH  18  28
HETATM   28  O4  UNL     1      -0.521  11.844  55.136  1.00  0.00    -0.310 OA
ATOM     29  H4  UNL     1      -0.511  12.537  54.486  1.00  0.00     0.237 HD
ENDBRANCH  18  28
BRANCH  19  30
HETATM   30  C17 UNL     1      -4.312  11.024  54.586  1.00  0.00     0.443 C 
BRANCH  30  31
HETATM   31  O5  UNL     1      -5.049  12.168  54.383  1.00  0.00    -0.372 OA
ATOM     32  H5  UNL     1      -5.866  12.035  53.916  1.00  0.00     0.211 HD
ENDBRANCH  30  31
ENDBRANCH  19  30
ENDBRANCH   7   8
ENDBRANCH   5   7
BRANCH   4  33
HETATM   33  N3  UNL     1      -6.716  13.352  57.476  1.00  0.00    -0.072 N 
ATOM     34  H33 UNL     1      -7.304  14.078  57.886  1.00  0.00     0.274 HD
ATOM     35  H32 UNL     1      -5.843  13.635  57.919  1.00  0.00     0.274 HD
ATOM     36  H31 UNL     1      -6.684  13.380  56.456  1.00  0.00     0.274 HD
ENDBRANCH   4  33
BRANCH   6  37
HETATM   37  O6  UNL     1      -5.496  10.798  60.111  1.00  0.00    -0.349 OA
BRANCH  37  38
HETATM   38  C19 UNL     1      -4.522  10.425  60.922  1.00  0.00     0.288 C 
BRANCH  38  39
HETATM   39  O7  UNL     1      -3.992   9.214  60.035  1.00  0.00    -0.369 OA
ATOM     40  H7  UNL     1      -4.054   9.653  59.195  1.00  0.00     0.212 HD
ENDBRANCH  38  39
BRANCH  38  41
HETATM   41  C20 UNL     1      -3.309  11.275  60.903  1.00  0.00     0.196 C 
BRANCH  41  42
HETATM   42  O8  UNL     1      -2.262  10.657  60.180  1.00  0.00    -0.389 OA
ATOM     43  H8  UNL     1      -1.589  10.330  60.764  1.00  0.00     0.210 HD
ENDBRANCH  41  42
BRANCH  41  44
HETATM   44  C21 UNL     1      -3.538  12.586  60.064  1.00  0.00     0.200 C 
BRANCH  44  45
HETATM   45  O9  UNL     1      -2.477  12.630  59.170  1.00  0.00    -0.398 OA
ATOM     46  H9  UNL     1      -2.872  12.834  58.331  1.00  0.00     0.209 HD
ENDBRANCH  44  45
ENDBRANCH  41  44
ENDBRANCH  38  41
ENDBRANCH  37  38
ENDBRANCH   6  37
BRANCH   1  47
HETATM   47  N1  UNL     1      -7.581   8.506  59.879  1.00  0.00    -0.417 N 
HETATM   48  C1  UNL     1      -7.297   7.328  59.134  1.00  0.00     0.140 C 
ATOM     49  H1  UNL     1      -7.854   8.474  60.861  1.00  0.00     0.153 HD
ENDBRANCH   1  47
BRANCH   2  50
HETATM   50  N2  UNL     1      -9.655  10.524  59.789  1.00  0.00    -0.073 N 
ATOM     51  H23 UNL     1      -9.853   9.650  60.277  1.00  0.00     0.274 HD
ATOM     52  H22 UNL     1     -10.173  11.162  60.394  1.00  0.00     0.274 HD
ATOM     53  H21 UNL     1     -10.031  10.519  58.840  1.00  0.00     0.274 HD
ENDBRANCH   2  50
TORSDOF 18
ENDMDL
MODEL 2
REMARK VINA RESULT: -6.226588737      2.057      2.946
REMARK  18 active torsions:
REMARK  status: ('A' for Active; 'I' for Inactive)
REMARK    1  A    between atoms: N1_2  and  C2_4 
REMARK    2  A    between atoms: C3_5  and  N2_6 
REMARK    3  A    between atoms: C5_11  and  N3_12 
REMARK    4  A    between atoms: C6_16  and  O1_17 
REMARK    5  A    between atoms: O1_17  and  C7_18 
REMARK    6  A    between atoms: C8_19  and  N4_20 
REMARK    7  A    between atoms: C10_27  and  C11_28 
REMARK    8  A    between atoms: C11_28  and  O3_30 
REMARK    9  A    between atoms: N6_35  and  O4_36 
REMARK   10  A    between atoms: N7_39  and  C17_40 
REMARK   11  A    between atoms: C17_40  and  O5_41 
REMARK   12  A    between atoms: C18_43  and  O6_44 
REMARK   13  A    between atoms: O6_44  and  C19_45 
REMARK   14  A    between atoms: C19_45  and  O7_46 
REMARK   15  A    between atoms: C19_45  and  C20_48 
REMARK   16  A    between atoms: C20_48  and  O8_49 
REMARK   17  A    between atoms: C20_48  and  C21_51 
REMARK   18  A    between atoms: C21_51  and  O9_52 
ROOT
HETATM    1  C2  UNL     1      -7.706   7.593  59.005  1.00  0.00     0.138 C 
HETATM    2  C3  UNL     1      -8.914   7.990  59.751  1.00  0.00     0.210 C 
HETATM    3  C4  UNL     1      -9.400   9.335  59.247  1.00  0.00     0.070 C 
HETATM    4  C5  UNL     1      -8.672   9.869  58.083  1.00  0.00     0.217 C 
HETATM    5  C6  UNL     1      -7.162   9.756  58.093  1.00  0.00     0.185 C 
HETATM    6  C18 UNL     1      -6.653   8.710  59.045  1.00  0.00     0.180 C 
ENDROOT
BRANCH   5   7
HETATM    7  O1  UNL     1      -6.642   9.689  56.818  1.00  0.00    -0.345 OA
BRANCH   7   8
HETATM    8  C7  UNL     1      -5.401  10.338  56.826  1.00  0.00     0.397 C 
HETATM    9  C8  UNL     1      -4.311   9.749  56.047  1.00  0.00     0.268 C 
HETATM   10  C9  UNL     1      -3.415  10.927  55.603  1.00  0.00     0.162 C 
HETATM   11  N5  UNL     1      -3.017  10.871  54.273  1.00  0.00    -0.398 N 
HETATM   12  C16 UNL     1      -4.278  12.093  55.984  1.00  0.00     0.353 C 
HETATM   13  C10 UNL     1      -3.165  11.977  53.408  1.00  0.00     0.202 C 
ATOM     14  H5  UNL     1      -2.608  10.010  53.913  1.00  0.00     0.154 HD
HETATM   15  C13 UNL     1      -2.980  13.239  54.296  1.00  0.00     0.063 C 
HETATM   16  C14 UNL     1      -1.700  13.175  55.099  1.00  0.00     0.037 C 
HETATM   17  C15 UNL     1      -2.945  14.491  53.512  1.00  0.00     0.037 C 
HETATM   18  N6  UNL     1      -4.144  13.263  55.151  1.00  0.00    -0.153 NA
HETATM   19  N7  UNL     1      -5.614  11.646  56.123  1.00  0.00     0.164 N 
BRANCH   9  20
HETATM   20  N4  UNL     1      -3.572   8.850  56.897  1.00  0.00    -0.069 N 
ATOM     21  H43 UNL     1      -3.988   8.757  57.823  1.00  0.00     0.275 HD
ATOM     22  H42 UNL     1      -3.660   7.877  56.605  1.00  0.00     0.275 HD
ATOM     23  H41 UNL     1      -2.601   9.161  56.934  1.00  0.00     0.275 HD
ENDBRANCH   9  20
BRANCH  13  24
HETATM   24  C11 UNL     1      -2.122  12.008  52.351  1.00  0.00     0.283 C 
HETATM   25  O2  UNL     1      -2.110  12.604  51.279  1.00  0.00    -0.263 OA
BRANCH  24  26
HETATM   26  O3  UNL     1      -0.983  11.225  52.678  1.00  0.00    -0.325 OA
HETATM   27  C12 UNL     1      -0.345  10.305  51.838  1.00  0.00     0.213 C 
ENDBRANCH  24  26
ENDBRANCH  13  24
BRANCH  18  28
HETATM   28  O4  UNL     1      -4.096  14.412  55.842  1.00  0.00    -0.310 OA
ATOM     29  H4  UNL     1      -4.279  14.195  56.749  1.00  0.00     0.237 HD
ENDBRANCH  18  28
BRANCH  19  30
HETATM   30  C17 UNL     1      -6.347  11.332  54.951  1.00  0.00     0.443 C 
BRANCH  30  31
HETATM   31  O5  UNL     1      -7.709  11.490  55.068  1.00  0.00    -0.372 OA
ATOM     32  H5  UNL     1      -8.114  11.968  54.354  1.00  0.00     0.211 HD
ENDBRANCH  30  31
ENDBRANCH  19  30
ENDBRANCH   7   8
ENDBRANCH   5   7
BRANCH   4  33
HETATM   33  N3  UNL     1      -9.046  11.291  57.991  1.00  0.00    -0.072 N 
ATOM     34  H33 UNL     1      -9.223  11.725  58.898  1.00  0.00     0.274 HD
ATOM     35  H32 UNL     1      -8.275  11.898  57.713  1.00  0.00     0.274 HD
ATOM     36  H31 UNL     1      -9.844  11.329  57.357  1.00  0.00     0.274 HD
ENDBRANCH   4  33
BRANCH   6  37
HETATM   37  O6  UNL     1      -6.566   9.345  60.231  1.00  0.00    -0.349 OA
BRANCH  37  38
HETATM   38  C19 UNL     1      -5.746  10.332  60.545  1.00  0.00     0.288 C 
BRANCH  38  39
HETATM   39  O7  UNL     1      -6.206  10.485  62.062  1.00  0.00    -0.369 OA
ATOM     40  H7  UNL     1      -5.356  10.323  62.454  1.00  0.00     0.212 HD
ENDBRANCH  38  39
BRANCH  38  41
HETATM   41  C20 UNL     1      -4.333   9.947  60.769  1.00  0.00     0.196 C 
BRANCH  41  42
HETATM   42  O8  UNL     1      -3.981   8.818  59.992  1.00  0.00    -0.389 OA
ATOM     43  H8  UNL     1      -4.328   8.019  60.371  1.00  0.00     0.210 HD
ENDBRANCH  41  42
BRANCH  41  44
HETATM   44  C21 UNL     1      -3.344  11.034  60.208  1.00  0.00     0.200 C 
BRANCH  44  45
HETATM   45  O9  UNL     1      -2.103  10.412  60.185  1.00  0.00    -0.398 OA
ATOM     46  H9  UNL     1      -1.485  11.107  59.991  1.00  0.00     0.209 HD
ENDBRANCH  44  45
ENDBRANCH  41  44
ENDBRANCH  38  41
ENDBRANCH  37  38
ENDBRANCH   6  37
BRANCH   1  47
HETATM   47  N1  UNL     1      -7.137   6.382  59.493  1.00  0.00    -0.417 N 
HETATM   48  C1  UNL     1      -5.856   6.047  58.972  1.00  0.00     0.140 C 
ATOM     49  H1  UNL     1      -7.617   5.792  60.173  1.00  0.00     0.153 HD
ENDBRANCH   1  47
BRANCH   2  50
HETATM   50  N2  UNL     1      -9.965   6.990  59.617  1.00  0.00    -0.073 N 
ATOM     51  H23 UNL     1     -10.292   6.915  58.653  1.00  0.00     0.274 HD
ATOM     52  H22 UNL     1      -9.600   6.045  59.732  1.00  0.00     0.274 HD
ATOM     53  H21 UNL     1     -10.734   7.177  60.261  1.00  0.00     0.274 HD
ENDBRANCH   2  50
TORSDOF 18
ENDMDL
MODEL 3
REMARK VINA RESULT: -5.904674977      2.505      7.763
REMARK  18 active torsions:
REMARK  status: ('A' for Active; 'I' for Inactive)
REMARK    1  A    between atoms: N1_2  and  C2_4 
REMARK    2  A    between atoms: C3_5  and  N2_6 
REMARK    3  A    between atoms: C5_11  and  N3_12 
REMARK    4  A    between atoms: C6_16  and  O1_17 
REMARK    5  A    between atoms: O1_17  and  C7_18 
REMARK    6  A    between atoms: C8_19  and  N4_20 
REMARK    7  A    between atoms: C10_27  and  C11_28 
REMARK    8  A    between atoms: C11_28  and  O3_30 
REMARK    9  A    between atoms: N6_35  and  O4_36 
REMARK   10  A    between atoms: N7_39  and  C17_40 
REMARK   11  A    between atoms: C17_40  and  O5_41 
REMARK   12  A    between atoms: C18_43  and  O6_44 
REMARK   13  A    between atoms: O6_44  and  C19_45 
REMARK   14  A    between atoms: C19_45  and  O7_46 
REMARK   15  A    between atoms: C19_45  and  C20_48 
REMARK   16  A    between atoms: C20_48  and  O8_49 
REMARK   17  A    between atoms: C20_48  and  C21_51 
REMARK   18  A    between atoms: C21_51  and  O9_52 
ROOT
HETATM    1  C2  UNL     1      -1.868  11.122  52.995  1.00  0.00     0.138 C 
HETATM    2  C3  UNL     1      -0.496  10.622  53.199  1.00  0.00     0.210 C 
HETATM    3  C4  UNL     1      -0.484   9.633  54.347  1.00  0.00     0.070 C 
HETATM    4  C5  UNL     1      -1.808   9.299  54.901  1.00  0.00     0.217 C 
HETATM    5  C6  UNL     1      -2.781  10.438  55.117  1.00  0.00     0.185 C 
HETATM    6  C18 UNL     1      -2.448  11.662  54.311  1.00  0.00     0.180 C 
ENDROOT
BRANCH   5   7
HETATM    7  O1  UNL     1      -4.092  10.019  55.031  1.00  0.00    -0.345 OA
BRANCH   7   8
HETATM    8  C7  UNL     1      -4.863  10.851  55.853  1.00  0.00     0.397 C 
HETATM    9  C8  UNL     1      -6.299  10.939  55.588  1.00  0.00     0.268 C 
HETATM   10  C9  UNL     1      -6.970  11.223  56.951  1.00  0.00     0.162 C 
HETATM   11  N5  UNL     1      -8.108  10.464  57.196  1.00  0.00    -0.398 N 
HETATM   12  C16 UNL     1      -5.817  10.999  57.883  1.00  0.00     0.353 C 
HETATM   13  C10 UNL     1      -8.277   9.749  58.402  1.00  0.00     0.202 C 
ATOM     14  H5  UNL     1      -8.839  10.421  56.487  1.00  0.00     0.154 HD
HETATM   15  C13 UNL     1      -7.569  10.593  59.498  1.00  0.00     0.063 C 
HETATM   16  C14 UNL     1      -8.041  12.030  59.491  1.00  0.00     0.037 C 
HETATM   17  C15 UNL     1      -7.790  10.065  60.860  1.00  0.00     0.037 C 
HETATM   18  N6  UNL     1      -6.161  10.494  59.188  1.00  0.00    -0.153 NA
HETATM   19  N7  UNL     1      -4.835  10.226  57.215  1.00  0.00     0.164 N 
BRANCH   9  20
HETATM   20  N4  UNL     1      -6.534  12.031  54.677  1.00  0.00    -0.069 N 
ATOM     21  H43 UNL     1      -5.960  12.846  54.890  1.00  0.00     0.275 HD
ATOM     22  H42 UNL     1      -6.172  11.844  53.743  1.00  0.00     0.275 HD
ATOM     23  H41 UNL     1      -7.531  12.245  54.675  1.00  0.00     0.275 HD
ENDBRANCH   9  20
BRANCH  13  24
HETATM   24  C11 UNL     1      -9.707   9.619  58.782  1.00  0.00     0.283 C 
HETATM   25  O2  UNL     1     -10.575  10.481  58.873  1.00  0.00    -0.263 OA
BRANCH  24  26
HETATM   26  O3  UNL     1     -10.083   8.279  59.063  1.00  0.00    -0.325 OA
HETATM   27  C12 UNL     1      -9.229   7.253  59.484  1.00  0.00     0.213 C 
ENDBRANCH  24  26
ENDBRANCH  13  24
BRANCH  18  28
HETATM   28  O4  UNL     1      -5.499  11.095  60.189  1.00  0.00    -0.310 OA
ATOM     29  H4  UNL     1      -4.575  11.050  59.973  1.00  0.00     0.237 HD
ENDBRANCH  18  28
BRANCH  19  30
HETATM   30  C17 UNL     1      -5.090   8.847  57.007  1.00  0.00     0.443 C 
BRANCH  30  31
HETATM   31  O5  UNL     1      -4.080   8.010  57.423  1.00  0.00    -0.372 OA
ATOM     32  H5  UNL     1      -4.303   7.462  58.167  1.00  0.00     0.211 HD
ENDBRANCH  30  31
ENDBRANCH  19  30
ENDBRANCH   7   8
ENDBRANCH   5   7
BRANCH   4  33
HETATM   33  N3  UNL     1      -1.549   8.637  56.192  1.00  0.00    -0.072 N 
ATOM     34  H33 UNL     1      -2.355   8.128  56.557  1.00  0.00     0.274 HD
ATOM     35  H32 UNL     1      -0.921   7.837  56.121  1.00  0.00     0.274 HD
ATOM     36  H31 UNL     1      -1.210   9.368  56.817  1.00  0.00     0.274 HD
ENDBRANCH   4  33
BRANCH   6  37
HETATM   37  O6  UNL     1      -1.563  12.337  55.070  1.00  0.00    -0.349 OA
BRANCH  37  38
HETATM   38  C19 UNL     1      -1.739  13.517  55.636  1.00  0.00     0.288 C 
BRANCH  38  39
HETATM   39  O7  UNL     1      -2.393  14.236  54.375  1.00  0.00    -0.369 OA
ATOM     40  H7  UNL     1      -3.022  13.555  54.170  1.00  0.00     0.212 HD
ENDBRANCH  38  39
BRANCH  38  41
HETATM   41  C20 UNL     1      -2.880  13.615  56.576  1.00  0.00     0.196 C 
BRANCH  41  42
HETATM   42  O8  UNL     1      -2.584  12.984  57.807  1.00  0.00    -0.389 OA
ATOM     43  H8  UNL     1      -3.372  12.842  58.318  1.00  0.00     0.210 HD
ENDBRANCH  41  42
BRANCH  41  44
HETATM   44  C21 UNL     1      -3.123  15.099  57.035  1.00  0.00     0.200 C 
BRANCH  44  45
HETATM   45  O9  UNL     1      -1.892  15.724  56.895  1.00  0.00    -0.398 OA
ATOM     46  H9  UNL     1      -2.091  16.580  56.534  1.00  0.00     0.209 HD
ENDBRANCH  44  45
ENDBRANCH  41  44
ENDBRANCH  38  41
ENDBRANCH  37  38
ENDBRANCH   6  37
BRANCH   1  47
HETATM   47  N1  UNL     1      -1.937  12.132  51.992  1.00  0.00    -0.417 N 
HETATM   48  C1  UNL     1      -3.219  12.713  51.788  1.00  0.00     0.140 C 
ATOM     49  H1  UNL     1      -1.119  12.420  51.455  1.00  0.00     0.153 HD
ENDBRANCH   1  47
BRANCH   2  50
HETATM   50  N2  UNL     1       0.019   9.997  51.988  1.00  0.00    -0.073 N 
ATOM     51  H23 UNL     1      -0.402   9.081  51.829  1.00  0.00     0.274 HD
ATOM     52  H22 UNL     1      -0.317  10.470  51.149  1.00  0.00     0.274 HD
ATOM     53  H21 UNL     1       1.038   9.943  52.007  1.00  0.00     0.274 HD
ENDBRANCH   2  50
TORSDOF 18
ENDMDL
MODEL 4
REMARK VINA RESULT: -5.874215074      2.950      8.103
REMARK  18 active torsions:
REMARK  status: ('A' for Active; 'I' for Inactive)
REMARK    1  A    between atoms: N1_2  and  C2_4 
REMARK    2  A    between atoms: C3_5  and  N2_6 
REMARK    3  A    between atoms: C5_11  and  N3_12 
REMARK    4  A    between atoms: C6_16  and  O1_17 
REMARK    5  A    between atoms: O1_17  and  C7_18 
REMARK    6  A    between atoms: C8_19  and  N4_20 
REMARK    7  A    between atoms: C10_27  and  C11_28 
REMARK    8  A    between atoms: C11_28  and  O3_30 
REMARK    9  A    between atoms: N6_35  and  O4_36 
REMARK   10  A    between atoms: N7_39  and  C17_40 
REMARK   11  A    between atoms: C17_40  and  O5_41 
REMARK   12  A    between atoms: C18_43  and  O6_44 
REMARK   13  A    between atoms: O6_44  and  C19_45 
REMARK   14  A    between atoms: C19_45  and  O7_46 
REMARK   15  A    between atoms: C19_45  and  C20_48 
REMARK   16  A    between atoms: C20_48  and  O8_49 
REMARK   17  A    between atoms: C20_48  and  C21_51 
REMARK   18  A    between atoms: C21_51  and  O9_52 
ROOT
HETATM    1  C2  UNL     1      -3.618  12.079  54.993  1.00  0.00     0.138 C 
HETATM    2  C3  UNL     1      -4.899  11.848  54.301  1.00  0.00     0.210 C 
HETATM    3  C4  UNL     1      -5.914  11.304  55.287  1.00  0.00     0.070 C 
HETATM    4  C5  UNL     1      -5.462  11.252  56.688  1.00  0.00     0.217 C 
HETATM    5  C6  UNL     1      -4.059  10.746  56.950  1.00  0.00     0.185 C 
HETATM    6  C18 UNL     1      -3.170  10.815  55.740  1.00  0.00     0.180 C 
ENDROOT
BRANCH   5   7
HETATM    7  O1  UNL     1      -3.524  11.283  58.102  1.00  0.00    -0.345 OA
BRANCH   7   8
HETATM    8  C7  UNL     1      -4.352  10.916  59.171  1.00  0.00     0.397 C 
HETATM    9  C8  UNL     1      -3.881   9.867  60.076  1.00  0.00     0.268 C 
HETATM   10  C9  UNL     1      -4.501  10.181  61.456  1.00  0.00     0.162 C 
HETATM   11  N5  UNL     1      -3.616  10.066  62.520  1.00  0.00    -0.398 N 
HETATM   12  C16 UNL     1      -5.056  11.553  61.208  1.00  0.00     0.353 C 
HETATM   13  C10 UNL     1      -3.469  11.092  63.479  1.00  0.00     0.202 C 
ATOM     14  H5  UNL     1      -3.056   9.217  62.611  1.00  0.00     0.154 HD
HETATM   15  C13 UNL     1      -4.870  11.752  63.610  1.00  0.00     0.063 C 
HETATM   16  C14 UNL     1      -5.950  10.727  63.876  1.00  0.00     0.037 C 
HETATM   17  C15 UNL     1      -4.933  12.749  64.699  1.00  0.00     0.037 C 
HETATM   18  N6  UNL     1      -5.078  12.431  62.351  1.00  0.00    -0.153 NA
HETATM   19  N7  UNL     1      -4.408  12.108  60.078  1.00  0.00     0.164 N 
BRANCH   9  20
HETATM   20  N4  UNL     1      -4.353   8.595  59.593  1.00  0.00    -0.069 N 
ATOM     21  H43 UNL     1      -3.672   8.127  58.995  1.00  0.00     0.275 HD
ATOM     22  H42 UNL     1      -4.401   7.891  60.329  1.00  0.00     0.275 HD
ATOM     23  H41 UNL     1      -5.250   8.735  59.127  1.00  0.00     0.275 HD
ENDBRANCH   9  20
BRANCH  13  24
HETATM   24  C11 UNL     1      -3.089  10.564  64.814  1.00  0.00     0.283 C 
HETATM   25  O2  UNL     1      -3.606   9.672  65.479  1.00  0.00    -0.263 OA
BRANCH  24  26
HETATM   26  O3  UNL     1      -1.947  11.209  65.357  1.00  0.00    -0.325 OA
HETATM   27  C12 UNL     1      -1.856  11.798  66.624  1.00  0.00     0.213 C 
ENDBRANCH  24  26
ENDBRANCH  13  24
BRANCH  18  28
HETATM   28  O4  UNL     1      -6.217  13.130  62.469  1.00  0.00    -0.310 OA
ATOM     29  H4  UNL     1      -6.608  13.166  61.605  1.00  0.00     0.237 HD
ENDBRANCH  18  28
BRANCH  19  30
HETATM   30  C17 UNL     1      -3.066  12.545  60.216  1.00  0.00     0.443 C 
BRANCH  30  31
HETATM   31  O5  UNL     1      -2.693  13.534  59.335  1.00  0.00    -0.372 OA
ATOM     32  H5  UNL     1      -2.542  13.235  58.446  1.00  0.00     0.211 HD
ENDBRANCH  30  31
ENDBRANCH  19  30
ENDBRANCH   7   8
ENDBRANCH   5   7
BRANCH   4  33
HETATM   33  N3  UNL     1      -6.424  10.385  57.390  1.00  0.00    -0.072 N 
ATOM     34  H33 UNL     1      -6.075   9.440  57.557  1.00  0.00     0.274 HD
ATOM     35  H32 UNL     1      -6.563  10.639  58.368  1.00  0.00     0.274 HD
ATOM     36  H31 UNL     1      -7.280  10.411  56.836  1.00  0.00     0.274 HD
ENDBRANCH   4  33
BRANCH   6  37
HETATM   37  O6  UNL     1      -3.409   9.666  55.078  1.00  0.00    -0.349 OA
BRANCH  37  38
HETATM   38  C19 UNL     1      -2.530   8.733  54.761  1.00  0.00     0.288 C 
BRANCH  38  39
HETATM   39  O7  UNL     1      -2.042   9.389  53.394  1.00  0.00    -0.369 OA
ATOM     40  H7  UNL     1      -2.555  10.186  53.463  1.00  0.00     0.212 HD
ENDBRANCH  38  39
BRANCH  38  41
HETATM   41  C20 UNL     1      -1.251   8.776  55.508  1.00  0.00     0.196 C 
BRANCH  41  42
HETATM   42  O8  UNL     1      -0.964   7.525  56.103  1.00  0.00    -0.389 OA
ATOM     43  H8  UNL     1      -0.480   6.965  55.509  1.00  0.00     0.210 HD
ENDBRANCH  41  42
BRANCH  41  44
HETATM   44  C21 UNL     1      -0.024   8.951  54.540  1.00  0.00     0.200 C 
BRANCH  44  45
HETATM   45  O9  UNL     1       0.162   7.702  53.966  1.00  0.00    -0.398 OA
ATOM     46  H9  UNL     1       1.093   7.651  53.785  1.00  0.00     0.209 HD
ENDBRANCH  44  45
ENDBRANCH  41  44
ENDBRANCH  38  41
ENDBRANCH  37  38
ENDBRANCH   6  37
BRANCH   1  47
HETATM   47  N1  UNL     1      -2.586  12.499  54.104  1.00  0.00    -0.417 N 
HETATM   48  C1  UNL     1      -1.269  12.498  54.641  1.00  0.00     0.140 C 
ATOM     49  H1  UNL     1      -2.780  12.783  53.143  1.00  0.00     0.153 HD
ENDBRANCH   1  47
BRANCH   2  50
HETATM   50  N2  UNL     1      -5.394  13.074  53.691  1.00  0.00    -0.073 N 
ATOM     51  H23 UNL     1      -4.713  13.473  53.044  1.00  0.00     0.274 HD
ATOM     52  H22 UNL     1      -6.147  12.887  53.028  1.00  0.00     0.274 HD
ATOM     53  H21 UNL     1      -5.678  13.749  54.401  1.00  0.00     0.274 HD
ENDBRANCH   2  50
TORSDOF 18
ENDMDL
MODEL 5
REMARK VINA RESULT: -5.772442926      2.843      3.702
REMARK  18 active torsions:
REMARK  status: ('A' for Active; 'I' for Inactive)
REMARK    1  A    between atoms: N1_2  and  C2_4 
REMARK    2  A    between atoms: C3_5  and  N2_6 
REMARK    3  A    between atoms: C5_11  and  N3_12 
REMARK    4  A    between atoms: C6_16  and  O1_17 
REMARK    5  A    between atoms: O1_17  and  C7_18 
REMARK    6  A    between atoms: C8_19  and  N4_20 
REMARK    7  A    between atoms: C10_27  and  C11_28 
REMARK    8  A    between atoms: C11_28  and  O3_30 
REMARK    9  A    between atoms: N6_35  and  O4_36 
REMARK   10  A    between atoms: N7_39  and  C17_40 
REMARK   11  A    between atoms: C17_40  and  O5_41 
REMARK   12  A    between atoms: C18_43  and  O6_44 
REMARK   13  A    between atoms: O6_44  and  C19_45 
REMARK   14  A    between atoms: C19_45  and  O7_46 
REMARK   15  A    between atoms: C19_45  and  C20_48 
REMARK   16  A    between atoms: C20_48  and  O8_49 
REMARK   17  A    between atoms: C20_48  and  C21_51 
REMARK   18  A    between atoms: C21_51  and  O9_52 
ROOT
HETATM    1  C2  UNL     1      -7.317   7.542  58.835  1.00  0.00     0.138 C 
HETATM    2  C3  UNL     1      -8.362   7.613  59.873  1.00  0.00     0.210 C 
HETATM    3  C4  UNL     1      -9.112   8.924  59.744  1.00  0.00     0.070 C 
HETATM    4  C5  UNL     1      -8.741   9.748  58.581  1.00  0.00     0.217 C 
HETATM    5  C6  UNL     1      -7.267   9.881  58.262  1.00  0.00     0.185 C 
HETATM    6  C18 UNL     1      -6.429   8.794  58.874  1.00  0.00     0.180 C 
ENDROOT
BRANCH   5   7
HETATM    7  O1  UNL     1      -7.049  10.104  56.919  1.00  0.00    -0.345 OA
BRANCH   7   8
HETATM    8  C7  UNL     1      -5.721  10.525  56.765  1.00  0.00     0.397 C 
HETATM    9  C8  UNL     1      -5.071  10.289  55.475  1.00  0.00     0.268 C 
HETATM   10  C9  UNL     1      -4.041  11.427  55.299  1.00  0.00     0.162 C 
HETATM   11  N5  UNL     1      -4.034  12.000  54.034  1.00  0.00    -0.398 N 
HETATM   12  C16 UNL     1      -4.431  12.334  56.429  1.00  0.00     0.353 C 
HETATM   13  C10 UNL     1      -4.101  13.398  53.852  1.00  0.00     0.202 C 
ATOM     14  H5  UNL     1      -3.978  11.395  53.215  1.00  0.00     0.154 HD
HETATM   15  C13 UNL     1      -3.360  14.021  55.068  1.00  0.00     0.063 C 
HETATM   16  C14 UNL     1      -1.981  13.428  55.247  1.00  0.00     0.037 C 
HETATM   17  C15 UNL     1      -3.198  15.485  54.951  1.00  0.00     0.037 C 
HETATM   18  N6  UNL     1      -4.212  13.741  56.202  1.00  0.00    -0.153 NA
HETATM   19  N7  UNL     1      -5.753  12.022  56.828  1.00  0.00     0.164 N 
BRANCH   9  20
HETATM   20  N4  UNL     1      -4.404   9.013  55.522  1.00  0.00    -0.069 N 
ATOM     21  H43 UNL     1      -4.715   8.438  56.305  1.00  0.00     0.275 HD
ATOM     22  H42 UNL     1      -4.695   8.392  54.767  1.00  0.00     0.275 HD
ATOM     23  H41 UNL     1      -3.396   9.172  55.531  1.00  0.00     0.275 HD
ENDBRANCH   9  20
BRANCH  13  24
HETATM   24  C11 UNL     1      -3.400  13.839  52.619  1.00  0.00     0.283 C 
HETATM   25  O2  UNL     1      -3.377  14.942  52.083  1.00  0.00    -0.263 OA
BRANCH  24  26
HETATM   26  O3  UNL     1      -2.650  12.799  52.009  1.00  0.00    -0.325 OA
HETATM   27  C12 UNL     1      -2.513  12.577  50.634  1.00  0.00     0.213 C 
ENDBRANCH  24  26
ENDBRANCH  13  24
BRANCH  18  28
HETATM   28  O4  UNL     1      -3.679  14.379  57.255  1.00  0.00    -0.310 OA
ATOM     29  H4  UNL     1      -4.370  14.465  57.902  1.00  0.00     0.237 HD
ENDBRANCH  18  28
BRANCH  19  30
HETATM   30  C17 UNL     1      -6.823  12.416  55.984  1.00  0.00     0.443 C 
BRANCH  30  31
HETATM   31  O5  UNL     1      -7.927  12.898  56.648  1.00  0.00    -0.372 OA
ATOM     32  H5  UNL     1      -8.492  12.228  57.015  1.00  0.00     0.211 HD
ENDBRANCH  30  31
ENDBRANCH  19  30
ENDBRANCH   7   8
ENDBRANCH   5   7
BRANCH   4  33
HETATM   33  N3  UNL     1      -9.299  11.086  58.840  1.00  0.00    -0.072 N 
ATOM     34  H33 UNL     1      -9.330  11.682  58.012  1.00  0.00     0.274 HD
ATOM     35  H32 UNL     1     -10.302  11.081  59.025  1.00  0.00     0.274 HD
ATOM     36  H31 UNL     1      -8.746  11.477  59.603  1.00  0.00     0.274 HD
ENDBRANCH   4  33
BRANCH   6  37
HETATM   37  O6  UNL     1      -6.152   9.237  60.116  1.00  0.00    -0.349 OA
BRANCH  37  38
HETATM   38  C19 UNL     1      -5.579  10.383  60.441  1.00  0.00     0.288 C 
BRANCH  38  39
HETATM   39  O7  UNL     1      -6.426  10.649  61.763  1.00  0.00    -0.369 OA
ATOM     40  H7  UNL     1      -5.887  10.130  62.349  1.00  0.00     0.212 HD
ENDBRANCH  38  39
BRANCH  38  41
HETATM   41  C20 UNL     1      -4.231  10.277  61.046  1.00  0.00     0.196 C 
BRANCH  41  42
HETATM   42  O8  UNL     1      -3.567   9.105  60.615  1.00  0.00    -0.389 OA
ATOM     43  H8  UNL     1      -3.955   8.329  61.000  1.00  0.00     0.210 HD
ENDBRANCH  41  42
BRANCH  41  44
HETATM   44  C21 UNL     1      -3.269  11.399  60.508  1.00  0.00     0.200 C 
BRANCH  44  45
HETATM   45  O9  UNL     1      -2.085  10.742  60.206  1.00  0.00    -0.398 OA
ATOM     46  H9  UNL     1      -1.859  11.033  59.330  1.00  0.00     0.209 HD
ENDBRANCH  44  45
ENDBRANCH  41  44
ENDBRANCH  38  41
ENDBRANCH  37  38
ENDBRANCH   6  37
BRANCH   1  47
HETATM   47  N1  UNL     1      -6.506   6.376  58.957  1.00  0.00    -0.417 N 
HETATM   48  C1  UNL     1      -5.212   6.460  58.372  1.00  0.00     0.140 C 
ATOM     49  H1  UNL     1      -6.832   5.535  59.434  1.00  0.00     0.153 HD
ENDBRANCH   1  47
BRANCH   2  50
HETATM   50  N2  UNL     1      -9.284   6.490  59.767  1.00  0.00    -0.073 N 
ATOM     51  H23 UNL     1      -8.909   5.751  59.171  1.00  0.00     0.274 HD
ATOM     52  H22 UNL     1      -9.344   5.970  60.642  1.00  0.00     0.274 HD
ATOM     53  H21 UNL     1     -10.203   6.799  59.449  1.00  0.00     0.274 HD
ENDBRANCH   2  50
TORSDOF 18
ENDMDL
