MODEL 1
REMARK VINA RESULT: -9.185464073      0.000      0.000
REMARK  12 active torsions:
REMARK  status: ('A' for Active; 'I' for Inactive)
REMARK    1  A    between atoms: C2_2  and  C3_3 
REMARK    2  A    between atoms: C3_3  and  N1_4 
REMARK    3  A    between atoms: N1_4  and  C4_5 
REMARK       I    between atoms: N1_4  and  C21_26 
REMARK    4  A    between atoms: C4_5  and  C5_6 
REMARK    5  A    between atoms: C5_6  and  C6_7 
REMARK    6  A    between atoms: C6_7  and  C7_8 
REMARK    7  A    between atoms: C7_8  and  C8_9 
REMARK    8  A    between atoms: C8_9  and  C9_10 
REMARK       I    between atoms: C9_10  and  N2_12 
REMARK    9  A    between atoms: C21_26  and  C22_28 
REMARK   10  A    between atoms: C23_29  and  N4_30 
REMARK   11  A    between atoms: N7_41  and  C29_42 
REMARK   12  A    between atoms: C29_42  and  C30_43 
ROOT
HETATM    1  N1  UNL     1      16.304  22.722  16.675  1.00  0.00    -0.344 N 
HETATM    2  C21 UNL     1      17.422  23.419  17.151  1.00  0.00     0.263 C 
HETATM    3  O2  UNL     1      18.293  22.790  17.852  1.00  0.00    -0.267 OA
ENDROOT
BRANCH   1   4
HETATM    4  C3  UNL     1      15.268  23.405  15.847  1.00  0.00     0.152 C 
BRANCH   4   5
HETATM    5  C2  UNL     1      15.095  22.796  14.525  1.00  0.00    -0.017 C 
HETATM    6  C1  UNL     1      15.517  23.266  13.374  1.00  0.00     0.008 C 
ENDBRANCH   4   5
ENDBRANCH   1   4
BRANCH   1   7
HETATM    7  C4  UNL     1      16.028  21.323  16.932  1.00  0.00     0.126 C 
BRANCH   7   8
HETATM    8  C5  UNL     1      15.028  20.974  17.936  1.00  0.00     0.020 C 
BRANCH   8   9
HETATM    9  C6  UNL     1      14.676  21.831  19.068  1.00  0.00     0.002 C 
BRANCH   9  10
HETATM   10  C7  UNL     1      13.251  22.186  19.277  1.00  0.00     0.009 C 
BRANCH  10  11
HETATM   11  C8  UNL     1      12.449  22.493  18.063  1.00  0.00     0.103 C 
BRANCH  11  12
HETATM   12  C9  UNL     1      11.285  21.618  17.846  1.00  0.00     0.220 C 
HETATM   13  O1  UNL     1      10.337  21.661  18.672  1.00  0.00    -0.273 OA
HETATM   14  N2  UNL     1      11.195  20.728  16.734  1.00  0.00    -0.348 N 
HETATM   15  C10 UNL     1      12.256  20.651  15.766  1.00  0.00     0.130 C 
HETATM   16  C20 UNL     1      10.027  19.906  16.582  1.00  0.00     0.165 C 
HETATM   17  C11 UNL     1      12.719  19.212  15.679  1.00  0.00     0.059 C 
HETATM   18  C12 UNL     1      11.555  18.382  15.305  1.00  0.00    -0.048 A 
HETATM   19  C13 UNL     1      11.737  17.268  14.520  1.00  0.00     0.010 A 
HETATM   20  C19 UNL     1      10.288  18.707  15.727  1.00  0.00    -0.021 A 
HETATM   21  C14 UNL     1      10.662  16.464  14.146  1.00  0.00     0.031 A 
HETATM   22  C15 UNL     1       9.388  16.778  14.562  1.00  0.00     0.043 A 
HETATM   23  N3  UNL     1       8.171  16.202  14.366  1.00  0.00    -0.365 N 
HETATM   24  C18 UNL     1       9.214  17.912  15.360  1.00  0.00     0.000 A 
HETATM   25  C16 UNL     1       7.219  16.908  14.996  1.00  0.00     0.089 A 
ATOM     26  H3  UNL     1       8.007  15.358  13.818  1.00  0.00     0.165 HD
HETATM   27  C17 UNL     1       7.860  17.967  15.612  1.00  0.00     0.031 A 
ENDBRANCH  11  12
ENDBRANCH  10  11
ENDBRANCH   9  10
ENDBRANCH   8   9
ENDBRANCH   7   8
ENDBRANCH   1   7
BRANCH   2  28
HETATM   28  C22 UNL     1      17.749  24.814  16.957  1.00  0.00     0.144 A 
HETATM   29  C23 UNL     1      17.533  25.768  17.892  1.00  0.00     0.138 A 
HETATM   30  N6  UNL     1      17.873  27.061  17.570  1.00  0.00    -0.293 N 
HETATM   31  C28 UNL     1      18.401  27.385  16.377  1.00  0.00     0.331 A 
ATOM     32  H6  UNL     1      17.721  27.798  18.259  1.00  0.00     0.172 HD
HETATM   33  O3  UNL     1      18.702  28.597  16.126  1.00  0.00    -0.246 OA
HETATM   34  N7  UNL     1      18.627  26.457  15.421  1.00  0.00    -0.259 N 
HETATM   35  C34 UNL     1      18.305  25.193  15.713  1.00  0.00     0.271 A 
HETATM   36  O5  UNL     1      18.517  24.334  14.820  1.00  0.00    -0.267 OA
BRANCH  29  37
HETATM   37  N4  UNL     1      16.945  25.476  19.143  1.00  0.00    -0.295 N 
HETATM   38  C24 UNL     1      17.618  25.131  20.280  1.00  0.00     0.190 A 
HETATM   39  N5  UNL     1      16.755  24.902  21.270  1.00  0.00    -0.360 N 
HETATM   40  C25 UNL     1      15.503  25.085  20.828  1.00  0.00     0.114 A 
ATOM     41  H5  UNL     1      17.009  24.628  22.220  1.00  0.00     0.166 HD
HETATM   42  C26 UNL     1      15.635  25.444  19.497  1.00  0.00     0.030 A 
HETATM   43  C27 UNL     1      14.486  25.736  18.593  1.00  0.00     0.070 C 
ENDBRANCH  29  37
BRANCH  34  44
HETATM   44  C29 UNL     1      19.182  26.870  14.153  1.00  0.00     0.202 C 
BRANCH  44  45
HETATM   45  C30 UNL     1      18.208  26.904  13.046  1.00  0.00     0.071 A 
HETATM   46  C31 UNL     1      18.292  26.216  11.859  1.00  0.00     0.036 A 
HETATM   47  C32 UNL     1      17.169  26.537  11.113  1.00  0.00     0.027 A 
HETATM   48  C33 UNL     1      16.456  27.415  11.900  1.00  0.00     0.142 A 
HETATM   49  O4  UNL     1      17.100  27.604  13.026  1.00  0.00    -0.325 OA
ENDBRANCH  44  45
ENDBRANCH  34  44
ENDBRANCH   2  28
TORSDOF 12
ENDMDL
MODEL 2
REMARK VINA RESULT: -9.036557532      2.764     10.848
REMARK  12 active torsions:
REMARK  status: ('A' for Active; 'I' for Inactive)
REMARK    1  A    between atoms: C2_2  and  C3_3 
REMARK    2  A    between atoms: C3_3  and  N1_4 
REMARK    3  A    between atoms: N1_4  and  C4_5 
REMARK       I    between atoms: N1_4  and  C21_26 
REMARK    4  A    between atoms: C4_5  and  C5_6 
REMARK    5  A    between atoms: C5_6  and  C6_7 
REMARK    6  A    between atoms: C6_7  and  C7_8 
REMARK    7  A    between atoms: C7_8  and  C8_9 
REMARK    8  A    between atoms: C8_9  and  C9_10 
REMARK       I    between atoms: C9_10  and  N2_12 
REMARK    9  A    between atoms: C21_26  and  C22_28 
REMARK   10  A    between atoms: C23_29  and  N4_30 
REMARK   11  A    between atoms: N7_41  and  C29_42 
REMARK   12  A    between atoms: C29_42  and  C30_43 
ROOT
HETATM    1  N1  UNL     1      10.189  20.105  18.606  1.00  0.00    -0.344 N 
HETATM    2  C21 UNL     1      10.451  20.130  17.230  1.00  0.00     0.263 C 
HETATM    3  O2  UNL     1      10.514  21.263  16.632  1.00  0.00    -0.267 OA
ENDROOT
BRANCH   1   4
HETATM    4  C3  UNL     1      10.115  18.814  19.350  1.00  0.00     0.152 C 
BRANCH   4   5
HETATM    5  C2  UNL     1       9.165  18.847  20.465  1.00  0.00    -0.017 C 
HETATM    6  C1  UNL     1       8.381  17.873  20.870  1.00  0.00     0.008 C 
ENDBRANCH   4   5
ENDBRANCH   1   4
BRANCH   1   7
HETATM    7  C4  UNL     1       9.958  21.275  19.428  1.00  0.00     0.126 C 
BRANCH   7   8
HETATM    8  C5  UNL     1      11.100  22.089  19.834  1.00  0.00     0.020 C 
BRANCH   8   9
HETATM    9  C6  UNL     1      12.491  21.751  19.529  1.00  0.00     0.002 C 
BRANCH   9  10
HETATM   10  C7  UNL     1      13.427  22.844  19.168  1.00  0.00     0.009 C 
BRANCH  10  11
HETATM   11  C8  UNL     1      14.666  22.965  19.981  1.00  0.00     0.103 C 
BRANCH  11  12
HETATM   12  C9  UNL     1      15.399  24.230  19.816  1.00  0.00     0.220 C 
HETATM   13  O1  UNL     1      15.015  25.239  20.460  1.00  0.00    -0.273 OA
HETATM   14  N2  UNL     1      16.531  24.349  18.953  1.00  0.00    -0.348 N 
HETATM   15  C10 UNL     1      17.004  23.219  18.201  1.00  0.00     0.130 C 
HETATM   16  C20 UNL     1      17.203  25.613  18.843  1.00  0.00     0.165 C 
HETATM   17  C11 UNL     1      17.027  23.596  16.734  1.00  0.00     0.059 C 
HETATM   18  C12 UNL     1      17.902  24.778  16.584  1.00  0.00    -0.048 A 
HETATM   19  C13 UNL     1      18.645  24.933  15.438  1.00  0.00     0.010 A 
HETATM   20  C19 UNL     1      17.987  25.727  17.574  1.00  0.00    -0.021 A 
HETATM   21  C14 UNL     1      19.483  26.034  15.264  1.00  0.00     0.031 A 
HETATM   22  C15 UNL     1      19.578  26.992  16.248  1.00  0.00     0.043 A 
HETATM   23  N3  UNL     1      20.289  28.145  16.364  1.00  0.00    -0.365 N 
HETATM   24  C18 UNL     1      18.817  26.824  17.408  1.00  0.00     0.000 A 
HETATM   25  C16 UNL     1      20.026  28.732  17.543  1.00  0.00     0.089 A 
ATOM     26  H3  UNL     1      20.928  28.511  15.659  1.00  0.00     0.165 HD
HETATM   27  C17 UNL     1      19.116  27.918  18.191  1.00  0.00     0.031 A 
ENDBRANCH  11  12
ENDBRANCH  10  11
ENDBRANCH   9  10
ENDBRANCH   8   9
ENDBRANCH   7   8
ENDBRANCH   1   7
BRANCH   2  28
HETATM   28  C22 UNL     1      10.665  19.007  16.345  1.00  0.00     0.144 A 
HETATM   29  C23 UNL     1      11.873  18.429  16.153  1.00  0.00     0.138 A 
HETATM   30  N6  UNL     1      11.940  17.377  15.268  1.00  0.00    -0.293 N 
HETATM   31  C28 UNL     1      10.857  16.929  14.608  1.00  0.00     0.331 A 
ATOM     32  H6  UNL     1      12.839  16.923  15.106  1.00  0.00     0.172 HD
HETATM   33  O3  UNL     1      10.968  15.952  13.799  1.00  0.00    -0.246 OA
HETATM   34  N7  UNL     1       9.637  17.486  14.777  1.00  0.00    -0.259 N 
HETATM   35  C34 UNL     1       9.549  18.508  15.633  1.00  0.00     0.271 A 
HETATM   36  O5  UNL     1       8.412  19.023  15.786  1.00  0.00    -0.267 OA
BRANCH  29  37
HETATM   37  N4  UNL     1      13.042  18.893  16.796  1.00  0.00    -0.295 N 
HETATM   38  C24 UNL     1      13.496  18.486  18.017  1.00  0.00     0.190 A 
HETATM   39  N5  UNL     1      14.612  19.144  18.332  1.00  0.00    -0.360 N 
HETATM   40  C25 UNL     1      14.927  19.995  17.345  1.00  0.00     0.114 A 
ATOM     41  H5  UNL     1      15.145  19.019  19.193  1.00  0.00     0.166 HD
HETATM   42  C26 UNL     1      13.937  19.829  16.391  1.00  0.00     0.030 A 
HETATM   43  C27 UNL     1      13.876  20.591  15.111  1.00  0.00     0.070 C 
ENDBRANCH  29  37
BRANCH  34  44
HETATM   44  C29 UNL     1       8.515  16.969  14.027  1.00  0.00     0.202 C 
BRANCH  44  45
HETATM   45  C30 UNL     1       7.720  15.956  14.746  1.00  0.00     0.071 A 
HETATM   46  C31 UNL     1       7.124  14.844  14.199  1.00  0.00     0.036 A 
HETATM   47  C32 UNL     1       6.483  14.170  15.227  1.00  0.00     0.027 A 
HETATM   48  C33 UNL     1       6.730  14.922  16.355  1.00  0.00     0.142 A 
HETATM   49  O4  UNL     1       7.459  15.961  16.030  1.00  0.00    -0.325 OA
ENDBRANCH  44  45
ENDBRANCH  34  44
ENDBRANCH   2  28
TORSDOF 12
ENDMDL
MODEL 3
REMARK VINA RESULT: -8.954374369      2.350      4.551
REMARK  12 active torsions:
REMARK  status: ('A' for Active; 'I' for Inactive)
REMARK    1  A    between atoms: C2_2  and  C3_3 
REMARK    2  A    between atoms: C3_3  and  N1_4 
REMARK    3  A    between atoms: N1_4  and  C4_5 
REMARK       I    between atoms: N1_4  and  C21_26 
REMARK    4  A    between atoms: C4_5  and  C5_6 
REMARK    5  A    between atoms: C5_6  and  C6_7 
REMARK    6  A    between atoms: C6_7  and  C7_8 
REMARK    7  A    between atoms: C7_8  and  C8_9 
REMARK    8  A    between atoms: C8_9  and  C9_10 
REMARK       I    between atoms: C9_10  and  N2_12 
REMARK    9  A    between atoms: C21_26  and  C22_28 
REMARK   10  A    between atoms: C23_29  and  N4_30 
REMARK   11  A    between atoms: N7_41  and  C29_42 
REMARK   12  A    between atoms: C29_42  and  C30_43 
ROOT
HETATM    1  N1  UNL     1      14.176  22.879  18.741  1.00  0.00    -0.344 N 
HETATM    2  C21 UNL     1      15.187  22.146  18.106  1.00  0.00     0.263 C 
HETATM    3  O2  UNL     1      15.491  20.986  18.562  1.00  0.00    -0.267 OA
ENDROOT
BRANCH   1   4
HETATM    4  C3  UNL     1      13.779  24.228  18.245  1.00  0.00     0.152 C 
BRANCH   4   5
HETATM    5  C2  UNL     1      14.365  25.323  19.022  1.00  0.00    -0.017 C 
HETATM    6  C1  UNL     1      15.268  26.188  18.620  1.00  0.00     0.008 C 
ENDBRANCH   4   5
ENDBRANCH   1   4
BRANCH   1   7
HETATM    7  C4  UNL     1      13.441  22.439  19.910  1.00  0.00     0.126 C 
BRANCH   7   8
HETATM    8  C5  UNL     1      12.418  21.410  19.753  1.00  0.00     0.020 C 
BRANCH   8   9
HETATM    9  C6  UNL     1      11.034  21.689  19.370  1.00  0.00     0.002 C 
BRANCH   9  10
HETATM   10  C7  UNL     1       9.976  20.732  19.777  1.00  0.00     0.009 C 
BRANCH  10  11
HETATM   11  C8  UNL     1      10.354  19.295  19.836  1.00  0.00     0.103 C 
BRANCH  11  12
HETATM   12  C9  UNL     1       9.282  18.353  19.479  1.00  0.00     0.220 C 
HETATM   13  O1  UNL     1       8.568  17.876  20.398  1.00  0.00    -0.273 OA
HETATM   14  N2  UNL     1       9.024  17.964  18.129  1.00  0.00    -0.348 N 
HETATM   15  C10 UNL     1       9.815  18.488  17.050  1.00  0.00     0.130 C 
HETATM   16  C20 UNL     1       7.957  17.043  17.853  1.00  0.00     0.165 C 
HETATM   17  C11 UNL     1      10.406  17.324  16.281  1.00  0.00     0.059 C 
HETATM   18  C12 UNL     1       9.289  16.483  15.803  1.00  0.00    -0.048 A 
HETATM   19  C13 UNL     1       9.400  15.822  14.603  1.00  0.00     0.010 A 
HETATM   20  C19 UNL     1       8.137  16.349  16.540  1.00  0.00    -0.021 A 
HETATM   21  C14 UNL     1       8.366  15.022  14.120  1.00  0.00     0.031 A 
HETATM   22  C15 UNL     1       7.205  14.881  14.848  1.00  0.00     0.043 A 
HETATM   23  N3  UNL     1       6.053  14.189  14.644  1.00  0.00    -0.365 N 
HETATM   24  C18 UNL     1       7.104  15.556  16.067  1.00  0.00     0.000 A 
HETATM   25  C16 UNL     1       5.210  14.382  15.671  1.00  0.00     0.089 A 
ATOM     26  H3  UNL     1       5.857  13.607  13.829  1.00  0.00     0.165 HD
HETATM   27  C17 UNL     1       5.857  15.228  16.553  1.00  0.00     0.031 A 
ENDBRANCH  11  12
ENDBRANCH  10  11
ENDBRANCH   9  10
ENDBRANCH   8   9
ENDBRANCH   7   8
ENDBRANCH   1   7
BRANCH   2  28
HETATM   28  C22 UNL     1      15.977  22.531  16.958  1.00  0.00     0.144 A 
HETATM   29  C23 UNL     1      15.682  22.157  15.691  1.00  0.00     0.138 A 
HETATM   30  N6  UNL     1      16.530  22.579  14.692  1.00  0.00    -0.293 N 
HETATM   31  C28 UNL     1      17.614  23.332  14.946  1.00  0.00     0.331 A 
ATOM     32  H6  UNL     1      16.329  22.311  13.728  1.00  0.00     0.172 HD
HETATM   33  O3  UNL     1      18.368  23.699  13.987  1.00  0.00    -0.246 OA
HETATM   34  N7  UNL     1      17.936  23.720  16.200  1.00  0.00    -0.259 N 
HETATM   35  C34 UNL     1      17.126  23.323  17.186  1.00  0.00     0.271 A 
HETATM   36  O5  UNL     1      17.431  23.686  18.350  1.00  0.00    -0.267 OA
BRANCH  29  37
HETATM   37  N4  UNL     1      14.576  21.334  15.386  1.00  0.00    -0.295 N 
HETATM   38  C24 UNL     1      13.283  21.752  15.252  1.00  0.00     0.190 A 
HETATM   39  N5  UNL     1      12.491  20.714  14.987  1.00  0.00    -0.360 N 
HETATM   40  C25 UNL     1      13.223  19.591  14.937  1.00  0.00     0.114 A 
ATOM     41  H5  UNL     1      11.483  20.765  14.843  1.00  0.00     0.166 HD
HETATM   42  C26 UNL     1      14.524  19.992  15.189  1.00  0.00     0.030 A 
HETATM   43  C27 UNL     1      15.688  19.063  15.245  1.00  0.00     0.070 C 
ENDBRANCH  29  37
BRANCH  34  44
HETATM   44  C29 UNL     1      19.123  24.517  16.409  1.00  0.00     0.202 C 
BRANCH  44  45
HETATM   45  C30 UNL     1      18.878  25.970  16.458  1.00  0.00     0.071 A 
HETATM   46  C31 UNL     1      18.823  26.754  17.586  1.00  0.00     0.036 A 
HETATM   47  C32 UNL     1      18.573  28.054  17.175  1.00  0.00     0.027 A 
HETATM   48  C33 UNL     1      18.490  27.986  15.802  1.00  0.00     0.142 A 
HETATM   49  O4  UNL     1      18.675  26.745  15.420  1.00  0.00    -0.325 OA
ENDBRANCH  44  45
ENDBRANCH  34  44
ENDBRANCH   2  28
TORSDOF 12
ENDMDL
MODEL 4
REMARK VINA RESULT: -8.945852763      2.448     10.395
REMARK  12 active torsions:
REMARK  status: ('A' for Active; 'I' for Inactive)
REMARK    1  A    between atoms: C2_2  and  C3_3 
REMARK    2  A    between atoms: C3_3  and  N1_4 
REMARK    3  A    between atoms: N1_4  and  C4_5 
REMARK       I    between atoms: N1_4  and  C21_26 
REMARK    4  A    between atoms: C4_5  and  C5_6 
REMARK    5  A    between atoms: C5_6  and  C6_7 
REMARK    6  A    between atoms: C6_7  and  C7_8 
REMARK    7  A    between atoms: C7_8  and  C8_9 
REMARK    8  A    between atoms: C8_9  and  C9_10 
REMARK       I    between atoms: C9_10  and  N2_12 
REMARK    9  A    between atoms: C21_26  and  C22_28 
REMARK   10  A    between atoms: C23_29  and  N4_30 
REMARK   11  A    between atoms: N7_41  and  C29_42 
REMARK   12  A    between atoms: C29_42  and  C30_43 
ROOT
HETATM    1  N1  UNL     1      12.067  21.198  18.333  1.00  0.00    -0.344 N 
HETATM    2  C21 UNL     1      11.649  21.076  17.002  1.00  0.00     0.263 C 
HETATM    3  O2  UNL     1      11.426  22.141  16.322  1.00  0.00    -0.267 OA
ENDROOT
BRANCH   1   4
HETATM    4  C3  UNL     1      12.349  19.992  19.164  1.00  0.00     0.152 C 
BRANCH   4   5
HETATM    5  C2  UNL     1      11.299  19.713  20.148  1.00  0.00    -0.017 C 
HETATM    6  C1  UNL     1      10.286  18.887  20.017  1.00  0.00     0.008 C 
ENDBRANCH   4   5
ENDBRANCH   1   4
BRANCH   1   7
HETATM    7  C4  UNL     1      12.254  22.454  19.031  1.00  0.00     0.126 C 
BRANCH   7   8
HETATM    8  C5  UNL     1      13.573  23.079  19.018  1.00  0.00     0.020 C 
BRANCH   8   9
HETATM    9  C6  UNL     1      14.496  23.058  20.153  1.00  0.00     0.002 C 
BRANCH   9  10
HETATM   10  C7  UNL     1      15.085  24.339  20.616  1.00  0.00     0.009 C 
BRANCH  10  11
HETATM   11  C8  UNL     1      16.565  24.391  20.746  1.00  0.00     0.103 C 
BRANCH  11  12
HETATM   12  C9  UNL     1      17.240  25.314  19.820  1.00  0.00     0.220 C 
HETATM   13  O1  UNL     1      17.344  26.525  20.145  1.00  0.00    -0.273 OA
HETATM   14  N2  UNL     1      17.782  24.882  18.572  1.00  0.00    -0.348 N 
HETATM   15  C10 UNL     1      17.687  23.507  18.165  1.00  0.00     0.130 C 
HETATM   16  C20 UNL     1      18.433  25.837  17.718  1.00  0.00     0.165 C 
HETATM   17  C11 UNL     1      17.001  23.454  16.815  1.00  0.00     0.059 C 
HETATM   18  C12 UNL     1      17.796  24.266  15.870  1.00  0.00    -0.048 A 
HETATM   19  C13 UNL     1      17.866  23.898  14.548  1.00  0.00     0.010 A 
HETATM   20  C19 UNL     1      18.471  25.387  16.293  1.00  0.00    -0.021 A 
HETATM   21  C14 UNL     1      18.608  24.640  13.629  1.00  0.00     0.031 A 
HETATM   22  C15 UNL     1      19.289  25.764  14.040  1.00  0.00     0.043 A 
HETATM   23  N3  UNL     1      20.076  26.666  13.396  1.00  0.00    -0.365 N 
HETATM   24  C18 UNL     1      19.210  26.129  15.386  1.00  0.00     0.000 A 
HETATM   25  C16 UNL     1      20.511  27.598  14.259  1.00  0.00     0.089 A 
ATOM     26  H3  UNL     1      20.303  26.639  12.402  1.00  0.00     0.165 HD
HETATM   27  C17 UNL     1      19.978  27.269  15.491  1.00  0.00     0.031 A 
ENDBRANCH  11  12
ENDBRANCH  10  11
ENDBRANCH   9  10
ENDBRANCH   8   9
ENDBRANCH   7   8
ENDBRANCH   1   7
BRANCH   2  28
HETATM   28  C22 UNL     1      11.417  19.863  16.251  1.00  0.00     0.144 A 
HETATM   29  C23 UNL     1      12.383  19.222  15.552  1.00  0.00     0.138 A 
HETATM   30  N6  UNL     1      12.022  18.086  14.865  1.00  0.00    -0.293 N 
HETATM   31  C28 UNL     1      10.763  17.614  14.876  1.00  0.00     0.331 A 
ATOM     32  H6  UNL     1      12.733  17.584  14.332  1.00  0.00     0.172 HD
HETATM   33  O3  UNL     1      10.477  16.558  14.225  1.00  0.00    -0.246 OA
HETATM   34  N7  UNL     1       9.776  18.232  15.562  1.00  0.00    -0.259 N 
HETATM   35  C34 UNL     1      10.104  19.338  16.237  1.00  0.00     0.271 A 
HETATM   36  O5  UNL     1       9.182  19.908  16.873  1.00  0.00    -0.267 OA
BRANCH  29  37
HETATM   37  N4  UNL     1      13.709  19.705  15.483  1.00  0.00    -0.295 N 
HETATM   38  C24 UNL     1      14.722  19.380  16.339  1.00  0.00     0.190 A 
HETATM   39  N5  UNL     1      15.834  20.031  16.000  1.00  0.00    -0.360 N 
HETATM   40  C25 UNL     1      15.598  20.797  14.925  1.00  0.00     0.114 A 
ATOM     41  H5  UNL     1      16.729  19.958  16.484  1.00  0.00     0.166 HD
HETATM   42  C26 UNL     1      14.265  20.584  14.612  1.00  0.00     0.030 A 
HETATM   43  C27 UNL     1      13.557  21.249  13.481  1.00  0.00     0.070 C 
ENDBRANCH  29  37
BRANCH  34  44
HETATM   44  C29 UNL     1       8.439  17.685  15.521  1.00  0.00     0.202 C 
BRANCH  44  45
HETATM   45  C30 UNL     1       8.071  16.890  16.707  1.00  0.00     0.071 A 
HETATM   46  C31 UNL     1       6.805  16.492  17.066  1.00  0.00     0.036 A 
HETATM   47  C32 UNL     1       6.917  15.767  18.243  1.00  0.00     0.027 A 
HETATM   48  C33 UNL     1       8.264  15.765  18.535  1.00  0.00     0.142 A 
HETATM   49  O4  UNL     1       8.906  16.435  17.609  1.00  0.00    -0.325 OA
ENDBRANCH  44  45
ENDBRANCH  34  44
ENDBRANCH   2  28
TORSDOF 12
ENDMDL
MODEL 5
REMARK VINA RESULT: -8.944652351      2.937      6.212
REMARK  12 active torsions:
REMARK  status: ('A' for Active; 'I' for Inactive)
REMARK    1  A    between atoms: C2_2  and  C3_3 
REMARK    2  A    between atoms: C3_3  and  N1_4 
REMARK    3  A    between atoms: N1_4  and  C4_5 
REMARK       I    between atoms: N1_4  and  C21_26 
REMARK    4  A    between atoms: C4_5  and  C5_6 
REMARK    5  A    between atoms: C5_6  and  C6_7 
REMARK    6  A    between atoms: C6_7  and  C7_8 
REMARK    7  A    between atoms: C7_8  and  C8_9 
REMARK    8  A    between atoms: C8_9  and  C9_10 
REMARK       I    between atoms: C9_10  and  N2_12 
REMARK    9  A    between atoms: C21_26  and  C22_28 
REMARK   10  A    between atoms: C23_29  and  N4_30 
REMARK   11  A    between atoms: N7_41  and  C29_42 
REMARK   12  A    between atoms: C29_42  and  C30_43 
ROOT
HETATM    1  N1  UNL     1      13.447  21.253  15.986  1.00  0.00    -0.344 N 
HETATM    2  C21 UNL     1      12.850  22.019  16.996  1.00  0.00     0.263 C 
HETATM    3  O2  UNL     1      11.690  22.525  16.786  1.00  0.00    -0.267 OA
ENDROOT
BRANCH   1   4
HETATM    4  C3  UNL     1      14.790  20.636  16.184  1.00  0.00     0.152 C 
BRANCH   4   5
HETATM    5  C2  UNL     1      15.791  21.116  15.227  1.00  0.00    -0.017 C 
HETATM    6  C1  UNL     1      16.510  22.212  15.314  1.00  0.00     0.008 C 
ENDBRANCH   4   5
ENDBRANCH   1   4
BRANCH   1   7
HETATM    7  C4  UNL     1      12.862  20.994  14.687  1.00  0.00     0.126 C 
BRANCH   7   8
HETATM    8  C5  UNL     1      12.111  19.759  14.485  1.00  0.00     0.020 C 
BRANCH   8   9
HETATM    9  C6  UNL     1      11.405  19.050  15.553  1.00  0.00     0.002 C 
BRANCH   9  10
HETATM   10  C7  UNL     1      11.482  17.569  15.597  1.00  0.00     0.009 C 
BRANCH  10  11
HETATM   11  C8  UNL     1      10.272  16.820  15.166  1.00  0.00     0.103 C 
BRANCH  11  12
HETATM   12  C9  UNL     1       9.219  16.695  16.186  1.00  0.00     0.220 C 
HETATM   13  O1  UNL     1       9.525  16.874  17.393  1.00  0.00    -0.273 OA
HETATM   14  N2  UNL     1       7.867  16.381  15.853  1.00  0.00    -0.348 N 
HETATM   15  C10 UNL     1       7.476  16.172  14.485  1.00  0.00     0.130 C 
HETATM   16  C20 UNL     1       6.888  16.280  16.900  1.00  0.00     0.165 C 
HETATM   17  C11 UNL     1       6.831  14.805  14.376  1.00  0.00     0.059 C 
HETATM   18  C12 UNL     1       5.680  14.772  15.302  1.00  0.00    -0.048 A 
HETATM   19  C13 UNL     1       4.564  14.039  14.974  1.00  0.00     0.010 A 
HETATM   20  C19 UNL     1       5.704  15.465  16.488  1.00  0.00    -0.021 A 
HETATM   21  C14 UNL     1       3.459  13.987  15.821  1.00  0.00     0.031 A 
HETATM   22  C15 UNL     1       3.469  14.677  17.013  1.00  0.00     0.043 A 
HETATM   23  N3  UNL     1       2.567  14.816  18.020  1.00  0.00    -0.365 N 
HETATM   24  C18 UNL     1       4.609  15.418  17.336  1.00  0.00     0.000 A 
HETATM   25  C16 UNL     1       3.066  15.611  18.980  1.00  0.00     0.089 A 
ATOM     26  H3  UNL     1       1.645  14.380  18.043  1.00  0.00     0.165 HD
HETATM   27  C17 UNL     1       4.329  15.986  18.560  1.00  0.00     0.031 A 
ENDBRANCH  11  12
ENDBRANCH  10  11
ENDBRANCH   9  10
ENDBRANCH   8   9
ENDBRANCH   7   8
ENDBRANCH   1   7
BRANCH   2  28
HETATM   28  C22 UNL     1      13.382  22.340  18.301  1.00  0.00     0.144 A 
HETATM   29  C23 UNL     1      13.104  21.626  19.417  1.00  0.00     0.138 A 
HETATM   30  N6  UNL     1      13.664  22.052  20.599  1.00  0.00    -0.293 N 
HETATM   31  C28 UNL     1      14.458  23.135  20.664  1.00  0.00     0.331 A 
ATOM     32  H6  UNL     1      13.471  21.530  21.454  1.00  0.00     0.172 HD
HETATM   33  O3  UNL     1      14.954  23.490  21.782  1.00  0.00    -0.246 OA
HETATM   34  N7  UNL     1      14.754  23.870  19.569  1.00  0.00    -0.259 N 
HETATM   35  C34 UNL     1      14.221  23.474  18.409  1.00  0.00     0.271 A 
HETATM   36  O5  UNL     1      14.499  24.161  17.394  1.00  0.00    -0.267 OA
BRANCH  29  37
HETATM   37  N4  UNL     1      12.244  20.505  19.399  1.00  0.00    -0.295 N 
HETATM   38  C24 UNL     1      12.601  19.231  19.065  1.00  0.00     0.190 A 
HETATM   39  N5  UNL     1      11.540  18.427  19.131  1.00  0.00    -0.360 N 
HETATM   40  C25 UNL     1      10.463  19.132  19.505  1.00  0.00     0.114 A 
ATOM     41  H5  UNL     1      11.547  17.427  18.928  1.00  0.00     0.166 HD
HETATM   42  C26 UNL     1      10.916  20.430  19.669  1.00  0.00     0.030 A 
HETATM   43  C27 UNL     1      10.048  21.573  20.072  1.00  0.00     0.070 C 
ENDBRANCH  29  37
BRANCH  34  44
HETATM   44  C29 UNL     1      15.601  25.033  19.706  1.00  0.00     0.202 C 
BRANCH  44  45
HETATM   45  C30 UNL     1      16.827  24.991  18.887  1.00  0.00     0.071 A 
HETATM   46  C31 UNL     1      17.403  26.047  18.221  1.00  0.00     0.036 A 
HETATM   47  C32 UNL     1      18.534  25.565  17.582  1.00  0.00     0.027 A 
HETATM   48  C33 UNL     1      18.583  24.226  17.901  1.00  0.00     0.142 A 
HETATM   49  O4  UNL     1      17.563  23.929  18.669  1.00  0.00    -0.325 OA
ENDBRANCH  44  45
ENDBRANCH  34  44
ENDBRANCH   2  28
TORSDOF 12
ENDMDL
