MODEL 1
REMARK VINA RESULT: -6.667245058      0.000      0.000
REMARK  3 active torsions:
REMARK  status: ('A' for Active; 'I' for Inactive)
REMARK    1  A    between atoms: O1_1  and  N1_3 
REMARK    2  A    between atoms: N1_3  and  N3_8 
REMARK    3  A    between atoms: N2_4  and  O2_6 
ROOT
HETATM    1  N1  UNL     1       2.396   4.002 -12.510  1.00  0.00    -0.076 N 
HETATM    2  N2  UNL     1       3.275   4.910 -12.412  1.00  0.00    -0.168 N 
ATOM      3  H2  UNL     1       2.988   5.839 -12.103  1.00  0.00     0.220 HD
ENDROOT
BRANCH   1   4
HETATM    4  O1  UNL     1       2.799   2.765 -12.924  1.00  0.00    -0.252 OA
ATOM      5  H1  UNL     1       2.396   2.007 -12.517  1.00  0.00     0.248 HD
ENDBRANCH   1   4
BRANCH   1   6
HETATM    6  N3  UNL     1       1.086   4.335 -12.189  1.00  0.00    -0.276 N 
HETATM    7  C1  UNL     1       0.082   3.307 -12.272  1.00  0.00     0.148 C 
HETATM    8  C2  UNL     1      -0.858   3.297 -11.085  1.00  0.00     0.032 C 
HETATM    9  C3  UNL     1      -1.875   4.392 -11.301  1.00  0.00     0.077 C 
HETATM   10  S1  UNL     1      -0.994   5.948 -11.560  1.00  0.00    -0.147 SA
HETATM   11  C4  UNL     1       0.782   5.683 -11.787  1.00  0.00     0.220 C 
ENDBRANCH   1   6
BRANCH   2  12
HETATM   12  O2  UNL     1       4.610   4.689 -12.707  1.00  0.00    -0.271 OA
ATOM     13  H2  UNL     1       4.949   4.721 -13.594  1.00  0.00     0.246 HD
ENDBRANCH   2  12
TORSDOF 3
ENDMDL
MODEL 2
REMARK VINA RESULT: -6.085998027      0.960      1.317
REMARK  3 active torsions:
REMARK  status: ('A' for Active; 'I' for Inactive)
REMARK    1  A    between atoms: O1_1  and  N1_3 
REMARK    2  A    between atoms: N1_3  and  N3_8 
REMARK    3  A    between atoms: N2_4  and  O2_6 
ROOT
HETATM    1  N1  UNL     1       2.392   5.208 -12.511  1.00  0.00    -0.076 N 
HETATM    2  N2  UNL     1       3.128   4.177 -12.464  1.00  0.00    -0.168 N 
ATOM      3  H2  UNL     1       2.710   3.288 -12.192  1.00  0.00     0.220 HD
ENDROOT
BRANCH   1   4
HETATM    4  O1  UNL     1       2.968   6.389 -12.879  1.00  0.00    -0.252 OA
ATOM      5  H1  UNL     1       3.143   6.530 -13.802  1.00  0.00     0.248 HD
ENDBRANCH   1   4
BRANCH   1   6
HETATM    6  N3  UNL     1       1.050   5.056 -12.184  1.00  0.00    -0.276 N 
HETATM    7  C1  UNL     1       0.451   3.758 -12.351  1.00  0.00     0.148 C 
HETATM    8  C2  UNL     1      -0.416   3.349 -11.180  1.00  0.00     0.032 C 
HETATM    9  C3  UNL     1      -1.746   4.049 -11.331  1.00  0.00     0.077 C 
HETATM   10  S1  UNL     1      -1.445   5.825 -11.471  1.00  0.00    -0.147 SA
HETATM   11  C4  UNL     1       0.314   6.191 -11.694  1.00  0.00     0.220 C 
ENDBRANCH   1   6
BRANCH   2  12
HETATM   12  O2  UNL     1       4.479   4.213 -12.770  1.00  0.00    -0.271 OA
ATOM     13  H2  UNL     1       5.153   4.242 -12.101  1.00  0.00     0.246 HD
ENDBRANCH   2  12
TORSDOF 3
ENDMDL
MODEL 3
REMARK VINA RESULT: -5.932332170      0.925      1.728
REMARK  3 active torsions:
REMARK  status: ('A' for Active; 'I' for Inactive)
REMARK    1  A    between atoms: O1_1  and  N1_3 
REMARK    2  A    between atoms: N1_3  and  N3_8 
REMARK    3  A    between atoms: N2_4  and  O2_6 
ROOT
HETATM    1  N1  UNL     1       2.473   3.924 -12.423  1.00  0.00    -0.076 N 
HETATM    2  N2  UNL     1       3.411   4.771 -12.327  1.00  0.00    -0.168 N 
ATOM      3  H2  UNL     1       3.201   5.695 -11.950  1.00  0.00     0.220 HD
ENDROOT
BRANCH   1   4
HETATM    4  O1  UNL     1       2.773   2.692 -12.928  1.00  0.00    -0.252 OA
ATOM      5  H1  UNL     1       3.174   2.058 -12.346  1.00  0.00     0.248 HD
ENDBRANCH   1   4
BRANCH   1   6
HETATM    6  N3  UNL     1       1.207   4.314 -12.004  1.00  0.00    -0.276 N 
HETATM    7  C1  UNL     1       1.042   5.650 -11.493  1.00  0.00     0.148 C 
HETATM    8  C2  UNL     1      -0.194   6.342 -12.029  1.00  0.00     0.032 C 
HETATM    9  C3  UNL     1      -1.379   5.830 -11.245  1.00  0.00     0.077 C 
HETATM   10  S1  UNL     1      -1.406   4.027 -11.362  1.00  0.00    -0.147 SA
HETATM   11  C4  UNL     1       0.117   3.380 -12.095  1.00  0.00     0.220 C 
ENDBRANCH   1   6
BRANCH   2  12
HETATM   12  O2  UNL     1       4.711   4.488 -12.715  1.00  0.00    -0.271 OA
ATOM     13  H2  UNL     1       5.419   5.114 -12.619  1.00  0.00     0.246 HD
ENDBRANCH   2  12
TORSDOF 3
ENDMDL
MODEL 4
REMARK VINA RESULT: -5.503393529      1.565      2.109
REMARK  3 active torsions:
REMARK  status: ('A' for Active; 'I' for Inactive)
REMARK    1  A    between atoms: O1_1  and  N1_3 
REMARK    2  A    between atoms: N1_3  and  N3_8 
REMARK    3  A    between atoms: N2_4  and  O2_6 
ROOT
HETATM    1  N1  UNL     1       2.373   5.435 -12.507  1.00  0.00    -0.076 N 
HETATM    2  N2  UNL     1       3.442   4.795 -12.272  1.00  0.00    -0.168 N 
ATOM      3  H2  UNL     1       3.387   3.925 -11.744  1.00  0.00     0.220 HD
ENDROOT
BRANCH   1   4
HETATM    4  O1  UNL     1       2.466   6.597 -13.216  1.00  0.00    -0.252 OA
ATOM      5  H1  UNL     1       1.921   7.328 -12.947  1.00  0.00     0.248 HD
ENDBRANCH   1   4
BRANCH   1   6
HETATM    6  N3  UNL     1       1.185   4.903 -12.023  1.00  0.00    -0.276 N 
HETATM    7  C1  UNL     1       0.221   5.803 -11.447  1.00  0.00     0.148 C 
HETATM    8  C2  UNL     1      -1.196   5.528 -11.904  1.00  0.00     0.032 C 
HETATM    9  C3  UNL     1      -1.716   4.360 -11.099  1.00  0.00     0.077 C 
HETATM   10  S1  UNL     1      -0.571   2.976 -11.295  1.00  0.00    -0.147 SA
HETATM   11  C4  UNL     1       0.961   3.484 -12.113  1.00  0.00     0.220 C 
ENDBRANCH   1   6
BRANCH   2  12
HETATM   12  O2  UNL     1       4.682   5.234 -12.707  1.00  0.00    -0.271 OA
ATOM     13  H2  UNL     1       5.254   5.767 -12.166  1.00  0.00     0.246 HD
ENDBRANCH   2  12
TORSDOF 3
ENDMDL
MODEL 5
REMARK VINA RESULT: -4.905938483      2.261      2.574
REMARK  3 active torsions:
REMARK  status: ('A' for Active; 'I' for Inactive)
REMARK    1  A    between atoms: O1_1  and  N1_3 
REMARK    2  A    between atoms: N1_3  and  N3_8 
REMARK    3  A    between atoms: N2_4  and  O2_6 
ROOT
HETATM    1  N1  UNL     1       1.767   6.308 -12.527  1.00  0.00    -0.076 N 
HETATM    2  N2  UNL     1       1.297   7.485 -12.554  1.00  0.00    -0.168 N 
ATOM      3  H2  UNL     1       0.319   7.628 -12.303  1.00  0.00     0.220 HD
ENDROOT
BRANCH   1   4
HETATM    4  O1  UNL     1       3.078   6.135 -12.866  1.00  0.00    -0.252 OA
ATOM      5  H1  UNL     1       3.345   5.283 -13.192  1.00  0.00     0.248 HD
ENDBRANCH   1   4
BRANCH   1   6
HETATM    6  N3  UNL     1       0.910   5.280 -12.154  1.00  0.00    -0.276 N 
HETATM    7  C1  UNL     1       1.334   3.924 -12.380  1.00  0.00     0.148 C 
HETATM    8  C2  UNL     1       1.063   3.012 -11.202  1.00  0.00     0.032 C 
HETATM    9  C3  UNL     1      -0.397   2.627 -11.251  1.00  0.00     0.077 C 
HETATM   10  S1  UNL     1      -1.386   4.139 -11.287  1.00  0.00    -0.147 SA
HETATM   11  C4  UNL     1      -0.360   5.605 -11.560  1.00  0.00     0.220 C 
ENDBRANCH   1   6
BRANCH   2  12
HETATM   12  O2  UNL     1       2.061   8.583 -12.912  1.00  0.00    -0.271 OA
ATOM     13  H2  UNL     1       1.970   9.017 -13.752  1.00  0.00     0.246 HD
ENDBRANCH   2  12
TORSDOF 3
ENDMDL
