MODEL 1
REMARK VINA RESULT: -7.925107995      0.000      0.000
REMARK  6 active torsions:
REMARK  status: ('A' for Active; 'I' for Inactive)
REMARK    1  A    between atoms: C1_2  and  C2_3 
REMARK       I    between atoms: C1_2  and  N4_19 
REMARK    2  A    between atoms: C2_3  and  S1_4 
REMARK    3  A    between atoms: S1_4  and  C3_5 
REMARK    4  A    between atoms: C4_8  and  C5_9 
REMARK    5  A    between atoms: N4_19  and  C11_21 
REMARK    6  A    between atoms: C11_21  and  C12_22 
ROOT
HETATM    1  C3  UNL     1      -4.320  35.639  78.075  1.00  0.00     0.160 A 
HETATM    2  N1  UNL     1      -5.302  34.838  78.509  1.00  0.00    -0.324 N 
ATOM      3  H1  UNL     1      -5.371  33.836  78.329  1.00  0.00     0.169 HD
HETATM    4  C4  UNL     1      -6.193  35.575  79.232  1.00  0.00     0.102 A 
HETATM    5  N2  UNL     1      -5.700  36.826  79.204  1.00  0.00    -0.287 N 
ATOM      6  H2  UNL     1      -6.136  37.630  79.656  1.00  0.00     0.188 HD
HETATM    7  N3  UNL     1      -4.591  36.872  78.522  1.00  0.00    -0.278 N 
ATOM      8  H3  UNL     1      -4.026  37.705  78.356  1.00  0.00     0.189 HD
ENDROOT
BRANCH   1   9
HETATM    9  S1  UNL     1      -2.934  35.150  77.100  1.00  0.00    -0.083 SA
BRANCH   9  10
HETATM   10  C2  UNL     1      -2.781  33.363  76.976  1.00  0.00     0.185 C 
BRANCH  10  11
HETATM   11  C1  UNL     1      -2.944  32.699  78.308  1.00  0.00     0.227 C 
HETATM   12  O1  UNL     1      -4.061  32.189  78.580  1.00  0.00    -0.273 OA
HETATM   13  N4  UNL     1      -1.887  32.641  79.238  1.00  0.00    -0.358 N 
ATOM     14  H4  UNL     1      -0.990  33.062  78.996  1.00  0.00     0.162 HD
BRANCH  13  15
HETATM   15  C11 UNL     1      -2.037  32.006  80.519  1.00  0.00     0.154 C 
BRANCH  15  16
HETATM   16  C12 UNL     1      -1.946  33.073  81.619  1.00  0.00     0.139 C 
HETATM   17  C13 UNL     1      -2.392  34.365  80.993  1.00  0.00     0.035 C 
HETATM   18  C14 UNL     1      -3.818  34.487  81.543  1.00  0.00     0.029 C 
HETATM   19  C15 UNL     1      -3.662  33.783  82.875  1.00  0.00     0.168 C 
HETATM   20  O2  UNL     1      -2.841  32.724  82.594  1.00  0.00    -0.384 OA
ENDBRANCH  15  16
ENDBRANCH  13  15
ENDBRANCH  10  11
ENDBRANCH   9  10
ENDBRANCH   1   9
BRANCH   4  21
HETATM   21  C5  UNL     1      -7.435  35.075  79.896  1.00  0.00     0.055 C 
HETATM   22  C6  UNL     1      -7.226  35.269  81.384  1.00  0.00     0.012 C 
HETATM   23  C7  UNL     1      -8.466  35.029  82.178  1.00  0.00     0.001 C 
HETATM   24  C8  UNL     1      -9.703  35.603  81.527  1.00  0.00     0.000 C 
HETATM   25  C9  UNL     1      -9.355  36.599  80.449  1.00  0.00     0.001 C 
HETATM   26  C10 UNL     1      -8.594  35.855  79.371  1.00  0.00     0.012 C 
ENDBRANCH   4  21
TORSDOF 6
ENDMDL
MODEL 2
REMARK VINA RESULT: -7.665542800      3.891      6.898
REMARK  6 active torsions:
REMARK  status: ('A' for Active; 'I' for Inactive)
REMARK    1  A    between atoms: C1_2  and  C2_3 
REMARK       I    between atoms: C1_2  and  N4_19 
REMARK    2  A    between atoms: C2_3  and  S1_4 
REMARK    3  A    between atoms: S1_4  and  C3_5 
REMARK    4  A    between atoms: C4_8  and  C5_9 
REMARK    5  A    between atoms: N4_19  and  C11_21 
REMARK    6  A    between atoms: C11_21  and  C12_22 
ROOT
HETATM    1  C3  UNL     1      -7.535  35.317  81.481  1.00  0.00     0.160 A 
HETATM    2  N1  UNL     1      -6.378  35.292  80.807  1.00  0.00    -0.324 N 
ATOM      3  H1  UNL     1      -6.269  35.484  79.810  1.00  0.00     0.169 HD
HETATM    4  C4  UNL     1      -5.368  34.971  81.665  1.00  0.00     0.102 A 
HETATM    5  N2  UNL     1      -5.972  34.810  82.855  1.00  0.00    -0.287 N 
ATOM      6  H2  UNL     1      -5.491  34.561  83.720  1.00  0.00     0.188 HD
HETATM    7  N3  UNL     1      -7.256  35.014  82.755  1.00  0.00    -0.278 N 
ATOM      8  H3  UNL     1      -7.931  34.953  83.516  1.00  0.00     0.189 HD
ENDROOT
BRANCH   1   9
HETATM    9  S1  UNL     1      -9.123  35.685  80.807  1.00  0.00    -0.083 SA
BRANCH   9  10
HETATM   10  C2  UNL     1      -9.036  36.178  79.080  1.00  0.00     0.185 C 
BRANCH  10  11
HETATM   11  C1  UNL     1      -8.737  35.014  78.187  1.00  0.00     0.227 C 
HETATM   12  O1  UNL     1      -7.590  34.500  78.252  1.00  0.00    -0.273 OA
HETATM   13  N4  UNL     1      -9.700  34.498  77.297  1.00  0.00    -0.358 N 
ATOM     14  H4  UNL     1     -10.623  34.931  77.261  1.00  0.00     0.162 HD
BRANCH  13  15
HETATM   15  C11 UNL     1      -9.419  33.381  76.438  1.00  0.00     0.154 C 
BRANCH  15  16
HETATM   16  C12 UNL     1     -10.032  32.114  77.050  1.00  0.00     0.139 C 
HETATM   17  C13 UNL     1     -11.016  31.590  76.041  1.00  0.00     0.035 C 
HETATM   18  C14 UNL     1     -10.223  30.431  75.424  1.00  0.00     0.029 C 
HETATM   19  C15 UNL     1      -9.374  30.016  76.608  1.00  0.00     0.168 C 
HETATM   20  O2  UNL     1      -9.020  31.204  77.191  1.00  0.00    -0.384 OA
ENDBRANCH  15  16
ENDBRANCH  13  15
ENDBRANCH  10  11
ENDBRANCH   9  10
ENDBRANCH   1   9
BRANCH   4  21
HETATM   21  C5  UNL     1      -3.918  34.834  81.327  1.00  0.00     0.055 C 
HETATM   22  C6  UNL     1      -3.467  33.519  81.928  1.00  0.00     0.012 C 
HETATM   23  C7  UNL     1      -2.097  33.122  81.489  1.00  0.00     0.001 C 
HETATM   24  C8  UNL     1      -1.851  33.384  80.021  1.00  0.00     0.000 C 
HETATM   25  C9  UNL     1      -3.139  33.616  79.271  1.00  0.00     0.001 C 
HETATM   26  C10 UNL     1      -3.778  34.865  79.841  1.00  0.00     0.012 C 
ENDBRANCH   4  21
TORSDOF 6
ENDMDL
MODEL 3
REMARK VINA RESULT: -7.663489591      5.374      7.163
REMARK  6 active torsions:
REMARK  status: ('A' for Active; 'I' for Inactive)
REMARK    1  A    between atoms: C1_2  and  C2_3 
REMARK       I    between atoms: C1_2  and  N4_19 
REMARK    2  A    between atoms: C2_3  and  S1_4 
REMARK    3  A    between atoms: S1_4  and  C3_5 
REMARK    4  A    between atoms: C4_8  and  C5_9 
REMARK    5  A    between atoms: N4_19  and  C11_21 
REMARK    6  A    between atoms: C11_21  and  C12_22 
ROOT
HETATM    1  C3  UNL     1      -8.547  34.255  77.723  1.00  0.00     0.160 A 
HETATM    2  N1  UNL     1      -9.088  34.611  78.897  1.00  0.00    -0.324 N 
ATOM      3  H1  UNL     1     -10.072  34.518  79.146  1.00  0.00     0.169 HD
HETATM    4  C4  UNL     1      -8.111  35.116  79.703  1.00  0.00     0.102 A 
HETATM    5  N2  UNL     1      -6.989  35.042  78.965  1.00  0.00    -0.287 N 
ATOM      6  H2  UNL     1      -6.068  35.345  79.280  1.00  0.00     0.188 HD
HETATM    7  N3  UNL     1      -7.239  34.532  77.792  1.00  0.00    -0.278 N 
ATOM      8  H3  UNL     1      -6.555  34.373  77.052  1.00  0.00     0.189 HD
ENDROOT
BRANCH   1   9
HETATM    9  S1  UNL     1      -9.407  33.549  76.355  1.00  0.00    -0.083 SA
BRANCH   9  10
HETATM   10  C2  UNL     1     -10.455  32.171  76.841  1.00  0.00     0.185 C 
BRANCH  10  11
HETATM   11  C1  UNL     1      -9.727  30.865  76.757  1.00  0.00     0.227 C 
HETATM   12  O1  UNL     1      -8.684  30.726  77.448  1.00  0.00    -0.273 OA
HETATM   13  N4  UNL     1     -10.183  29.816  75.935  1.00  0.00    -0.358 N 
ATOM     14  H4  UNL     1     -11.031  29.952  75.383  1.00  0.00     0.162 HD
BRANCH  13  15
HETATM   15  C11 UNL     1      -9.488  28.561  75.850  1.00  0.00     0.154 C 
BRANCH  15  16
HETATM   16  C12 UNL     1      -9.550  28.053  74.402  1.00  0.00     0.139 C 
HETATM   17  C13 UNL     1      -9.990  29.221  73.563  1.00  0.00     0.035 C 
HETATM   18  C14 UNL     1      -8.660  29.657  72.936  1.00  0.00     0.029 C 
HETATM   19  C15 UNL     1      -7.938  28.327  72.867  1.00  0.00     0.168 C 
HETATM   20  O2  UNL     1      -8.276  27.708  74.042  1.00  0.00    -0.384 OA
ENDBRANCH  15  16
ENDBRANCH  13  15
ENDBRANCH  10  11
ENDBRANCH   9  10
ENDBRANCH   1   9
BRANCH   4  21
HETATM   21  C5  UNL     1      -8.280  35.631  81.096  1.00  0.00     0.055 C 
HETATM   22  C6  UNL     1      -9.289  34.720  81.763  1.00  0.00     0.012 C 
HETATM   23  C7  UNL     1      -9.402  34.959  83.232  1.00  0.00     0.001 C 
HETATM   24  C8  UNL     1      -8.064  35.189  83.896  1.00  0.00     0.000 C 
HETATM   25  C9  UNL     1      -6.921  34.746  83.016  1.00  0.00     0.001 C 
HETATM   26  C10 UNL     1      -6.948  35.605  81.769  1.00  0.00     0.012 C 
ENDBRANCH   4  21
TORSDOF 6
ENDMDL
MODEL 4
REMARK VINA RESULT: -7.591861892      5.630      7.554
REMARK  6 active torsions:
REMARK  status: ('A' for Active; 'I' for Inactive)
REMARK    1  A    between atoms: C1_2  and  C2_3 
REMARK       I    between atoms: C1_2  and  N4_19 
REMARK    2  A    between atoms: C2_3  and  S1_4 
REMARK    3  A    between atoms: S1_4  and  C3_5 
REMARK    4  A    between atoms: C4_8  and  C5_9 
REMARK    5  A    between atoms: N4_19  and  C11_21 
REMARK    6  A    between atoms: C11_21  and  C12_22 
ROOT
HETATM    1  C3  UNL     1      -8.548  34.244  77.740  1.00  0.00     0.160 A 
HETATM    2  N1  UNL     1      -9.077  34.602  78.918  1.00  0.00    -0.324 N 
ATOM      3  H1  UNL     1     -10.058  34.502  79.181  1.00  0.00     0.169 HD
HETATM    4  C4  UNL     1      -8.096  35.122  79.708  1.00  0.00     0.102 A 
HETATM    5  N2  UNL     1      -6.983  35.055  78.957  1.00  0.00    -0.287 N 
ATOM      6  H2  UNL     1      -6.060  35.369  79.259  1.00  0.00     0.188 HD
HETATM    7  N3  UNL     1      -7.243  34.535  77.790  1.00  0.00    -0.278 N 
ATOM      8  H3  UNL     1      -6.566  34.377  77.043  1.00  0.00     0.189 HD
ENDROOT
BRANCH   1   9
HETATM    9  S1  UNL     1      -9.418  33.520  76.387  1.00  0.00    -0.083 SA
BRANCH   9  10
HETATM   10  C2  UNL     1     -10.320  32.040  76.866  1.00  0.00     0.185 C 
BRANCH  10  11
HETATM   11  C1  UNL     1      -9.658  30.799  76.355  1.00  0.00     0.227 C 
HETATM   12  O1  UNL     1      -8.915  30.159  77.144  1.00  0.00    -0.273 OA
HETATM   13  N4  UNL     1      -9.851  30.348  75.034  1.00  0.00    -0.358 N 
ATOM     14  H4  UNL     1     -10.458  30.883  74.412  1.00  0.00     0.162 HD
BRANCH  13  15
HETATM   15  C11 UNL     1      -9.218  29.157  74.538  1.00  0.00     0.154 C 
BRANCH  15  16
HETATM   16  C12 UNL     1      -8.570  29.466  73.180  1.00  0.00     0.139 C 
HETATM   17  C13 UNL     1      -7.982  28.172  72.689  1.00  0.00     0.035 C 
HETATM   18  C14 UNL     1      -9.026  27.746  71.648  1.00  0.00     0.029 C 
HETATM   19  C15 UNL     1      -9.520  29.100  71.182  1.00  0.00     0.168 C 
HETATM   20  O2  UNL     1      -9.575  29.844  72.331  1.00  0.00    -0.384 OA
ENDBRANCH  15  16
ENDBRANCH  13  15
ENDBRANCH  10  11
ENDBRANCH   9  10
ENDBRANCH   1   9
BRANCH   4  21
HETATM   21  C5  UNL     1      -8.252  35.645  81.100  1.00  0.00     0.055 C 
HETATM   22  C6  UNL     1      -9.263  34.744  81.778  1.00  0.00     0.012 C 
HETATM   23  C7  UNL     1      -9.366  34.992  83.247  1.00  0.00     0.001 C 
HETATM   24  C8  UNL     1      -8.022  35.215  83.901  1.00  0.00     0.000 C 
HETATM   25  C9  UNL     1      -6.888  34.760  83.016  1.00  0.00     0.001 C 
HETATM   26  C10 UNL     1      -6.916  35.614  81.765  1.00  0.00     0.012 C 
ENDBRANCH   4  21
TORSDOF 6
ENDMDL
MODEL 5
REMARK VINA RESULT: -7.548780080      5.589      7.648
REMARK  6 active torsions:
REMARK  status: ('A' for Active; 'I' for Inactive)
REMARK    1  A    between atoms: C1_2  and  C2_3 
REMARK       I    between atoms: C1_2  and  N4_19 
REMARK    2  A    between atoms: C2_3  and  S1_4 
REMARK    3  A    between atoms: S1_4  and  C3_5 
REMARK    4  A    between atoms: C4_8  and  C5_9 
REMARK    5  A    between atoms: N4_19  and  C11_21 
REMARK    6  A    between atoms: C11_21  and  C12_22 
ROOT
HETATM    1  C3  UNL     1      -8.493  34.277  77.870  1.00  0.00     0.160 A 
HETATM    2  N1  UNL     1      -9.028  34.593  79.057  1.00  0.00    -0.324 N 
ATOM      3  H1  UNL     1     -10.001  34.445  79.326  1.00  0.00     0.169 HD
HETATM    4  C4  UNL     1      -8.063  35.145  79.847  1.00  0.00     0.102 A 
HETATM    5  N2  UNL     1      -6.955  35.139  79.086  1.00  0.00    -0.287 N 
ATOM      6  H2  UNL     1      -6.045  35.489  79.386  1.00  0.00     0.188 HD
HETATM    7  N3  UNL     1      -7.201  34.625  77.914  1.00  0.00    -0.278 N 
ATOM      8  H3  UNL     1      -6.525  34.509  77.159  1.00  0.00     0.189 HD
ENDROOT
BRANCH   1   9
HETATM    9  S1  UNL     1      -9.341  33.535  76.512  1.00  0.00    -0.083 SA
BRANCH   9  10
HETATM   10  C2  UNL     1     -10.309  32.103  77.010  1.00  0.00     0.185 C 
BRANCH  10  11
HETATM   11  C1  UNL     1     -10.654  31.236  75.839  1.00  0.00     0.227 C 
HETATM   12  O1  UNL     1     -11.871  31.087  75.554  1.00  0.00    -0.273 OA
HETATM   13  N4  UNL     1      -9.659  30.600  75.072  1.00  0.00    -0.358 N 
ATOM     14  H4  UNL     1      -8.679  30.734  75.321  1.00  0.00     0.162 HD
BRANCH  13  15
HETATM   15  C11 UNL     1      -9.984  29.766  73.947  1.00  0.00     0.154 C 
BRANCH  15  16
HETATM   16  C12 UNL     1      -9.665  30.527  72.652  1.00  0.00     0.139 C 
HETATM   17  C13 UNL     1     -10.960  30.639  71.898  1.00  0.00     0.035 C 
HETATM   18  C14 UNL     1     -11.351  32.094  72.189  1.00  0.00     0.029 C 
HETATM   19  C15 UNL     1      -9.982  32.724  72.335  1.00  0.00     0.168 C 
HETATM   20  O2  UNL     1      -9.256  31.782  73.014  1.00  0.00    -0.384 OA
ENDBRANCH  15  16
ENDBRANCH  13  15
ENDBRANCH  10  11
ENDBRANCH   9  10
ENDBRANCH   1   9
BRANCH   4  21
HETATM   21  C5  UNL     1      -8.231  35.639  81.248  1.00  0.00     0.055 C 
HETATM   22  C6  UNL     1      -9.242  34.720  81.902  1.00  0.00     0.012 C 
HETATM   23  C7  UNL     1      -9.354  34.938  83.374  1.00  0.00     0.001 C 
HETATM   24  C8  UNL     1      -8.016  35.154  84.041  1.00  0.00     0.000 C 
HETATM   25  C9  UNL     1      -6.874  34.722  83.155  1.00  0.00     0.001 C 
HETATM   26  C10 UNL     1      -6.899  35.601  81.921  1.00  0.00     0.012 C 
ENDBRANCH   4  21
TORSDOF 6
ENDMDL
