MODEL 1
REMARK VINA RESULT: -8.244911780      0.000      0.000
REMARK  6 active torsions:
REMARK  status: ('A' for Active; 'I' for Inactive)
REMARK    1  A    between atoms: O1_1  and  N1_3 
REMARK    2  A    between atoms: C1_5  and  C2_6 
REMARK    3  A    between atoms: C1_5  and  C10_16 
REMARK    4  A    between atoms: C2_6  and  N2_7 
REMARK    5  A    between atoms: C10_16  and  C11_17 
REMARK    6  A    between atoms: C10_16  and  C17_24 
ROOT
HETATM    1  N1  UNL     1       9.260  -7.938   9.442  1.00  0.00    -0.271 N 
ATOM      2  H1  UNL     1       8.702  -7.345  10.055  1.00  0.00     0.194 HD
HETATM    3  C1  UNL     1      10.505  -7.718   9.394  1.00  0.00     0.067 C 
ENDROOT
BRANCH   3   4
HETATM    4  C2  UNL     1      11.403  -8.504   8.547  1.00  0.00     0.332 C 
BRANCH   4   5
HETATM    5  N2  UNL     1      12.814  -8.323   8.769  1.00  0.00     0.100 N 
HETATM    6  C3  UNL     1      13.331  -9.362   9.570  1.00  0.00     0.303 C 
HETATM    7  C4  UNL     1      14.813  -9.410   9.757  1.00  0.00     0.302 C 
HETATM    8  N3  UNL     1      15.587  -8.530   8.959  1.00  0.00     0.090 N 
HETATM    9  C5  UNL     1      15.278  -7.139   9.054  1.00  0.00     0.274 C 
HETATM   10  C9  UNL     1      15.750  -8.986   7.598  1.00  0.00     0.274 C 
HETATM   11  C6  UNL     1      14.398  -6.773   7.881  1.00  0.00     0.066 C 
HETATM   12  C7  UNL     1      13.526  -7.977   7.585  1.00  0.00     0.227 C 
HETATM   13  C8  UNL     1      14.379  -9.040   6.986  1.00  0.00     0.066 C 
ENDBRANCH   4   5
ENDBRANCH   3   4
BRANCH   3  14
HETATM   14  C10 UNL     1      11.073  -6.685  10.273  1.00  0.00    -0.017 C 
BRANCH  14  15
HETATM   15  C11 UNL     1      11.022  -5.313   9.735  1.00  0.00    -0.027 A 
HETATM   16  C12 UNL     1       9.935  -4.462   9.974  1.00  0.00     0.015 A 
HETATM   17  C13 UNL     1       9.933  -3.187   9.461  1.00  0.00     0.043 A 
HETATM   18  C14 UNL     1      10.975  -2.706   8.711  1.00  0.00     0.116 A 
HETATM   19  F1  UNL     1      10.903  -1.435   8.234  1.00  0.00    -0.206 F 
HETATM   20  C15 UNL     1      12.062  -3.512   8.455  1.00  0.00     0.043 A 
HETATM   21  C16 UNL     1      12.043  -4.789   8.980  1.00  0.00     0.015 A 
ENDBRANCH  14  15
BRANCH  14  22
HETATM   22  C17 UNL     1      10.695  -6.813  11.708  1.00  0.00     0.025 C 
HETATM   23  C18 UNL     1      10.989  -8.235  12.163  1.00  0.00     0.036 C 
HETATM   24  C19 UNL     1      10.224  -8.425  13.475  1.00  0.00     0.168 C 
HETATM   25  O2  UNL     1      10.499  -7.363  14.325  1.00  0.00    -0.391 OA
HETATM   26  C20 UNL     1      11.639  -6.672  13.942  1.00  0.00     0.168 C 
HETATM   27  C21 UNL     1      11.330  -5.869  12.664  1.00  0.00     0.036 C 
ENDBRANCH  14  22
ENDBRANCH   3  14
BRANCH   1  28
HETATM   28  O1  UNL     1       8.605  -8.903   8.741  1.00  0.00    -0.290 OA
ATOM     29  H1  UNL     1       8.205  -8.786   7.887  1.00  0.00     0.244 HD
ENDBRANCH   1  28
TORSDOF 6
ENDMDL
MODEL 2
REMARK VINA RESULT: -7.664189383      2.366      4.782
REMARK  6 active torsions:
REMARK  status: ('A' for Active; 'I' for Inactive)
REMARK    1  A    between atoms: O1_1  and  N1_3 
REMARK    2  A    between atoms: C1_5  and  C2_6 
REMARK    3  A    between atoms: C1_5  and  C10_16 
REMARK    4  A    between atoms: C2_6  and  N2_7 
REMARK    5  A    between atoms: C10_16  and  C11_17 
REMARK    6  A    between atoms: C10_16  and  C17_24 
ROOT
HETATM    1  N1  UNL     1      11.857  -5.796  11.301  1.00  0.00    -0.271 N 
ATOM      2  H1  UNL     1      12.765  -5.341  11.208  1.00  0.00     0.194 HD
HETATM    3  C1  UNL     1      11.254  -6.112  10.235  1.00  0.00     0.067 C 
ENDROOT
BRANCH   3   4
HETATM    4  C2  UNL     1       9.945  -6.767  10.245  1.00  0.00     0.332 C 
BRANCH   4   5
HETATM    5  N2  UNL     1       9.944  -8.201  10.115  1.00  0.00     0.100 N 
HETATM    6  C3  UNL     1       9.710  -8.815  11.362  1.00  0.00     0.303 C 
HETATM    7  C4  UNL     1       9.516 -10.297  11.369  1.00  0.00     0.302 C 
HETATM    8  N3  UNL     1       9.390 -10.932  10.107  1.00  0.00     0.090 N 
HETATM    9  C5  UNL     1      10.458 -10.734   9.181  1.00  0.00     0.274 C 
HETATM   10  C9  UNL     1       8.083 -10.770   9.514  1.00  0.00     0.274 C 
HETATM   11  C6  UNL     1      10.047  -9.645   8.216  1.00  0.00     0.066 C 
HETATM   12  C7  UNL     1       9.196  -8.660   8.993  1.00  0.00     0.227 C 
HETATM   13  C8  UNL     1       7.884  -9.299   9.285  1.00  0.00     0.066 C 
ENDBRANCH   4   5
ENDBRANCH   3   4
BRANCH   3  14
HETATM   14  C10 UNL     1      11.924  -5.877   8.947  1.00  0.00    -0.017 C 
BRANCH  14  15
HETATM   15  C11 UNL     1      11.705  -4.540   8.365  1.00  0.00    -0.027 A 
HETATM   16  C12 UNL     1      11.956  -4.268   7.014  1.00  0.00     0.015 A 
HETATM   17  C13 UNL     1      11.729  -3.010   6.512  1.00  0.00     0.043 A 
HETATM   18  C14 UNL     1      11.257  -1.990   7.296  1.00  0.00     0.116 A 
HETATM   19  F1  UNL     1      11.057  -0.769   6.731  1.00  0.00    -0.206 F 
HETATM   20  C15 UNL     1      10.997  -2.218   8.630  1.00  0.00     0.043 A 
HETATM   21  C16 UNL     1      11.232  -3.489   9.113  1.00  0.00     0.015 A 
ENDBRANCH  14  15
BRANCH  14  22
HETATM   22  C17 UNL     1      13.329  -6.370   8.879  1.00  0.00     0.025 C 
HETATM   23  C18 UNL     1      13.320  -7.885   9.027  1.00  0.00     0.036 C 
HETATM   24  C19 UNL     1      14.759  -8.285   9.358  1.00  0.00     0.168 C 
HETATM   25  O2  UNL     1      15.622  -7.690   8.447  1.00  0.00    -0.391 OA
HETATM   26  C20 UNL     1      14.958  -7.254   7.310  1.00  0.00     0.168 C 
HETATM   27  C21 UNL     1      14.114  -6.017   7.668  1.00  0.00     0.036 C 
ENDBRANCH  14  22
ENDBRANCH   3  14
BRANCH   1  28
HETATM   28  O1  UNL     1      11.393  -6.015  12.561  1.00  0.00    -0.290 OA
ATOM     29  H1  UNL     1      11.817  -5.726  13.360  1.00  0.00     0.244 HD
ENDBRANCH   1  28
TORSDOF 6
ENDMDL
MODEL 3
REMARK VINA RESULT: -7.591814993      2.085      4.417
REMARK  6 active torsions:
REMARK  status: ('A' for Active; 'I' for Inactive)
REMARK    1  A    between atoms: O1_1  and  N1_3 
REMARK    2  A    between atoms: C1_5  and  C2_6 
REMARK    3  A    between atoms: C1_5  and  C10_16 
REMARK    4  A    between atoms: C2_6  and  N2_7 
REMARK    5  A    between atoms: C10_16  and  C11_17 
REMARK    6  A    between atoms: C10_16  and  C17_24 
ROOT
HETATM    1  N1  UNL     1       9.824  -7.968   8.457  1.00  0.00    -0.271 N 
ATOM      2  H1  UNL     1      10.122  -8.176   7.504  1.00  0.00     0.194 HD
HETATM    3  C1  UNL     1      10.545  -7.179   9.133  1.00  0.00     0.067 C 
ENDROOT
BRANCH   3   4
HETATM    4  C2  UNL     1      10.217  -6.812  10.512  1.00  0.00     0.332 C 
BRANCH   4   5
HETATM    5  N2  UNL     1      10.923  -7.519  11.548  1.00  0.00     0.100 N 
HETATM    6  C3  UNL     1      11.126  -6.688  12.670  1.00  0.00     0.303 C 
HETATM    7  C4  UNL     1      11.701  -7.322  13.895  1.00  0.00     0.302 C 
HETATM    8  N3  UNL     1      11.811  -8.735  13.894  1.00  0.00     0.090 N 
HETATM    9  C5  UNL     1      12.561  -9.318  12.828  1.00  0.00     0.274 C 
HETATM   10  C9  UNL     1      10.557  -9.406  14.142  1.00  0.00     0.274 C 
HETATM   11  C6  UNL     1      11.586  -9.801  11.778  1.00  0.00     0.066 C 
HETATM   12  C7  UNL     1      10.420  -8.832  11.773  1.00  0.00     0.227 C 
HETATM   13  C8  UNL     1       9.631  -9.038  13.018  1.00  0.00     0.066 C 
ENDBRANCH   4   5
ENDBRANCH   3   4
BRANCH   3  14
HETATM   14  C10 UNL     1      11.709  -6.556   8.486  1.00  0.00    -0.017 C 
BRANCH  14  15
HETATM   15  C11 UNL     1      11.566  -5.117   8.197  1.00  0.00    -0.027 A 
HETATM   16  C12 UNL     1      11.149  -4.202   9.172  1.00  0.00     0.015 A 
HETATM   17  C13 UNL     1      11.037  -2.869   8.861  1.00  0.00     0.043 A 
HETATM   18  C14 UNL     1      11.325  -2.389   7.609  1.00  0.00     0.116 A 
HETATM   19  F1  UNL     1      11.190  -1.057   7.373  1.00  0.00    -0.206 F 
HETATM   20  C15 UNL     1      11.740  -3.258   6.624  1.00  0.00     0.043 A 
HETATM   21  C16 UNL     1      11.844  -4.593   6.958  1.00  0.00     0.015 A 
ENDBRANCH  14  15
BRANCH  14  22
HETATM   22  C17 UNL     1      13.026  -6.955   9.059  1.00  0.00     0.025 C 
HETATM   23  C18 UNL     1      13.277  -8.419   8.728  1.00  0.00     0.036 C 
HETATM   24  C19 UNL     1      14.401  -8.876   9.660  1.00  0.00     0.168 C 
HETATM   25  O2  UNL     1      15.450  -7.968   9.593  1.00  0.00    -0.391 OA
HETATM   26  C20 UNL     1      15.372  -7.165   8.465  1.00  0.00     0.168 C 
HETATM   27  C21 UNL     1      14.214  -6.165   8.644  1.00  0.00     0.036 C 
ENDBRANCH  14  22
ENDBRANCH   3  14
BRANCH   1  28
HETATM   28  O1  UNL     1       8.683  -8.564   8.899  1.00  0.00    -0.290 OA
ATOM     29  H1  UNL     1       7.850  -8.126   9.029  1.00  0.00     0.244 HD
ENDBRANCH   1  28
TORSDOF 6
ENDMDL
MODEL 4
REMARK VINA RESULT: -7.553374010      2.164      4.525
REMARK  6 active torsions:
REMARK  status: ('A' for Active; 'I' for Inactive)
REMARK    1  A    between atoms: O1_1  and  N1_3 
REMARK    2  A    between atoms: C1_5  and  C2_6 
REMARK    3  A    between atoms: C1_5  and  C10_16 
REMARK    4  A    between atoms: C2_6  and  N2_7 
REMARK    5  A    between atoms: C10_16  and  C11_17 
REMARK    6  A    between atoms: C10_16  and  C17_24 
ROOT
HETATM    1  N1  UNL     1       9.637  -8.232   8.649  1.00  0.00    -0.271 N 
ATOM      2  H1  UNL     1       9.441  -7.488   7.981  1.00  0.00     0.194 HD
HETATM    3  C1  UNL     1      10.836  -8.376   9.025  1.00  0.00     0.067 C 
ENDROOT
BRANCH   3   4
HETATM    4  C2  UNL     1      11.235  -9.413   9.978  1.00  0.00     0.332 C 
BRANCH   4   5
HETATM    5  N2  UNL     1      10.933  -9.160  11.363  1.00  0.00     0.100 N 
HETATM    6  C3  UNL     1      10.283 -10.269  11.942  1.00  0.00     0.303 C 
HETATM    7  C4  UNL     1      10.048 -10.231  13.418  1.00  0.00     0.302 C 
HETATM    8  N3  UNL     1      10.669  -9.178  14.137  1.00  0.00     0.090 N 
HETATM    9  C5  UNL     1      10.371  -7.848  13.712  1.00  0.00     0.274 C 
HETATM   10  C9  UNL     1      12.076  -9.400  14.373  1.00  0.00     0.274 C 
HETATM   11  C6  UNL     1      11.506  -7.371  12.836  1.00  0.00     0.066 C 
HETATM   12  C7  UNL     1      12.020  -8.577  12.075  1.00  0.00     0.227 C 
HETATM   13  C8  UNL     1      12.743  -9.463  13.029  1.00  0.00     0.066 C 
ENDBRANCH   4   5
ENDBRANCH   3   4
BRANCH   3  14
HETATM   14  C10 UNL     1      11.847  -7.424   8.541  1.00  0.00    -0.017 C 
BRANCH  14  15
HETATM   15  C11 UNL     1      11.497  -6.002   8.717  1.00  0.00    -0.027 A 
HETATM   16  C12 UNL     1      10.942  -5.515   9.907  1.00  0.00     0.015 A 
HETATM   17  C13 UNL     1      10.639  -4.181  10.031  1.00  0.00     0.043 A 
HETATM   18  C14 UNL     1      10.865  -3.289   9.015  1.00  0.00     0.116 A 
HETATM   19  F1  UNL     1      10.539  -1.983   9.207  1.00  0.00    -0.206 F 
HETATM   20  C15 UNL     1      11.412  -3.729   7.829  1.00  0.00     0.043 A 
HETATM   21  C16 UNL     1      11.707  -5.073   7.727  1.00  0.00     0.015 A 
ENDBRANCH  14  15
BRANCH  14  22
HETATM   22  C17 UNL     1      13.251  -7.775   8.894  1.00  0.00     0.025 C 
HETATM   23  C18 UNL     1      13.806  -8.697   7.818  1.00  0.00     0.036 C 
HETATM   24  C19 UNL     1      15.058  -9.339   8.419  1.00  0.00     0.168 C 
HETATM   25  O2  UNL     1      15.869  -8.350   8.958  1.00  0.00    -0.391 OA
HETATM   26  C20 UNL     1      15.544  -7.091   8.475  1.00  0.00     0.168 C 
HETATM   27  C21 UNL     1      14.203  -6.651   9.092  1.00  0.00     0.036 C 
ENDBRANCH  14  22
ENDBRANCH   3  14
BRANCH   1  28
HETATM   28  O1  UNL     1       8.587  -8.992   9.064  1.00  0.00    -0.290 OA
ATOM     29  H1  UNL     1       7.738  -8.657   9.329  1.00  0.00     0.244 HD
ENDBRANCH   1  28
TORSDOF 6
ENDMDL
MODEL 5
REMARK VINA RESULT: -7.384080452      2.262      4.825
REMARK  6 active torsions:
REMARK  status: ('A' for Active; 'I' for Inactive)
REMARK    1  A    between atoms: O1_1  and  N1_3 
REMARK    2  A    between atoms: C1_5  and  C2_6 
REMARK    3  A    between atoms: C1_5  and  C10_16 
REMARK    4  A    between atoms: C2_6  and  N2_7 
REMARK    5  A    between atoms: C10_16  and  C11_17 
REMARK    6  A    between atoms: C10_16  and  C17_24 
ROOT
HETATM    1  N1  UNL     1       9.843  -7.477   9.492  1.00  0.00    -0.271 N 
ATOM      2  H1  UNL     1       9.667  -7.576   8.492  1.00  0.00     0.194 HD
HETATM    3  C1  UNL     1      10.957  -6.989   9.840  1.00  0.00     0.067 C 
ENDROOT
BRANCH   3   4
HETATM    4  C2  UNL     1      11.321  -6.802  11.245  1.00  0.00     0.332 C 
BRANCH   4   5
HETATM    5  N2  UNL     1      11.263  -7.972  12.083  1.00  0.00     0.100 N 
HETATM    6  C3  UNL     1      12.450  -8.724  11.973  1.00  0.00     0.303 C 
HETATM    7  C4  UNL     1      12.616  -9.882  12.903  1.00  0.00     0.302 C 
HETATM    8  N3  UNL     1      11.660 -10.009  13.943  1.00  0.00     0.090 N 
HETATM    9  C5  UNL     1      10.290 -10.084  13.548  1.00  0.00     0.274 C 
HETATM   10  C9  UNL     1      11.888  -9.102  15.042  1.00  0.00     0.274 C 
HETATM   11  C6  UNL     1       9.680  -8.711  13.710  1.00  0.00     0.066 C 
HETATM   12  C7  UNL     1      10.763  -7.701  13.388  1.00  0.00     0.227 C 
HETATM   13  C8  UNL     1      11.758  -7.709  14.497  1.00  0.00     0.066 C 
ENDBRANCH   4   5
ENDBRANCH   3   4
BRANCH   3  14
HETATM   14  C10 UNL     1      11.884  -6.529   8.795  1.00  0.00    -0.017 C 
BRANCH  14  15
HETATM   15  C11 UNL     1      11.696  -5.131   8.366  1.00  0.00    -0.027 A 
HETATM   16  C12 UNL     1      11.932  -4.721   7.048  1.00  0.00     0.015 A 
HETATM   17  C13 UNL     1      11.736  -3.409   6.690  1.00  0.00     0.043 A 
HETATM   18  C14 UNL     1      11.310  -2.467   7.590  1.00  0.00     0.116 A 
HETATM   19  F1  UNL     1      11.139  -1.187   7.165  1.00  0.00    -0.206 F 
HETATM   20  C15 UNL     1      11.066  -2.832   8.896  1.00  0.00     0.043 A 
HETATM   21  C16 UNL     1      11.270  -4.155   9.234  1.00  0.00     0.015 A 
ENDBRANCH  14  15
BRANCH  14  22
HETATM   22  C17 UNL     1      13.302  -6.940   8.997  1.00  0.00     0.025 C 
HETATM   23  C18 UNL     1      13.449  -8.398   8.586  1.00  0.00     0.036 C 
HETATM   24  C19 UNL     1      14.774  -8.874   9.184  1.00  0.00     0.168 C 
HETATM   25  O2  UNL     1      15.775  -7.967   8.863  1.00  0.00    -0.391 OA
HETATM   26  C20 UNL     1      15.411  -7.142   7.809  1.00  0.00     0.168 C 
HETATM   27  C21 UNL     1      14.346  -6.144   8.301  1.00  0.00     0.036 C 
ENDBRANCH  14  22
ENDBRANCH   3  14
BRANCH   1  28
HETATM   28  O1  UNL     1       8.861  -7.880  10.343  1.00  0.00    -0.290 OA
ATOM     29  H1  UNL     1       8.221  -8.558  10.161  1.00  0.00     0.244 HD
ENDBRANCH   1  28
TORSDOF 6
ENDMDL
