MODEL 1
REMARK VINA RESULT: -8.522804575      0.000      0.000
REMARK  5 active torsions:
REMARK  status: ('A' for Active; 'I' for Inactive)
REMARK    1  A    between atoms: C3_5  and  C4_6 
REMARK    2  A    between atoms: N2_7  and  C5_9 
REMARK    3  A    between atoms: C5_9  and  C6_10 
REMARK    4  A    between atoms: C12_18  and  C13_19 
REMARK    5  A    between atoms: C16_23  and  O2_24 
ROOT
HETATM    1  C1  UNL     1      30.322   6.642  10.690  1.00  0.00     0.098 C 
HETATM    2  C2  UNL     1      28.844   6.351  10.917  1.00  0.00     0.121 A 
HETATM    3  N1  UNL     1      27.955   7.313  11.158  1.00  0.00    -0.337 N 
ATOM      4  H1  UNL     1      28.173   8.309  11.203  1.00  0.00     0.168 HD
HETATM    5  C3  UNL     1      26.767   6.803  11.328  1.00  0.00     0.084 A 
HETATM    6  C12 UNL     1      26.961   5.376  11.167  1.00  0.00     0.120 A 
HETATM    7  O3  UNL     1      28.210   5.226  10.934  1.00  0.00    -0.294 OA
ENDROOT
BRANCH   5   8
HETATM    8  C4  UNL     1      25.372   7.269  11.287  1.00  0.00     0.116 C 
HETATM    9  N2  UNL     1      24.787   7.964  12.136  1.00  0.00    -0.391 N 
ATOM     10  H2  UNL     1      23.809   8.179  11.943  1.00  0.00     0.159 HD
BRANCH   9  11
HETATM   11  C5  UNL     1      25.306   8.482  13.317  1.00  0.00     0.193 C 
BRANCH  11  12
HETATM   12  C6  UNL     1      24.786   7.669  14.508  1.00  0.00     0.221 C 
HETATM   13  F1  UNL     1      24.578   8.540  15.546  1.00  0.00    -0.210 F 
HETATM   14  C7  UNL     1      25.829   6.677  14.959  1.00  0.00     0.079 C 
HETATM   15  C8  UNL     1      25.359   5.270  14.970  1.00  0.00    -0.011 C 
HETATM   16  C9  UNL     1      26.017   4.603  16.188  1.00  0.00     0.010 C 
HETATM   17  C10 UNL     1      23.881   5.078  15.106  1.00  0.00     0.031 C 
HETATM   18  C11 UNL     1      23.086   6.358  15.184  1.00  0.00     0.172 C 
HETATM   19  O1  UNL     1      23.590   7.132  14.121  1.00  0.00    -0.350 OA
ENDBRANCH  11  12
ENDBRANCH   9  11
ENDBRANCH   5   8
BRANCH   6  20
HETATM   20  C13 UNL     1      25.816   4.485  11.303  1.00  0.00     0.125 C 
HETATM   21  N3  UNL     1      25.217   4.101  10.148  1.00  0.00    -0.385 N 
HETATM   22  C14 UNL     1      25.744   3.465   9.056  1.00  0.00     0.125 C 
HETATM   23  C17 UNL     1      23.802   3.780  10.282  1.00  0.00     0.153 C 
HETATM   24  C15 UNL     1      24.790   2.322   8.693  1.00  0.00     0.053 C 
HETATM   25  C16 UNL     1      23.684   2.376   9.742  1.00  0.00     0.137 C 
BRANCH  25  26
HETATM   26  O2  UNL     1      22.472   2.231   9.107  1.00  0.00    -0.394 OA
ATOM     27  H2  UNL     1      22.293   1.303   9.007  1.00  0.00     0.210 HD
ENDBRANCH  25  26
ENDBRANCH   6  20
TORSDOF 5
ENDMDL
MODEL 2
REMARK VINA RESULT: -8.164967238      1.442      1.862
REMARK  5 active torsions:
REMARK  status: ('A' for Active; 'I' for Inactive)
REMARK    1  A    between atoms: C3_5  and  C4_6 
REMARK    2  A    between atoms: N2_7  and  C5_9 
REMARK    3  A    between atoms: C5_9  and  C6_10 
REMARK    4  A    between atoms: C12_18  and  C13_19 
REMARK    5  A    between atoms: C16_23  and  O2_24 
ROOT
HETATM    1  C1  UNL     1      29.888   7.311   9.139  1.00  0.00     0.098 C 
HETATM    2  C2  UNL     1      28.583   6.846   9.770  1.00  0.00     0.121 A 
HETATM    3  N1  UNL     1      27.798   7.661  10.473  1.00  0.00    -0.337 N 
ATOM      4  H1  UNL     1      27.989   8.649  10.643  1.00  0.00     0.168 HD
HETATM    5  C3  UNL     1      26.752   7.019  10.913  1.00  0.00     0.084 A 
HETATM    6  C12 UNL     1      26.923   5.668  10.416  1.00  0.00     0.120 A 
HETATM    7  O3  UNL     1      28.024   5.680   9.766  1.00  0.00    -0.294 OA
ENDROOT
BRANCH   5   8
HETATM    8  C4  UNL     1      25.411   7.350  11.420  1.00  0.00     0.116 C 
HETATM    9  N2  UNL     1      25.053   7.414  12.609  1.00  0.00    -0.391 N 
ATOM     10  H2  UNL     1      24.073   7.647  12.769  1.00  0.00     0.159 HD
BRANCH   9  11
HETATM   11  C5  UNL     1      25.827   7.208  13.744  1.00  0.00     0.193 C 
BRANCH  11  12
HETATM   12  C6  UNL     1      25.431   5.880  14.401  1.00  0.00     0.221 C 
HETATM   13  F1  UNL     1      25.776   4.871  13.539  1.00  0.00    -0.210 F 
HETATM   14  C7  UNL     1      23.935   5.815  14.588  1.00  0.00     0.079 C 
HETATM   15  C8  UNL     1      23.511   5.579  15.990  1.00  0.00    -0.011 C 
HETATM   16  C9  UNL     1      22.274   4.671  15.922  1.00  0.00     0.010 C 
HETATM   17  C10 UNL     1      24.514   4.895  16.866  1.00  0.00     0.031 C 
HETATM   18  C11 UNL     1      25.823   4.572  16.190  1.00  0.00     0.172 C 
HETATM   19  O1  UNL     1      26.172   5.774  15.544  1.00  0.00    -0.350 OA
ENDBRANCH  11  12
ENDBRANCH   9  11
ENDBRANCH   5   8
BRANCH   6  20
HETATM   20  C13 UNL     1      25.917   4.663  10.735  1.00  0.00     0.125 C 
HETATM   21  N3  UNL     1      25.133   4.254   9.705  1.00  0.00    -0.385 N 
HETATM   22  C14 UNL     1      25.483   3.706   8.500  1.00  0.00     0.125 C 
HETATM   23  C17 UNL     1      23.812   3.788  10.105  1.00  0.00     0.153 C 
HETATM   24  C15 UNL     1      24.585   2.484   8.280  1.00  0.00     0.053 C 
HETATM   25  C16 UNL     1      23.717   2.396   9.531  1.00  0.00     0.137 C 
BRANCH  25  26
HETATM   26  O2  UNL     1      22.419   2.148   9.145  1.00  0.00    -0.394 OA
ATOM     27  H2  UNL     1      22.080   2.921   8.710  1.00  0.00     0.210 HD
ENDBRANCH  25  26
ENDBRANCH   6  20
TORSDOF 5
ENDMDL
MODEL 3
REMARK VINA RESULT: -7.555282123      2.299      4.958
REMARK  5 active torsions:
REMARK  status: ('A' for Active; 'I' for Inactive)
REMARK    1  A    between atoms: C3_5  and  C4_6 
REMARK    2  A    between atoms: N2_7  and  C5_9 
REMARK    3  A    between atoms: C5_9  and  C6_10 
REMARK    4  A    between atoms: C12_18  and  C13_19 
REMARK    5  A    between atoms: C16_23  and  O2_24 
ROOT
HETATM    1  C1  UNL     1      30.784   7.638  13.560  1.00  0.00     0.098 C 
HETATM    2  C2  UNL     1      29.264   7.739  13.553  1.00  0.00     0.121 A 
HETATM    3  N1  UNL     1      28.580   8.144  12.484  1.00  0.00    -0.337 N 
ATOM      4  H1  UNL     1      28.997   8.409  11.592  1.00  0.00     0.168 HD
HETATM    5  C3  UNL     1      27.301   8.154  12.740  1.00  0.00     0.084 A 
HETATM    6  C12 UNL     1      27.204   7.700  14.113  1.00  0.00     0.120 A 
HETATM    7  O3  UNL     1      28.408   7.491  14.489  1.00  0.00    -0.294 OA
ENDROOT
BRANCH   5   8
HETATM    8  C4  UNL     1      26.043   8.157  11.976  1.00  0.00     0.116 C 
HETATM    9  N2  UNL     1      25.720   7.383  11.059  1.00  0.00    -0.391 N 
ATOM     10  H2  UNL     1      24.807   7.547  10.635  1.00  0.00     0.159 HD
BRANCH   9  11
HETATM   11  C5  UNL     1      26.452   6.321  10.542  1.00  0.00     0.193 C 
BRANCH  11  12
HETATM   12  C6  UNL     1      25.741   5.001  10.863  1.00  0.00     0.221 C 
HETATM   13  F1  UNL     1      26.494   4.342  11.801  1.00  0.00    -0.210 F 
HETATM   14  C7  UNL     1      25.687   4.125   9.636  1.00  0.00     0.079 C 
HETATM   15  C8  UNL     1      24.316   3.708   9.252  1.00  0.00    -0.011 C 
HETATM   16  C9  UNL     1      24.432   2.267   8.730  1.00  0.00     0.010 C 
HETATM   17  C10 UNL     1      23.306   3.697  10.356  1.00  0.00     0.031 C 
HETATM   18  C11 UNL     1      23.834   4.143  11.697  1.00  0.00     0.172 C 
HETATM   19  O1  UNL     1      24.530   5.332  11.404  1.00  0.00    -0.350 OA
ENDBRANCH  11  12
ENDBRANCH   9  11
ENDBRANCH   5   8
BRANCH   6  20
HETATM   20  C13 UNL     1      25.890   7.598  14.735  1.00  0.00     0.125 C 
HETATM   21  N3  UNL     1      25.308   6.373  14.702  1.00  0.00    -0.385 N 
HETATM   22  C14 UNL     1      25.765   5.171  15.173  1.00  0.00     0.125 C 
HETATM   23  C17 UNL     1      23.851   6.399  14.724  1.00  0.00     0.153 C 
HETATM   24  C15 UNL     1      24.620   4.528  15.963  1.00  0.00     0.053 C 
HETATM   25  C16 UNL     1      23.479   5.538  15.905  1.00  0.00     0.137 C 
BRANCH  25  26
HETATM   26  O2  UNL     1      22.311   4.863  15.629  1.00  0.00    -0.394 OA
ATOM     27  H2  UNL     1      21.880   4.657  16.450  1.00  0.00     0.210 HD
ENDBRANCH  25  26
ENDBRANCH   6  20
TORSDOF 5
ENDMDL
MODEL 4
REMARK VINA RESULT: -7.446796035      1.615      2.876
REMARK  5 active torsions:
REMARK  status: ('A' for Active; 'I' for Inactive)
REMARK    1  A    between atoms: C3_5  and  C4_6 
REMARK    2  A    between atoms: N2_7  and  C5_9 
REMARK    3  A    between atoms: C5_9  and  C6_10 
REMARK    4  A    between atoms: C12_18  and  C13_19 
REMARK    5  A    between atoms: C16_23  and  O2_24 
ROOT
HETATM    1  C1  UNL     1      30.299   6.648  10.670  1.00  0.00     0.098 C 
HETATM    2  C2  UNL     1      28.833   6.354  10.958  1.00  0.00     0.121 A 
HETATM    3  N1  UNL     1      27.971   7.303  11.319  1.00  0.00    -0.337 N 
ATOM      4  H1  UNL     1      28.203   8.290  11.426  1.00  0.00     0.168 HD
HETATM    5  C3  UNL     1      26.787   6.791  11.516  1.00  0.00     0.084 A 
HETATM    6  C12 UNL     1      26.954   5.379  11.239  1.00  0.00     0.120 A 
HETATM    7  O3  UNL     1      28.186   5.235  10.926  1.00  0.00    -0.294 OA
ENDROOT
BRANCH   5   8
HETATM    8  C4  UNL     1      25.398   7.270  11.589  1.00  0.00     0.116 C 
HETATM    9  N2  UNL     1      24.756   7.560  12.613  1.00  0.00    -0.391 N 
ATOM     10  H2  UNL     1      23.793   7.864  12.468  1.00  0.00     0.159 HD
BRANCH   9  11
HETATM   11  C5  UNL     1      25.192   7.519  13.932  1.00  0.00     0.193 C 
BRANCH  11  12
HETATM   12  C6  UNL     1      24.692   8.762  14.678  1.00  0.00     0.221 C 
HETATM   13  F1  UNL     1      23.662   8.369  15.495  1.00  0.00    -0.210 F 
HETATM   14  C7  UNL     1      24.130   9.766  13.702  1.00  0.00     0.079 C 
HETATM   15  C8  UNL     1      24.765  11.104  13.778  1.00  0.00    -0.011 C 
HETATM   16  C9  UNL     1      23.647  12.129  13.534  1.00  0.00     0.010 C 
HETATM   17  C10 UNL     1      25.401  11.448  15.089  1.00  0.00     0.031 C 
HETATM   18  C11 UNL     1      25.321  10.361  16.132  1.00  0.00     0.172 C 
HETATM   19  O1  UNL     1      25.735   9.204  15.442  1.00  0.00    -0.350 OA
ENDBRANCH  11  12
ENDBRANCH   9  11
ENDBRANCH   5   8
BRANCH   6  20
HETATM   20  C13 UNL     1      25.807   4.490  11.373  1.00  0.00     0.125 C 
HETATM   21  N3  UNL     1      25.204   4.115  10.216  1.00  0.00    -0.385 N 
HETATM   22  C14 UNL     1      25.726   3.485   9.118  1.00  0.00     0.125 C 
HETATM   23  C17 UNL     1      23.789   3.797  10.353  1.00  0.00     0.153 C 
HETATM   24  C15 UNL     1      24.768   2.347   8.750  1.00  0.00     0.053 C 
HETATM   25  C16 UNL     1      23.665   2.397   9.803  1.00  0.00     0.137 C 
BRANCH  25  26
HETATM   26  O2  UNL     1      22.450   2.259   9.170  1.00  0.00    -0.394 OA
ATOM     27  H2  UNL     1      21.765   2.261   9.828  1.00  0.00     0.210 HD
ENDBRANCH  25  26
ENDBRANCH   6  20
TORSDOF 5
ENDMDL
MODEL 5
REMARK VINA RESULT: -7.280448093      2.427      5.450
REMARK  5 active torsions:
REMARK  status: ('A' for Active; 'I' for Inactive)
REMARK    1  A    between atoms: C3_5  and  C4_6 
REMARK    2  A    between atoms: N2_7  and  C5_9 
REMARK    3  A    between atoms: C5_9  and  C6_10 
REMARK    4  A    between atoms: C12_18  and  C13_19 
REMARK    5  A    between atoms: C16_23  and  O2_24 
ROOT
HETATM    1  C1  UNL     1      26.128  11.833  10.898  1.00  0.00     0.098 C 
HETATM    2  C2  UNL     1      26.468  10.382  11.209  1.00  0.00     0.121 A 
HETATM    3  N1  UNL     1      27.215   9.633  10.400  1.00  0.00    -0.337 N 
ATOM      4  H1  UNL     1      27.626   9.955   9.523  1.00  0.00     0.168 HD
HETATM    5  C3  UNL     1      27.347   8.430  10.886  1.00  0.00     0.084 A 
HETATM    6  C12 UNL     1      26.601   8.458  12.128  1.00  0.00     0.120 A 
HETATM    7  O3  UNL     1      26.128   9.644  12.214  1.00  0.00    -0.294 OA
ENDROOT
BRANCH   5   8
HETATM    8  C4  UNL     1      28.251   7.283  10.708  1.00  0.00     0.116 C 
HETATM    9  N2  UNL     1      28.022   6.238  10.075  1.00  0.00    -0.391 N 
ATOM     10  H2  UNL     1      28.768   5.543  10.073  1.00  0.00     0.159 HD
BRANCH   9  11
HETATM   11  C5  UNL     1      26.872   5.903   9.370  1.00  0.00     0.193 C 
BRANCH  11  12
HETATM   12  C6  UNL     1      26.092   4.830  10.140  1.00  0.00     0.221 C 
HETATM   13  F1  UNL     1      26.903   4.368  11.145  1.00  0.00    -0.210 F 
HETATM   14  C7  UNL     1      25.786   3.659   9.238  1.00  0.00     0.079 C 
HETATM   15  C8  UNL     1      24.343   3.332   9.142  1.00  0.00    -0.011 C 
HETATM   16  C9  UNL     1      24.249   1.801   9.058  1.00  0.00     0.010 C 
HETATM   17  C10 UNL     1      23.499   3.763  10.300  1.00  0.00     0.031 C 
HETATM   18  C11 UNL     1      24.248   4.495  11.386  1.00  0.00     0.172 C 
HETATM   19  O1  UNL     1      25.005   5.454  10.684  1.00  0.00    -0.350 OA
ENDBRANCH  11  12
ENDBRANCH   9  11
ENDBRANCH   5   8
BRANCH   6  20
HETATM   20  C13 UNL     1      26.531   7.252  12.941  1.00  0.00     0.125 C 
HETATM   21  N3  UNL     1      25.614   7.258  13.942  1.00  0.00    -0.385 N 
HETATM   22  C14 UNL     1      24.260   7.456  13.891  1.00  0.00     0.125 C 
HETATM   23  C17 UNL     1      25.955   6.407  15.074  1.00  0.00     0.153 C 
HETATM   24  C15 UNL     1      23.609   6.352  14.730  1.00  0.00     0.053 C 
HETATM   25  C16 UNL     1      24.766   5.491  15.225  1.00  0.00     0.137 C 
BRANCH  25  26
HETATM   26  O2  UNL     1      24.567   5.216  16.560  1.00  0.00    -0.394 OA
ATOM     27  H2  UNL     1      25.275   5.607  17.058  1.00  0.00     0.210 HD
ENDBRANCH  25  26
ENDBRANCH   6  20
TORSDOF 5
ENDMDL
