MODEL 1
REMARK VINA RESULT: -6.565241567      0.000      0.000
REMARK  5 active torsions:
REMARK  status: ('A' for Active; 'I' for Inactive)
REMARK    1  A    between atoms: C2_2  and  N1_3 
REMARK    2  A    between atoms: C4_7  and  C5_8 
REMARK    3  A    between atoms: C5_8  and  N3_9 
REMARK    4  A    between atoms: N3_9  and  C6_11 
REMARK    5  A    between atoms: C12_20  and  N5_21 
ROOT
HETATM    1  N1  UNL     1      -1.808  18.802  -3.731  1.00  0.00    -0.277 N 
HETATM    2  N2  UNL     1      -1.361  19.797  -2.945  1.00  0.00    -0.307 N 
ATOM      3  H2  UNL     1      -0.380  20.049  -2.822  1.00  0.00     0.186 HD
HETATM    4  C3  UNL     1      -2.392  20.409  -2.348  1.00  0.00     0.120 A 
HETATM    5  C4  UNL     1      -3.518  19.745  -2.800  1.00  0.00     0.021 A 
HETATM    6  C12 UNL     1      -3.148  18.742  -3.663  1.00  0.00     0.129 A 
ENDROOT
BRANCH   5   7
HETATM    7  C5  UNL     1      -4.894  20.117  -2.383  1.00  0.00     0.158 C 
BRANCH   7   8
HETATM    8  N3  UNL     1      -5.254  21.397  -2.932  1.00  0.00    -0.413 N 
ATOM      9  H3  UNL     1      -5.098  22.271  -2.430  1.00  0.00     0.153 HD
BRANCH   8  10
HETATM   10  C6  UNL     1      -5.846  21.354  -4.230  1.00  0.00     0.078 C 
HETATM   11  C7  UNL     1      -5.757  22.693  -4.908  1.00  0.00     0.026 C 
HETATM   12  C8  UNL     1      -6.431  22.662  -6.273  1.00  0.00     0.029 C 
HETATM   13  C9  UNL     1      -7.920  22.793  -6.063  1.00  0.00     0.232 C 
HETATM   14  N4  UNL     1      -8.588  21.508  -6.132  1.00  0.00    -0.075 N 
HETATM   15  C10 UNL     1      -7.894  20.478  -5.382  1.00  0.00     0.234 C 
ATOM     16  H42 UNL     1      -9.561  21.584  -5.835  1.00  0.00     0.277 HD
ATOM     17  H41 UNL     1      -8.734  21.221  -7.099  1.00  0.00     0.277 HD
HETATM   18  C11 UNL     1      -7.326  21.012  -4.095  1.00  0.00     0.052 C 
ENDBRANCH   8  10
ENDBRANCH   7   8
ENDBRANCH   5   7
BRANCH   6  19
HETATM   19  N5  UNL     1      -4.010  17.860  -4.324  1.00  0.00    -0.362 N 
HETATM   20  C13 UNL     1      -4.652  18.167  -5.617  1.00  0.00     0.150 C 
HETATM   21  C14 UNL     1      -4.981  16.847  -6.291  1.00  0.00     0.187 C 
HETATM   22  O1  UNL     1      -3.950  15.926  -6.133  1.00  0.00    -0.388 OA
HETATM   23  C15 UNL     1      -4.052  15.440  -4.826  1.00  0.00     0.187 C 
HETATM   24  C16 UNL     1      -4.378  16.524  -3.823  1.00  0.00     0.150 C 
ENDBRANCH   6  19
BRANCH   1  25
HETATM   25  C2  UNL     1      -0.946  17.968  -4.504  1.00  0.00     0.146 C 
HETATM   26  C1  UNL     1       0.463  17.915  -3.904  1.00  0.00     0.028 C 
ENDBRANCH   1  25
TORSDOF 5
ENDMDL
MODEL 2
REMARK VINA RESULT: -6.529032243      2.659      5.127
REMARK  5 active torsions:
REMARK  status: ('A' for Active; 'I' for Inactive)
REMARK    1  A    between atoms: C2_2  and  N1_3 
REMARK    2  A    between atoms: C4_7  and  C5_8 
REMARK    3  A    between atoms: C5_8  and  N3_9 
REMARK    4  A    between atoms: N3_9  and  C6_11 
REMARK    5  A    between atoms: C12_20  and  N5_21 
ROOT
HETATM    1  N1  UNL     1      -2.749  22.188  -2.191  1.00  0.00    -0.277 N 
HETATM    2  N2  UNL     1      -4.039  22.385  -1.866  1.00  0.00    -0.307 N 
ATOM      3  H2  UNL     1      -4.422  23.254  -1.493  1.00  0.00     0.186 HD
HETATM    4  C3  UNL     1      -4.747  21.273  -2.104  1.00  0.00     0.120 A 
HETATM    5  C4  UNL     1      -3.833  20.361  -2.598  1.00  0.00     0.021 A 
HETATM    6  C12 UNL     1      -2.587  20.937  -2.650  1.00  0.00     0.129 A 
ENDROOT
BRANCH   5   7
HETATM    7  C5  UNL     1      -4.209  18.983  -3.003  1.00  0.00     0.158 C 
BRANCH   7   8
HETATM    8  N3  UNL     1      -4.766  18.985  -4.330  1.00  0.00    -0.413 N 
ATOM      9  H3  UNL     1      -5.374  19.731  -4.666  1.00  0.00     0.153 HD
BRANCH   8  10
HETATM   10  C6  UNL     1      -4.405  17.867  -5.140  1.00  0.00     0.078 C 
HETATM   11  C7  UNL     1      -5.493  17.541  -6.125  1.00  0.00     0.026 C 
HETATM   12  C8  UNL     1      -5.131  16.318  -6.958  1.00  0.00     0.029 C 
HETATM   13  C9  UNL     1      -5.417  15.088  -6.132  1.00  0.00     0.232 C 
HETATM   14  N4  UNL     1      -4.214  14.554  -5.525  1.00  0.00    -0.075 N 
HETATM   15  C10 UNL     1      -3.388  15.585  -4.926  1.00  0.00     0.234 C 
ATOM     16  H42 UNL     1      -4.437  13.824  -4.849  1.00  0.00     0.277 HD
ATOM     17  H41 UNL     1      -3.680  14.000  -6.195  1.00  0.00     0.277 HD
HETATM   18  C11 UNL     1      -4.217  16.643  -4.251  1.00  0.00     0.052 C 
ENDBRANCH   8  10
ENDBRANCH   7   8
ENDBRANCH   5   7
BRANCH   6  19
HETATM   19  N5  UNL     1      -1.411  20.324  -3.098  1.00  0.00    -0.362 N 
HETATM   20  C13 UNL     1      -0.355  19.833  -2.191  1.00  0.00     0.150 C 
HETATM   21  C14 UNL     1       0.409  18.744  -2.925  1.00  0.00     0.187 C 
HETATM   22  O1  UNL     1      -0.449  17.917  -3.641  1.00  0.00    -0.388 OA
HETATM   23  C15 UNL     1      -0.813  18.625  -4.790  1.00  0.00     0.187 C 
HETATM   24  C16 UNL     1      -1.084  20.086  -4.514  1.00  0.00     0.150 C 
ENDBRANCH   6  19
BRANCH   1  25
HETATM   25  C2  UNL     1      -1.745  23.193  -2.053  1.00  0.00     0.146 C 
HETATM   26  C1  UNL     1      -1.541  23.960  -3.364  1.00  0.00     0.028 C 
ENDBRANCH   1  25
TORSDOF 5
ENDMDL
MODEL 3
REMARK VINA RESULT: -6.426454574      2.335      3.744
REMARK  5 active torsions:
REMARK  status: ('A' for Active; 'I' for Inactive)
REMARK    1  A    between atoms: C2_2  and  N1_3 
REMARK    2  A    between atoms: C4_7  and  C5_8 
REMARK    3  A    between atoms: C5_8  and  N3_9 
REMARK    4  A    between atoms: N3_9  and  C6_11 
REMARK    5  A    between atoms: C12_20  and  N5_21 
ROOT
HETATM    1  N1  UNL     1      -1.103  17.934  -4.389  1.00  0.00    -0.277 N 
HETATM    2  N2  UNL     1      -1.819  16.853  -4.744  1.00  0.00    -0.307 N 
ATOM      3  H2  UNL     1      -1.433  16.009  -5.169  1.00  0.00     0.186 HD
HETATM    4  C3  UNL     1      -3.114  17.045  -4.459  1.00  0.00     0.120 A 
HETATM    5  C4  UNL     1      -3.177  18.309  -3.901  1.00  0.00     0.021 A 
HETATM    6  C12 UNL     1      -1.919  18.860  -3.861  1.00  0.00     0.129 A 
ENDROOT
BRANCH   5   7
HETATM    7  C5  UNL     1      -4.446  18.918  -3.430  1.00  0.00     0.158 C 
BRANCH   7   8
HETATM    8  N3  UNL     1      -5.079  19.645  -4.498  1.00  0.00    -0.413 N 
ATOM      9  H3  UNL     1      -4.649  19.754  -5.417  1.00  0.00     0.153 HD
BRANCH   8  10
HETATM   10  C6  UNL     1      -6.354  20.203  -4.178  1.00  0.00     0.078 C 
HETATM   11  C7  UNL     1      -7.110  20.568  -5.426  1.00  0.00     0.026 C 
HETATM   12  C8  UNL     1      -8.450  21.208  -5.087  1.00  0.00     0.029 C 
HETATM   13  C9  UNL     1      -8.201  22.654  -4.735  1.00  0.00     0.232 C 
HETATM   14  N4  UNL     1      -8.174  22.863  -3.300  1.00  0.00    -0.075 N 
HETATM   15  C10 UNL     1      -7.388  21.860  -2.607  1.00  0.00     0.234 C 
ATOM     16  H42 UNL     1      -7.852  23.803  -3.072  1.00  0.00     0.277 HD
ATOM     17  H41 UNL     1      -9.119  22.915  -2.919  1.00  0.00     0.277 HD
HETATM   18  C11 UNL     1      -6.153  21.486  -3.379  1.00  0.00     0.052 C 
ENDBRANCH   8  10
ENDBRANCH   7   8
ENDBRANCH   5   7
BRANCH   6  19
HETATM   19  N5  UNL     1      -1.586  20.125  -3.362  1.00  0.00    -0.362 N 
HETATM   20  C13 UNL     1      -1.756  21.372  -4.132  1.00  0.00     0.150 C 
HETATM   21  C14 UNL     1      -1.887  22.512  -3.137  1.00  0.00     0.187 C 
HETATM   22  O1  UNL     1      -2.683  22.151  -2.055  1.00  0.00    -0.388 OA
HETATM   23  C15 UNL     1      -1.890  21.344  -1.234  1.00  0.00     0.187 C 
HETATM   24  C16 UNL     1      -1.038  20.371  -2.017  1.00  0.00     0.150 C 
ENDBRANCH   6  19
BRANCH   1  25
HETATM   25  C2  UNL     1       0.310  18.029  -4.564  1.00  0.00     0.146 C 
HETATM   26  C1  UNL     1       1.060  17.510  -3.333  1.00  0.00     0.028 C 
ENDBRANCH   1  25
TORSDOF 5
ENDMDL
MODEL 4
REMARK VINA RESULT: -6.377702865      0.994      1.374
REMARK  5 active torsions:
REMARK  status: ('A' for Active; 'I' for Inactive)
REMARK    1  A    between atoms: C2_2  and  N1_3 
REMARK    2  A    between atoms: C4_7  and  C5_8 
REMARK    3  A    between atoms: C5_8  and  N3_9 
REMARK    4  A    between atoms: N3_9  and  C6_11 
REMARK    5  A    between atoms: C12_20  and  N5_21 
ROOT
HETATM    1  N1  UNL     1      -1.554  18.850  -3.780  1.00  0.00    -0.277 N 
HETATM    2  N2  UNL     1      -1.022  19.855  -3.062  1.00  0.00    -0.307 N 
ATOM      3  H2  UNL     1      -0.023  20.031  -2.953  1.00  0.00     0.186 HD
HETATM    4  C3  UNL     1      -1.996  20.590  -2.510  1.00  0.00     0.120 A 
HETATM    5  C4  UNL     1      -3.175  19.994  -2.920  1.00  0.00     0.021 A 
HETATM    6  C12 UNL     1      -2.894  18.908  -3.712  1.00  0.00     0.129 A 
ENDROOT
BRANCH   5   7
HETATM    7  C5  UNL     1      -4.514  20.508  -2.532  1.00  0.00     0.158 C 
BRANCH   7   8
HETATM    8  N3  UNL     1      -5.024  21.390  -3.548  1.00  0.00    -0.413 N 
ATOM      9  H3  UNL     1      -4.415  21.893  -4.193  1.00  0.00     0.153 HD
BRANCH   8  10
HETATM   10  C6  UNL     1      -6.446  21.510  -3.587  1.00  0.00     0.078 C 
HETATM   11  C7  UNL     1      -7.010  20.844  -4.812  1.00  0.00     0.026 C 
HETATM   12  C8  UNL     1      -8.522  21.013  -4.880  1.00  0.00     0.029 C 
HETATM   13  C9  UNL     1      -8.815  22.394  -5.413  1.00  0.00     0.232 C 
HETATM   14  N4  UNL     1      -9.146  23.323  -4.350  1.00  0.00    -0.075 N 
HETATM   15  C10 UNL     1      -8.243  23.219  -3.220  1.00  0.00     0.234 C 
ATOM     16  H42 UNL     1      -9.188  24.280  -4.699  1.00  0.00     0.277 HD
ATOM     17  H41 UNL     1     -10.116  23.213  -4.056  1.00  0.00     0.277 HD
HETATM   18  C11 UNL     1      -6.823  22.985  -3.658  1.00  0.00     0.052 C 
ENDBRANCH   8  10
ENDBRANCH   7   8
ENDBRANCH   5   7
BRANCH   6  19
HETATM   19  N5  UNL     1      -3.830  18.059  -4.314  1.00  0.00    -0.362 N 
HETATM   20  C13 UNL     1      -4.429  18.320  -5.637  1.00  0.00     0.150 C 
HETATM   21  C14 UNL     1      -4.875  16.986  -6.210  1.00  0.00     0.187 C 
HETATM   22  O1  UNL     1      -3.936  15.990  -5.964  1.00  0.00    -0.388 OA
HETATM   23  C15 UNL     1      -4.093  15.622  -4.624  1.00  0.00     0.187 C 
HETATM   24  C16 UNL     1      -4.324  16.807  -3.715  1.00  0.00     0.150 C 
ENDBRANCH   6  19
BRANCH   1  25
HETATM   25  C2  UNL     1      -0.768  17.896  -4.493  1.00  0.00     0.146 C 
HETATM   26  C1  UNL     1       0.638  17.774  -3.894  1.00  0.00     0.028 C 
ENDBRANCH   1  25
TORSDOF 5
ENDMDL
MODEL 5
REMARK VINA RESULT: -6.363810893      1.418      1.605
REMARK  5 active torsions:
REMARK  status: ('A' for Active; 'I' for Inactive)
REMARK    1  A    between atoms: C2_2  and  N1_3 
REMARK    2  A    between atoms: C4_7  and  C5_8 
REMARK    3  A    between atoms: C5_8  and  N3_9 
REMARK    4  A    between atoms: N3_9  and  C6_11 
REMARK    5  A    between atoms: C12_20  and  N5_21 
ROOT
HETATM    1  N1  UNL     1      -2.322  18.763  -4.390  1.00  0.00    -0.277 N 
HETATM    2  N2  UNL     1      -2.106  20.031  -3.996  1.00  0.00    -0.307 N 
ATOM      3  H2  UNL     1      -1.193  20.426  -3.773  1.00  0.00     0.186 HD
HETATM    4  C3  UNL     1      -3.267  20.698  -3.940  1.00  0.00     0.120 A 
HETATM    5  C4  UNL     1      -4.229  19.781  -4.321  1.00  0.00     0.021 A 
HETATM    6  C12 UNL     1      -3.634  18.574  -4.601  1.00  0.00     0.129 A 
ENDROOT
BRANCH   5   7
HETATM    7  C5  UNL     1      -5.673  20.117  -4.403  1.00  0.00     0.158 C 
BRANCH   7   8
HETATM    8  N3  UNL     1      -6.001  20.596  -5.720  1.00  0.00    -0.413 N 
ATOM      9  H3  UNL     1      -5.615  20.177  -6.566  1.00  0.00     0.153 HD
BRANCH   8  10
HETATM   10  C6  UNL     1      -6.906  21.699  -5.756  1.00  0.00     0.078 C 
HETATM   11  C7  UNL     1      -6.264  22.941  -5.204  1.00  0.00     0.026 C 
HETATM   12  C8  UNL     1      -7.243  24.108  -5.196  1.00  0.00     0.029 C 
HETATM   13  C9  UNL     1      -8.140  23.957  -3.993  1.00  0.00     0.232 C 
HETATM   14  N4  UNL     1      -9.424  23.382  -4.346  1.00  0.00    -0.075 N 
HETATM   15  C10 UNL     1      -9.297  22.242  -5.234  1.00  0.00     0.234 C 
ATOM     16  H42 UNL     1      -9.959  23.140  -3.513  1.00  0.00     0.277 HD
ATOM     17  H41 UNL     1     -10.045  24.088  -4.742  1.00  0.00     0.277 HD
HETATM   18  C11 UNL     1      -8.113  21.386  -4.879  1.00  0.00     0.052 C 
ENDBRANCH   8  10
ENDBRANCH   7   8
ENDBRANCH   5   7
BRANCH   6  19
HETATM   19  N5  UNL     1      -4.286  17.409  -5.020  1.00  0.00    -0.362 N 
HETATM   20  C13 UNL     1      -4.984  17.291  -6.315  1.00  0.00     0.150 C 
HETATM   21  C14 UNL     1      -5.019  15.818  -6.685  1.00  0.00     0.187 C 
HETATM   22  O1  UNL     1      -3.812  15.193  -6.391  1.00  0.00    -0.388 OA
HETATM   23  C15 UNL     1      -3.800  14.986  -5.009  1.00  0.00     0.187 C 
HETATM   24  C16 UNL     1      -4.351  16.163  -4.237  1.00  0.00     0.150 C 
ENDBRANCH   6  19
BRANCH   1  25
HETATM   25  C2  UNL     1      -1.277  17.805  -4.550  1.00  0.00     0.146 C 
HETATM   26  C1  UNL     1       0.091  18.486  -4.674  1.00  0.00     0.028 C 
ENDBRANCH   1  25
TORSDOF 5
ENDMDL
