MODEL 1
REMARK VINA RESULT: -8.405541717      0.000      0.000
REMARK  11 active torsions:
REMARK  status: ('A' for Active; 'I' for Inactive)
REMARK    1  A    between atoms: C1_4  and  C2_5 
REMARK    2  A    between atoms: N2_8  and  C5_9 
REMARK    3  A    between atoms: C5_9  and  C6_10 
REMARK    4  A    between atoms: C6_10  and  C7_11 
REMARK    5  A    between atoms: C6_10  and  O2_32 
REMARK    6  A    between atoms: C7_11  and  O1_12 
REMARK    7  A    between atoms: O1_12  and  C8_13 
REMARK    8  A    between atoms: C11_16  and  C12_17 
REMARK    9  A    between atoms: N3_18  and  N4_20 
REMARK   10  A    between atoms: N4_20  and  C13_22 
REMARK   11  A    between atoms: O2_32  and  O3_33 
ROOT
HETATM    1  C8  UNL     1     202.002  76.430-127.367  1.00  0.00     0.068 A 
HETATM    2  C9  UNL     1     202.371  75.100-127.309  1.00  0.00     0.037 A 
HETATM    3  C10 UNL     1     203.366  74.688-126.443  1.00  0.00     0.015 A 
HETATM    4  C11 UNL     1     204.030  75.563-125.610  1.00  0.00    -0.019 A 
HETATM    5  C17 UNL     1     203.655  76.897-125.675  1.00  0.00     0.015 A 
HETATM    6  C18 UNL     1     202.662  77.312-126.536  1.00  0.00     0.037 A 
ENDROOT
BRANCH   1   7
HETATM    7  O1  UNL     1     200.999  76.828-128.244  1.00  0.00    -0.348 OA
BRANCH   7   8
HETATM    8  C7  UNL     1     201.379  77.096-129.581  1.00  0.00     0.212 C 
BRANCH   8   9
HETATM    9  C6  UNL     1     200.136  77.226-130.419  1.00  0.00     0.202 C 
BRANCH   9  10
HETATM   10  C5  UNL     1     200.228  76.470-131.714  1.00  0.00     0.165 C 
BRANCH  10  11
HETATM   11  N2  UNL     1     200.178  75.057-131.572  1.00  0.00    -0.364 N 
HETATM   12  C4  UNL     1     199.719  74.475-130.457  1.00  0.00     0.091 A 
HETATM   13  C3  UNL     1     199.678  73.079-130.340  1.00  0.00     0.030 A 
HETATM   14  C2  UNL     1     200.112  72.281-131.372  1.00  0.00    -0.019 A 
HETATM   15  C20 UNL     1     200.580  72.898-132.510  1.00  0.00     0.030 A 
HETATM   16  C19 UNL     1     200.596  74.266-132.568  1.00  0.00     0.091 A 
BRANCH  14  17
HETATM   17  C1  UNL     1     200.078  70.829-131.271  1.00  0.00     0.092 C 
HETATM   18  N1  UNL     1     199.064  70.152-130.879  1.00  0.00    -0.407 N 
ATOM     19  H12 UNL     1     198.231  70.682-130.624  1.00  0.00     0.155 HD
ATOM     20  H11 UNL     1     199.040  69.134-130.807  1.00  0.00     0.155 HD
ENDBRANCH  14  17
ENDBRANCH  10  11
ENDBRANCH   9  10
BRANCH   9  21
HETATM   21  O2  UNL     1     199.809  78.543-130.546  1.00  0.00    -0.234 OA
BRANCH  21  22
HETATM   22  O3  UNL     1     198.630  78.876-130.141  1.00  0.00    -0.250 OA
ATOM     23  H3  UNL     1     197.921  78.725-130.754  1.00  0.00     0.253 HD
ENDBRANCH  21  22
ENDBRANCH   9  21
ENDBRANCH   8   9
ENDBRANCH   7   8
ENDBRANCH   1   7
BRANCH   4  24
HETATM   24  C12 UNL     1     205.079  75.132-124.697  1.00  0.00     0.119 C 
HETATM   25  N3  UNL     1     204.792  75.052-123.444  1.00  0.00    -0.297 N 
ATOM     26  H3  UNL     1     203.849  75.291-123.138  1.00  0.00     0.186 HD
BRANCH  25  27
HETATM   27  N4  UNL     1     205.732  74.649-122.487  1.00  0.00    -0.132 N 
ATOM     28  H4  UNL     1     205.716  75.061-121.554  1.00  0.00     0.205 HD
BRANCH  27  29
HETATM   29  C13 UNL     1     206.617  73.760-122.780  1.00  0.00     0.696 A 
HETATM   30  N5  UNL     1     206.290  72.455-122.746  1.00  0.00    -0.200 N 
HETATM   31  C14 UNL     1     207.182  71.495-123.043  1.00  0.00     0.107 A 
ATOM     32  H5  UNL     1     205.340  72.187-122.487  1.00  0.00     0.183 HD
HETATM   33  C15 UNL     1     208.455  71.887-123.389  1.00  0.00     0.035 A 
HETATM   34  C16 UNL     1     208.757  73.229-123.414  1.00  0.00     0.107 A 
HETATM   35  N6  UNL     1     207.847  74.185-123.111  1.00  0.00    -0.200 N 
ATOM     36  H6  UNL     1     208.085  75.177-123.133  1.00  0.00     0.183 HD
ENDBRANCH  27  29
ENDBRANCH  25  27
ENDBRANCH   4  24
TORSDOF 11
ENDMDL
MODEL 2
REMARK VINA RESULT: -8.295076330      1.186      1.737
REMARK  11 active torsions:
REMARK  status: ('A' for Active; 'I' for Inactive)
REMARK    1  A    between atoms: C1_4  and  C2_5 
REMARK    2  A    between atoms: N2_8  and  C5_9 
REMARK    3  A    between atoms: C5_9  and  C6_10 
REMARK    4  A    between atoms: C6_10  and  C7_11 
REMARK    5  A    between atoms: C6_10  and  O2_32 
REMARK    6  A    between atoms: C7_11  and  O1_12 
REMARK    7  A    between atoms: O1_12  and  C8_13 
REMARK    8  A    between atoms: C11_16  and  C12_17 
REMARK    9  A    between atoms: N3_18  and  N4_20 
REMARK   10  A    between atoms: N4_20  and  C13_22 
REMARK   11  A    between atoms: O2_32  and  O3_33 
ROOT
HETATM    1  C8  UNL     1     202.093  76.348-127.133  1.00  0.00     0.068 A 
HETATM    2  C9  UNL     1     202.443  75.012-127.156  1.00  0.00     0.037 A 
HETATM    3  C10 UNL     1     203.502  74.554-126.396  1.00  0.00     0.015 A 
HETATM    4  C11 UNL     1     204.249  75.388-125.592  1.00  0.00    -0.019 A 
HETATM    5  C17 UNL     1     203.892  76.729-125.575  1.00  0.00     0.015 A 
HETATM    6  C18 UNL     1     202.837  77.189-126.331  1.00  0.00     0.037 A 
ENDROOT
BRANCH   1   7
HETATM    7  O1  UNL     1     201.024  76.793-127.905  1.00  0.00    -0.348 OA
BRANCH   7   8
HETATM    8  C7  UNL     1     201.199  76.793-129.310  1.00  0.00     0.212 C 
BRANCH   8   9
HETATM    9  C6  UNL     1     199.847  76.681-129.963  1.00  0.00     0.202 C 
BRANCH   9  10
HETATM   10  C5  UNL     1     199.921  76.746-131.463  1.00  0.00     0.165 C 
BRANCH  10  11
HETATM   11  N2  UNL     1     200.315  75.530-132.083  1.00  0.00    -0.364 N 
HETATM   12  C4  UNL     1     200.869  75.505-133.301  1.00  0.00     0.091 A 
HETATM   13  C3  UNL     1     201.251  74.293-133.892  1.00  0.00     0.030 A 
HETATM   14  C2  UNL     1     201.063  73.105-133.227  1.00  0.00    -0.019 A 
HETATM   15  C20 UNL     1     200.492  73.150-131.976  1.00  0.00     0.030 A 
HETATM   16  C19 UNL     1     200.139  74.364-131.448  1.00  0.00     0.091 A 
BRANCH  14  17
HETATM   17  C1  UNL     1     201.453  71.835-133.824  1.00  0.00     0.092 C 
HETATM   18  N1  UNL     1     202.000  70.870-133.184  1.00  0.00    -0.407 N 
ATOM     19  H12 UNL     1     202.167  71.018-132.188  1.00  0.00     0.155 HD
ATOM     20  H11 UNL     1     202.274  69.980-133.601  1.00  0.00     0.155 HD
ENDBRANCH  14  17
ENDBRANCH  10  11
ENDBRANCH   9  10
BRANCH   9  21
HETATM   21  O2  UNL     1     198.991  77.575-129.392  1.00  0.00    -0.234 OA
BRANCH  21  22
HETATM   22  O3  UNL     1     198.711  78.619-130.096  1.00  0.00    -0.250 OA
ATOM     23  H3  UNL     1     198.062  79.208-129.729  1.00  0.00     0.253 HD
ENDBRANCH  21  22
ENDBRANCH   9  21
ENDBRANCH   8   9
ENDBRANCH   7   8
ENDBRANCH   1   7
BRANCH   4  24
HETATM   24  C12 UNL     1     205.367  74.909-124.789  1.00  0.00     0.119 C 
HETATM   25  N3  UNL     1     205.790  75.663-123.836  1.00  0.00    -0.297 N 
ATOM     26  H3  UNL     1     205.332  76.560-123.677  1.00  0.00     0.186 HD
BRANCH  25  27
HETATM   27  N4  UNL     1     206.858  75.292-123.009  1.00  0.00    -0.132 N 
ATOM     28  H4  UNL     1     207.444  76.011-122.583  1.00  0.00     0.205 HD
BRANCH  27  29
HETATM   29  C13 UNL     1     207.103  74.048-122.783  1.00  0.00     0.696 A 
HETATM   30  N5  UNL     1     207.939  73.374-123.594  1.00  0.00    -0.200 N 
HETATM   31  C14 UNL     1     208.223  72.076-123.396  1.00  0.00     0.107 A 
ATOM     32  H5  UNL     1     208.369  73.862-124.381  1.00  0.00     0.183 HD
HETATM   33  C15 UNL     1     207.628  71.446-122.327  1.00  0.00     0.035 A 
HETATM   34  C16 UNL     1     206.778  72.162-121.516  1.00  0.00     0.107 A 
HETATM   35  N6  UNL     1     206.502  73.470-121.730  1.00  0.00    -0.200 N 
ATOM     36  H6  UNL     1     205.869  73.991-121.122  1.00  0.00     0.183 HD
ENDBRANCH  27  29
ENDBRANCH  25  27
ENDBRANCH   4  24
TORSDOF 11
ENDMDL
MODEL 3
REMARK VINA RESULT: -8.276373612      4.388     10.269
REMARK  11 active torsions:
REMARK  status: ('A' for Active; 'I' for Inactive)
REMARK    1  A    between atoms: C1_4  and  C2_5 
REMARK    2  A    between atoms: N2_8  and  C5_9 
REMARK    3  A    between atoms: C5_9  and  C6_10 
REMARK    4  A    between atoms: C6_10  and  C7_11 
REMARK    5  A    between atoms: C6_10  and  O2_32 
REMARK    6  A    between atoms: C7_11  and  O1_12 
REMARK    7  A    between atoms: O1_12  and  C8_13 
REMARK    8  A    between atoms: C11_16  and  C12_17 
REMARK    9  A    between atoms: N3_18  and  N4_20 
REMARK   10  A    between atoms: N4_20  and  C13_22 
REMARK   11  A    between atoms: O2_32  and  O3_33 
ROOT
HETATM    1  C8  UNL     1     205.370  70.708-125.340  1.00  0.00     0.068 A 
HETATM    2  C9  UNL     1     204.740  71.565-124.458  1.00  0.00     0.037 A 
HETATM    3  C10 UNL     1     204.271  72.790-124.890  1.00  0.00     0.015 A 
HETATM    4  C11 UNL     1     204.404  73.215-126.195  1.00  0.00    -0.019 A 
HETATM    5  C17 UNL     1     205.038  72.349-127.075  1.00  0.00     0.015 A 
HETATM    6  C18 UNL     1     205.506  71.126-126.648  1.00  0.00     0.037 A 
ENDROOT
BRANCH   1   7
HETATM    7  O1  UNL     1     205.837  69.478-124.890  1.00  0.00    -0.348 OA
BRANCH   7   8
HETATM    8  C7  UNL     1     207.160  69.121-125.243  1.00  0.00     0.212 C 
BRANCH   8   9
HETATM    9  C6  UNL     1     207.834  68.516-124.040  1.00  0.00     0.202 C 
BRANCH   9  10
HETATM   10  C5  UNL     1     208.844  69.438-123.417  1.00  0.00     0.165 C 
BRANCH  10  11
HETATM   11  N2  UNL     1     208.336  70.720-123.076  1.00  0.00    -0.364 N 
HETATM   12  C4  UNL     1     207.490  70.896-122.054  1.00  0.00     0.091 A 
HETATM   13  C3  UNL     1     207.002  72.171-121.736  1.00  0.00     0.030 A 
HETATM   14  C2  UNL     1     207.387  73.266-122.472  1.00  0.00    -0.019 A 
HETATM   15  C20 UNL     1     208.257  73.066-123.519  1.00  0.00     0.030 A 
HETATM   16  C19 UNL     1     208.701  71.797-123.783  1.00  0.00     0.091 A 
BRANCH  14  17
HETATM   17  C1  UNL     1     206.892  74.599-122.159  1.00  0.00     0.092 C 
HETATM   18  N1  UNL     1     205.705  75.011-122.410  1.00  0.00    -0.407 N 
ATOM     19  H12 UNL     1     205.077  74.347-122.862  1.00  0.00     0.155 HD
ATOM     20  H11 UNL     1     205.358  75.945-122.191  1.00  0.00     0.155 HD
ENDBRANCH  14  17
ENDBRANCH  10  11
ENDBRANCH   9  10
BRANCH   9  21
HETATM   21  O2  UNL     1     208.307  67.278-124.359  1.00  0.00    -0.234 OA
BRANCH  21  22
HETATM   22  O3  UNL     1     208.324  66.985-125.615  1.00  0.00    -0.250 OA
ATOM     23  H3  UNL     1     208.459  66.069-125.828  1.00  0.00     0.253 HD
ENDBRANCH  21  22
ENDBRANCH   9  21
ENDBRANCH   8   9
ENDBRANCH   7   8
ENDBRANCH   1   7
BRANCH   4  24
HETATM   24  C12 UNL     1     203.910  74.507-126.653  1.00  0.00     0.119 C 
HETATM   25  N3  UNL     1     202.822  74.526-127.341  1.00  0.00    -0.297 N 
ATOM     26  H3  UNL     1     202.348  73.645-127.538  1.00  0.00     0.186 HD
BRANCH  25  27
HETATM   27  N4  UNL     1     202.267  75.717-127.827  1.00  0.00    -0.132 N 
ATOM     28  H4  UNL     1     202.620  76.614-127.493  1.00  0.00     0.205 HD
BRANCH  27  29
HETATM   29  C13 UNL     1     201.314  75.684-128.693  1.00  0.00     0.696 A 
HETATM   30  N5  UNL     1     201.174  74.610-129.491  1.00  0.00    -0.200 N 
HETATM   31  C14 UNL     1     200.194  74.535-130.407  1.00  0.00     0.107 A 
ATOM     32  H5  UNL     1     201.828  73.833-129.398  1.00  0.00     0.183 HD
HETATM   33  C15 UNL     1     199.327  75.599-130.509  1.00  0.00     0.035 A 
HETATM   34  C16 UNL     1     199.498  76.682-129.678  1.00  0.00     0.107 A 
HETATM   35  N6  UNL     1     200.491  76.744-128.760  1.00  0.00    -0.200 N 
ATOM     36  H6  UNL     1     200.608  77.553-128.150  1.00  0.00     0.183 HD
ENDBRANCH  27  29
ENDBRANCH  25  27
ENDBRANCH   4  24
TORSDOF 11
ENDMDL
MODEL 4
REMARK VINA RESULT: -8.274812296      3.578      9.758
REMARK  11 active torsions:
REMARK  status: ('A' for Active; 'I' for Inactive)
REMARK    1  A    between atoms: C1_4  and  C2_5 
REMARK    2  A    between atoms: N2_8  and  C5_9 
REMARK    3  A    between atoms: C5_9  and  C6_10 
REMARK    4  A    between atoms: C6_10  and  C7_11 
REMARK    5  A    between atoms: C6_10  and  O2_32 
REMARK    6  A    between atoms: C7_11  and  O1_12 
REMARK    7  A    between atoms: O1_12  and  C8_13 
REMARK    8  A    between atoms: C11_16  and  C12_17 
REMARK    9  A    between atoms: N3_18  and  N4_20 
REMARK   10  A    between atoms: N4_20  and  C13_22 
REMARK   11  A    between atoms: O2_32  and  O3_33 
ROOT
HETATM    1  C8  UNL     1     204.613  75.872-125.465  1.00  0.00     0.068 A 
HETATM    2  C9  UNL     1     204.201  74.770-126.189  1.00  0.00     0.037 A 
HETATM    3  C10 UNL     1     203.098  74.850-127.016  1.00  0.00     0.015 A 
HETATM    4  C11 UNL     1     202.364  76.008-127.160  1.00  0.00    -0.019 A 
HETATM    5  C17 UNL     1     202.783  77.111-126.429  1.00  0.00     0.015 A 
HETATM    6  C18 UNL     1     203.883  77.035-125.604  1.00  0.00     0.037 A 
ENDROOT
BRANCH   1   7
HETATM    7  O1  UNL     1     205.726  75.775-124.637  1.00  0.00    -0.348 OA
BRANCH   7   8
HETATM    8  C7  UNL     1     206.712  74.823-124.989  1.00  0.00     0.212 C 
BRANCH   8   9
HETATM    9  C6  UNL     1     206.996  73.957-123.791  1.00  0.00     0.202 C 
BRANCH   9  10
HETATM   10  C5  UNL     1     206.007  72.835-123.639  1.00  0.00     0.165 C 
BRANCH  10  11
HETATM   11  N2  UNL     1     206.596  71.546-123.535  1.00  0.00    -0.364 N 
HETATM   12  C4  UNL     1     207.348  71.196-122.484  1.00  0.00     0.091 A 
HETATM   13  C3  UNL     1     207.919  69.918-122.403  1.00  0.00     0.030 A 
HETATM   14  C2  UNL     1     207.713  69.000-123.405  1.00  0.00    -0.019 A 
HETATM   15  C20 UNL     1     206.938  69.378-124.477  1.00  0.00     0.030 A 
HETATM   16  C19 UNL     1     206.406  70.640-124.502  1.00  0.00     0.091 A 
BRANCH  14  17
HETATM   17  C1  UNL     1     208.296  67.667-123.340  1.00  0.00     0.092 C 
HETATM   18  N1  UNL     1     209.540  67.409-123.508  1.00  0.00    -0.407 N 
ATOM     19  H12 UNL     1     210.150  68.203-123.700  1.00  0.00     0.155 HD
ATOM     20  H11 UNL     1     209.949  66.475-123.463  1.00  0.00     0.155 HD
ENDBRANCH  14  17
ENDBRANCH  10  11
ENDBRANCH   9  10
BRANCH   9  21
HETATM   21  O2  UNL     1     207.145  74.743-122.687  1.00  0.00    -0.234 OA
BRANCH  21  22
HETATM   22  O3  UNL     1     206.086  74.923-121.973  1.00  0.00    -0.250 OA
ATOM     23  H3  UNL     1     206.207  74.888-121.032  1.00  0.00     0.253 HD
ENDBRANCH  21  22
ENDBRANCH   9  21
ENDBRANCH   8   9
ENDBRANCH   7   8
ENDBRANCH   1   7
BRANCH   4  24
HETATM   24  C12 UNL     1     201.200  76.095-128.031  1.00  0.00     0.119 C 
HETATM   25  N3  UNL     1     201.157  75.320-129.058  1.00  0.00    -0.297 N 
ATOM     26  H3  UNL     1     201.932  74.678-129.224  1.00  0.00     0.186 HD
BRANCH  25  27
HETATM   27  N4  UNL     1     200.081  75.329-129.955  1.00  0.00    -0.132 N 
ATOM     28  H4  UNL     1     199.374  74.595-129.908  1.00  0.00     0.205 HD
BRANCH  27  29
HETATM   29  C13 UNL     1     199.980  76.260-130.840  1.00  0.00     0.696 A 
HETATM   30  N5  UNL     1     198.826  76.940-130.965  1.00  0.00    -0.200 N 
HETATM   31  C14 UNL     1     198.678  77.919-131.874  1.00  0.00     0.107 A 
ATOM     32  H5  UNL     1     198.043  76.707-130.354  1.00  0.00     0.183 HD
HETATM   33  C15 UNL     1     199.752  78.210-132.683  1.00  0.00     0.035 A 
HETATM   34  C16 UNL     1     200.918  77.497-132.530  1.00  0.00     0.107 A 
HETATM   35  N6  UNL     1     201.052  76.513-131.610  1.00  0.00    -0.200 N 
ATOM     36  H6  UNL     1     201.922  75.990-131.506  1.00  0.00     0.183 HD
ENDBRANCH  27  29
ENDBRANCH  25  27
ENDBRANCH   4  24
TORSDOF 11
ENDMDL
MODEL 5
REMARK VINA RESULT: -8.272779792      4.672     10.206
REMARK  11 active torsions:
REMARK  status: ('A' for Active; 'I' for Inactive)
REMARK    1  A    between atoms: C1_4  and  C2_5 
REMARK    2  A    between atoms: N2_8  and  C5_9 
REMARK    3  A    between atoms: C5_9  and  C6_10 
REMARK    4  A    between atoms: C6_10  and  C7_11 
REMARK    5  A    between atoms: C6_10  and  O2_32 
REMARK    6  A    between atoms: C7_11  and  O1_12 
REMARK    7  A    between atoms: O1_12  and  C8_13 
REMARK    8  A    between atoms: C11_16  and  C12_17 
REMARK    9  A    between atoms: N3_18  and  N4_20 
REMARK   10  A    between atoms: N4_20  and  C13_22 
REMARK   11  A    between atoms: O2_32  and  O3_33 
ROOT
HETATM    1  C8  UNL     1     206.820  70.144-126.097  1.00  0.00     0.068 A 
HETATM    2  C9  UNL     1     205.664  70.344-125.368  1.00  0.00     0.037 A 
HETATM    3  C10 UNL     1     204.987  71.545-125.448  1.00  0.00     0.015 A 
HETATM    4  C11 UNL     1     205.419  72.586-126.241  1.00  0.00    -0.019 A 
HETATM    5  C17 UNL     1     206.581  72.379-126.970  1.00  0.00     0.015 A 
HETATM    6  C18 UNL     1     207.259  71.182-126.894  1.00  0.00     0.037 A 
ENDROOT
BRANCH   1   7
HETATM    7  O1  UNL     1     207.491  68.929-126.006  1.00  0.00    -0.348 OA
BRANCH   7   8
HETATM    8  C7  UNL     1     208.793  68.951-125.451  1.00  0.00     0.212 C 
BRANCH   8   9
HETATM    9  C6  UNL     1     208.680  68.864-123.953  1.00  0.00     0.202 C 
BRANCH   9  10
HETATM   10  C5  UNL     1     209.325  70.028-123.254  1.00  0.00     0.165 C 
BRANCH  10  11
HETATM   11  N2  UNL     1     208.481  71.161-123.105  1.00  0.00    -0.364 N 
HETATM   12  C4  UNL     1     207.397  71.136-122.320  1.00  0.00     0.091 A 
HETATM   13  C3  UNL     1     206.579  72.267-122.187  1.00  0.00     0.030 A 
HETATM   14  C2  UNL     1     206.880  73.425-122.863  1.00  0.00    -0.019 A 
HETATM   15  C20 UNL     1     207.998  73.432-123.665  1.00  0.00     0.030 A 
HETATM   16  C19 UNL     1     208.760  72.298-123.756  1.00  0.00     0.091 A 
BRANCH  14  17
HETATM   17  C1  UNL     1     206.044  74.611-122.738  1.00  0.00     0.092 C 
HETATM   18  N1  UNL     1     204.763  74.597-122.706  1.00  0.00    -0.407 N 
ATOM     19  H12 UNL     1     204.314  73.684-122.773  1.00  0.00     0.155 HD
ATOM     20  H11 UNL     1     204.177  75.428-122.619  1.00  0.00     0.155 HD
ENDBRANCH  14  17
ENDBRANCH  10  11
ENDBRANCH   9  10
BRANCH   9  21
HETATM   21  O2  UNL     1     209.105  67.638-123.535  1.00  0.00    -0.234 OA
BRANCH  21  22
HETATM   22  O3  UNL     1     208.206  66.876-123.010  1.00  0.00    -0.250 OA
ATOM     23  H3  UNL     1     207.773  66.272-123.602  1.00  0.00     0.253 HD
ENDBRANCH  21  22
ENDBRANCH   9  21
ENDBRANCH   8   9
ENDBRANCH   7   8
ENDBRANCH   1   7
BRANCH   4  24
HETATM   24  C12 UNL     1     204.707  73.854-126.327  1.00  0.00     0.119 C 
HETATM   25  N3  UNL     1     203.661  73.908-127.076  1.00  0.00    -0.297 N 
ATOM     26  H3  UNL     1     203.370  73.069-127.577  1.00  0.00     0.186 HD
BRANCH  25  27
HETATM   27  N4  UNL     1     202.909  75.080-127.225  1.00  0.00    -0.132 N 
ATOM     28  H4  UNL     1     203.078  75.874-126.606  1.00  0.00     0.205 HD
BRANCH  27  29
HETATM   29  C13 UNL     1     202.005  75.161-128.139  1.00  0.00     0.696 A 
HETATM   30  N5  UNL     1     201.477  76.359-128.452  1.00  0.00    -0.200 N 
HETATM   31  C14 UNL     1     200.533  76.488-129.399  1.00  0.00     0.107 A 
ATOM     32  H5  UNL     1     201.802  77.190-127.958  1.00  0.00     0.183 HD
HETATM   33  C15 UNL     1     200.115  75.349-130.049  1.00  0.00     0.035 A 
HETATM   34  C16 UNL     1     200.675  74.141-129.706  1.00  0.00     0.107 A 
HETATM   35  N6  UNL     1     201.626  74.026-128.749  1.00  0.00    -0.200 N 
ATOM     36  H6  UNL     1     202.033  73.123-128.502  1.00  0.00     0.183 HD
ENDBRANCH  27  29
ENDBRANCH  25  27
ENDBRANCH   4  24
TORSDOF 11
ENDMDL
