MODEL 1
REMARK VINA RESULT: -7.989150924      0.000      0.000
REMARK  11 active torsions:
REMARK  status: ('A' for Active; 'I' for Inactive)
REMARK    1  A    between atoms: C5_5  and  O1_6 
REMARK    2  A    between atoms: O1_6  and  C6_7 
REMARK    3  A    between atoms: C6_7  and  C7_8 
REMARK    4  A    between atoms: C7_8  and  N1_9 
REMARK    5  A    between atoms: N1_9  and  C8_10 
REMARK    6  A    between atoms: N1_9  and  C12_20 
REMARK    7  A    between atoms: C8_10  and  C9_11 
REMARK    8  A    between atoms: C9_11  and  C10_12 
REMARK    9  A    between atoms: N2_13  and  N3_15 
REMARK   10  A    between atoms: C16_24  and  O2_25 
REMARK   11  A    between atoms: C17_27  and  N6_28 
ROOT
HETATM    1  N1  UNL     1     205.492  74.442-124.684  1.00  0.00    -0.376 N 
ENDROOT
BRANCH   1   2
HETATM    2  C7  UNL     1     206.888  74.508-125.037  1.00  0.00     0.149 C 
BRANCH   2   3
HETATM    3  C6  UNL     1     207.904  74.227-124.024  1.00  0.00     0.195 C 
BRANCH   3   4
HETATM    4  O1  UNL     1     208.481  73.112-123.666  1.00  0.00    -0.350 OA
BRANCH   4   5
HETATM    5  C5  UNL     1     208.452  71.800-123.515  1.00  0.00     0.068 A 
HETATM    6  C4  UNL     1     208.991  71.027-124.565  1.00  0.00     0.037 A 
HETATM    7  C3  UNL     1     209.007  69.667-124.512  1.00  0.00     0.009 A 
HETATM    8  C2  UNL     1     208.499  68.983-123.432  1.00  0.00    -0.062 A 
HETATM    9  C1  UNL     1     208.540  67.509-123.446  1.00  0.00     0.048 C 
HETATM   10  C19 UNL     1     207.975  69.727-122.408  1.00  0.00     0.009 A 
HETATM   11  C18 UNL     1     207.945  71.096-122.434  1.00  0.00     0.037 A 
ENDBRANCH   4   5
ENDBRANCH   3   4
ENDBRANCH   2   3
ENDBRANCH   1   2
BRANCH   1  12
HETATM   12  C8  UNL     1     205.130  73.819-123.400  1.00  0.00     0.128 C 
BRANCH  12  13
HETATM   13  C9  UNL     1     204.456  72.522-123.597  1.00  0.00     0.066 C 
BRANCH  13  14
HETATM   14  C10 UNL     1     205.329  71.588-124.406  1.00  0.00     0.081 C 
HETATM   15  N2  UNL     1     204.830  70.669-125.107  1.00  0.00    -0.314 N 
ATOM     16  H2  UNL     1     203.812  70.614-125.084  1.00  0.00     0.185 HD
BRANCH  15  17
HETATM   17  N3  UNL     1     205.422  69.760-125.871  1.00  0.00    -0.277 N 
HETATM   18  C11 UNL     1     205.124  68.674-126.424  1.00  0.00     0.215 C 
HETATM   19  N4  UNL     1     206.089  67.936-127.218  1.00  0.00    -0.065 NA
HETATM   20  N5  UNL     1     203.839  68.078-126.327  1.00  0.00    -0.065 NA
ATOM     21  H3  UNL     1     206.390  70.017-126.063  1.00  0.00     0.189 HD
ENDBRANCH  15  17
ENDBRANCH  13  14
ENDBRANCH  12  13
ENDBRANCH   1  12
BRANCH   1  22
HETATM   22  C12 UNL     1     204.497  75.082-125.420  1.00  0.00     0.066 A 
HETATM   23  C13 UNL     1     204.315  76.459-125.058  1.00  0.00     0.032 A 
HETATM   24  C14 UNL     1     203.405  77.273-125.662  1.00  0.00     0.005 A 
HETATM   25  C15 UNL     1     202.613  76.768-126.671  1.00  0.00     0.039 A 
HETATM   26  C16 UNL     1     202.744  75.463-127.056  1.00  0.00     0.101 A 
HETATM   27  C17 UNL     1     203.692  74.663-126.407  1.00  0.00     0.162 A 
BRANCH  26  28
HETATM   28  O2  UNL     1     201.937  74.988-128.069  1.00  0.00    -0.358 OA
ATOM     29  H2  UNL     1     201.701  75.577-128.777  1.00  0.00     0.217 HD
ENDBRANCH  26  28
BRANCH  27  30
HETATM   30  N6  UNL     1     203.693  73.331-126.866  1.00  0.00    -0.110 N 
HETATM   31  O3  UNL     1     204.635  72.906-127.532  1.00  0.00    -0.532 OA
HETATM   32  O4  UNL     1     202.630  72.498-126.659  1.00  0.00    -0.532 OA
ENDBRANCH  27  30
ENDBRANCH   1  22
TORSDOF 11
ENDMDL
MODEL 2
REMARK VINA RESULT: -7.778249714      2.332      4.623
REMARK  11 active torsions:
REMARK  status: ('A' for Active; 'I' for Inactive)
REMARK    1  A    between atoms: C5_5  and  O1_6 
REMARK    2  A    between atoms: O1_6  and  C6_7 
REMARK    3  A    between atoms: C6_7  and  C7_8 
REMARK    4  A    between atoms: C7_8  and  N1_9 
REMARK    5  A    between atoms: N1_9  and  C8_10 
REMARK    6  A    between atoms: N1_9  and  C12_20 
REMARK    7  A    between atoms: C8_10  and  C9_11 
REMARK    8  A    between atoms: C9_11  and  C10_12 
REMARK    9  A    between atoms: N2_13  and  N3_15 
REMARK   10  A    between atoms: C16_24  and  O2_25 
REMARK   11  A    between atoms: C17_27  and  N6_28 
ROOT
HETATM    1  N1  UNL     1     204.908  74.936-125.111  1.00  0.00    -0.376 N 
ENDROOT
BRANCH   1   2
HETATM    2  C7  UNL     1     204.976  74.683-123.693  1.00  0.00     0.149 C 
BRANCH   2   3
HETATM    3  C6  UNL     1     206.176  74.071-123.125  1.00  0.00     0.195 C 
BRANCH   3   4
HETATM    4  O1  UNL     1     206.429  72.843-122.761  1.00  0.00    -0.350 OA
BRANCH   4   5
HETATM    5  C5  UNL     1     206.836  71.620-123.048  1.00  0.00     0.068 A 
HETATM    6  C4  UNL     1     207.460  70.898-122.009  1.00  0.00     0.037 A 
HETATM    7  C3  UNL     1     207.921  69.631-122.200  1.00  0.00     0.009 A 
HETATM    8  C2  UNL     1     207.798  68.996-123.413  1.00  0.00    -0.062 A 
HETATM    9  C1  UNL     1     208.328  67.626-123.552  1.00  0.00     0.048 C 
HETATM   10  C19 UNL     1     207.192  69.691-124.427  1.00  0.00     0.009 A 
HETATM   11  C18 UNL     1     206.719  70.966-124.265  1.00  0.00     0.037 A 
ENDBRANCH   4   5
ENDBRANCH   3   4
ENDBRANCH   2   3
ENDBRANCH   1   2
BRANCH   1  12
HETATM   12  C8  UNL     1     204.763  76.330-125.560  1.00  0.00     0.128 C 
BRANCH  12  13
HETATM   13  C9  UNL     1     203.349  76.747-125.591  1.00  0.00     0.066 C 
BRANCH  13  14
HETATM   14  C10 UNL     1     202.807  76.683-127.002  1.00  0.00     0.081 C 
HETATM   15  N2  UNL     1     202.257  75.641-127.445  1.00  0.00    -0.314 N 
ATOM     16  H2  UNL     1     202.208  74.866-126.784  1.00  0.00     0.185 HD
BRANCH  15  17
HETATM   17  N3  UNL     1     201.732  75.393-128.638  1.00  0.00    -0.277 N 
HETATM   18  C11 UNL     1     200.824  75.857-129.368  1.00  0.00     0.215 C 
HETATM   19  N4  UNL     1     200.532  75.289-130.672  1.00  0.00    -0.065 NA
HETATM   20  N5  UNL     1     200.014  76.963-128.996  1.00  0.00    -0.065 NA
ATOM     21  H3  UNL     1     202.197  74.603-129.086  1.00  0.00     0.189 HD
ENDBRANCH  15  17
ENDBRANCH  13  14
ENDBRANCH  12  13
ENDBRANCH   1  12
BRANCH   1  22
HETATM   22  C12 UNL     1     205.138  73.947-126.066  1.00  0.00     0.066 A 
HETATM   23  C13 UNL     1     206.376  74.111-126.773  1.00  0.00     0.032 A 
HETATM   24  C14 UNL     1     206.801  73.249-127.737  1.00  0.00     0.005 A 
HETATM   25  C15 UNL     1     206.020  72.161-128.062  1.00  0.00     0.039 A 
HETATM   26  C16 UNL     1     204.831  71.956-127.420  1.00  0.00     0.101 A 
HETATM   27  C17 UNL     1     204.433  72.868-126.436  1.00  0.00     0.162 A 
BRANCH  26  28
HETATM   28  O2  UNL     1     204.073  70.857-127.768  1.00  0.00    -0.358 OA
ATOM     29  H2  UNL     1     203.729  70.803-128.652  1.00  0.00     0.217 HD
ENDBRANCH  26  28
BRANCH  27  30
HETATM   30  N6  UNL     1     203.171  72.567-125.887  1.00  0.00    -0.110 N 
HETATM   31  O3  UNL     1     203.081  71.818-124.915  1.00  0.00    -0.532 OA
HETATM   32  O4  UNL     1     202.013  73.025-126.450  1.00  0.00    -0.532 OA
ENDBRANCH  27  30
ENDBRANCH   1  22
TORSDOF 11
ENDMDL
MODEL 3
REMARK VINA RESULT: -7.750087163      2.499      6.810
REMARK  11 active torsions:
REMARK  status: ('A' for Active; 'I' for Inactive)
REMARK    1  A    between atoms: C5_5  and  O1_6 
REMARK    2  A    between atoms: O1_6  and  C6_7 
REMARK    3  A    between atoms: C6_7  and  C7_8 
REMARK    4  A    between atoms: C7_8  and  N1_9 
REMARK    5  A    between atoms: N1_9  and  C8_10 
REMARK    6  A    between atoms: N1_9  and  C12_20 
REMARK    7  A    between atoms: C8_10  and  C9_11 
REMARK    8  A    between atoms: C9_11  and  C10_12 
REMARK    9  A    between atoms: N2_13  and  N3_15 
REMARK   10  A    between atoms: C16_24  and  O2_25 
REMARK   11  A    between atoms: C17_27  and  N6_28 
ROOT
HETATM    1  N1  UNL     1     205.990  74.100-125.903  1.00  0.00    -0.376 N 
ENDROOT
BRANCH   1   2
HETATM    2  C7  UNL     1     204.800  74.826-126.269  1.00  0.00     0.149 C 
BRANCH   2   3
HETATM    3  C6  UNL     1     203.509  74.139-126.280  1.00  0.00     0.195 C 
BRANCH   3   4
HETATM    4  O1  UNL     1     202.409  74.381-126.941  1.00  0.00    -0.350 OA
BRANCH   4   5
HETATM    5  C5  UNL     1     201.781  74.919-127.970  1.00  0.00     0.068 A 
HETATM    6  C4  UNL     1     201.335  74.034-128.976  1.00  0.00     0.037 A 
HETATM    7  C3  UNL     1     200.681  74.485-130.081  1.00  0.00     0.009 A 
HETATM    8  C2  UNL     1     200.424  75.823-130.270  1.00  0.00    -0.062 A 
HETATM    9  C1  UNL     1     199.719  76.242-131.495  1.00  0.00     0.048 C 
HETATM   10  C19 UNL     1     200.853  76.687-129.297  1.00  0.00     0.009 A 
HETATM   11  C18 UNL     1     201.514  76.263-128.175  1.00  0.00     0.037 A 
ENDBRANCH   4   5
ENDBRANCH   3   4
ENDBRANCH   2   3
ENDBRANCH   1   2
BRANCH   1  12
HETATM   12  C8  UNL     1     206.958  73.776-126.963  1.00  0.00     0.128 C 
BRANCH  12  13
HETATM   13  C9  UNL     1     206.320  73.052-128.079  1.00  0.00     0.066 C 
BRANCH  13  14
HETATM   14  C10 UNL     1     206.169  71.585-127.742  1.00  0.00     0.081 C 
HETATM   15  N2  UNL     1     205.043  71.085-127.486  1.00  0.00    -0.314 N 
ATOM     16  H2  UNL     1     204.262  71.740-127.527  1.00  0.00     0.185 HD
BRANCH  15  17
HETATM   17  N3  UNL     1     204.713  69.840-127.169  1.00  0.00    -0.277 N 
HETATM   18  C11 UNL     1     203.677  69.202-126.861  1.00  0.00     0.215 C 
HETATM   19  N4  UNL     1     203.718  67.781-126.571  1.00  0.00    -0.065 NA
HETATM   20  N5  UNL     1     202.392  69.800-126.773  1.00  0.00    -0.065 NA
ATOM     21  H3  UNL     1     205.531  69.230-127.179  1.00  0.00     0.189 HD
ENDBRANCH  15  17
ENDBRANCH  13  14
ENDBRANCH  12  13
ENDBRANCH   1  12
BRANCH   1  22
HETATM   22  C12 UNL     1     206.339  73.842-124.578  1.00  0.00     0.066 A 
HETATM   23  C13 UNL     1     207.004  74.941-123.938  1.00  0.00     0.032 A 
HETATM   24  C14 UNL     1     207.418  74.905-122.641  1.00  0.00     0.005 A 
HETATM   25  C15 UNL     1     207.195  73.770-121.892  1.00  0.00     0.039 A 
HETATM   26  C16 UNL     1     206.566  72.693-122.452  1.00  0.00     0.101 A 
HETATM   27  C17 UNL     1     206.159  72.773-123.788  1.00  0.00     0.162 A 
BRANCH  26  28
HETATM   28  O2  UNL     1     206.358  71.571-121.676  1.00  0.00    -0.358 OA
ATOM     29  H2  UNL     1     207.088  70.982-121.523  1.00  0.00     0.217 HD
ENDBRANCH  26  28
BRANCH  27  30
HETATM   30  N6  UNL     1     205.567  71.583-124.255  1.00  0.00    -0.110 N 
HETATM   31  O3  UNL     1     204.344  71.496-124.351  1.00  0.00    -0.532 OA
HETATM   32  O4  UNL     1     206.311  70.473-124.539  1.00  0.00    -0.532 OA
ENDBRANCH  27  30
ENDBRANCH   1  22
TORSDOF 11
ENDMDL
MODEL 4
REMARK VINA RESULT: -7.673666591      5.346      8.666
REMARK  11 active torsions:
REMARK  status: ('A' for Active; 'I' for Inactive)
REMARK    1  A    between atoms: C5_5  and  O1_6 
REMARK    2  A    between atoms: O1_6  and  C6_7 
REMARK    3  A    between atoms: C6_7  and  C7_8 
REMARK    4  A    between atoms: C7_8  and  N1_9 
REMARK    5  A    between atoms: N1_9  and  C8_10 
REMARK    6  A    between atoms: N1_9  and  C12_20 
REMARK    7  A    between atoms: C8_10  and  C9_11 
REMARK    8  A    between atoms: C9_11  and  C10_12 
REMARK    9  A    between atoms: N2_13  and  N3_15 
REMARK   10  A    between atoms: C16_24  and  O2_25 
REMARK   11  A    between atoms: C17_27  and  N6_28 
ROOT
HETATM    1  N1  UNL     1     200.903  75.777-130.018  1.00  0.00    -0.376 N 
ENDROOT
BRANCH   1   2
HETATM    2  C7  UNL     1     200.920  74.363-129.742  1.00  0.00     0.149 C 
BRANCH   2   3
HETATM    3  C6  UNL     1     199.780  73.536-130.132  1.00  0.00     0.195 C 
BRANCH   3   4
HETATM    4  O1  UNL     1     199.714  72.415-130.798  1.00  0.00    -0.350 OA
BRANCH   4   5
HETATM    5  C5  UNL     1     200.063  71.151-130.959  1.00  0.00     0.068 A 
HETATM    6  C4  UNL     1     199.072  70.181-130.697  1.00  0.00     0.037 A 
HETATM    7  C3  UNL     1     199.328  68.850-130.827  1.00  0.00     0.009 A 
HETATM    8  C2  UNL     1     200.562  68.389-131.222  1.00  0.00    -0.062 A 
HETATM    9  C1  UNL     1     200.772  66.934-131.333  1.00  0.00     0.048 C 
HETATM   10  C19 UNL     1     201.529  69.326-131.479  1.00  0.00     0.009 A 
HETATM   11  C18 UNL     1     201.301  70.671-131.356  1.00  0.00     0.037 A 
ENDBRANCH   4   5
ENDBRANCH   3   4
ENDBRANCH   2   3
ENDBRANCH   1   2
BRANCH   1  12
HETATM   12  C8  UNL     1     201.712  76.661-129.162  1.00  0.00     0.128 C 
BRANCH  12  13
HETATM   13  C9  UNL     1     201.452  76.418-127.731  1.00  0.00     0.066 C 
BRANCH  13  14
HETATM   14  C10 UNL     1     202.721  76.583-126.925  1.00  0.00     0.081 C 
HETATM   15  N2  UNL     1     203.078  75.720-126.081  1.00  0.00    -0.314 N 
ATOM     16  H2  UNL     1     202.453  74.919-125.995  1.00  0.00     0.185 HD
BRANCH  15  17
HETATM   17  N3  UNL     1     204.140  75.689-125.288  1.00  0.00    -0.277 N 
HETATM   18  C11 UNL     1     205.275  75.154-125.273  1.00  0.00     0.215 C 
HETATM   19  N4  UNL     1     206.202  75.369-124.177  1.00  0.00    -0.065 NA
HETATM   20  N5  UNL     1     205.749  74.308-126.310  1.00  0.00    -0.065 NA
ATOM     21  H3  UNL     1     203.992  76.259-124.455  1.00  0.00     0.189 HD
ENDBRANCH  15  17
ENDBRANCH  13  14
ENDBRANCH  12  13
ENDBRANCH   1  12
BRANCH   1  22
HETATM   22  C12 UNL     1     200.293  76.318-131.149  1.00  0.00     0.066 A 
HETATM   23  C13 UNL     1     200.862  75.855-132.382  1.00  0.00     0.032 A 
HETATM   24  C14 UNL     1     200.407  76.247-133.604  1.00  0.00     0.005 A 
HETATM   25  C15 UNL     1     199.351  77.128-133.680  1.00  0.00     0.039 A 
HETATM   26  C16 UNL     1     198.771  77.602-132.536  1.00  0.00     0.101 A 
HETATM   27  C17 UNL     1     199.271  77.173-131.302  1.00  0.00     0.162 A 
BRANCH  26  28
HETATM   28  O2  UNL     1     197.715  78.483-132.647  1.00  0.00    -0.358 OA
ATOM     29  H2  UNL     1     197.074  78.342-133.334  1.00  0.00     0.217 HD
ENDBRANCH  26  28
BRANCH  27  30
HETATM   30  N6  UNL     1     198.617  77.770-130.206  1.00  0.00    -0.110 N 
HETATM   31  O3  UNL     1     197.994  77.077-129.404  1.00  0.00    -0.532 OA
HETATM   32  O4  UNL     1     198.585  79.126-130.039  1.00  0.00    -0.532 OA
ENDBRANCH  27  30
ENDBRANCH   1  22
TORSDOF 11
ENDMDL
MODEL 5
REMARK VINA RESULT: -7.648894225      3.064      4.593
REMARK  11 active torsions:
REMARK  status: ('A' for Active; 'I' for Inactive)
REMARK    1  A    between atoms: C5_5  and  O1_6 
REMARK    2  A    between atoms: O1_6  and  C6_7 
REMARK    3  A    between atoms: C6_7  and  C7_8 
REMARK    4  A    between atoms: C7_8  and  N1_9 
REMARK    5  A    between atoms: N1_9  and  C8_10 
REMARK    6  A    between atoms: N1_9  and  C12_20 
REMARK    7  A    between atoms: C8_10  and  C9_11 
REMARK    8  A    between atoms: C9_11  and  C10_12 
REMARK    9  A    between atoms: N2_13  and  N3_15 
REMARK   10  A    between atoms: C16_24  and  O2_25 
REMARK   11  A    between atoms: C17_27  and  N6_28 
ROOT
HETATM    1  N1  UNL     1     207.892  71.985-125.044  1.00  0.00    -0.376 N 
ENDROOT
BRANCH   1   2
HETATM    2  C7  UNL     1     208.135  72.245-126.441  1.00  0.00     0.149 C 
BRANCH   2   3
HETATM    3  C6  UNL     1     207.369  71.522-127.455  1.00  0.00     0.195 C 
BRANCH   3   4
HETATM    4  O1  UNL     1     207.462  70.298-127.897  1.00  0.00    -0.350 OA
BRANCH   4   5
HETATM    5  C5  UNL     1     208.184  69.298-128.370  1.00  0.00     0.068 A 
HETATM    6  C4  UNL     1     208.912  68.539-127.429  1.00  0.00     0.037 A 
HETATM    7  C3  UNL     1     209.691  67.490-127.811  1.00  0.00     0.009 A 
HETATM    8  C2  UNL     1     209.806  67.122-129.131  1.00  0.00    -0.062 A 
HETATM    9  C1  UNL     1     210.676  65.981-129.474  1.00  0.00     0.048 C 
HETATM   10  C19 UNL     1     209.102  67.854-130.050  1.00  0.00     0.009 A 
HETATM   11  C18 UNL     1     208.310  68.914-129.696  1.00  0.00     0.037 A 
ENDBRANCH   4   5
ENDBRANCH   3   4
ENDBRANCH   2   3
ENDBRANCH   1   2
BRANCH   1  12
HETATM   12  C8  UNL     1     208.360  70.706-124.485  1.00  0.00     0.128 C 
BRANCH  12  13
HETATM   13  C9  UNL     1     207.261  69.960-123.843  1.00  0.00     0.066 C 
BRANCH  13  14
HETATM   14  C10 UNL     1     206.527  69.117-124.862  1.00  0.00     0.081 C 
HETATM   15  N2  UNL     1     205.523  69.562-125.479  1.00  0.00    -0.314 N 
ATOM     16  H2  UNL     1     205.259  70.517-125.239  1.00  0.00     0.185 HD
BRANCH  15  17
HETATM   17  N3  UNL     1     204.756  68.982-126.392  1.00  0.00    -0.277 N 
HETATM   18  C11 UNL     1     203.635  69.174-126.922  1.00  0.00     0.215 C 
HETATM   19  N4  UNL     1     203.110  68.276-127.934  1.00  0.00    -0.065 NA
HETATM   20  N5  UNL     1     202.794  70.268-126.589  1.00  0.00    -0.065 NA
ATOM     21  H3  UNL     1     205.202  68.145-126.769  1.00  0.00     0.189 HD
ENDBRANCH  15  17
ENDBRANCH  13  14
ENDBRANCH  12  13
ENDBRANCH   1  12
BRANCH   1  22
HETATM   22  C12 UNL     1     207.390  72.951-124.173  1.00  0.00     0.066 A 
HETATM   23  C13 UNL     1     208.406  73.613-123.405  1.00  0.00     0.032 A 
HETATM   24  C14 UNL     1     208.133  74.599-122.506  1.00  0.00     0.005 A 
HETATM   25  C15 UNL     1     206.828  74.993-122.312  1.00  0.00     0.039 A 
HETATM   26  C16 UNL     1     205.820  74.396-123.017  1.00  0.00     0.101 A 
HETATM   27  C17 UNL     1     206.145  73.387-123.930  1.00  0.00     0.162 A 
BRANCH  26  28
HETATM   28  O2  UNL     1     204.523  74.815-122.799  1.00  0.00    -0.358 OA
ATOM     29  H2  UNL     1     204.014  74.385-122.121  1.00  0.00     0.217 HD
ENDBRANCH  26  28
BRANCH  27  30
HETATM   30  N6  UNL     1     205.014  72.825-124.554  1.00  0.00    -0.110 N 
HETATM   31  O3  UNL     1     204.635  73.247-125.644  1.00  0.00    -0.532 OA
HETATM   32  O4  UNL     1     204.262  71.860-123.945  1.00  0.00    -0.532 OA
ENDBRANCH  27  30
ENDBRANCH   1  22
TORSDOF 11
ENDMDL
