MODEL 1
REMARK VINA RESULT: -8.481405979      0.000      0.000
REMARK  8 active torsions:
REMARK  status: ('A' for Active; 'I' for Inactive)
REMARK    1  A    between atoms: N3_4  and  C2_6 
REMARK    2  A    between atoms: C2_6  and  C3_7 
REMARK    3  A    between atoms: C3_7  and  C4_8 
REMARK    4  A    between atoms: C4_8  and  C5_9 
REMARK    5  A    between atoms: C5_9  and  N4_10 
REMARK       I    between atoms: N4_10  and  C6_12 
REMARK    6  A    between atoms: C6_12  and  C7_14 
REMARK    7  A    between atoms: C10_17  and  C11_18 
REMARK    8  A    between atoms: C11_18  and  N5_19 
ROOT
HETATM    1  N4  UNL     1     -15.692  42.627  46.427  1.00  0.00    -0.361 N 
ATOM      2  H4  UNL     1     -15.621  41.764  45.887  1.00  0.00     0.162 HD
HETATM    3  C6  UNL     1     -14.632  43.554  46.318  1.00  0.00     0.221 C 
HETATM    4  O1  UNL     1     -14.640  44.633  46.943  1.00  0.00    -0.273 OA
ENDROOT
BRANCH   3   5
HETATM    5  C7  UNL     1     -13.481  43.233  45.438  1.00  0.00     0.078 C 
HETATM    6  C8  UNL     1     -12.480  42.360  46.149  1.00  0.00     0.014 C 
HETATM    7  C9  UNL     1     -12.738  40.901  46.003  1.00  0.00     0.007 C 
HETATM    8  C10 UNL     1     -13.102  40.473  44.620  1.00  0.00     0.003 C 
HETATM    9  C13 UNL     1     -12.897  41.651  43.675  1.00  0.00     0.007 C 
HETATM   10  C14 UNL     1     -13.898  42.714  44.104  1.00  0.00     0.014 C 
BRANCH   8  11
HETATM   11  C11 UNL     1     -12.341  39.284  44.119  1.00  0.00     0.126 C 
BRANCH  11  12
HETATM   12  N5  UNL     1     -12.735  39.048  42.749  1.00  0.00    -0.367 N 
HETATM   13  C12 UNL     1     -11.858  38.733  41.862  1.00  0.00     0.196 C 
HETATM   14  N6  UNL     1     -10.503  38.622  42.255  1.00  0.00    -0.067 NA
HETATM   15  N7  UNL     1     -12.190  38.493  40.507  1.00  0.00    -0.067 NA
ATOM     16  H5  UNL     1     -13.716  39.131  42.483  1.00  0.00     0.161 HD
ENDBRANCH  11  12
ENDBRANCH   8  11
ENDBRANCH   3   5
BRANCH   1  17
HETATM   17  C5  UNL     1     -16.866  42.807  47.245  1.00  0.00     0.122 C 
BRANCH  17  18
HETATM   18  C4  UNL     1     -17.782  43.795  46.596  1.00  0.00     0.021 C 
BRANCH  18  19
HETATM   19  C3  UNL     1     -18.043  45.006  47.467  1.00  0.00     0.021 C 
BRANCH  19  20
HETATM   20  C2  UNL     1     -18.102  44.623  48.927  1.00  0.00     0.122 C 
BRANCH  20  21
HETATM   21  N3  UNL     1     -18.608  45.725  49.698  1.00  0.00    -0.367 N 
HETATM   22  C1  UNL     1     -19.839  45.767  50.026  1.00  0.00     0.196 C 
HETATM   23  N1  UNL     1     -20.715  44.735  49.637  1.00  0.00    -0.067 NA
HETATM   24  N2  UNL     1     -20.330  46.850  50.784  1.00  0.00    -0.067 NA
ATOM     25  H3  UNL     1     -17.981  46.476  49.983  1.00  0.00     0.161 HD
ENDBRANCH  20  21
ENDBRANCH  19  20
ENDBRANCH  18  19
ENDBRANCH  17  18
ENDBRANCH   1  17
TORSDOF 8
ENDMDL
MODEL 2
REMARK VINA RESULT: -8.229415079      1.992      2.416
REMARK  8 active torsions:
REMARK  status: ('A' for Active; 'I' for Inactive)
REMARK    1  A    between atoms: N3_4  and  C2_6 
REMARK    2  A    between atoms: C2_6  and  C3_7 
REMARK    3  A    between atoms: C3_7  and  C4_8 
REMARK    4  A    between atoms: C4_8  and  C5_9 
REMARK    5  A    between atoms: C5_9  and  N4_10 
REMARK       I    between atoms: N4_10  and  C6_12 
REMARK    6  A    between atoms: C6_12  and  C7_14 
REMARK    7  A    between atoms: C10_17  and  C11_18 
REMARK    8  A    between atoms: C11_18  and  N5_19 
ROOT
HETATM    1  N4  UNL     1     -15.046  44.315  47.306  1.00  0.00    -0.361 N 
ATOM      2  H4  UNL     1     -14.229  44.903  47.473  1.00  0.00     0.162 HD
HETATM    3  C6  UNL     1     -14.971  43.377  46.254  1.00  0.00     0.221 C 
HETATM    4  O1  UNL     1     -15.923  42.619  45.983  1.00  0.00    -0.273 OA
ENDROOT
BRANCH   3   5
HETATM    5  C7  UNL     1     -13.725  43.292  45.451  1.00  0.00     0.078 C 
HETATM    6  C8  UNL     1     -12.663  42.508  46.176  1.00  0.00     0.014 C 
HETATM    7  C9  UNL     1     -12.698  41.045  45.902  1.00  0.00     0.007 C 
HETATM    8  C10 UNL     1     -12.897  40.690  44.466  1.00  0.00     0.003 C 
HETATM    9  C13 UNL     1     -12.795  41.961  43.631  1.00  0.00     0.007 C 
HETATM   10  C14 UNL     1     -13.965  42.836  44.052  1.00  0.00     0.014 C 
BRANCH   8  11
HETATM   11  C11 UNL     1     -11.939  39.664  43.944  1.00  0.00     0.126 C 
BRANCH  11  12
HETATM   12  N5  UNL     1     -12.552  39.021  42.804  1.00  0.00    -0.367 N 
HETATM   13  C12 UNL     1     -11.827  38.543  41.856  1.00  0.00     0.196 C 
HETATM   14  N6  UNL     1     -10.419  38.657  41.952  1.00  0.00    -0.067 NA
HETATM   15  N7  UNL     1     -12.376  37.906  40.717  1.00  0.00    -0.067 NA
ATOM     16  H5  UNL     1     -13.567  38.947  42.750  1.00  0.00     0.161 HD
ENDBRANCH  11  12
ENDBRANCH   8  11
ENDBRANCH   3   5
BRANCH   1  17
HETATM   17  C5  UNL     1     -16.192  44.507  48.161  1.00  0.00     0.122 C 
BRANCH  17  18
HETATM   18  C4  UNL     1     -17.193  45.378  47.472  1.00  0.00     0.021 C 
BRANCH  18  19
HETATM   19  C3  UNL     1     -18.617  44.914  47.691  1.00  0.00     0.021 C 
BRANCH  19  20
HETATM   20  C2  UNL     1     -19.074  44.014  46.567  1.00  0.00     0.122 C 
BRANCH  20  21
HETATM   21  N3  UNL     1     -18.763  42.647  46.883  1.00  0.00    -0.367 N 
HETATM   22  C1  UNL     1     -19.669  41.867  47.324  1.00  0.00     0.196 C 
HETATM   23  N1  UNL     1     -20.985  42.336  47.507  1.00  0.00    -0.067 NA
HETATM   24  N2  UNL     1     -19.358  40.527  47.631  1.00  0.00    -0.067 NA
ATOM     25  H3  UNL     1     -17.813  42.300  46.752  1.00  0.00     0.161 HD
ENDBRANCH  20  21
ENDBRANCH  19  20
ENDBRANCH  18  19
ENDBRANCH  17  18
ENDBRANCH   1  17
TORSDOF 8
ENDMDL
MODEL 3
REMARK VINA RESULT: -8.151332386      2.979     10.582
REMARK  8 active torsions:
REMARK  status: ('A' for Active; 'I' for Inactive)
REMARK    1  A    between atoms: N3_4  and  C2_6 
REMARK    2  A    between atoms: C2_6  and  C3_7 
REMARK    3  A    between atoms: C3_7  and  C4_8 
REMARK    4  A    between atoms: C4_8  and  C5_9 
REMARK    5  A    between atoms: C5_9  and  N4_10 
REMARK       I    between atoms: N4_10  and  C6_12 
REMARK    6  A    between atoms: C6_12  and  C7_14 
REMARK    7  A    between atoms: C10_17  and  C11_18 
REMARK    8  A    between atoms: C11_18  and  N5_19 
ROOT
HETATM    1  N4  UNL     1     -12.592  39.842  42.003  1.00  0.00    -0.361 N 
ATOM      2  H4  UNL     1     -12.107  40.592  41.510  1.00  0.00     0.162 HD
HETATM    3  C6  UNL     1     -12.821  40.011  43.386  1.00  0.00     0.221 C 
HETATM    4  O1  UNL     1     -13.407  39.144  44.064  1.00  0.00    -0.273 OA
ENDROOT
BRANCH   3   5
HETATM    5  C7  UNL     1     -12.350  41.253  44.048  1.00  0.00     0.078 C 
HETATM    6  C8  UNL     1     -13.047  42.466  43.489  1.00  0.00     0.014 C 
HETATM    7  C9  UNL     1     -14.313  42.813  44.192  1.00  0.00     0.007 C 
HETATM    8  C10 UNL     1     -14.234  42.742  45.680  1.00  0.00     0.003 C 
HETATM    9  C13 UNL     1     -12.778  42.532  46.081  1.00  0.00     0.007 C 
HETATM   10  C14 UNL     1     -12.385  41.167  45.536  1.00  0.00     0.014 C 
BRANCH   8  11
HETATM   11  C11 UNL     1     -14.785  43.942  46.387  1.00  0.00     0.126 C 
BRANCH  11  12
HETATM   12  N5  UNL     1     -15.784  43.485  47.327  1.00  0.00    -0.367 N 
HETATM   13  C12 UNL     1     -16.801  44.221  47.608  1.00  0.00     0.196 C 
HETATM   14  N6  UNL     1     -16.922  45.483  46.979  1.00  0.00    -0.067 NA
HETATM   15  N7  UNL     1     -17.807  43.822  48.521  1.00  0.00    -0.067 NA
ATOM     16  H5  UNL     1     -15.682  42.573  47.770  1.00  0.00     0.161 HD
ENDBRANCH  11  12
ENDBRANCH   8  11
ENDBRANCH   3   5
BRANCH   1  17
HETATM   17  C5  UNL     1     -12.991  38.689  41.234  1.00  0.00     0.122 C 
BRANCH  17  18
HETATM   18  C4  UNL     1     -11.780  37.910  40.833  1.00  0.00     0.021 C 
BRANCH  18  19
HETATM   19  C3  UNL     1     -11.554  37.914  39.336  1.00  0.00     0.021 C 
BRANCH  19  20
HETATM   20  C2  UNL     1     -12.362  36.830  38.662  1.00  0.00     0.122 C 
BRANCH  20  21
HETATM   21  N3  UNL     1     -11.531  36.107  37.740  1.00  0.00    -0.367 N 
HETATM   22  C1  UNL     1     -11.663  36.279  36.484  1.00  0.00     0.196 C 
HETATM   23  N1  UNL     1     -12.624  37.181  35.987  1.00  0.00    -0.067 NA
HETATM   24  N2  UNL     1     -10.844  35.567  35.584  1.00  0.00    -0.067 NA
ATOM     25  H3  UNL     1     -10.832  35.453  38.092  1.00  0.00     0.161 HD
ENDBRANCH  20  21
ENDBRANCH  19  20
ENDBRANCH  18  19
ENDBRANCH  17  18
ENDBRANCH   1  17
TORSDOF 8
ENDMDL
MODEL 4
REMARK VINA RESULT: -8.095450598      1.262      1.530
REMARK  8 active torsions:
REMARK  status: ('A' for Active; 'I' for Inactive)
REMARK    1  A    between atoms: N3_4  and  C2_6 
REMARK    2  A    between atoms: C2_6  and  C3_7 
REMARK    3  A    between atoms: C3_7  and  C4_8 
REMARK    4  A    between atoms: C4_8  and  C5_9 
REMARK    5  A    between atoms: C5_9  and  N4_10 
REMARK       I    between atoms: N4_10  and  C6_12 
REMARK    6  A    between atoms: C6_12  and  C7_14 
REMARK    7  A    between atoms: C10_17  and  C11_18 
REMARK    8  A    between atoms: C11_18  and  N5_19 
ROOT
HETATM    1  N4  UNL     1     -14.810  43.944  46.538  1.00  0.00    -0.361 N 
ATOM      2  H4  UNL     1     -14.372  44.746  46.084  1.00  0.00     0.162 HD
HETATM    3  C6  UNL     1     -14.325  42.661  46.205  1.00  0.00     0.221 C 
HETATM    4  O1  UNL     1     -14.803  41.628  46.714  1.00  0.00    -0.273 OA
ENDROOT
BRANCH   3   5
HETATM    5  C7  UNL     1     -13.220  42.540  45.222  1.00  0.00     0.078 C 
HETATM    6  C8  UNL     1     -12.414  41.291  45.461  1.00  0.00     0.014 C 
HETATM    7  C9  UNL     1     -12.921  40.095  44.732  1.00  0.00     0.007 C 
HETATM    8  C10 UNL     1     -13.307  40.354  43.314  1.00  0.00     0.003 C 
HETATM    9  C13 UNL     1     -12.864  41.763  42.937  1.00  0.00     0.007 C 
HETATM   10  C14 UNL     1     -13.675  42.707  43.812  1.00  0.00     0.014 C 
BRANCH   8  11
HETATM   11  C11 UNL     1     -12.751  39.369  42.331  1.00  0.00     0.126 C 
BRANCH  11  12
HETATM   12  N5  UNL     1     -11.686  38.641  42.985  1.00  0.00    -0.367 N 
HETATM   13  C12 UNL     1     -10.672  38.226  42.313  1.00  0.00     0.196 C 
HETATM   14  N6  UNL     1     -10.617  38.496  40.925  1.00  0.00    -0.067 NA
HETATM   15  N7  UNL     1      -9.604  37.508  42.903  1.00  0.00    -0.067 NA
ATOM     16  H5  UNL     1     -11.741  38.456  43.986  1.00  0.00     0.161 HD
ENDBRANCH  11  12
ENDBRANCH   8  11
ENDBRANCH   3   5
BRANCH   1  17
HETATM   17  C5  UNL     1     -15.878  44.208  47.471  1.00  0.00     0.122 C 
BRANCH  17  18
HETATM   18  C4  UNL     1     -17.195  43.975  46.804  1.00  0.00     0.021 C 
BRANCH  18  19
HETATM   19  C3  UNL     1     -18.351  43.974  47.782  1.00  0.00     0.021 C 
BRANCH  19  20
HETATM   20  C2  UNL     1     -18.735  45.383  48.170  1.00  0.00     0.122 C 
BRANCH  20  21
HETATM   21  N3  UNL     1     -18.525  45.574  49.578  1.00  0.00    -0.367 N 
HETATM   22  C1  UNL     1     -19.516  45.580  50.381  1.00  0.00     0.196 C 
HETATM   23  N1  UNL     1     -20.826  45.399  49.895  1.00  0.00    -0.067 NA
HETATM   24  N2  UNL     1     -19.304  45.766  51.762  1.00  0.00    -0.067 NA
ATOM     25  H3  UNL     1     -17.580  45.704  49.938  1.00  0.00     0.161 HD
ENDBRANCH  20  21
ENDBRANCH  19  20
ENDBRANCH  18  19
ENDBRANCH  17  18
ENDBRANCH   1  17
TORSDOF 8
ENDMDL
MODEL 5
REMARK VINA RESULT: -8.051977831      2.837      8.936
REMARK  8 active torsions:
REMARK  status: ('A' for Active; 'I' for Inactive)
REMARK    1  A    between atoms: N3_4  and  C2_6 
REMARK    2  A    between atoms: C2_6  and  C3_7 
REMARK    3  A    between atoms: C3_7  and  C4_8 
REMARK    4  A    between atoms: C4_8  and  C5_9 
REMARK    5  A    between atoms: C5_9  and  N4_10 
REMARK       I    between atoms: N4_10  and  C6_12 
REMARK    6  A    between atoms: C6_12  and  C7_14 
REMARK    7  A    between atoms: C10_17  and  C11_18 
REMARK    8  A    between atoms: C11_18  and  N5_19 
ROOT
HETATM    1  N4  UNL     1     -12.763  39.842  41.939  1.00  0.00    -0.361 N 
ATOM      2  H4  UNL     1     -12.305  40.596  41.426  1.00  0.00     0.162 HD
HETATM    3  C6  UNL     1     -12.912  40.000  43.334  1.00  0.00     0.221 C 
HETATM    4  O1  UNL     1     -13.461  39.128  44.037  1.00  0.00    -0.273 OA
ENDROOT
BRANCH   3   5
HETATM    5  C7  UNL     1     -12.400  41.235  43.979  1.00  0.00     0.078 C 
HETATM    6  C8  UNL     1     -13.091  42.458  43.435  1.00  0.00     0.014 C 
HETATM    7  C9  UNL     1     -14.331  42.830  44.172  1.00  0.00     0.007 C 
HETATM    8  C10 UNL     1     -14.210  42.762  45.658  1.00  0.00     0.003 C 
HETATM    9  C13 UNL     1     -12.748  42.527  46.019  1.00  0.00     0.007 C 
HETATM   10  C14 UNL     1     -12.395  41.154  45.467  1.00  0.00     0.014 C 
BRANCH   8  11
HETATM   11  C11 UNL     1     -14.720  43.974  46.376  1.00  0.00     0.126 C 
BRANCH  11  12
HETATM   12  N5  UNL     1     -15.654  43.533  47.388  1.00  0.00    -0.367 N 
HETATM   13  C12 UNL     1     -16.687  44.241  47.676  1.00  0.00     0.196 C 
HETATM   14  N6  UNL     1     -16.892  45.459  46.985  1.00  0.00    -0.067 NA
HETATM   15  N7  UNL     1     -17.631  43.856  48.658  1.00  0.00    -0.067 NA
ATOM     16  H5  UNL     1     -15.492  42.652  47.876  1.00  0.00     0.161 HD
ENDBRANCH  11  12
ENDBRANCH   8  11
ENDBRANCH   3   5
BRANCH   1  17
HETATM   17  C5  UNL     1     -13.209  38.697  41.185  1.00  0.00     0.122 C 
BRANCH  17  18
HETATM   18  C4  UNL     1     -12.219  38.389  40.108  1.00  0.00     0.021 C 
BRANCH  18  19
HETATM   19  C3  UNL     1     -12.774  38.630  38.720  1.00  0.00     0.021 C 
BRANCH  19  20
HETATM   20  C2  UNL     1     -12.442  40.022  38.236  1.00  0.00     0.122 C 
BRANCH  20  21
HETATM   21  N3  UNL     1     -13.654  40.755  37.997  1.00  0.00    -0.367 N 
HETATM   22  C1  UNL     1     -13.954  41.757  38.727  1.00  0.00     0.196 C 
HETATM   23  N1  UNL     1     -13.099  42.155  39.774  1.00  0.00    -0.067 NA
HETATM   24  N2  UNL     1     -15.144  42.473  38.487  1.00  0.00    -0.067 NA
ATOM     25  H3  UNL     1     -14.278  40.474  37.241  1.00  0.00     0.161 HD
ENDBRANCH  20  21
ENDBRANCH  19  20
ENDBRANCH  18  19
ENDBRANCH  17  18
ENDBRANCH   1  17
TORSDOF 8
ENDMDL
