MODEL 1
REMARK VINA RESULT: -6.412649742      0.000      0.000
REMARK  6 active torsions:
REMARK  status: ('A' for Active; 'I' for Inactive)
REMARK    1  A    between atoms: C2_2  and  O1_3 
REMARK    2  A    between atoms: C2_2  and  C3_5 
REMARK    3  A    between atoms: C2_2  and  C10_17 
REMARK    4  A    between atoms: C3_5  and  N1_6 
REMARK    5  A    between atoms: C6_9  and  C7_10 
REMARK    6  A    between atoms: C7_10  and  N2_11 
ROOT
HETATM    1  N1  UNL     1      79.546   5.900  30.929  1.00  0.00     0.091 N 
HETATM    2  C4  UNL     1      78.907   5.115  31.898  1.00  0.00     0.273 C 
HETATM    3  C5  UNL     1      79.742   4.232  32.751  1.00  0.00     0.036 C 
HETATM    4  C6  UNL     1      81.180   4.533  32.867  1.00  0.00     0.014 C 
HETATM    5  C8  UNL     1      81.524   5.863  32.228  1.00  0.00     0.036 C 
HETATM    6  C9  UNL     1      80.965   5.787  30.825  1.00  0.00     0.273 C 
ENDROOT
BRANCH   1   7
HETATM    7  C3  UNL     1      78.991   5.932  29.619  1.00  0.00     0.310 C 
BRANCH   7   8
HETATM    8  C2  UNL     1      78.016   7.046  29.352  1.00  0.00     0.084 C 
HETATM    9  C1  UNL     1      78.395   8.295  30.122  1.00  0.00     0.048 C 
BRANCH   8  10
HETATM   10  O1  UNL     1      76.706   6.733  29.701  1.00  0.00    -0.388 OA
ATOM     11  H1  UNL     1      76.262   6.462  28.905  1.00  0.00     0.210 HD
ENDBRANCH   8  10
BRANCH   8  12
HETATM   12  C10 UNL     1      78.142   7.397  27.885  1.00  0.00     0.021 C 
HETATM   13  C11 UNL     1      78.364   6.168  27.033  1.00  0.00     0.007 C 
HETATM   14  C12 UNL     1      79.076   6.793  25.823  1.00  0.00     0.000 C 
HETATM   15  C13 UNL     1      80.097   7.645  26.544  1.00  0.00     0.000 C 
HETATM   16  C14 UNL     1      79.220   8.367  27.568  1.00  0.00     0.007 C 
ENDBRANCH   8  12
ENDBRANCH   7   8
ENDBRANCH   1   7
BRANCH   4  17
HETATM   17  C7  UNL     1      81.744   4.563  34.261  1.00  0.00     0.234 C 
BRANCH  17  18
HETATM   18  N2  UNL     1      81.121   5.487  35.139  1.00  0.00    -0.079 N 
ATOM     19  H23 UNL     1      81.129   6.421  34.731  1.00  0.00     0.274 HD
ATOM     20  H22 UNL     1      80.115   5.317  35.173  1.00  0.00     0.274 HD
ATOM     21  H21 UNL     1      81.506   5.511  36.083  1.00  0.00     0.274 HD
ENDBRANCH  17  18
ENDBRANCH   4  17
TORSDOF 6
ENDMDL
MODEL 2
REMARK VINA RESULT: -6.404718597      2.200      6.385
REMARK  6 active torsions:
REMARK  status: ('A' for Active; 'I' for Inactive)
REMARK    1  A    between atoms: C2_2  and  O1_3 
REMARK    2  A    between atoms: C2_2  and  C3_5 
REMARK    3  A    between atoms: C2_2  and  C10_17 
REMARK    4  A    between atoms: C3_5  and  N1_6 
REMARK    5  A    between atoms: C6_9  and  C7_10 
REMARK    6  A    between atoms: C7_10  and  N2_11 
ROOT
HETATM    1  N1  UNL     1      79.149   5.678  28.756  1.00  0.00     0.091 N 
HETATM    2  C4  UNL     1      78.401   6.781  28.325  1.00  0.00     0.273 C 
HETATM    3  C5  UNL     1      78.305   7.041  26.866  1.00  0.00     0.036 C 
HETATM    4  C6  UNL     1      78.595   5.931  25.941  1.00  0.00     0.014 C 
HETATM    5  C8  UNL     1      78.749   4.617  26.678  1.00  0.00     0.036 C 
HETATM    6  C9  UNL     1      79.780   4.882  27.753  1.00  0.00     0.273 C 
ENDROOT
BRANCH   1   7
HETATM    7  C3  UNL     1      80.061   5.865  29.832  1.00  0.00     0.310 C 
BRANCH   7   8
HETATM    8  C2  UNL     1      79.485   5.689  31.210  1.00  0.00     0.084 C 
HETATM    9  C1  UNL     1      78.340   4.696  31.197  1.00  0.00     0.048 C 
BRANCH   8  10
HETATM   10  O1  UNL     1      78.996   6.868  31.764  1.00  0.00    -0.388 OA
ATOM     11  H1  UNL     1      79.738   7.327  32.142  1.00  0.00     0.210 HD
ENDBRANCH   8  10
BRANCH   8  12
HETATM   12  C10 UNL     1      80.572   5.071  32.065  1.00  0.00     0.021 C 
HETATM   13  C11 UNL     1      80.050   3.910  32.881  1.00  0.00     0.007 C 
HETATM   14  C12 UNL     1      81.056   3.912  34.042  1.00  0.00     0.000 C 
HETATM   15  C13 UNL     1      81.051   5.387  34.378  1.00  0.00     0.000 C 
HETATM   16  C14 UNL     1      81.241   6.013  32.996  1.00  0.00     0.007 C 
ENDBRANCH   8  12
ENDBRANCH   7   8
ENDBRANCH   1   7
BRANCH   4  17
HETATM   17  C7  UNL     1      77.591   5.699  24.845  1.00  0.00     0.234 C 
BRANCH  17  18
HETATM   18  N2  UNL     1      76.843   4.500  24.963  1.00  0.00    -0.079 N 
ATOM     19  H23 UNL     1      76.724   4.253  25.945  1.00  0.00     0.274 HD
ATOM     20  H22 UNL     1      75.870   4.665  24.703  1.00  0.00     0.274 HD
ATOM     21  H21 UNL     1      77.217   3.706  24.442  1.00  0.00     0.274 HD
ENDBRANCH  17  18
ENDBRANCH   4  17
TORSDOF 6
ENDMDL
MODEL 3
REMARK VINA RESULT: -6.194324863      2.013      6.160
REMARK  6 active torsions:
REMARK  status: ('A' for Active; 'I' for Inactive)
REMARK    1  A    between atoms: C2_2  and  O1_3 
REMARK    2  A    between atoms: C2_2  and  C3_5 
REMARK    3  A    between atoms: C2_2  and  C10_17 
REMARK    4  A    between atoms: C3_5  and  N1_6 
REMARK    5  A    between atoms: C6_9  and  C7_10 
REMARK    6  A    between atoms: C7_10  and  N2_11 
ROOT
HETATM    1  N1  UNL     1      79.132   6.087  29.617  1.00  0.00     0.091 N 
HETATM    2  C4  UNL     1      78.244   7.082  29.189  1.00  0.00     0.273 C 
HETATM    3  C5  UNL     1      78.256   7.467  27.755  1.00  0.00     0.036 C 
HETATM    4  C6  UNL     1      78.838   6.522  26.785  1.00  0.00     0.014 C 
HETATM    5  C8  UNL     1      79.152   5.187  27.428  1.00  0.00     0.036 C 
HETATM    6  C9  UNL     1      79.999   5.516  28.637  1.00  0.00     0.273 C 
ENDROOT
BRANCH   1   7
HETATM    7  C3  UNL     1      79.877   6.319  30.807  1.00  0.00     0.310 C 
BRANCH   7   8
HETATM    8  C2  UNL     1      79.456   5.512  32.005  1.00  0.00     0.084 C 
HETATM    9  C1  UNL     1      78.347   4.544  31.645  1.00  0.00     0.048 C 
BRANCH   8  10
HETATM   10  O1  UNL     1      78.994   6.288  33.064  1.00  0.00    -0.388 OA
ATOM     11  H1  UNL     1      79.698   6.337  33.701  1.00  0.00     0.210 HD
ENDBRANCH   8  10
BRANCH   8  12
HETATM   12  C10 UNL     1      80.647   4.664  32.402  1.00  0.00     0.021 C 
HETATM   13  C11 UNL     1      80.739   4.499  33.902  1.00  0.00     0.007 C 
HETATM   14  C12 UNL     1      82.242   4.225  34.060  1.00  0.00     0.000 C 
HETATM   15  C13 UNL     1      82.794   5.334  33.192  1.00  0.00     0.000 C 
HETATM   16  C14 UNL     1      81.957   5.169  31.922  1.00  0.00     0.007 C 
ENDBRANCH   8  12
ENDBRANCH   7   8
ENDBRANCH   1   7
BRANCH   4  17
HETATM   17  C7  UNL     1      78.013   6.232  25.561  1.00  0.00     0.234 C 
BRANCH  17  18
HETATM   18  N2  UNL     1      77.149   5.113  25.673  1.00  0.00    -0.079 N 
ATOM     19  H23 UNL     1      77.658   4.252  25.474  1.00  0.00     0.274 HD
ATOM     20  H22 UNL     1      76.905   4.953  26.651  1.00  0.00     0.274 HD
ATOM     21  H21 UNL     1      76.304   5.162  25.103  1.00  0.00     0.274 HD
ENDBRANCH  17  18
ENDBRANCH   4  17
TORSDOF 6
ENDMDL
MODEL 4
REMARK VINA RESULT: -5.814139003      2.592      6.553
REMARK  6 active torsions:
REMARK  status: ('A' for Active; 'I' for Inactive)
REMARK    1  A    between atoms: C2_2  and  O1_3 
REMARK    2  A    between atoms: C2_2  and  C3_5 
REMARK    3  A    between atoms: C2_2  and  C10_17 
REMARK    4  A    between atoms: C3_5  and  N1_6 
REMARK    5  A    between atoms: C6_9  and  C7_10 
REMARK    6  A    between atoms: C7_10  and  N2_11 
ROOT
HETATM    1  N1  UNL     1      79.474   5.882  28.436  1.00  0.00     0.091 N 
HETATM    2  C4  UNL     1      79.635   4.799  27.563  1.00  0.00     0.273 C 
HETATM    3  C5  UNL     1      78.642   4.619  26.474  1.00  0.00     0.036 C 
HETATM    4  C6  UNL     1      77.825   5.780  26.077  1.00  0.00     0.014 C 
HETATM    5  C8  UNL     1      78.307   7.053  26.741  1.00  0.00     0.036 C 
HETATM    6  C9  UNL     1      78.352   6.737  28.220  1.00  0.00     0.273 C 
ENDROOT
BRANCH   1   7
HETATM    7  C3  UNL     1      79.606   5.643  29.833  1.00  0.00     0.310 C 
BRANCH   7   8
HETATM    8  C2  UNL     1      80.972   5.897  30.409  1.00  0.00     0.084 C 
HETATM    9  C1  UNL     1      81.415   7.323  30.148  1.00  0.00     0.048 C 
BRANCH   8  10
HETATM   10  O1  UNL     1      81.958   5.062  29.893  1.00  0.00    -0.388 OA
ATOM     11  H1  UNL     1      81.522   4.428  29.334  1.00  0.00     0.210 HD
ENDBRANCH   8  10
BRANCH   8  12
HETATM   12  C10 UNL     1      80.845   5.761  31.912  1.00  0.00     0.021 C 
HETATM   13  C11 UNL     1      82.070   5.116  32.520  1.00  0.00     0.007 C 
HETATM   14  C12 UNL     1      81.466   4.525  33.803  1.00  0.00     0.000 C 
HETATM   15  C13 UNL     1      80.235   3.865  33.221  1.00  0.00     0.000 C 
HETATM   16  C14 UNL     1      79.658   4.997  32.370  1.00  0.00     0.007 C 
ENDBRANCH   8  12
ENDBRANCH   7   8
ENDBRANCH   1   7
BRANCH   4  17
HETATM   17  C7  UNL     1      77.746   6.064  24.602  1.00  0.00     0.234 C 
BRANCH  17  18
HETATM   18  N2  UNL     1      76.686   5.410  23.922  1.00  0.00    -0.079 N 
ATOM     19  H23 UNL     1      76.454   4.534  24.390  1.00  0.00     0.274 HD
ATOM     20  H22 UNL     1      75.812   5.920  24.059  1.00  0.00     0.274 HD
ATOM     21  H21 UNL     1      76.847   5.248  22.928  1.00  0.00     0.274 HD
ENDBRANCH  17  18
ENDBRANCH   4  17
TORSDOF 6
ENDMDL
MODEL 5
REMARK VINA RESULT: -5.788691939      1.898      2.394
REMARK  6 active torsions:
REMARK  status: ('A' for Active; 'I' for Inactive)
REMARK    1  A    between atoms: C2_2  and  O1_3 
REMARK    2  A    between atoms: C2_2  and  C3_5 
REMARK    3  A    between atoms: C2_2  and  C10_17 
REMARK    4  A    between atoms: C3_5  and  N1_6 
REMARK    5  A    between atoms: C6_9  and  C7_10 
REMARK    6  A    between atoms: C7_10  and  N2_11 
ROOT
HETATM    1  N1  UNL     1      80.338   6.141  29.942  1.00  0.00     0.091 N 
HETATM    2  C4  UNL     1      80.643   5.873  31.282  1.00  0.00     0.273 C 
HETATM    3  C5  UNL     1      81.956   5.255  31.594  1.00  0.00     0.036 C 
HETATM    4  C6  UNL     1      83.032   5.361  30.592  1.00  0.00     0.014 C 
HETATM    5  C8  UNL     1      82.650   6.294  29.463  1.00  0.00     0.036 C 
HETATM    6  C9  UNL     1      81.315   5.789  28.963  1.00  0.00     0.273 C 
ENDROOT
BRANCH   1   7
HETATM    7  C3  UNL     1      79.052   5.769  29.459  1.00  0.00     0.310 C 
BRANCH   7   8
HETATM    8  C2  UNL     1      78.066   6.894  29.300  1.00  0.00     0.084 C 
HETATM    9  C1  UNL     1      78.546   8.141  30.014  1.00  0.00     0.048 C 
BRANCH   8  10
HETATM   10  O1  UNL     1      76.801   6.599  29.799  1.00  0.00    -0.388 OA
ATOM     11  H1  UNL     1      76.338   7.424  29.891  1.00  0.00     0.210 HD
ENDBRANCH   8  10
BRANCH   8  12
HETATM   12  C10 UNL     1      78.026   7.237  27.826  1.00  0.00     0.021 C 
HETATM   13  C11 UNL     1      78.236   6.015  26.961  1.00  0.00     0.007 C 
HETATM   14  C12 UNL     1      78.787   6.668  25.685  1.00  0.00     0.000 C 
HETATM   15  C13 UNL     1      79.822   7.586  26.297  1.00  0.00     0.000 C 
HETATM   16  C14 UNL     1      79.008   8.265  27.400  1.00  0.00     0.007 C 
ENDBRANCH   8  12
ENDBRANCH   7   8
ENDBRANCH   1   7
BRANCH   4  17
HETATM   17  C7  UNL     1      84.372   5.820  31.101  1.00  0.00     0.234 C 
BRANCH  17  18
HETATM   18  N2  UNL     1      85.429   5.739  30.159  1.00  0.00    -0.079 N 
ATOM     19  H23 UNL     1      85.351   6.493  29.476  1.00  0.00     0.274 HD
ATOM     20  H22 UNL     1      86.314   5.991  30.600  1.00  0.00     0.274 HD
ATOM     21  H21 UNL     1      85.516   4.841  29.684  1.00  0.00     0.274 HD
ENDBRANCH  17  18
ENDBRANCH   4  17
TORSDOF 6
ENDMDL
