MODEL 1
REMARK VINA RESULT: -6.464751053      0.000      0.000
REMARK  2 active torsions:
REMARK  status: ('A' for Active; 'I' for Inactive)
REMARK    1  A    between atoms: C3_5  and  N2_6 
REMARK    2  A    between atoms: N2_6  and  C4_8 
ROOT
HETATM    1  N2  UNL     1      25.194   6.824  14.511  1.00  0.00    -0.195 N 
ATOM      2  H2  UNL     1      25.083   7.777  14.164  1.00  0.00     0.180 HD
ENDROOT
BRANCH   1   3
HETATM    3  C3  UNL     1      25.070   6.543  15.763  1.00  0.00     0.679 A 
HETATM    4  N1  UNL     1      24.056   5.837  16.284  1.00  0.00    -0.202 N 
HETATM    5  C2  UNL     1      23.977   5.573  17.601  1.00  0.00     0.107 A 
ATOM      6  H1  UNL     1      23.324   5.490  15.665  1.00  0.00     0.183 HD
HETATM    7  C1  UNL     1      24.974   6.047  18.427  1.00  0.00     0.035 A 
HETATM    8  C11 UNL     1      26.025   6.774  17.913  1.00  0.00     0.107 A 
HETATM    9  N3  UNL     1      26.032   6.995  16.584  1.00  0.00    -0.202 N 
ATOM     10  H3  UNL     1      26.802   7.531  16.184  1.00  0.00     0.183 HD
ENDBRANCH   1   3
BRANCH   1  11
HETATM   11  C4  UNL     1      25.499   5.721  13.617  1.00  0.00     0.281 A 
HETATM   12  O1  UNL     1      24.950   4.492  13.958  1.00  0.00    -0.320 OA
HETATM   13  C5  UNL     1      24.093   4.531  12.861  1.00  0.00     0.082 A 
HETATM   14  C6  UNL     1      23.083   3.945  12.096  1.00  0.00     0.037 A 
HETATM   15  C10 UNL     1      24.587   5.743  12.467  1.00  0.00     0.024 A 
HETATM   16  C7  UNL     1      22.565   4.531  10.964  1.00  0.00     0.003 A 
HETATM   17  C8  UNL     1      23.093   5.756  10.601  1.00  0.00     0.001 A 
HETATM   18  C9  UNL     1      24.081   6.368  11.320  1.00  0.00     0.014 A 
ENDBRANCH   1  11
TORSDOF 2
ENDMDL
MODEL 2
REMARK VINA RESULT: -6.435890799      1.564      6.016
REMARK  2 active torsions:
REMARK  status: ('A' for Active; 'I' for Inactive)
REMARK    1  A    between atoms: C3_5  and  N2_6 
REMARK    2  A    between atoms: N2_6  and  C4_8 
ROOT
HETATM    1  N2  UNL     1      25.431   6.358  15.391  1.00  0.00    -0.195 N 
ATOM      2  H2  UNL     1      26.406   6.649  15.468  1.00  0.00     0.180 HD
ENDROOT
BRANCH   1   3
HETATM    3  C3  UNL     1      24.867   6.185  14.246  1.00  0.00     0.679 A 
HETATM    4  N1  UNL     1      24.590   7.170  13.379  1.00  0.00    -0.202 N 
HETATM    5  C2  UNL     1      23.998   6.930  12.196  1.00  0.00     0.107 A 
ATOM      6  H1  UNL     1      24.836   8.129  13.626  1.00  0.00     0.183 HD
HETATM    7  C1  UNL     1      23.673   5.630  11.875  1.00  0.00     0.035 A 
HETATM    8  C11 UNL     1      23.948   4.602  12.748  1.00  0.00     0.107 A 
HETATM    9  N3  UNL     1      24.542   4.924  13.914  1.00  0.00    -0.202 N 
ATOM     10  H3  UNL     1      24.755   4.176  14.574  1.00  0.00     0.183 HD
ENDBRANCH   1   3
BRANCH   1  11
HETATM   11  C4  UNL     1      24.614   6.120  16.568  1.00  0.00     0.281 A 
HETATM   12  O1  UNL     1      24.742   4.868  17.154  1.00  0.00    -0.320 OA
HETATM   13  C5  UNL     1      25.365   5.417  18.272  1.00  0.00     0.082 A 
HETATM   14  C6  UNL     1      25.964   5.255  19.524  1.00  0.00     0.037 A 
HETATM   15  C10 UNL     1      25.273   6.679  17.755  1.00  0.00     0.024 A 
HETATM   16  C7  UNL     1      26.462   6.307  20.258  1.00  0.00     0.003 A 
HETATM   17  C8  UNL     1      26.348   7.566  19.698  1.00  0.00     0.001 A 
HETATM   18  C9  UNL     1      25.771   7.771  18.476  1.00  0.00     0.014 A 
ENDBRANCH   1  11
TORSDOF 2
ENDMDL
MODEL 3
REMARK VINA RESULT: -6.433718170      1.567      5.958
REMARK  2 active torsions:
REMARK  status: ('A' for Active; 'I' for Inactive)
REMARK    1  A    between atoms: C3_5  and  N2_6 
REMARK    2  A    between atoms: N2_6  and  C4_8 
ROOT
HETATM    1  N2  UNL     1      25.371   6.396  15.383  1.00  0.00    -0.195 N 
ATOM      2  H2  UNL     1      26.310   6.790  15.433  1.00  0.00     0.180 HD
ENDROOT
BRANCH   1   3
HETATM    3  C3  UNL     1      24.827   6.091  14.255  1.00  0.00     0.679 A 
HETATM    4  N1  UNL     1      24.450   4.852  13.905  1.00  0.00    -0.202 N 
HETATM    5  C2  UNL     1      23.887   4.591  12.712  1.00  0.00     0.107 A 
ATOM      6  H1  UNL     1      24.596   4.086  14.562  1.00  0.00     0.183 HD
HETATM    7  C1  UNL     1      23.695   5.635  11.833  1.00  0.00     0.035 A 
HETATM    8  C11 UNL     1      24.073   6.916  12.171  1.00  0.00     0.107 A 
HETATM    9  N3  UNL     1      24.631   7.095  13.384  1.00  0.00    -0.202 N 
ATOM     10  H3  UNL     1      24.917   8.036  13.654  1.00  0.00     0.183 HD
ENDBRANCH   1   3
BRANCH   1  11
HETATM   11  C4  UNL     1      24.584   6.152  16.579  1.00  0.00     0.281 A 
HETATM   12  O1  UNL     1      24.716   4.892  17.147  1.00  0.00    -0.320 OA
HETATM   13  C5  UNL     1      25.374   5.423  18.254  1.00  0.00     0.082 A 
HETATM   14  C6  UNL     1      26.004   5.242  19.487  1.00  0.00     0.037 A 
HETATM   15  C10 UNL     1      25.279   6.691  17.754  1.00  0.00     0.024 A 
HETATM   16  C7  UNL     1      26.531   6.281  20.219  1.00  0.00     0.003 A 
HETATM   17  C8  UNL     1      26.414   7.547  19.676  1.00  0.00     0.001 A 
HETATM   18  C9  UNL     1      25.806   7.771  18.472  1.00  0.00     0.014 A 
ENDBRANCH   1  11
TORSDOF 2
ENDMDL
MODEL 4
REMARK VINA RESULT: -6.344965137      1.741      6.119
REMARK  2 active torsions:
REMARK  status: ('A' for Active; 'I' for Inactive)
REMARK    1  A    between atoms: C3_5  and  N2_6 
REMARK    2  A    between atoms: N2_6  and  C4_8 
ROOT
HETATM    1  N2  UNL     1      23.709   6.737  16.402  1.00  0.00    -0.195 N 
ATOM      2  H2  UNL     1      23.469   7.725  16.480  1.00  0.00     0.180 HD
ENDROOT
BRANCH   1   3
HETATM    3  C3  UNL     1      23.944   6.187  15.260  1.00  0.00     0.679 A 
HETATM    4  N1  UNL     1      25.170   5.935  14.778  1.00  0.00    -0.202 N 
HETATM    5  C2  UNL     1      25.356   5.359  13.577  1.00  0.00     0.107 A 
ATOM      6  H1  UNL     1      25.984   6.188  15.338  1.00  0.00     0.183 HD
HETATM    7  C1  UNL     1      24.248   5.021  12.831  1.00  0.00     0.035 A 
HETATM    8  C11 UNL     1      22.979   5.271  13.306  1.00  0.00     0.107 A 
HETATM    9  N3  UNL     1      22.876   5.850  14.517  1.00  0.00    -0.202 N 
ATOM     10  H3  UNL     1      21.945   6.042  14.888  1.00  0.00     0.183 HD
ENDBRANCH   1   3
BRANCH   1  11
HETATM   11  C4  UNL     1      23.801   5.883  17.573  1.00  0.00     0.281 A 
HETATM   12  O1  UNL     1      24.734   4.857  17.505  1.00  0.00    -0.320 OA
HETATM   13  C5  UNL     1      25.531   5.471  18.468  1.00  0.00     0.082 A 
HETATM   14  C6  UNL     1      26.684   5.479  19.256  1.00  0.00     0.037 A 
HETATM   15  C10 UNL     1      24.656   6.514  18.586  1.00  0.00     0.024 A 
HETATM   16  C7  UNL     1      26.977   6.488  20.145  1.00  0.00     0.003 A 
HETATM   17  C8  UNL     1      26.065   7.524  20.233  1.00  0.00     0.001 A 
HETATM   18  C9  UNL     1      24.925   7.558  19.480  1.00  0.00     0.014 A 
ENDBRANCH   1  11
TORSDOF 2
ENDMDL
MODEL 5
REMARK VINA RESULT: -6.247313455      1.185      1.489
REMARK  2 active torsions:
REMARK  status: ('A' for Active; 'I' for Inactive)
REMARK    1  A    between atoms: C3_5  and  N2_6 
REMARK    2  A    between atoms: N2_6  and  C4_8 
ROOT
HETATM    1  N2  UNL     1      24.767   7.442  13.846  1.00  0.00    -0.195 N 
ATOM      2  H2  UNL     1      24.276   8.159  13.312  1.00  0.00     0.180 HD
ENDROOT
BRANCH   1   3
HETATM    3  C3  UNL     1      25.074   7.617  15.086  1.00  0.00     0.679 A 
HETATM    4  N1  UNL     1      25.692   6.704  15.850  1.00  0.00    -0.202 N 
HETATM    5  C2  UNL     1      25.988   6.941  17.140  1.00  0.00     0.107 A 
ATOM      6  H1  UNL     1      25.945   5.805  15.440  1.00  0.00     0.183 HD
HETATM    7  C1  UNL     1      25.643   8.161  17.681  1.00  0.00     0.035 A 
HETATM    8  C11 UNL     1      25.008   9.113  16.915  1.00  0.00     0.107 A 
HETATM    9  N3  UNL     1      24.746   8.800  15.632  1.00  0.00    -0.202 N 
ATOM     10  H3  UNL     1      24.277   9.493  15.048  1.00  0.00     0.183 HD
ENDBRANCH   1   3
BRANCH   1  11
HETATM   11  C4  UNL     1      25.153   6.177  13.246  1.00  0.00     0.281 A 
HETATM   12  O1  UNL     1      24.635   5.037  13.844  1.00  0.00    -0.320 OA
HETATM   13  C5  UNL     1      23.828   4.782  12.738  1.00  0.00     0.082 A 
HETATM   14  C6  UNL     1      22.876   3.988  12.094  1.00  0.00     0.037 A 
HETATM   15  C10 UNL     1      24.295   5.890  12.090  1.00  0.00     0.024 A 
HETATM   16  C7  UNL     1      22.390   4.272  10.839  1.00  0.00     0.003 A 
HETATM   17  C8  UNL     1      22.889   5.403  10.219  1.00  0.00     0.001 A 
HETATM   18  C9  UNL     1      23.820   6.209  10.812  1.00  0.00     0.014 A 
ENDBRANCH   1  11
TORSDOF 2
ENDMDL
