MODEL 1
REMARK VINA RESULT: -8.568760951      0.000      0.000
REMARK  5 active torsions:
REMARK  status: ('A' for Active; 'I' for Inactive)
REMARK    1  A    between atoms: C3_3  and  C4_4 
REMARK    2  A    between atoms: C4_4  and  C5_5 
REMARK    3  A    between atoms: C6_6  and  C7_7 
REMARK    4  A    between atoms: C6_6  and  C8_10 
REMARK    5  A    between atoms: C7_7  and  O1_8 
ROOT
HETATM    1  C1  UNL     1     -17.502 -11.267  12.323  1.00  0.00     0.015 C 
HETATM    2  C2  UNL     1     -17.294 -10.680  11.140  1.00  0.00    -0.080 C 
HETATM    3  C3  UNL     1     -18.242  -9.958  10.261  1.00  0.00     0.018 C 
HETATM    4  C10 UNL     1     -17.735 -10.314   8.888  1.00  0.00     0.016 C 
HETATM    5  C11 UNL     1     -16.238 -10.158   9.051  1.00  0.00     0.018 C 
HETATM    6  C12 UNL     1     -15.882  -8.701   8.853  1.00  0.00     0.174 C 
HETATM    7  O3  UNL     1     -14.559  -8.433   9.122  1.00  0.00    -0.381 OA
HETATM    8  C13 UNL     1     -14.093  -8.980  10.289  1.00  0.00     0.054 C 
HETATM    9  C14 UNL     1     -13.467  -7.844  11.109  1.00  0.00     0.045 C 
HETATM   10  C15 UNL     1     -12.963  -9.944   9.931  1.00  0.00     0.045 C 
HETATM   11  C16 UNL     1     -15.128  -9.620  11.148  1.00  0.00     0.046 C 
HETATM   12  C17 UNL     1     -15.979 -10.633  10.444  1.00  0.00     0.023 C 
ENDROOT
BRANCH   3  13
HETATM   13  C4  UNL     1     -19.685 -10.358  10.448  1.00  0.00     0.036 C 
BRANCH  13  14
HETATM   14  C5  UNL     1     -19.778 -11.479  11.384  1.00  0.00    -0.013 C 
HETATM   15  C6  UNL     1     -20.884 -12.137  11.713  1.00  0.00     0.007 C 
BRANCH  15  16
HETATM   16  C7  UNL     1     -22.225 -11.861  11.195  1.00  0.00     0.206 C 
BRANCH  16  17
HETATM   17  O1  UNL     1     -23.128 -12.611  11.958  1.00  0.00    -0.396 OA
ATOM     18  H1  UNL     1     -23.237 -12.162  12.788  1.00  0.00     0.209 HD
ENDBRANCH  16  17
ENDBRANCH  15  16
BRANCH  15  19
HETATM   19  C8  UNL     1     -20.740 -13.240  12.683  1.00  0.00     0.153 C 
HETATM   20  C9  UNL     1     -20.275 -12.928  14.043  1.00  0.00     0.096 C 
HETATM   21  O2  UNL     1     -21.010 -14.430  12.354  1.00  0.00    -0.293 OA
ENDBRANCH  15  19
ENDBRANCH  13  14
ENDBRANCH   3  13
TORSDOF 5
ENDMDL
MODEL 2
REMARK VINA RESULT: -8.420217607      4.696      8.166
REMARK  5 active torsions:
REMARK  status: ('A' for Active; 'I' for Inactive)
REMARK    1  A    between atoms: C3_3  and  C4_4 
REMARK    2  A    between atoms: C4_4  and  C5_5 
REMARK    3  A    between atoms: C6_6  and  C7_7 
REMARK    4  A    between atoms: C6_6  and  C8_10 
REMARK    5  A    between atoms: C7_7  and  O1_8 
ROOT
HETATM    1  C1  UNL     1     -25.187 -12.373  14.588  1.00  0.00     0.015 C 
HETATM    2  C2  UNL     1     -24.464 -13.103  13.731  1.00  0.00    -0.080 C 
HETATM    3  C3  UNL     1     -24.860 -13.721  12.446  1.00  0.00     0.018 C 
HETATM    4  C10 UNL     1     -24.041 -14.985  12.437  1.00  0.00     0.016 C 
HETATM    5  C11 UNL     1     -22.691 -14.494  12.912  1.00  0.00     0.018 C 
HETATM    6  C12 UNL     1     -21.934 -13.943  11.724  1.00  0.00     0.174 C 
HETATM    7  O3  UNL     1     -20.748 -13.341  12.078  1.00  0.00    -0.381 OA
HETATM    8  C13 UNL     1     -20.840 -12.483  13.142  1.00  0.00     0.054 C 
HETATM    9  C14 UNL     1     -20.249 -11.138  12.698  1.00  0.00     0.045 C 
HETATM   10  C15 UNL     1     -19.938 -13.018  14.252  1.00  0.00     0.045 C 
HETATM   11  C16 UNL     1     -22.225 -12.214  13.623  1.00  0.00     0.046 C 
HETATM   12  C17 UNL     1     -23.028 -13.444  13.921  1.00  0.00     0.023 C 
ENDROOT
BRANCH   3  13
HETATM   13  C4  UNL     1     -26.337 -14.007  12.326  1.00  0.00     0.036 C 
BRANCH  13  14
HETATM   14  C5  UNL     1     -26.685 -14.275  10.930  1.00  0.00    -0.013 C 
HETATM   15  C6  UNL     1     -27.908 -14.272  10.412  1.00  0.00     0.007 C 
BRANCH  15  16
HETATM   16  C7  UNL     1     -29.144 -13.998  11.149  1.00  0.00     0.206 C 
BRANCH  16  17
HETATM   17  O1  UNL     1     -30.162 -14.741  10.540  1.00  0.00    -0.396 OA
ATOM     18  H1  UNL     1     -30.525 -15.317  11.203  1.00  0.00     0.209 HD
ENDBRANCH  16  17
ENDBRANCH  15  16
BRANCH  15  19
HETATM   19  C8  UNL     1     -28.022 -14.570   8.972  1.00  0.00     0.153 C 
HETATM   20  C9  UNL     1     -28.272 -13.461   8.039  1.00  0.00     0.096 C 
HETATM   21  O2  UNL     1     -27.909 -15.755   8.546  1.00  0.00    -0.293 OA
ENDBRANCH  15  19
ENDBRANCH  13  14
ENDBRANCH   3  13
TORSDOF 5
ENDMDL
MODEL 3
REMARK VINA RESULT: -8.363096972      1.349      2.172
REMARK  5 active torsions:
REMARK  status: ('A' for Active; 'I' for Inactive)
REMARK    1  A    between atoms: C3_3  and  C4_4 
REMARK    2  A    between atoms: C4_4  and  C5_5 
REMARK    3  A    between atoms: C6_6  and  C7_7 
REMARK    4  A    between atoms: C6_6  and  C8_10 
REMARK    5  A    between atoms: C7_7  and  O1_8 
ROOT
HETATM    1  C1  UNL     1     -17.444  -7.975   9.422  1.00  0.00     0.015 C 
HETATM    2  C2  UNL     1     -16.933  -9.114   9.900  1.00  0.00    -0.080 C 
HETATM    3  C3  UNL     1     -17.539 -10.462   9.988  1.00  0.00     0.018 C 
HETATM    4  C10 UNL     1     -16.946 -10.994  11.265  1.00  0.00     0.016 C 
HETATM    5  C11 UNL     1     -15.496 -10.580  11.141  1.00  0.00     0.018 C 
HETATM    6  C12 UNL     1     -14.768 -11.619  10.318  1.00  0.00     0.174 C 
HETATM    7  O3  UNL     1     -13.471 -11.260  10.028  1.00  0.00    -0.381 OA
HETATM    8  C13 UNL     1     -13.324  -9.973   9.580  1.00  0.00     0.054 C 
HETATM    9  C14 UNL     1     -12.560 -10.036   8.251  1.00  0.00     0.045 C 
HETATM   10  C15 UNL     1     -12.427  -9.235  10.572  1.00  0.00     0.045 C 
HETATM   11  C16 UNL     1     -14.595  -9.242   9.318  1.00  0.00     0.046 C 
HETATM   12  C17 UNL     1     -15.562  -9.249  10.464  1.00  0.00     0.023 C 
ENDROOT
BRANCH   3  13
HETATM   13  C4  UNL     1     -19.048 -10.459  10.026  1.00  0.00     0.036 C 
BRANCH  13  14
HETATM   14  C5  UNL     1     -19.518 -11.014  11.296  1.00  0.00    -0.013 C 
HETATM   15  C6  UNL     1     -20.661 -11.661  11.494  1.00  0.00     0.007 C 
BRANCH  15  16
HETATM   16  C7  UNL     1     -21.670 -11.941  10.470  1.00  0.00     0.206 C 
BRANCH  16  17
HETATM   17  O1  UNL     1     -22.275 -13.158  10.806  1.00  0.00    -0.396 OA
ATOM     18  H1  UNL     1     -23.155 -12.961  11.106  1.00  0.00     0.209 HD
ENDBRANCH  16  17
ENDBRANCH  15  16
BRANCH  15  19
HETATM   19  C8  UNL     1     -20.930 -12.134  12.865  1.00  0.00     0.153 C 
HETATM   20  C9  UNL     1     -19.800 -12.585  13.691  1.00  0.00     0.096 C 
HETATM   21  O2  UNL     1     -22.108 -12.153  13.324  1.00  0.00    -0.293 OA
ENDBRANCH  15  19
ENDBRANCH  13  14
ENDBRANCH   3  13
TORSDOF 5
ENDMDL
MODEL 4
REMARK VINA RESULT: -8.337397544      1.190      6.928
REMARK  5 active torsions:
REMARK  status: ('A' for Active; 'I' for Inactive)
REMARK    1  A    between atoms: C3_3  and  C4_4 
REMARK    2  A    between atoms: C4_4  and  C5_5 
REMARK    3  A    between atoms: C6_6  and  C7_7 
REMARK    4  A    between atoms: C6_6  and  C8_10 
REMARK    5  A    between atoms: C7_7  and  O1_8 
ROOT
HETATM    1  C1  UNL     1     -16.974 -11.011  12.002  1.00  0.00     0.015 C 
HETATM    2  C2  UNL     1     -18.151 -10.908  11.377  1.00  0.00    -0.080 C 
HETATM    3  C3  UNL     1     -18.446 -10.721   9.938  1.00  0.00     0.018 C 
HETATM    4  C10 UNL     1     -19.685  -9.866   9.977  1.00  0.00     0.016 C 
HETATM    5  C11 UNL     1     -20.499 -10.532  11.064  1.00  0.00     0.018 C 
HETATM    6  C12 UNL     1     -21.263 -11.686  10.454  1.00  0.00     0.174 C 
HETATM    7  O3  UNL     1     -21.925 -12.445  11.393  1.00  0.00    -0.381 OA
HETATM    8  C13 UNL     1     -21.174 -12.776  12.490  1.00  0.00     0.054 C 
HETATM    9  C14 UNL     1     -21.245 -14.300  12.650  1.00  0.00     0.045 C 
HETATM   10  C15 UNL     1     -21.852 -12.170  13.717  1.00  0.00     0.045 C 
HETATM   11  C16 UNL     1     -19.732 -12.412  12.406  1.00  0.00     0.046 C 
HETATM   12  C17 UNL     1     -19.474 -10.977  12.056  1.00  0.00     0.023 C 
ENDROOT
BRANCH   3  13
HETATM   13  C4  UNL     1     -17.333 -10.065   9.159  1.00  0.00     0.036 C 
BRANCH  13  14
HETATM   14  C5  UNL     1     -16.240  -9.696  10.060  1.00  0.00    -0.013 C 
HETATM   15  C6  UNL     1     -15.168  -8.980   9.741  1.00  0.00     0.007 C 
BRANCH  15  16
HETATM   16  C7  UNL     1     -14.879  -8.423   8.418  1.00  0.00     0.206 C 
BRANCH  16  17
HETATM   17  O1  UNL     1     -13.928  -7.411   8.593  1.00  0.00    -0.396 OA
ATOM     18  H1  UNL     1     -13.477  -7.301   7.764  1.00  0.00     0.209 HD
ENDBRANCH  16  17
ENDBRANCH  15  16
BRANCH  15  19
HETATM   19  C8  UNL     1     -14.189  -8.730  10.816  1.00  0.00     0.153 C 
HETATM   20  C9  UNL     1     -13.075  -9.673  10.990  1.00  0.00     0.096 C 
HETATM   21  O2  UNL     1     -14.305  -7.725  11.575  1.00  0.00    -0.293 OA
ENDBRANCH  15  19
ENDBRANCH  13  14
ENDBRANCH   3  13
TORSDOF 5
ENDMDL
MODEL 5
REMARK VINA RESULT: -8.262514765      4.507      9.799
REMARK  5 active torsions:
REMARK  status: ('A' for Active; 'I' for Inactive)
REMARK    1  A    between atoms: C3_3  and  C4_4 
REMARK    2  A    between atoms: C4_4  and  C5_5 
REMARK    3  A    between atoms: C6_6  and  C7_7 
REMARK    4  A    between atoms: C6_6  and  C8_10 
REMARK    5  A    between atoms: C7_7  and  O1_8 
ROOT
HETATM    1  C1  UNL     1     -24.979 -14.906  11.284  1.00  0.00     0.015 C 
HETATM    2  C2  UNL     1     -24.887 -14.225  12.431  1.00  0.00    -0.080 C 
HETATM    3  C3  UNL     1     -24.258 -12.913  12.706  1.00  0.00     0.018 C 
HETATM    4  C10 UNL     1     -23.726 -13.103  14.101  1.00  0.00     0.016 C 
HETATM    5  C11 UNL     1     -24.879 -13.799  14.791  1.00  0.00     0.018 C 
HETATM    6  C12 UNL     1     -25.863 -12.750  15.261  1.00  0.00     0.174 C 
HETATM    7  O3  UNL     1     -27.018 -13.293  15.776  1.00  0.00    -0.381 OA
HETATM    8  C13 UNL     1     -27.569 -14.289  15.012  1.00  0.00     0.054 C 
HETATM    9  C14 UNL     1     -29.034 -13.910  14.754  1.00  0.00     0.045 C 
HETATM   10  C15 UNL     1     -27.583 -15.565  15.852  1.00  0.00     0.045 C 
HETATM   11  C16 UNL     1     -26.931 -14.496  13.682  1.00  0.00     0.046 C 
HETATM   12  C17 UNL     1     -25.445 -14.688  13.731  1.00  0.00     0.023 C 
ENDROOT
BRANCH   3  13
HETATM   13  C4  UNL     1     -23.167 -12.535  11.734  1.00  0.00     0.036 C 
BRANCH  13  14
HETATM   14  C5  UNL     1     -21.889 -12.415  12.437  1.00  0.00    -0.013 C 
HETATM   15  C6  UNL     1     -20.765 -11.913  11.940  1.00  0.00     0.007 C 
BRANCH  15  16
HETATM   16  C7  UNL     1     -20.594 -11.382  10.586  1.00  0.00     0.206 C 
BRANCH  16  17
HETATM   17  O1  UNL     1     -20.413  -9.999  10.701  1.00  0.00    -0.396 OA
ATOM     18  H1  UNL     1     -20.757  -9.602   9.909  1.00  0.00     0.209 HD
ENDBRANCH  16  17
ENDBRANCH  15  16
BRANCH  15  19
HETATM   19  C8  UNL     1     -19.592 -11.891  12.835  1.00  0.00     0.153 C 
HETATM   20  C9  UNL     1     -19.638 -12.674  14.079  1.00  0.00     0.096 C 
HETATM   21  O2  UNL     1     -18.566 -11.213  12.540  1.00  0.00    -0.293 OA
ENDBRANCH  15  19
ENDBRANCH  13  14
ENDBRANCH   3  13
TORSDOF 5
ENDMDL
