MODEL 1
REMARK VINA RESULT: -7.139887522      0.000      0.000
REMARK  9 active torsions:
REMARK  status: ('A' for Active; 'I' for Inactive)
REMARK    1  A    between atoms: N1_1  and  C1_5 
REMARK    2  A    between atoms: C1_5  and  C2_6 
REMARK    3  A    between atoms: C2_6  and  C3_7 
REMARK    4  A    between atoms: C3_7  and  N2_8 
REMARK    5  A    between atoms: N2_8  and  C4_11 
REMARK    6  A    between atoms: C4_11  and  C5_12 
REMARK    7  A    between atoms: N3_13  and  C6_15 
REMARK    8  A    between atoms: C8_22  and  N6_23 
REMARK    9  A    between atoms: N6_23  and  C9_25 
ROOT
HETATM    1  C6  UNL     1     -38.384 -13.060  13.101  1.00  0.00     0.152 A 
HETATM    2  N4  UNL     1     -38.092 -14.367  13.094  1.00  0.00    -0.281 N 
ATOM      3  H4  UNL     1     -37.164 -14.769  13.222  1.00  0.00     0.188 HD
HETATM    4  N5  UNL     1     -39.201 -15.050  12.895  1.00  0.00    -0.263 N 
ATOM      5  H5  UNL     1     -39.257 -16.067  12.847  1.00  0.00     0.190 HD
HETATM    6  C7  UNL     1     -40.246 -14.221  12.763  1.00  0.00     0.290 A 
HETATM    7  O1  UNL     1     -41.454 -14.552  12.562  1.00  0.00    -0.264 OA
HETATM    8  C8  UNL     1     -39.728 -12.933  12.895  1.00  0.00     0.150 A 
ENDROOT
BRANCH   1   9
HETATM    9  N3  UNL     1     -37.433 -12.026  13.305  1.00  0.00    -0.351 N 
HETATM   10  C5  UNL     1     -37.264 -11.195  12.343  1.00  0.00     0.090 C 
ATOM     11  H3  UNL     1     -36.909 -11.948  14.176  1.00  0.00     0.166 HD
BRANCH  10  12
HETATM   12  C4  UNL     1     -36.312 -10.043  12.374  1.00  0.00     0.276 C 
BRANCH  12  13
HETATM   13  N2  UNL     1     -36.448  -9.399  13.658  1.00  0.00    -0.071 N 
ATOM     14  H22 UNL     1     -35.583  -8.930  13.927  1.00  0.00     0.277 HD
ATOM     15  H21 UNL     1     -36.503 -10.086  14.411  1.00  0.00     0.277 HD
BRANCH  13  16
HETATM   16  C3  UNL     1     -37.565  -8.493  13.700  1.00  0.00     0.234 C 
BRANCH  16  17
HETATM   17  C2  UNL     1     -38.136  -8.478  15.103  1.00  0.00     0.055 C 
BRANCH  17  18
HETATM   18  C1  UNL     1     -39.010  -9.708  15.354  1.00  0.00     0.231 C 
BRANCH  18  19
HETATM   19  N1  UNL     1     -38.293 -10.503  16.353  1.00  0.00    -0.079 N 
ATOM     20  H13 UNL     1     -37.532  -9.999  16.808  1.00  0.00     0.274 HD
ATOM     21  H12 UNL     1     -38.837 -10.685  17.196  1.00  0.00     0.274 HD
ATOM     22  H11 UNL     1     -37.993 -11.348  15.868  1.00  0.00     0.274 HD
ENDBRANCH  18  19
ENDBRANCH  17  18
ENDBRANCH  16  17
ENDBRANCH  13  16
ENDBRANCH  12  13
ENDBRANCH  10  12
ENDBRANCH   1   9
BRANCH   8  23
HETATM   23  N6  UNL     1     -40.503 -11.757  12.809  1.00  0.00    -0.321 N 
ATOM     24  H6  UNL     1     -40.163 -10.939  12.305  1.00  0.00     0.169 HD
BRANCH  23  25
HETATM   25  C9  UNL     1     -41.787 -11.747  13.454  1.00  0.00     0.175 A 
HETATM   26  N7  UNL     1     -42.901 -11.928  12.837  1.00  0.00    -0.361 N 
HETATM   27  C10 UNL     1     -44.020 -11.867  13.721  1.00  0.00     0.142 A 
ATOM     28  H7  UNL     1     -42.976 -12.095  11.834  1.00  0.00     0.162 HD
HETATM   29  C11 UNL     1     -43.415 -11.547  15.062  1.00  0.00     0.142 A 
HETATM   30  N8  UNL     1     -41.989 -11.539  14.837  1.00  0.00    -0.361 N 
ATOM     31  H8  UNL     1     -41.265 -11.409  15.543  1.00  0.00     0.162 HD
ENDBRANCH  23  25
ENDBRANCH   8  23
TORSDOF 9
ENDMDL
MODEL 2
REMARK VINA RESULT: -6.793054969      2.940      7.055
REMARK  9 active torsions:
REMARK  status: ('A' for Active; 'I' for Inactive)
REMARK    1  A    between atoms: N1_1  and  C1_5 
REMARK    2  A    between atoms: C1_5  and  C2_6 
REMARK    3  A    between atoms: C2_6  and  C3_7 
REMARK    4  A    between atoms: C3_7  and  N2_8 
REMARK    5  A    between atoms: N2_8  and  C4_11 
REMARK    6  A    between atoms: C4_11  and  C5_12 
REMARK    7  A    between atoms: N3_13  and  C6_15 
REMARK    8  A    between atoms: C8_22  and  N6_23 
REMARK    9  A    between atoms: N6_23  and  C9_25 
ROOT
HETATM    1  C6  UNL     1     -40.092 -11.159  13.845  1.00  0.00     0.152 A 
HETATM    2  N4  UNL     1     -40.815 -10.270  14.539  1.00  0.00    -0.281 N 
ATOM      3  H4  UNL     1     -41.833 -10.248  14.596  1.00  0.00     0.188 HD
HETATM    4  N5  UNL     1     -39.996  -9.429  15.135  1.00  0.00    -0.263 N 
ATOM      5  H5  UNL     1     -40.291  -8.653  15.729  1.00  0.00     0.190 HD
HETATM    6  C7  UNL     1     -38.722  -9.733  14.854  1.00  0.00     0.290 A 
HETATM    7  O1  UNL     1     -37.689  -9.124  15.268  1.00  0.00    -0.264 OA
HETATM    8  C8  UNL     1     -38.774 -10.850  14.021  1.00  0.00     0.150 A 
ENDROOT
BRANCH   1   9
HETATM    9  N3  UNL     1     -40.642 -12.226  13.088  1.00  0.00    -0.351 N 
HETATM   10  C5  UNL     1     -41.530 -12.950  13.664  1.00  0.00     0.090 C 
ATOM     11  H3  UNL     1     -40.345 -12.408  12.129  1.00  0.00     0.166 HD
BRANCH  10  12
HETATM   12  C4  UNL     1     -42.221 -14.112  13.028  1.00  0.00     0.276 C 
BRANCH  12  13
HETATM   13  N2  UNL     1     -43.509 -13.655  12.566  1.00  0.00    -0.071 N 
ATOM     14  H22 UNL     1     -43.412 -13.048  11.751  1.00  0.00     0.277 HD
ATOM     15  H21 UNL     1     -43.919 -12.987  13.219  1.00  0.00     0.277 HD
BRANCH  13  16
HETATM   16  C3  UNL     1     -44.413 -14.742  12.299  1.00  0.00     0.234 C 
BRANCH  16  17
HETATM   17  C2  UNL     1     -43.853 -15.586  11.173  1.00  0.00     0.055 C 
BRANCH  17  18
HETATM   18  C1  UNL     1     -44.713 -15.463   9.914  1.00  0.00     0.231 C 
BRANCH  18  19
HETATM   19  N1  UNL     1     -43.782 -15.137   8.832  1.00  0.00    -0.079 N 
ATOM     20  H13 UNL     1     -42.895 -14.753   9.156  1.00  0.00     0.274 HD
ATOM     21  H12 UNL     1     -43.396 -15.956   8.365  1.00  0.00     0.274 HD
ATOM     22  H11 UNL     1     -44.294 -14.513   8.208  1.00  0.00     0.274 HD
ENDBRANCH  18  19
ENDBRANCH  17  18
ENDBRANCH  16  17
ENDBRANCH  13  16
ENDBRANCH  12  13
ENDBRANCH  10  12
ENDBRANCH   1   9
BRANCH   8  23
HETATM   23  N6  UNL     1     -37.635 -11.487  13.483  1.00  0.00    -0.321 N 
ATOM     24  H6  UNL     1     -37.420 -12.458  13.711  1.00  0.00     0.169 HD
BRANCH  23  25
HETATM   25  C9  UNL     1     -36.787 -10.728  12.607  1.00  0.00     0.175 A 
HETATM   26  N7  UNL     1     -35.695 -10.161  12.980  1.00  0.00    -0.361 N 
HETATM   27  C10 UNL     1     -35.053  -9.473  11.907  1.00  0.00     0.142 A 
ATOM     28  H7  UNL     1     -35.330 -10.198  13.932  1.00  0.00     0.162 HD
HETATM   29  C11 UNL     1     -35.987  -9.655  10.740  1.00  0.00     0.142 A 
HETATM   30  N8  UNL     1     -37.042 -10.508  11.235  1.00  0.00    -0.361 N 
ATOM     31  H8  UNL     1     -37.823 -10.881  10.696  1.00  0.00     0.162 HD
ENDBRANCH  23  25
ENDBRANCH   8  23
TORSDOF 9
ENDMDL
MODEL 3
REMARK VINA RESULT: -6.629658131      2.614      6.864
REMARK  9 active torsions:
REMARK  status: ('A' for Active; 'I' for Inactive)
REMARK    1  A    between atoms: N1_1  and  C1_5 
REMARK    2  A    between atoms: C1_5  and  C2_6 
REMARK    3  A    between atoms: C2_6  and  C3_7 
REMARK    4  A    between atoms: C3_7  and  N2_8 
REMARK    5  A    between atoms: N2_8  and  C4_11 
REMARK    6  A    between atoms: C4_11  and  C5_12 
REMARK    7  A    between atoms: N3_13  and  C6_15 
REMARK    8  A    between atoms: C8_22  and  N6_23 
REMARK    9  A    between atoms: N6_23  and  C9_25 
ROOT
HETATM    1  C6  UNL     1     -40.092 -11.098  13.831  1.00  0.00     0.152 A 
HETATM    2  N4  UNL     1     -40.806 -10.207  14.530  1.00  0.00    -0.281 N 
ATOM      3  H4  UNL     1     -41.824 -10.171  14.582  1.00  0.00     0.188 HD
HETATM    4  N5  UNL     1     -39.979  -9.384  15.141  1.00  0.00    -0.263 N 
ATOM      5  H5  UNL     1     -40.266  -8.610  15.741  1.00  0.00     0.190 HD
HETATM    6  C7  UNL     1     -38.707  -9.703  14.864  1.00  0.00     0.290 A 
HETATM    7  O1  UNL     1     -37.668  -9.113  15.290  1.00  0.00    -0.264 OA
HETATM    8  C8  UNL     1     -38.770 -10.810  14.018  1.00  0.00     0.150 A 
ENDROOT
BRANCH   1   9
HETATM    9  N3  UNL     1     -40.652 -12.149  13.059  1.00  0.00    -0.351 N 
HETATM   10  C5  UNL     1     -41.349 -13.023  13.687  1.00  0.00     0.090 C 
ATOM     11  H3  UNL     1     -40.508 -12.206  12.051  1.00  0.00     0.166 HD
BRANCH  10  12
HETATM   12  C4  UNL     1     -42.018 -14.196  13.047  1.00  0.00     0.276 C 
BRANCH  12  13
HETATM   13  N2  UNL     1     -43.326 -13.770  12.612  1.00  0.00    -0.071 N 
ATOM     14  H22 UNL     1     -43.258 -13.081  11.863  1.00  0.00     0.277 HD
ATOM     15  H21 UNL     1     -43.780 -13.195  13.322  1.00  0.00     0.277 HD
BRANCH  13  16
HETATM   16  C3  UNL     1     -44.162 -14.875  12.228  1.00  0.00     0.234 C 
BRANCH  16  17
HETATM   17  C2  UNL     1     -45.596 -14.565  12.605  1.00  0.00     0.055 C 
BRANCH  17  18
HETATM   18  C1  UNL     1     -45.691 -13.231  13.348  1.00  0.00     0.231 C 
BRANCH  18  19
HETATM   19  N1  UNL     1     -47.120 -12.921  13.419  1.00  0.00    -0.079 N 
ATOM     20  H13 UNL     1     -47.516 -12.610  12.533  1.00  0.00     0.274 HD
ATOM     21  H12 UNL     1     -47.712 -13.743  13.533  1.00  0.00     0.274 HD
ATOM     22  H11 UNL     1     -47.217 -12.240  14.172  1.00  0.00     0.274 HD
ENDBRANCH  18  19
ENDBRANCH  17  18
ENDBRANCH  16  17
ENDBRANCH  13  16
ENDBRANCH  12  13
ENDBRANCH  10  12
ENDBRANCH   1   9
BRANCH   8  23
HETATM   23  N6  UNL     1     -37.638 -11.457  13.480  1.00  0.00    -0.321 N 
ATOM     24  H6  UNL     1     -37.428 -12.428  13.712  1.00  0.00     0.169 HD
BRANCH  23  25
HETATM   25  C9  UNL     1     -36.788 -10.708  12.596  1.00  0.00     0.175 A 
HETATM   26  N7  UNL     1     -35.703 -10.126  12.967  1.00  0.00    -0.361 N 
HETATM   27  C10 UNL     1     -35.058  -9.454  11.886  1.00  0.00     0.142 A 
ATOM     28  H7  UNL     1     -35.346 -10.142  13.922  1.00  0.00     0.162 HD
HETATM   29  C11 UNL     1     -35.981  -9.666  10.715  1.00  0.00     0.142 A 
HETATM   30  N8  UNL     1     -37.033 -10.517  11.217  1.00  0.00    -0.361 N 
ATOM     31  H8  UNL     1     -37.807 -10.906  10.679  1.00  0.00     0.162 HD
ENDBRANCH  23  25
ENDBRANCH   8  23
TORSDOF 9
ENDMDL
MODEL 4
REMARK VINA RESULT: -6.457276589      1.310      2.481
REMARK  9 active torsions:
REMARK  status: ('A' for Active; 'I' for Inactive)
REMARK    1  A    between atoms: N1_1  and  C1_5 
REMARK    2  A    between atoms: C1_5  and  C2_6 
REMARK    3  A    between atoms: C2_6  and  C3_7 
REMARK    4  A    between atoms: C3_7  and  N2_8 
REMARK    5  A    between atoms: N2_8  and  C4_11 
REMARK    6  A    between atoms: C4_11  and  C5_12 
REMARK    7  A    between atoms: N3_13  and  C6_15 
REMARK    8  A    between atoms: C8_22  and  N6_23 
REMARK    9  A    between atoms: N6_23  and  C9_25 
ROOT
HETATM    1  C6  UNL     1     -38.472 -12.778  13.135  1.00  0.00     0.152 A 
HETATM    2  N4  UNL     1     -38.066 -14.052  13.203  1.00  0.00    -0.281 N 
ATOM      3  H4  UNL     1     -37.112 -14.363  13.385  1.00  0.00     0.188 HD
HETATM    4  N5  UNL     1     -39.102 -14.840  12.995  1.00  0.00    -0.263 N 
ATOM      5  H5  UNL     1     -39.065 -15.860  12.994  1.00  0.00     0.190 HD
HETATM    6  C7  UNL     1     -40.209 -14.116  12.785  1.00  0.00     0.290 A 
HETATM    7  O1  UNL     1     -41.374 -14.563  12.556  1.00  0.00    -0.264 OA
HETATM    8  C8  UNL     1     -39.813 -12.782  12.874  1.00  0.00     0.150 A 
ENDROOT
BRANCH   1   9
HETATM    9  N3  UNL     1     -37.626 -11.654  13.325  1.00  0.00    -0.351 N 
HETATM   10  C5  UNL     1     -38.177 -10.579  13.754  1.00  0.00     0.090 C 
ATOM     11  H3  UNL     1     -36.627 -11.700  13.128  1.00  0.00     0.166 HD
BRANCH  10  12
HETATM   12  C4  UNL     1     -37.450  -9.299  14.016  1.00  0.00     0.276 C 
BRANCH  12  13
HETATM   13  N2  UNL     1     -36.143  -9.409  13.416  1.00  0.00    -0.071 N 
ATOM     14  H22 UNL     1     -36.049 -10.282  12.897  1.00  0.00     0.277 HD
ATOM     15  H21 UNL     1     -35.424  -9.561  14.125  1.00  0.00     0.277 HD
BRANCH  13  16
HETATM   16  C3  UNL     1     -35.824  -8.276  12.589  1.00  0.00     0.234 C 
BRANCH  16  17
HETATM   17  C2  UNL     1     -34.787  -8.689  11.564  1.00  0.00     0.055 C 
BRANCH  17  18
HETATM   18  C1  UNL     1     -35.372  -8.662  10.151  1.00  0.00     0.231 C 
BRANCH  18  19
HETATM   19  N1  UNL     1     -36.149  -9.896  10.022  1.00  0.00    -0.079 N 
ATOM     20  H13 UNL     1     -35.787 -10.669  10.581  1.00  0.00     0.274 HD
ATOM     21  H12 UNL     1     -37.067  -9.848  10.464  1.00  0.00     0.274 HD
ATOM     22  H11 UNL     1     -36.185 -10.095   9.023  1.00  0.00     0.274 HD
ENDBRANCH  18  19
ENDBRANCH  17  18
ENDBRANCH  16  17
ENDBRANCH  13  16
ENDBRANCH  12  13
ENDBRANCH  10  12
ENDBRANCH   1   9
BRANCH   8  23
HETATM   23  N6  UNL     1     -40.685 -11.686  12.703  1.00  0.00    -0.321 N 
ATOM     24  H6  UNL     1     -40.435 -10.905  12.096  1.00  0.00     0.169 HD
BRANCH  23  25
HETATM   25  C9  UNL     1     -41.936 -11.702  13.409  1.00  0.00     0.175 A 
HETATM   26  N7  UNL     1     -43.058 -12.029  12.872  1.00  0.00    -0.361 N 
HETATM   27  C10 UNL     1     -44.138 -11.957  13.802  1.00  0.00     0.142 A 
ATOM     28  H7  UNL     1     -43.164 -12.307  11.897  1.00  0.00     0.162 HD
HETATM   29  C11 UNL     1     -43.502 -11.453  15.070  1.00  0.00     0.142 A 
HETATM   30  N8  UNL     1     -42.093 -11.364  14.772  1.00  0.00    -0.361 N 
ATOM     31  H8  UNL     1     -41.350 -11.105  15.422  1.00  0.00     0.162 HD
ENDBRANCH  23  25
ENDBRANCH   8  23
TORSDOF 9
ENDMDL
MODEL 5
REMARK VINA RESULT: -6.421324825      2.427      6.197
REMARK  9 active torsions:
REMARK  status: ('A' for Active; 'I' for Inactive)
REMARK    1  A    between atoms: N1_1  and  C1_5 
REMARK    2  A    between atoms: C1_5  and  C2_6 
REMARK    3  A    between atoms: C2_6  and  C3_7 
REMARK    4  A    between atoms: C3_7  and  N2_8 
REMARK    5  A    between atoms: N2_8  and  C4_11 
REMARK    6  A    between atoms: C4_11  and  C5_12 
REMARK    7  A    between atoms: N3_13  and  C6_15 
REMARK    8  A    between atoms: C8_22  and  N6_23 
REMARK    9  A    between atoms: N6_23  and  C9_25 
ROOT
HETATM    1  C6  UNL     1     -38.512 -10.694  14.427  1.00  0.00     0.152 A 
HETATM    2  N4  UNL     1     -39.684 -10.290  14.932  1.00  0.00    -0.281 N 
ATOM      3  H4  UNL     1     -40.502 -10.881  15.083  1.00  0.00     0.188 HD
HETATM    4  N5  UNL     1     -39.610  -9.002  15.203  1.00  0.00    -0.263 N 
ATOM      5  H5  UNL     1     -40.369  -8.447  15.598  1.00  0.00     0.190 HD
HETATM    6  C7  UNL     1     -38.399  -8.524  14.885  1.00  0.00     0.290 A 
HETATM    7  O1  UNL     1     -37.998  -7.328  15.020  1.00  0.00    -0.264 OA
HETATM    8  C8  UNL     1     -37.682  -9.610  14.384  1.00  0.00     0.150 A 
ENDROOT
BRANCH   1   9
HETATM    9  N3  UNL     1     -38.223 -12.027  14.036  1.00  0.00    -0.351 N 
HETATM   10  C5  UNL     1     -39.025 -12.573  13.197  1.00  0.00     0.090 C 
ATOM     11  H3  UNL     1     -37.414 -12.528  14.404  1.00  0.00     0.166 HD
BRANCH  10  12
HETATM   12  C4  UNL     1     -38.883 -13.963  12.667  1.00  0.00     0.276 C 
BRANCH  12  13
HETATM   13  N2  UNL     1     -40.155 -14.624  12.828  1.00  0.00    -0.071 N 
ATOM     14  H22 UNL     1     -40.041 -15.543  13.255  1.00  0.00     0.277 HD
ATOM     15  H21 UNL     1     -40.539 -14.908  11.927  1.00  0.00     0.277 HD
BRANCH  13  16
HETATM   16  C3  UNL     1     -41.098 -13.824  13.564  1.00  0.00     0.234 C 
BRANCH  16  17
HETATM   17  C2  UNL     1     -42.459 -13.936  12.908  1.00  0.00     0.055 C 
BRANCH  17  18
HETATM   18  C1  UNL     1     -43.292 -12.677  13.155  1.00  0.00     0.231 C 
BRANCH  18  19
HETATM   19  N1  UNL     1     -42.409 -11.552  12.841  1.00  0.00    -0.079 N 
ATOM     20  H13 UNL     1     -41.522 -11.575  13.343  1.00  0.00     0.274 HD
ATOM     21  H12 UNL     1     -42.018 -11.590  11.901  1.00  0.00     0.274 HD
ATOM     22  H11 UNL     1     -42.959 -10.712  13.022  1.00  0.00     0.274 HD
ENDBRANCH  18  19
ENDBRANCH  17  18
ENDBRANCH  16  17
ENDBRANCH  13  16
ENDBRANCH  12  13
ENDBRANCH  10  12
ENDBRANCH   1   9
BRANCH   8  23
HETATM   23  N6  UNL     1     -36.351  -9.531  13.922  1.00  0.00    -0.321 N 
ATOM     24  H6  UNL     1     -35.566  -9.599  14.569  1.00  0.00     0.169 HD
BRANCH  23  25
HETATM   25  C9  UNL     1     -36.135  -9.351  12.513  1.00  0.00     0.175 A 
HETATM   26  N7  UNL     1     -36.468 -10.216  11.620  1.00  0.00    -0.361 N 
HETATM   27  C10 UNL     1     -36.137  -9.780  10.302  1.00  0.00     0.142 A 
ATOM     28  H7  UNL     1     -36.915 -11.108  11.830  1.00  0.00     0.162 HD
HETATM   29  C11 UNL     1     -35.455  -8.454  10.511  1.00  0.00     0.142 A 
HETATM   30  N8  UNL     1     -35.535  -8.212  11.932  1.00  0.00    -0.361 N 
ATOM     31  H8  UNL     1     -35.219  -7.376  12.423  1.00  0.00     0.162 HD
ENDBRANCH  23  25
ENDBRANCH   8  23
TORSDOF 9
ENDMDL
