MODEL 1
REMARK VINA RESULT: -7.262451732      0.000      0.000
REMARK  10 active torsions:
REMARK  status: ('A' for Active; 'I' for Inactive)
REMARK    1  A    between atoms: N1_1  and  C1_4 
REMARK    2  A    between atoms: C4_11  and  N4_12 
REMARK    3  A    between atoms: N4_12  and  C5_14 
REMARK    4  A    between atoms: C5_14  and  C6_15 
REMARK    5  A    between atoms: C6_15  and  N5_16 
REMARK    6  A    between atoms: N5_16  and  C7_19 
REMARK    7  A    between atoms: C7_19  and  C8_20 
REMARK    8  A    between atoms: C8_20  and  C9_21 
REMARK    9  A    between atoms: C9_21  and  C10_22 
REMARK   10  A    between atoms: C10_22  and  O1_23 
ROOT
HETATM    1  C1  UNL     1     -40.665 -14.033  13.058  1.00  0.00     0.131 A 
HETATM    2  N2  UNL     1     -39.512 -14.610  12.682  1.00  0.00    -0.337 N 
ATOM      3  H2  UNL     1     -39.540 -15.535  12.253  1.00  0.00     0.168 HD
HETATM    4  C2  UNL     1     -38.322 -14.009  12.852  1.00  0.00     0.182 A 
HETATM    5  N3  UNL     1     -38.264 -12.791  13.415  1.00  0.00    -0.347 N 
ATOM      6  H3  UNL     1     -37.360 -12.338  13.543  1.00  0.00     0.167 HD
HETATM    7  C3  UNL     1     -39.385 -12.160  13.813  1.00  0.00     0.111 A 
HETATM    8  C4  UNL     1     -39.362 -10.913  14.393  1.00  0.00     0.146 A 
HETATM    9  N6  UNL     1     -40.522 -10.363  14.758  1.00  0.00    -0.269 N 
ATOM     10  H6  UNL     1     -40.522  -9.439  15.189  1.00  0.00     0.190 HD
HETATM   11  N7  UNL     1     -41.665 -10.987  14.572  1.00  0.00    -0.240 N 
ATOM     12  H7  UNL     1     -42.527 -10.528  14.867  1.00  0.00     0.208 HD
HETATM   13  N8  UNL     1     -41.740 -12.174  14.025  1.00  0.00    -0.280 N 
ATOM     14  H8  UNL     1     -42.645 -12.627  13.898  1.00  0.00     0.188 HD
HETATM   15  C11 UNL     1     -40.614 -12.787  13.634  1.00  0.00     0.123 A 
ENDROOT
BRANCH   8  16
HETATM   16  N4  UNL     1     -38.234 -10.331  14.560  1.00  0.00    -0.372 N 
ATOM     17  H4  UNL     1     -37.427 -10.915  14.775  1.00  0.00     0.161 HD
BRANCH  16  18
HETATM   18  C5  UNL     1     -38.026  -8.910  14.465  1.00  0.00     0.149 C 
BRANCH  18  19
HETATM   19  C6  UNL     1     -36.900  -8.676  13.483  1.00  0.00     0.251 C 
BRANCH  19  20
HETATM   20  N5  UNL     1     -36.204  -9.891  13.167  1.00  0.00    -0.074 N 
ATOM     21  H52 UNL     1     -35.246  -9.875  13.518  1.00  0.00     0.277 HD
ATOM     22  H51 UNL     1     -36.558 -10.678  13.711  1.00  0.00     0.277 HD
BRANCH  20  23
HETATM   23  C7  UNL     1     -36.244 -10.164  11.759  1.00  0.00     0.232 C 
BRANCH  23  24
HETATM   24  C8  UNL     1     -35.859  -8.969  10.910  1.00  0.00     0.029 C 
BRANCH  24  25
HETATM   25  C9  UNL     1     -34.455  -9.149  10.396  1.00  0.00     0.028 C 
BRANCH  25  26
HETATM   26  C10 UNL     1     -33.400  -8.942  11.430  1.00  0.00     0.164 C 
BRANCH  26  27
HETATM   27  O1  UNL     1     -33.759  -7.855  12.226  1.00  0.00    -0.401 OA
ATOM     28  H1  UNL     1     -33.239  -7.873  13.021  1.00  0.00     0.209 HD
ENDBRANCH  26  27
ENDBRANCH  25  26
ENDBRANCH  24  25
ENDBRANCH  23  24
ENDBRANCH  20  23
ENDBRANCH  19  20
ENDBRANCH  18  19
ENDBRANCH  16  18
ENDBRANCH   8  16
BRANCH   1  29
HETATM   29  N1  UNL     1     -41.775 -14.641  12.878  1.00  0.00    -0.383 N 
ATOM     30  H12 UNL     1     -42.565 -14.184  12.422  1.00  0.00     0.157 HD
ATOM     31  H11 UNL     1     -41.887 -15.605  13.191  1.00  0.00     0.157 HD
ENDBRANCH   1  29
TORSDOF 10
ENDMDL
MODEL 2
REMARK VINA RESULT: -6.946840073      2.282      4.156
REMARK  10 active torsions:
REMARK  status: ('A' for Active; 'I' for Inactive)
REMARK    1  A    between atoms: N1_1  and  C1_4 
REMARK    2  A    between atoms: C4_11  and  N4_12 
REMARK    3  A    between atoms: N4_12  and  C5_14 
REMARK    4  A    between atoms: C5_14  and  C6_15 
REMARK    5  A    between atoms: C6_15  and  N5_16 
REMARK    6  A    between atoms: N5_16  and  C7_19 
REMARK    7  A    between atoms: C7_19  and  C8_20 
REMARK    8  A    between atoms: C8_20  and  C9_21 
REMARK    9  A    between atoms: C9_21  and  C10_22 
REMARK   10  A    between atoms: C10_22  and  O1_23 
ROOT
HETATM    1  C1  UNL     1     -43.904 -11.974  13.690  1.00  0.00     0.131 A 
HETATM    2  N2  UNL     1     -43.689 -10.750  14.200  1.00  0.00    -0.337 N 
ATOM      3  H2  UNL     1     -44.490 -10.155  14.407  1.00  0.00     0.168 HD
HETATM    4  C2  UNL     1     -42.452 -10.284  14.446  1.00  0.00     0.182 A 
HETATM    5  N3  UNL     1     -41.384 -11.054  14.180  1.00  0.00    -0.347 N 
ATOM      6  H3  UNL     1     -40.447 -10.698  14.367  1.00  0.00     0.167 HD
HETATM    7  C3  UNL     1     -41.533 -12.290  13.668  1.00  0.00     0.111 A 
HETATM    8  C4  UNL     1     -40.462 -13.105  13.384  1.00  0.00     0.146 A 
HETATM    9  N6  UNL     1     -40.704 -14.315  12.878  1.00  0.00    -0.269 N 
ATOM     10  H6  UNL     1     -39.920 -14.931  12.661  1.00  0.00     0.190 HD
HETATM   11  N7  UNL     1     -41.931 -14.732  12.652  1.00  0.00    -0.240 N 
ATOM     12  H7  UNL     1     -42.068 -15.665  12.264  1.00  0.00     0.208 HD
HETATM   13  N8  UNL     1     -42.984 -13.995  12.906  1.00  0.00    -0.280 N 
ATOM     14  H8  UNL     1     -43.920 -14.353  12.718  1.00  0.00     0.188 HD
HETATM   15  C11 UNL     1     -42.816 -12.767  13.415  1.00  0.00     0.123 A 
ENDROOT
BRANCH   8  16
HETATM   16  N4  UNL     1     -39.280 -12.672  13.614  1.00  0.00    -0.372 N 
ATOM     17  H4  UNL     1     -39.137 -12.106  14.451  1.00  0.00     0.161 HD
BRANCH  16  18
HETATM   18  C5  UNL     1     -38.138 -12.926  12.777  1.00  0.00     0.149 C 
BRANCH  18  19
HETATM   19  C6  UNL     1     -37.702 -11.606  12.182  1.00  0.00     0.251 C 
BRANCH  19  20
HETATM   20  N5  UNL     1     -36.704 -10.959  12.985  1.00  0.00    -0.074 N 
ATOM     21  H52 UNL     1     -36.837 -11.156  13.978  1.00  0.00     0.277 HD
ATOM     22  H51 UNL     1     -35.787 -11.390  12.861  1.00  0.00     0.277 HD
BRANCH  20  23
HETATM   23  C7  UNL     1     -36.662  -9.548  12.729  1.00  0.00     0.232 C 
BRANCH  23  24
HETATM   24  C8  UNL     1     -37.079  -8.715  13.924  1.00  0.00     0.029 C 
BRANCH  24  25
HETATM   25  C9  UNL     1     -38.431  -9.168  14.406  1.00  0.00     0.028 C 
BRANCH  25  26
HETATM   26  C10 UNL     1     -38.444  -9.635  15.824  1.00  0.00     0.164 C 
BRANCH  26  27
HETATM   27  O1  UNL     1     -38.408 -11.029  15.837  1.00  0.00    -0.401 OA
ATOM     28  H1  UNL     1     -38.611 -11.331  16.714  1.00  0.00     0.209 HD
ENDBRANCH  26  27
ENDBRANCH  25  26
ENDBRANCH  24  25
ENDBRANCH  23  24
ENDBRANCH  20  23
ENDBRANCH  19  20
ENDBRANCH  18  19
ENDBRANCH  16  18
ENDBRANCH   8  16
BRANCH   1  29
HETATM   29  N1  UNL     1     -45.097 -12.377  13.471  1.00  0.00    -0.383 N 
ATOM     30  H12 UNL     1     -45.334 -13.369  13.479  1.00  0.00     0.157 HD
ATOM     31  H11 UNL     1     -45.838 -11.703  13.284  1.00  0.00     0.157 HD
ENDBRANCH   1  29
TORSDOF 10
ENDMDL
MODEL 3
REMARK VINA RESULT: -6.880192788      1.193      1.423
REMARK  10 active torsions:
REMARK  status: ('A' for Active; 'I' for Inactive)
REMARK    1  A    between atoms: N1_1  and  C1_4 
REMARK    2  A    between atoms: C4_11  and  N4_12 
REMARK    3  A    between atoms: N4_12  and  C5_14 
REMARK    4  A    between atoms: C5_14  and  C6_15 
REMARK    5  A    between atoms: C6_15  and  N5_16 
REMARK    6  A    between atoms: N5_16  and  C7_19 
REMARK    7  A    between atoms: C7_19  and  C8_20 
REMARK    8  A    between atoms: C8_20  and  C9_21 
REMARK    9  A    between atoms: C9_21  and  C10_22 
REMARK   10  A    between atoms: C10_22  and  O1_23 
ROOT
HETATM    1  C1  UNL     1     -40.700 -14.011  13.009  1.00  0.00     0.131 A 
HETATM    2  N2  UNL     1     -39.510 -14.519  12.648  1.00  0.00    -0.337 N 
ATOM      3  H2  UNL     1     -39.478 -15.445  12.222  1.00  0.00     0.168 HD
HETATM    4  C2  UNL     1     -38.360 -13.848  12.831  1.00  0.00     0.182 A 
HETATM    5  N3  UNL     1     -38.381 -12.627  13.392  1.00  0.00    -0.347 N 
ATOM      6  H3  UNL     1     -37.507 -12.121  13.529  1.00  0.00     0.167 HD
HETATM    7  C3  UNL     1     -39.542 -12.063  13.775  1.00  0.00     0.111 A 
HETATM    8  C4  UNL     1     -39.601 -10.816  14.352  1.00  0.00     0.146 A 
HETATM    9  N6  UNL     1     -40.795 -10.336  14.701  1.00  0.00    -0.269 N 
ATOM     10  H6  UNL     1     -40.856  -9.412  15.130  1.00  0.00     0.190 HD
HETATM   11  N7  UNL     1     -41.897 -11.027  14.504  1.00  0.00    -0.240 N 
ATOM     12  H7  UNL     1     -42.788 -10.619  14.787  1.00  0.00     0.208 HD
HETATM   13  N8  UNL     1     -41.894 -12.217  13.958  1.00  0.00    -0.280 N 
ATOM     14  H8  UNL     1     -42.770 -12.723  13.821  1.00  0.00     0.188 HD
HETATM   15  C11 UNL     1     -40.730 -12.763  13.583  1.00  0.00     0.123 A 
ENDROOT
BRANCH   8  16
HETATM   16  N4  UNL     1     -38.511 -10.168  14.531  1.00  0.00    -0.372 N 
ATOM     17  H4  UNL     1     -37.641 -10.616  14.246  1.00  0.00     0.161 HD
BRANCH  16  18
HETATM   18  C5  UNL     1     -38.429  -8.851  15.104  1.00  0.00     0.149 C 
BRANCH  18  19
HETATM   19  C6  UNL     1     -37.648  -7.981  14.146  1.00  0.00     0.251 C 
BRANCH  19  20
HETATM   20  N5  UNL     1     -36.672  -8.735  13.411  1.00  0.00    -0.074 N 
ATOM     21  H52 UNL     1     -36.148  -9.364  14.021  1.00  0.00     0.277 HD
ATOM     22  H51 UNL     1     -37.113  -9.431  12.809  1.00  0.00     0.277 HD
BRANCH  20  23
HETATM   23  C7  UNL     1     -35.799  -7.873  12.667  1.00  0.00     0.232 C 
BRANCH  23  24
HETATM   24  C8  UNL     1     -34.855  -8.630  11.753  1.00  0.00     0.029 C 
BRANCH  24  25
HETATM   25  C9  UNL     1     -35.392  -8.607  10.347  1.00  0.00     0.028 C 
BRANCH  25  26
HETATM   26  C10 UNL     1     -36.096  -9.860   9.947  1.00  0.00     0.164 C 
BRANCH  26  27
HETATM   27  O1  UNL     1     -36.774 -10.367  11.056  1.00  0.00    -0.401 OA
ATOM     28  H1  UNL     1     -37.260  -9.661  11.464  1.00  0.00     0.209 HD
ENDBRANCH  26  27
ENDBRANCH  25  26
ENDBRANCH  24  25
ENDBRANCH  23  24
ENDBRANCH  20  23
ENDBRANCH  19  20
ENDBRANCH  18  19
ENDBRANCH  16  18
ENDBRANCH   8  16
BRANCH   1  29
HETATM   29  N1  UNL     1     -41.769 -14.684  12.817  1.00  0.00    -0.383 N 
ATOM     30  H12 UNL     1     -41.748 -15.697  12.704  1.00  0.00     0.157 HD
ATOM     31  H11 UNL     1     -42.671 -14.210  12.775  1.00  0.00     0.157 HD
ENDBRANCH   1  29
TORSDOF 10
ENDMDL
MODEL 4
REMARK VINA RESULT: -6.718071147      3.790      7.214
REMARK  10 active torsions:
REMARK  status: ('A' for Active; 'I' for Inactive)
REMARK    1  A    between atoms: N1_1  and  C1_4 
REMARK    2  A    between atoms: C4_11  and  N4_12 
REMARK    3  A    between atoms: N4_12  and  C5_14 
REMARK    4  A    between atoms: C5_14  and  C6_15 
REMARK    5  A    between atoms: C6_15  and  N5_16 
REMARK    6  A    between atoms: N5_16  and  C7_19 
REMARK    7  A    between atoms: C7_19  and  C8_20 
REMARK    8  A    between atoms: C8_20  and  C9_21 
REMARK    9  A    between atoms: C9_21  and  C10_22 
REMARK   10  A    between atoms: C10_22  and  O1_23 
ROOT
HETATM    1  C1  UNL     1     -37.235 -10.515  13.407  1.00  0.00     0.131 A 
HETATM    2  N2  UNL     1     -37.246  -9.342  14.062  1.00  0.00    -0.337 N 
ATOM      3  H2  UNL     1     -36.409  -8.760  14.044  1.00  0.00     0.168 HD
HETATM    4  C2  UNL     1     -38.324  -8.911  14.740  1.00  0.00     0.182 A 
HETATM    5  N3  UNL     1     -39.435  -9.664  14.775  1.00  0.00    -0.347 N 
ATOM      6  H3  UNL     1     -40.250  -9.334  15.291  1.00  0.00     0.167 HD
HETATM    7  C3  UNL     1     -39.487 -10.850  14.139  1.00  0.00     0.111 A 
HETATM    8  C4  UNL     1     -40.609 -11.646  14.154  1.00  0.00     0.146 A 
HETATM    9  N6  UNL     1     -40.571 -12.806  13.497  1.00  0.00    -0.269 N 
ATOM     10  H6  UNL     1     -41.394 -13.408  13.499  1.00  0.00     0.190 HD
HETATM   11  N7  UNL     1     -39.494 -13.190  12.845  1.00  0.00    -0.240 N 
ATOM     12  H7  UNL     1     -39.511 -14.085  12.356  1.00  0.00     0.208 HD
HETATM   13  N8  UNL     1     -38.402 -12.468  12.799  1.00  0.00    -0.280 N 
ATOM     14  H8  UNL     1     -37.587 -12.799  12.284  1.00  0.00     0.188 HD
HETATM   15  C11 UNL     1     -38.368 -11.291  13.438  1.00  0.00     0.123 A 
ENDROOT
BRANCH   8  16
HETATM   16  N4  UNL     1     -41.641 -11.245  14.797  1.00  0.00    -0.372 N 
ATOM     17  H4  UNL     1     -41.641 -11.358  15.811  1.00  0.00     0.161 HD
BRANCH  16  18
HETATM   18  C5  UNL     1     -42.800 -10.647  14.190  1.00  0.00     0.149 C 
BRANCH  18  19
HETATM   19  C6  UNL     1     -43.980 -11.551  14.465  1.00  0.00     0.251 C 
BRANCH  19  20
HETATM   20  N5  UNL     1     -44.382 -12.278  13.294  1.00  0.00    -0.074 N 
ATOM     21  H52 UNL     1     -44.373 -11.685  12.464  1.00  0.00     0.277 HD
ATOM     22  H51 UNL     1     -43.674 -12.955  13.012  1.00  0.00     0.277 HD
BRANCH  20  23
HETATM   23  C7  UNL     1     -45.661 -12.902  13.482  1.00  0.00     0.232 C 
BRANCH  23  24
HETATM   24  C8  UNL     1     -45.766 -14.256  12.808  1.00  0.00     0.029 C 
BRANCH  24  25
HETATM   25  C9  UNL     1     -44.401 -14.699  12.357  1.00  0.00     0.028 C 
BRANCH  25  26
HETATM   26  C10 UNL     1     -44.405 -15.470  11.079  1.00  0.00     0.164 C 
BRANCH  26  27
HETATM   27  O1  UNL     1     -43.095 -15.845  10.777  1.00  0.00    -0.401 OA
ATOM     28  H1  UNL     1     -42.983 -16.762  10.996  1.00  0.00     0.209 HD
ENDBRANCH  26  27
ENDBRANCH  25  26
ENDBRANCH  24  25
ENDBRANCH  23  24
ENDBRANCH  20  23
ENDBRANCH  19  20
ENDBRANCH  18  19
ENDBRANCH  16  18
ENDBRANCH   8  16
BRANCH   1  29
HETATM   29  N1  UNL     1     -36.189 -10.887  12.775  1.00  0.00    -0.383 N 
ATOM     30  H12 UNL     1     -35.257 -10.586  13.061  1.00  0.00     0.157 HD
ATOM     31  H11 UNL     1     -36.271 -11.499  11.963  1.00  0.00     0.157 HD
ENDBRANCH   1  29
TORSDOF 10
ENDMDL
MODEL 5
REMARK VINA RESULT: -6.717363118      1.349      1.595
REMARK  10 active torsions:
REMARK  status: ('A' for Active; 'I' for Inactive)
REMARK    1  A    between atoms: N1_1  and  C1_4 
REMARK    2  A    between atoms: C4_11  and  N4_12 
REMARK    3  A    between atoms: N4_12  and  C5_14 
REMARK    4  A    between atoms: C5_14  and  C6_15 
REMARK    5  A    between atoms: C6_15  and  N5_16 
REMARK    6  A    between atoms: N5_16  and  C7_19 
REMARK    7  A    between atoms: C7_19  and  C8_20 
REMARK    8  A    between atoms: C8_20  and  C9_21 
REMARK    9  A    between atoms: C9_21  and  C10_22 
REMARK   10  A    between atoms: C10_22  and  O1_23 
ROOT
HETATM    1  C1  UNL     1     -42.737 -13.411  13.000  1.00  0.00     0.131 A 
HETATM    2  N2  UNL     1     -41.868 -14.417  12.806  1.00  0.00    -0.337 N 
ATOM      3  H2  UNL     1     -42.212 -15.297  12.421  1.00  0.00     0.168 HD
HETATM    4  C2  UNL     1     -40.562 -14.302  13.101  1.00  0.00     0.182 A 
HETATM    5  N3  UNL     1     -40.092 -13.151  13.608  1.00  0.00    -0.347 N 
ATOM      6  H3  UNL     1     -39.101 -13.067  13.831  1.00  0.00     0.167 HD
HETATM    7  C3  UNL     1     -40.912 -12.106  13.826  1.00  0.00     0.111 A 
HETATM    8  C4  UNL     1     -40.464 -10.913  14.345  1.00  0.00     0.146 A 
HETATM    9  N6  UNL     1     -41.347  -9.931  14.528  1.00  0.00    -0.269 N 
ATOM     10  H6  UNL     1     -41.031  -9.040  14.912  1.00  0.00     0.190 HD
HETATM   11  N7  UNL     1     -42.618 -10.086  14.225  1.00  0.00    -0.240 N 
ATOM     12  H7  UNL     1     -43.258  -9.308  14.383  1.00  0.00     0.208 HD
HETATM   13  N8  UNL     1     -43.094 -11.201  13.730  1.00  0.00    -0.280 N 
ATOM     14  H8  UNL     1     -44.086 -11.284  13.507  1.00  0.00     0.188 HD
HETATM   15  C11 UNL     1     -42.263 -12.231  13.519  1.00  0.00     0.123 A 
ENDROOT
BRANCH   8  16
HETATM   16  N4  UNL     1     -39.221 -10.792  14.629  1.00  0.00    -0.372 N 
ATOM     17  H4  UNL     1     -38.641 -11.630  14.584  1.00  0.00     0.161 HD
BRANCH  16  18
HETATM   18  C5  UNL     1     -38.585  -9.559  15.007  1.00  0.00     0.149 C 
BRANCH  18  19
HETATM   19  C6  UNL     1     -37.504  -9.269  13.991  1.00  0.00     0.251 C 
BRANCH  19  20
HETATM   20  N5  UNL     1     -37.023 -10.468  13.365  1.00  0.00    -0.074 N 
ATOM     21  H52 UNL     1     -36.867 -11.211  14.047  1.00  0.00     0.277 HD
ATOM     22  H51 UNL     1     -37.750 -10.917  12.808  1.00  0.00     0.277 HD
BRANCH  20  23
HETATM   23  C7  UNL     1     -35.845 -10.213  12.585  1.00  0.00     0.232 C 
BRANCH  23  24
HETATM   24  C8  UNL     1     -36.154  -9.829  11.152  1.00  0.00     0.029 C 
BRANCH  24  25
HETATM   25  C9  UNL     1     -35.432  -8.554  10.806  1.00  0.00     0.028 C 
BRANCH  25  26
HETATM   26  C10 UNL     1     -34.650  -7.975  11.937  1.00  0.00     0.164 C 
BRANCH  26  27
HETATM   27  O1  UNL     1     -35.312  -6.840  12.405  1.00  0.00    -0.401 OA
ATOM     28  H1  UNL     1     -36.248  -6.995  12.364  1.00  0.00     0.209 HD
ENDBRANCH  26  27
ENDBRANCH  25  26
ENDBRANCH  24  25
ENDBRANCH  23  24
ENDBRANCH  20  23
ENDBRANCH  19  20
ENDBRANCH  18  19
ENDBRANCH  16  18
ENDBRANCH   8  16
BRANCH   1  29
HETATM   29  N1  UNL     1     -43.972 -13.564  12.706  1.00  0.00    -0.383 N 
ATOM     30  H12 UNL     1     -44.299 -14.378  12.186  1.00  0.00     0.157 HD
ATOM     31  H11 UNL     1     -44.656 -12.864  12.991  1.00  0.00     0.157 HD
ENDBRANCH   1  29
TORSDOF 10
ENDMDL
