MODEL 1
REMARK VINA RESULT: -7.134198562      0.000      0.000
REMARK  6 active torsions:
REMARK  status: ('A' for Active; 'I' for Inactive)
REMARK    1  A    between atoms: N1_1  and  C1_4 
REMARK    2  A    between atoms: C2_10  and  C3_11 
REMARK       I    between atoms: C3_11  and  N4_13 
REMARK    3  A    between atoms: N4_13  and  C4_15 
REMARK    4  A    between atoms: C5_21  and  N7_22 
REMARK    5  A    between atoms: N7_22  and  N8_23 
REMARK    6  A    between atoms: N7_22  and  N9_26 
ROOT
HETATM    1  C4  UNL     1     -36.332 -19.409  -3.904  1.00  0.00     0.180 A 
HETATM    2  N5  UNL     1     -36.346 -18.709  -2.744  1.00  0.00    -0.222 N 
ATOM      3  H5  UNL     1     -37.173 -18.467  -2.198  1.00  0.00     0.198 HD
HETATM    4  O3  UNL     1     -35.119 -18.401  -2.452  1.00  0.00    -0.153 OA
HETATM    5  N6  UNL     1     -34.304 -18.868  -3.366  1.00  0.00    -0.219 N 
ATOM      6  H6  UNL     1     -33.290 -18.761  -3.366  1.00  0.00     0.198 HD
HETATM    7  C5  UNL     1     -35.023 -19.517  -4.311  1.00  0.00     0.212 A 
ENDROOT
BRANCH   1   8
HETATM    8  N4  UNL     1     -37.372 -19.880  -4.514  1.00  0.00    -0.303 N 
HETATM    9  C3  UNL     1     -38.656 -19.899  -3.879  1.00  0.00     0.279 C 
HETATM   10  O2  UNL     1     -39.244 -18.850  -3.544  1.00  0.00    -0.265 OA
ATOM     11  H4  UNL     1     -37.276 -20.244  -5.461  1.00  0.00     0.171 HD
BRANCH   9  12
HETATM   12  C2  UNL     1     -39.288 -21.182  -3.618  1.00  0.00     0.169 A 
HETATM   13  C1  UNL     1     -40.442 -21.416  -2.935  1.00  0.00     0.155 A 
HETATM   14  N2  UNL     1     -40.612 -22.778  -2.966  1.00  0.00    -0.224 N 
HETATM   15  O1  UNL     1     -39.630 -23.325  -3.622  1.00  0.00    -0.155 OA
ATOM     16  H2  UNL     1     -41.389 -23.284  -2.541  1.00  0.00     0.198 HD
HETATM   17  N3  UNL     1     -38.813 -22.406  -4.031  1.00  0.00    -0.233 N 
ATOM     18  H3  UNL     1     -37.961 -22.564  -4.569  1.00  0.00     0.197 HD
BRANCH  13  19
HETATM   19  N1  UNL     1     -41.247 -20.616  -2.364  1.00  0.00    -0.382 N 
ATOM     20  H12 UNL     1     -41.639 -20.624  -1.423  1.00  0.00     0.157 HD
ATOM     21  H11 UNL     1     -41.639 -19.789  -2.813  1.00  0.00     0.157 HD
ENDBRANCH  13  19
ENDBRANCH   9  12
ENDBRANCH   1   8
BRANCH   7  22
HETATM   22  N7  UNL     1     -34.495 -20.161  -5.463  1.00  0.00    -0.187 N 
BRANCH  22  23
HETATM   23  N8  UNL     1     -34.318 -19.390  -6.613  1.00  0.00    -0.323 N 
ATOM     24  H82 UNL     1     -34.882 -18.549  -6.738  1.00  0.00     0.179 HD
ATOM     25  H81 UNL     1     -33.625 -19.704  -7.292  1.00  0.00     0.179 HD
ENDBRANCH  22  23
BRANCH  22  26
HETATM   26  N9  UNL     1     -34.149 -21.507  -5.493  1.00  0.00    -0.323 N 
ATOM     27  H92 UNL     1     -33.773 -21.940  -4.649  1.00  0.00     0.179 HD
ATOM     28  H91 UNL     1     -34.253 -22.093  -6.321  1.00  0.00     0.179 HD
ENDBRANCH  22  26
ENDBRANCH   7  22
TORSDOF 6
ENDMDL
MODEL 2
REMARK VINA RESULT: -7.084871958      1.485      5.821
REMARK  6 active torsions:
REMARK  status: ('A' for Active; 'I' for Inactive)
REMARK    1  A    between atoms: N1_1  and  C1_4 
REMARK    2  A    between atoms: C2_10  and  C3_11 
REMARK       I    between atoms: C3_11  and  N4_13 
REMARK    3  A    between atoms: N4_13  and  C4_15 
REMARK    4  A    between atoms: C5_21  and  N7_22 
REMARK    5  A    between atoms: N7_22  and  N8_23 
REMARK    6  A    between atoms: N7_22  and  N9_26 
ROOT
HETATM    1  C4  UNL     1     -38.676 -21.662  -4.288  1.00  0.00     0.180 A 
HETATM    2  N5  UNL     1     -38.664 -23.010  -4.423  1.00  0.00    -0.222 N 
ATOM      3  H5  UNL     1     -38.027 -23.549  -5.011  1.00  0.00     0.198 HD
HETATM    4  O3  UNL     1     -39.606 -23.493  -3.672  1.00  0.00    -0.153 OA
HETATM    5  N6  UNL     1     -40.233 -22.522  -3.051  1.00  0.00    -0.219 N 
ATOM      6  H6  UNL     1     -41.012 -22.641  -2.404  1.00  0.00     0.198 HD
HETATM    7  C5  UNL     1     -39.682 -21.339  -3.407  1.00  0.00     0.212 A 
ENDROOT
BRANCH   1   8
HETATM    8  N4  UNL     1     -37.883 -20.835  -4.891  1.00  0.00    -0.303 N 
HETATM    9  C3  UNL     1     -36.466 -20.896  -4.697  1.00  0.00     0.279 C 
HETATM   10  O2  UNL     1     -35.793 -21.892  -5.034  1.00  0.00    -0.265 OA
ATOM     11  H4  UNL     1     -38.274 -20.129  -5.514  1.00  0.00     0.171 HD
BRANCH   9  12
HETATM   12  C2  UNL     1     -35.794 -19.760  -4.086  1.00  0.00     0.169 A 
HETATM   13  C1  UNL     1     -34.903 -18.910  -4.667  1.00  0.00     0.155 A 
HETATM   14  N2  UNL     1     -34.562 -18.014  -3.686  1.00  0.00    -0.224 N 
HETATM   15  O1  UNL     1     -35.203 -18.304  -2.591  1.00  0.00    -0.155 OA
ATOM     16  H2  UNL     1     -33.907 -17.240  -3.796  1.00  0.00     0.198 HD
HETATM   17  N3  UNL     1     -35.953 -19.342  -2.784  1.00  0.00    -0.233 N 
ATOM     18  H3  UNL     1     -36.559 -19.777  -2.089  1.00  0.00     0.197 HD
BRANCH  13  19
HETATM   19  N1  UNL     1     -34.435 -18.878  -5.848  1.00  0.00    -0.382 N 
ATOM     20  H12 UNL     1     -34.324 -18.102  -6.500  1.00  0.00     0.157 HD
ATOM     21  H11 UNL     1     -34.077 -19.697  -6.340  1.00  0.00     0.157 HD
ENDBRANCH  13  19
ENDBRANCH   9  12
ENDBRANCH   1   8
BRANCH   7  22
HETATM   22  N7  UNL     1     -40.087 -20.059  -2.942  1.00  0.00    -0.187 N 
BRANCH  22  23
HETATM   23  N8  UNL     1     -41.345 -19.954  -2.346  1.00  0.00    -0.323 N 
ATOM     24  H82 UNL     1     -42.178 -20.027  -2.930  1.00  0.00     0.179 HD
ATOM     25  H81 UNL     1     -41.381 -19.803  -1.338  1.00  0.00     0.179 HD
ENDBRANCH  22  23
BRANCH  22  26
HETATM   26  N9  UNL     1     -39.295 -18.922  -3.051  1.00  0.00    -0.323 N 
ATOM     27  H92 UNL     1     -39.639 -18.128  -3.591  1.00  0.00     0.179 HD
ATOM     28  H91 UNL     1     -38.377 -18.836  -2.614  1.00  0.00     0.179 HD
ENDBRANCH  22  26
ENDBRANCH   7  22
TORSDOF 6
ENDMDL
MODEL 3
REMARK VINA RESULT: -7.011885358      1.445      5.926
REMARK  6 active torsions:
REMARK  status: ('A' for Active; 'I' for Inactive)
REMARK    1  A    between atoms: N1_1  and  C1_4 
REMARK    2  A    between atoms: C2_10  and  C3_11 
REMARK       I    between atoms: C3_11  and  N4_13 
REMARK    3  A    between atoms: N4_13  and  C4_15 
REMARK    4  A    between atoms: C5_21  and  N7_22 
REMARK    5  A    between atoms: N7_22  and  N8_23 
REMARK    6  A    between atoms: N7_22  and  N9_26 
ROOT
HETATM    1  C4  UNL     1     -39.216 -21.881  -3.422  1.00  0.00     0.180 A 
HETATM    2  N5  UNL     1     -38.919 -22.888  -4.279  1.00  0.00    -0.222 N 
ATOM      3  H5  UNL     1     -38.003 -23.077  -4.688  1.00  0.00     0.198 HD
HETATM    4  O3  UNL     1     -40.005 -23.567  -4.485  1.00  0.00    -0.153 OA
HETATM    5  N6  UNL     1     -40.999 -23.052  -3.802  1.00  0.00    -0.219 N 
ATOM      6  H6  UNL     1     -41.956 -23.404  -3.794  1.00  0.00     0.198 HD
HETATM    7  C5  UNL     1     -40.552 -21.979  -3.109  1.00  0.00     0.212 A 
ENDROOT
BRANCH   1   8
HETATM    8  N4  UNL     1     -38.385 -20.989  -2.988  1.00  0.00    -0.303 N 
HETATM    9  C3  UNL     1     -38.141 -19.785  -3.725  1.00  0.00     0.279 C 
HETATM   10  O2  UNL     1     -39.039 -18.944  -3.934  1.00  0.00    -0.265 OA
ATOM     11  H4  UNL     1     -37.895 -21.145  -2.107  1.00  0.00     0.171 HD
BRANCH   9  12
HETATM   12  C2  UNL     1     -36.805 -19.541  -4.243  1.00  0.00     0.169 A 
HETATM   13  C1  UNL     1     -35.993 -18.480  -3.983  1.00  0.00     0.155 A 
HETATM   14  N2  UNL     1     -34.849 -18.712  -4.704  1.00  0.00    -0.224 N 
HETATM   15  O1  UNL     1     -34.963 -19.835  -5.352  1.00  0.00    -0.155 OA
ATOM     16  H2  UNL     1     -34.034 -18.100  -4.729  1.00  0.00     0.198 HD
HETATM   17  N3  UNL     1     -36.119 -20.366  -5.105  1.00  0.00    -0.233 N 
ATOM     18  H3  UNL     1     -36.462 -21.248  -5.486  1.00  0.00     0.197 HD
BRANCH  13  19
HETATM   19  N1  UNL     1     -36.172 -17.457  -3.251  1.00  0.00    -0.382 N 
ATOM     20  H12 UNL     1     -35.536 -16.703  -2.993  1.00  0.00     0.157 HD
ATOM     21  H11 UNL     1     -37.053 -17.239  -2.785  1.00  0.00     0.157 HD
ENDBRANCH  13  19
ENDBRANCH   9  12
ENDBRANCH   1   8
BRANCH   7  22
HETATM   22  N7  UNL     1     -41.332 -21.158  -2.251  1.00  0.00    -0.187 N 
BRANCH  22  23
HETATM   23  N8  UNL     1     -41.705 -21.685  -1.012  1.00  0.00    -0.323 N 
ATOM     24  H82 UNL     1     -41.348 -22.599  -0.735  1.00  0.00     0.179 HD
ATOM     25  H81 UNL     1     -42.328 -21.128  -0.429  1.00  0.00     0.179 HD
ENDBRANCH  22  23
BRANCH  22  26
HETATM   26  N9  UNL     1     -41.732 -19.869  -2.584  1.00  0.00    -0.323 N 
ATOM     27  H92 UNL     1     -42.049 -19.680  -3.535  1.00  0.00     0.179 HD
ATOM     28  H91 UNL     1     -41.729 -19.094  -1.922  1.00  0.00     0.179 HD
ENDBRANCH  22  26
ENDBRANCH   7  22
TORSDOF 6
ENDMDL
MODEL 4
REMARK VINA RESULT: -6.952184876      1.411      1.941
REMARK  6 active torsions:
REMARK  status: ('A' for Active; 'I' for Inactive)
REMARK    1  A    between atoms: N1_1  and  C1_4 
REMARK    2  A    between atoms: C2_10  and  C3_11 
REMARK       I    between atoms: C3_11  and  N4_13 
REMARK    3  A    between atoms: N4_13  and  C4_15 
REMARK    4  A    between atoms: C5_21  and  N7_22 
REMARK    5  A    between atoms: N7_22  and  N8_23 
REMARK    6  A    between atoms: N7_22  and  N9_26 
ROOT
HETATM    1  C4  UNL     1     -35.238 -19.985  -3.252  1.00  0.00     0.180 A 
HETATM    2  N5  UNL     1     -35.003 -19.165  -2.199  1.00  0.00    -0.222 N 
ATOM      3  H5  UNL     1     -35.540 -19.131  -1.333  1.00  0.00     0.198 HD
HETATM    4  O3  UNL     1     -33.972 -18.431  -2.490  1.00  0.00    -0.153 OA
HETATM    5  N6  UNL     1     -33.522 -18.734  -3.684  1.00  0.00    -0.219 N 
ATOM      6  H6  UNL     1     -32.721 -18.300  -4.142  1.00  0.00     0.198 HD
HETATM    7  C5  UNL     1     -34.290 -19.715  -4.212  1.00  0.00     0.212 A 
ENDROOT
BRANCH   1   8
HETATM    8  N4  UNL     1     -36.191 -20.856  -3.333  1.00  0.00    -0.303 N 
HETATM    9  C3  UNL     1     -37.330 -20.632  -4.172  1.00  0.00     0.279 C 
HETATM   10  O2  UNL     1     -37.227 -20.530  -5.413  1.00  0.00    -0.265 OA
ATOM     11  H4  UNL     1     -36.132 -21.717  -2.789  1.00  0.00     0.171 HD
BRANCH   9  12
HETATM   12  C2  UNL     1     -38.641 -20.519  -3.557  1.00  0.00     0.169 A 
HETATM   13  C1  UNL     1     -39.551 -21.510  -3.349  1.00  0.00     0.155 A 
HETATM   14  N2  UNL     1     -40.620 -20.902  -2.740  1.00  0.00    -0.224 N 
HETATM   15  O1  UNL     1     -40.371 -19.633  -2.591  1.00  0.00    -0.155 OA
ATOM     16  H2  UNL     1     -41.477 -21.371  -2.450  1.00  0.00     0.198 HD
HETATM   17  N3  UNL     1     -39.197 -19.359  -3.066  1.00  0.00    -0.233 N 
ATOM     18  H3  UNL     1     -38.758 -18.438  -3.074  1.00  0.00     0.197 HD
BRANCH  13  19
HETATM   19  N1  UNL     1     -39.506 -22.750  -3.624  1.00  0.00    -0.382 N 
ATOM     20  H12 UNL     1     -39.534 -23.235  -4.520  1.00  0.00     0.157 HD
ATOM     21  H11 UNL     1     -39.428 -23.485  -2.921  1.00  0.00     0.157 HD
ENDBRANCH  13  19
ENDBRANCH   9  12
ENDBRANCH   1   8
BRANCH   7  22
HETATM   22  N7  UNL     1     -34.116 -20.311  -5.490  1.00  0.00    -0.187 N 
BRANCH  22  23
HETATM   23  N8  UNL     1     -34.376 -19.524  -6.614  1.00  0.00    -0.323 N 
ATOM     24  H82 UNL     1     -35.310 -19.134  -6.740  1.00  0.00     0.179 HD
ATOM     25  H81 UNL     1     -33.613 -19.371  -7.272  1.00  0.00     0.179 HD
ENDBRANCH  22  23
BRANCH  22  26
HETATM   26  N9  UNL     1     -33.701 -21.626  -5.668  1.00  0.00    -0.323 N 
ATOM     27  H92 UNL     1     -33.767 -22.276  -4.885  1.00  0.00     0.179 HD
ATOM     28  H91 UNL     1     -33.332 -21.982  -6.549  1.00  0.00     0.179 HD
ENDBRANCH  22  26
ENDBRANCH   7  22
TORSDOF 6
ENDMDL
MODEL 5
REMARK VINA RESULT: -6.877804249      2.081      5.306
REMARK  6 active torsions:
REMARK  status: ('A' for Active; 'I' for Inactive)
REMARK    1  A    between atoms: N1_1  and  C1_4 
REMARK    2  A    between atoms: C2_10  and  C3_11 
REMARK       I    between atoms: C3_11  and  N4_13 
REMARK    3  A    between atoms: N4_13  and  C4_15 
REMARK    4  A    between atoms: C5_21  and  N7_22 
REMARK    5  A    between atoms: N7_22  and  N8_23 
REMARK    6  A    between atoms: N7_22  and  N9_26 
ROOT
HETATM    1  C4  UNL     1     -36.932 -19.384  -3.083  1.00  0.00     0.180 A 
HETATM    2  N5  UNL     1     -37.040 -18.054  -2.848  1.00  0.00    -0.222 N 
ATOM      3  H5  UNL     1     -36.287 -17.435  -2.546  1.00  0.00     0.198 HD
HETATM    4  O3  UNL     1     -38.271 -17.710  -3.075  1.00  0.00    -0.153 OA
HETATM    5  N6  UNL     1     -38.972 -18.753  -3.448  1.00  0.00    -0.219 N 
ATOM      6  H6  UNL     1     -39.964 -18.744  -3.685  1.00  0.00     0.198 HD
HETATM    7  C5  UNL     1     -38.170 -19.842  -3.470  1.00  0.00     0.212 A 
ENDROOT
BRANCH   1   8
HETATM    8  N4  UNL     1     -35.854 -20.089  -2.956  1.00  0.00    -0.303 N 
HETATM    9  C3  UNL     1     -34.602 -19.625  -3.475  1.00  0.00     0.279 C 
HETATM   10  O2  UNL     1     -34.054 -18.586  -3.051  1.00  0.00    -0.265 OA
ATOM     11  H4  UNL     1     -35.896 -20.989  -2.479  1.00  0.00     0.171 HD
BRANCH   9  12
HETATM   12  C2  UNL     1     -33.955 -20.390  -4.528  1.00  0.00     0.169 A 
HETATM   13  C1  UNL     1     -33.912 -20.103  -5.858  1.00  0.00     0.155 A 
HETATM   14  N2  UNL     1     -33.188 -21.122  -6.426  1.00  0.00    -0.224 N 
HETATM   15  O1  UNL     1     -32.820 -21.962  -5.503  1.00  0.00    -0.155 OA
ATOM     16  H2  UNL     1     -32.971 -21.207  -7.419  1.00  0.00     0.198 HD
HETATM   17  N3  UNL     1     -33.258 -21.564  -4.350  1.00  0.00    -0.233 N 
ATOM     18  H3  UNL     1     -33.110 -22.039  -3.461  1.00  0.00     0.197 HD
BRANCH  13  19
HETATM   19  N1  UNL     1     -34.403 -19.133  -6.515  1.00  0.00    -0.382 N 
ATOM     20  H12 UNL     1     -35.206 -19.091  -7.142  1.00  0.00     0.157 HD
ATOM     21  H11 UNL     1     -34.024 -18.186  -6.498  1.00  0.00     0.157 HD
ENDBRANCH  13  19
ENDBRANCH   9  12
ENDBRANCH   1   8
BRANCH   7  22
HETATM   22  N7  UNL     1     -38.565 -21.159  -3.827  1.00  0.00    -0.187 N 
BRANCH  22  23
HETATM   23  N8  UNL     1     -39.290 -21.896  -2.888  1.00  0.00    -0.323 N 
ATOM     24  H82 UNL     1     -38.840 -22.161  -2.012  1.00  0.00     0.179 HD
ATOM     25  H81 UNL     1     -40.252 -22.144  -3.119  1.00  0.00     0.179 HD
ENDBRANCH  22  23
BRANCH  22  26
HETATM   26  N9  UNL     1     -38.268 -21.739  -5.055  1.00  0.00    -0.323 N 
ATOM     27  H92 UNL     1     -37.292 -21.822  -5.340  1.00  0.00     0.179 HD
ATOM     28  H91 UNL     1     -38.980 -22.092  -5.694  1.00  0.00     0.179 HD
ENDBRANCH  22  26
ENDBRANCH   7  22
TORSDOF 6
ENDMDL
