MODEL 1
REMARK VINA RESULT: -8.880142709      0.000      0.000
REMARK  9 active torsions:
REMARK  status: ('A' for Active; 'I' for Inactive)
REMARK    1  A    between atoms: N1_1  and  N2_4 
REMARK    2  A    between atoms: C1_6  and  C2_7 
REMARK    3  A    between atoms: C1_6  and  N5_24 
REMARK    4  A    between atoms: C2_7  and  C3_8 
REMARK    5  A    between atoms: C3_8  and  N3_9 
REMARK    6  A    between atoms: N3_9  and  C4_12 
REMARK    7  A    between atoms: C7_15  and  N4_16 
REMARK    8  A    between atoms: C8_20  and  O1_21 
REMARK    9  A    between atoms: N5_24  and  C10_26 
ROOT
HETATM    1  N2  UNL     1      24.608 -11.827  -8.775  1.00  0.00    -0.296 N 
ATOM      2  H2  UNL     1      24.779 -12.589  -8.120  1.00  0.00     0.187 HD
HETATM    3  C1  UNL     1      25.248 -10.733  -8.611  1.00  0.00     0.093 C 
ENDROOT
BRANCH   3   4
HETATM    4  C2  UNL     1      26.202 -10.600  -7.499  1.00  0.00     0.105 C 
BRANCH   4   5
HETATM    5  C3  UNL     1      27.031 -11.890  -7.442  1.00  0.00     0.240 C 
BRANCH   5   6
HETATM    6  N3  UNL     1      27.368 -12.079  -6.044  1.00  0.00    -0.070 N 
ATOM      7  H32 UNL     1      28.223 -11.583  -5.792  1.00  0.00     0.277 HD
ATOM      8  H31 UNL     1      26.719 -11.588  -5.430  1.00  0.00     0.277 HD
BRANCH   6   9
HETATM    9  C4  UNL     1      27.452 -13.503  -5.714  1.00  0.00     0.188 C 
HETATM   10  C5  UNL     1      27.990 -13.597  -4.319  1.00  0.00     0.035 C 
HETATM   11  C6  UNL     1      27.503 -14.773  -3.549  1.00  0.00     0.037 C 
HETATM   12  C7  UNL     1      27.011 -15.906  -4.421  1.00  0.00     0.212 C 
HETATM   13  C8  UNL     1      25.877 -15.404  -5.248  1.00  0.00     0.150 C 
HETATM   14  C9  UNL     1      26.105 -14.093  -5.904  1.00  0.00     0.067 C 
BRANCH  12  15
HETATM   15  N4  UNL     1      26.465 -16.916  -3.500  1.00  0.00    -0.073 N 
ATOM     16  H43 UNL     1      26.659 -16.721  -2.519  1.00  0.00     0.274 HD
ATOM     17  H42 UNL     1      25.448 -16.896  -3.431  1.00  0.00     0.274 HD
ATOM     18  H41 UNL     1      26.835 -17.812  -3.818  1.00  0.00     0.274 HD
ENDBRANCH  12  15
BRANCH  13  19
HETATM   19  O1  UNL     1      25.536 -16.427  -6.156  1.00  0.00    -0.393 OA
ATOM     20  H1  UNL     1      26.284 -16.559  -6.726  1.00  0.00     0.210 HD
ENDBRANCH  13  19
ENDBRANCH   6   9
ENDBRANCH   5   6
ENDBRANCH   4   5
ENDBRANCH   3   4
BRANCH   3  21
HETATM   21  N5  UNL     1      25.038  -9.663  -9.491  1.00  0.00    -0.365 N 
ATOM     22  H5  UNL     1      24.142  -9.178  -9.444  1.00  0.00     0.161 HD
BRANCH  21  23
HETATM   23  C10 UNL     1      26.004  -9.198 -10.460  1.00  0.00     0.175 C 
HETATM   24  C11 UNL     1      26.378 -10.222 -11.489  1.00  0.00     0.035 C 
HETATM   25  C12 UNL     1      27.492 -11.134 -11.060  1.00  0.00     0.002 C 
HETATM   26  C13 UNL     1      28.447 -11.456 -12.182  1.00  0.00     0.000 C 
HETATM   27  C14 UNL     1      27.781 -11.432 -13.535  1.00  0.00     0.000 C 
HETATM   28  C15 UNL     1      28.556 -12.363 -14.471  1.00  0.00     0.000 C 
HETATM   29  C16 UNL     1      29.917 -11.831 -14.783  1.00  0.00     0.000 C 
HETATM   30  C17 UNL     1      29.971 -11.106 -16.110  1.00  0.00     0.000 C 
HETATM   31  C18 UNL     1      30.600  -9.736 -15.974  1.00  0.00     0.000 C 
HETATM   32  C19 UNL     1      29.910  -8.695 -16.795  1.00  0.00     0.000 C 
HETATM   33  C20 UNL     1      28.717  -8.092 -16.124  1.00  0.00     0.000 C 
HETATM   34  C21 UNL     1      29.080  -7.260 -14.938  1.00  0.00     0.000 C 
HETATM   35  C22 UNL     1      27.843  -6.979 -14.092  1.00  0.00     0.002 C 
HETATM   36  C23 UNL     1      28.288  -6.274 -12.838  1.00  0.00     0.020 C 
HETATM   37  C24 UNL     1      27.724  -6.990 -11.624  1.00  0.00     0.122 C 
HETATM   38  N6  UNL     1      26.281  -7.002 -11.744  1.00  0.00    -0.359 N 
HETATM   39  C25 UNL     1      25.457  -8.017 -11.180  1.00  0.00     0.240 C 
ATOM     40  H6  UNL     1      25.832  -6.245 -12.259  1.00  0.00     0.162 HD
HETATM   41  O2  UNL     1      24.192  -7.949 -11.274  1.00  0.00    -0.271 OA
ENDBRANCH  21  23
ENDBRANCH   3  21
BRANCH   1  42
HETATM   42  N1  UNL     1      23.685 -12.035  -9.805  1.00  0.00    -0.344 N 
ATOM     43  H12 UNL     1      23.958 -12.672 -10.553  1.00  0.00     0.176 HD
ATOM     44  H11 UNL     1      22.769 -11.587  -9.839  1.00  0.00     0.176 HD
ENDBRANCH   1  42
TORSDOF 9
ENDMDL
MODEL 2
REMARK VINA RESULT: -8.857704115      1.905      3.487
REMARK  9 active torsions:
REMARK  status: ('A' for Active; 'I' for Inactive)
REMARK    1  A    between atoms: N1_1  and  N2_4 
REMARK    2  A    between atoms: C1_6  and  C2_7 
REMARK    3  A    between atoms: C1_6  and  N5_24 
REMARK    4  A    between atoms: C2_7  and  C3_8 
REMARK    5  A    between atoms: C3_8  and  N3_9 
REMARK    6  A    between atoms: N3_9  and  C4_12 
REMARK    7  A    between atoms: C7_15  and  N4_16 
REMARK    8  A    between atoms: C8_20  and  O1_21 
REMARK    9  A    between atoms: N5_24  and  C10_26 
ROOT
HETATM    1  N2  UNL     1      23.885 -10.567  -7.394  1.00  0.00    -0.296 N 
ATOM      2  H2  UNL     1      23.235 -11.033  -6.762  1.00  0.00     0.187 HD
HETATM    3  C1  UNL     1      25.138 -10.690  -7.173  1.00  0.00     0.093 C 
ENDROOT
BRANCH   3   4
HETATM    4  C2  UNL     1      25.606 -11.490  -6.030  1.00  0.00     0.105 C 
BRANCH   4   5
HETATM    5  C3  UNL     1      25.193 -12.946  -6.283  1.00  0.00     0.240 C 
BRANCH   5   6
HETATM    6  N3  UNL     1      26.326 -13.566  -6.944  1.00  0.00    -0.070 N 
ATOM      7  H32 UNL     1      26.067 -13.955  -7.851  1.00  0.00     0.277 HD
ATOM      8  H31 UNL     1      27.003 -12.872  -7.261  1.00  0.00     0.277 HD
BRANCH   6   9
HETATM    9  C4  UNL     1      26.948 -14.573  -6.081  1.00  0.00     0.188 C 
HETATM   10  C5  UNL     1      27.875 -13.843  -5.158  1.00  0.00     0.035 C 
HETATM   11  C6  UNL     1      28.034 -14.473  -3.819  1.00  0.00     0.037 C 
HETATM   12  C7  UNL     1      27.689 -15.946  -3.799  1.00  0.00     0.212 C 
HETATM   13  C8  UNL     1      26.263 -16.099  -4.206  1.00  0.00     0.150 C 
HETATM   14  C9  UNL     1      25.862 -15.325  -5.407  1.00  0.00     0.067 C 
BRANCH  12  15
HETATM   15  N4  UNL     1      27.787 -16.363  -2.391  1.00  0.00    -0.073 N 
ATOM     16  H43 UNL     1      27.023 -16.968  -2.091  1.00  0.00     0.274 HD
ATOM     17  H42 UNL     1      28.543 -17.024  -2.214  1.00  0.00     0.274 HD
ATOM     18  H41 UNL     1      27.862 -15.502  -1.849  1.00  0.00     0.274 HD
ENDBRANCH  12  15
BRANCH  13  19
HETATM   19  O1  UNL     1      26.008 -17.481  -4.326  1.00  0.00    -0.393 OA
ATOM     20  H1  UNL     1      25.072 -17.604  -4.224  1.00  0.00     0.210 HD
ENDBRANCH  13  19
ENDBRANCH   6   9
ENDBRANCH   5   6
ENDBRANCH   4   5
ENDBRANCH   3   4
BRANCH   3  21
HETATM   21  N5  UNL     1      26.061 -10.062  -8.020  1.00  0.00    -0.365 N 
ATOM     22  H5  UNL     1      26.616  -9.298  -7.634  1.00  0.00     0.161 HD
BRANCH  21  23
HETATM   23  C10 UNL     1      26.282 -10.423  -9.401  1.00  0.00     0.175 C 
HETATM   24  C11 UNL     1      26.918  -9.340 -10.221  1.00  0.00     0.035 C 
HETATM   25  C12 UNL     1      25.935  -8.365 -10.804  1.00  0.00     0.002 C 
HETATM   26  C13 UNL     1      26.298  -7.937 -12.203  1.00  0.00     0.000 C 
HETATM   27  C14 UNL     1      27.786  -7.964 -12.449  1.00  0.00     0.000 C 
HETATM   28  C15 UNL     1      28.112  -6.947 -13.548  1.00  0.00     0.000 C 
HETATM   29  C16 UNL     1      27.568  -7.370 -14.874  1.00  0.00     0.000 C 
HETATM   30  C17 UNL     1      28.607  -8.043 -15.744  1.00  0.00     0.000 C 
HETATM   31  C18 UNL     1      28.110  -9.367 -16.283  1.00  0.00     0.000 C 
HETATM   32  C19 UNL     1      29.164 -10.427 -16.282  1.00  0.00     0.000 C 
HETATM   33  C20 UNL     1      29.302 -11.137 -14.972  1.00  0.00     0.000 C 
HETATM   34  C21 UNL     1      28.114 -11.981 -14.644  1.00  0.00     0.000 C 
HETATM   35  C22 UNL     1      28.139 -12.379 -13.172  1.00  0.00     0.002 C 
HETATM   36  C23 UNL     1      26.849 -13.092 -12.861  1.00  0.00     0.020 C 
HETATM   37  C24 UNL     1      26.199 -12.460 -11.644  1.00  0.00     0.122 C 
HETATM   38  N6  UNL     1      27.135 -12.548 -10.543  1.00  0.00    -0.359 N 
HETATM   39  C25 UNL     1      27.169 -11.615  -9.468  1.00  0.00     0.240 C 
ATOM     40  H6  UNL     1      27.804 -13.318 -10.537  1.00  0.00     0.162 HD
HETATM   41  O2  UNL     1      27.979 -11.772  -8.502  1.00  0.00    -0.271 OA
ENDBRANCH  21  23
ENDBRANCH   3  21
BRANCH   1  42
HETATM   42  N1  UNL     1      23.357  -9.825  -8.456  1.00  0.00    -0.344 N 
ATOM     43  H12 UNL     1      22.389 -10.012  -8.719  1.00  0.00     0.176 HD
ATOM     44  H11 UNL     1      23.886  -9.119  -8.968  1.00  0.00     0.176 HD
ENDBRANCH   1  42
TORSDOF 9
ENDMDL
MODEL 3
REMARK VINA RESULT: -8.829197393      2.015      3.633
REMARK  9 active torsions:
REMARK  status: ('A' for Active; 'I' for Inactive)
REMARK    1  A    between atoms: N1_1  and  N2_4 
REMARK    2  A    between atoms: C1_6  and  C2_7 
REMARK    3  A    between atoms: C1_6  and  N5_24 
REMARK    4  A    between atoms: C2_7  and  C3_8 
REMARK    5  A    between atoms: C3_8  and  N3_9 
REMARK    6  A    between atoms: N3_9  and  C4_12 
REMARK    7  A    between atoms: C7_15  and  N4_16 
REMARK    8  A    between atoms: C8_20  and  O1_21 
REMARK    9  A    between atoms: N5_24  and  C10_26 
ROOT
HETATM    1  N2  UNL     1      23.833 -10.026  -7.414  1.00  0.00    -0.296 N 
ATOM      2  H2  UNL     1      23.061 -10.372  -6.844  1.00  0.00     0.187 HD
HETATM    3  C1  UNL     1      24.983 -10.563  -7.263  1.00  0.00     0.093 C 
ENDROOT
BRANCH   3   4
HETATM    4  C2  UNL     1      25.164 -11.649  -6.288  1.00  0.00     0.105 C 
BRANCH   4   5
HETATM    5  C3  UNL     1      26.564 -11.498  -5.679  1.00  0.00     0.240 C 
BRANCH   5   6
HETATM    6  N3  UNL     1      27.239 -12.757  -5.930  1.00  0.00    -0.070 N 
ATOM      7  H32 UNL     1      27.212 -13.010  -6.918  1.00  0.00     0.277 HD
ATOM      8  H31 UNL     1      28.249 -12.672  -5.820  1.00  0.00     0.277 HD
BRANCH   6   9
HETATM    9  C4  UNL     1      26.691 -13.821  -5.085  1.00  0.00     0.188 C 
HETATM   10  C5  UNL     1      26.005 -14.792  -5.997  1.00  0.00     0.035 C 
HETATM   11  C6  UNL     1      26.027 -16.203  -5.523  1.00  0.00     0.037 C 
HETATM   12  C7  UNL     1      26.239 -16.336  -4.032  1.00  0.00     0.212 C 
HETATM   13  C8  UNL     1      27.553 -15.723  -3.688  1.00  0.00     0.150 C 
HETATM   14  C9  UNL     1      27.807 -14.391  -4.292  1.00  0.00     0.067 C 
BRANCH  12  15
HETATM   15  N4  UNL     1      26.351 -17.780  -3.769  1.00  0.00    -0.073 N 
ATOM     16  H43 UNL     1      26.445 -18.343  -4.614  1.00  0.00     0.274 HD
ATOM     17  H42 UNL     1      27.238 -18.049  -3.343  1.00  0.00     0.274 HD
ATOM     18  H41 UNL     1      25.537 -18.025  -3.205  1.00  0.00     0.274 HD
ENDBRANCH  12  15
BRANCH  13  19
HETATM   19  O1  UNL     1      27.662 -15.724  -2.283  1.00  0.00    -0.393 OA
ATOM     20  H1  UNL     1      27.106 -15.026  -1.956  1.00  0.00     0.210 HD
ENDBRANCH  13  19
ENDBRANCH   6   9
ENDBRANCH   5   6
ENDBRANCH   4   5
ENDBRANCH   3   4
BRANCH   3  21
HETATM   21  N5  UNL     1      26.068 -10.113  -8.028  1.00  0.00    -0.365 N 
ATOM     22  H5  UNL     1      26.752  -9.509  -7.572  1.00  0.00     0.161 HD
BRANCH  21  23
HETATM   23  C10 UNL     1      26.286 -10.446  -9.416  1.00  0.00     0.175 C 
HETATM   24  C11 UNL     1      26.958  -9.363 -10.206  1.00  0.00     0.035 C 
HETATM   25  C12 UNL     1      26.008  -8.345 -10.769  1.00  0.00     0.002 C 
HETATM   26  C13 UNL     1      26.391  -7.894 -12.156  1.00  0.00     0.000 C 
HETATM   27  C14 UNL     1      27.879  -7.960 -12.397  1.00  0.00     0.000 C 
HETATM   28  C15 UNL     1      28.241  -6.927 -13.469  1.00  0.00     0.000 C 
HETATM   29  C16 UNL     1      27.692  -7.300 -14.807  1.00  0.00     0.000 C 
HETATM   30  C17 UNL     1      28.714  -7.983 -15.689  1.00  0.00     0.000 C 
HETATM   31  C18 UNL     1      28.180  -9.278 -16.262  1.00  0.00     0.000 C 
HETATM   32  C19 UNL     1      29.202 -10.370 -16.282  1.00  0.00     0.000 C 
HETATM   33  C20 UNL     1      29.311 -11.115 -14.990  1.00  0.00     0.000 C 
HETATM   34  C21 UNL     1      28.096 -11.930 -14.688  1.00  0.00     0.000 C 
HETATM   35  C22 UNL     1      28.102 -12.364 -13.226  1.00  0.00     0.002 C 
HETATM   36  C23 UNL     1      26.790 -13.046 -12.939  1.00  0.00     0.020 C 
HETATM   37  C24 UNL     1      26.152 -12.424 -11.710  1.00  0.00     0.122 C 
HETATM   38  N6  UNL     1      27.079 -12.568 -10.607  1.00  0.00    -0.359 N 
HETATM   39  C25 UNL     1      27.136 -11.663  -9.509  1.00  0.00     0.240 C 
ATOM     40  H6  UNL     1      27.725 -13.358 -10.617  1.00  0.00     0.162 HD
HETATM   41  O2  UNL     1      27.936 -11.868  -8.543  1.00  0.00    -0.271 OA
ENDBRANCH  21  23
ENDBRANCH   3  21
BRANCH   1  42
HETATM   42  N1  UNL     1      23.576  -8.989  -8.317  1.00  0.00    -0.344 N 
ATOM     43  H12 UNL     1      23.714  -8.036  -7.982  1.00  0.00     0.176 HD
ATOM     44  H11 UNL     1      23.263  -9.142  -9.275  1.00  0.00     0.176 HD
ENDBRANCH   1  42
TORSDOF 9
ENDMDL
MODEL 4
REMARK VINA RESULT: -8.738791930      1.291      1.664
REMARK  9 active torsions:
REMARK  status: ('A' for Active; 'I' for Inactive)
REMARK    1  A    between atoms: N1_1  and  N2_4 
REMARK    2  A    between atoms: C1_6  and  C2_7 
REMARK    3  A    between atoms: C1_6  and  N5_24 
REMARK    4  A    between atoms: C2_7  and  C3_8 
REMARK    5  A    between atoms: C3_8  and  N3_9 
REMARK    6  A    between atoms: N3_9  and  C4_12 
REMARK    7  A    between atoms: C7_15  and  N4_16 
REMARK    8  A    between atoms: C8_20  and  O1_21 
REMARK    9  A    between atoms: N5_24  and  C10_26 
ROOT
HETATM    1  N2  UNL     1      24.054  -9.719  -7.451  1.00  0.00    -0.296 N 
ATOM      2  H2  UNL     1      24.196 -10.126  -6.527  1.00  0.00     0.187 HD
HETATM    3  C1  UNL     1      24.731 -10.188  -8.428  1.00  0.00     0.093 C 
ENDROOT
BRANCH   3   4
HETATM    4  C2  UNL     1      25.684 -11.286  -8.202  1.00  0.00     0.105 C 
BRANCH   4   5
HETATM    5  C3  UNL     1      25.527 -11.743  -6.745  1.00  0.00     0.240 C 
BRANCH   5   6
HETATM    6  N3  UNL     1      25.215 -13.159  -6.810  1.00  0.00    -0.070 N 
ATOM      7  H32 UNL     1      24.241 -13.319  -7.066  1.00  0.00     0.277 HD
ATOM      8  H31 UNL     1      25.661 -13.606  -7.611  1.00  0.00     0.277 HD
BRANCH   6   9
HETATM    9  C4  UNL     1      25.562 -13.828  -5.555  1.00  0.00     0.188 C 
HETATM   10  C5  UNL     1      25.317 -15.292  -5.759  1.00  0.00     0.035 C 
HETATM   11  C6  UNL     1      26.219 -16.183  -4.979  1.00  0.00     0.037 C 
HETATM   12  C7  UNL     1      26.829 -15.514  -3.767  1.00  0.00     0.212 C 
HETATM   13  C8  UNL     1      27.633 -14.348  -4.230  1.00  0.00     0.150 C 
HETATM   14  C9  UNL     1      26.962 -13.471  -5.222  1.00  0.00     0.067 C 
BRANCH  12  15
HETATM   15  N4  UNL     1      27.769 -16.493  -3.197  1.00  0.00    -0.073 N 
ATOM     16  H43 UNL     1      28.383 -16.919  -3.891  1.00  0.00     0.274 HD
ATOM     17  H42 UNL     1      28.501 -16.070  -2.628  1.00  0.00     0.274 HD
ATOM     18  H41 UNL     1      27.196 -17.168  -2.691  1.00  0.00     0.274 HD
ENDBRANCH  12  15
BRANCH  13  19
HETATM   19  O1  UNL     1      28.066 -13.655  -3.080  1.00  0.00    -0.393 OA
ATOM     20  H1  UNL     1      28.559 -14.270  -2.550  1.00  0.00     0.210 HD
ENDBRANCH  13  19
ENDBRANCH   6   9
ENDBRANCH   5   6
ENDBRANCH   4   5
ENDBRANCH   3   4
BRANCH   3  21
HETATM   21  N5  UNL     1      24.564  -9.654  -9.713  1.00  0.00    -0.365 N 
ATOM     22  H5  UNL     1      23.615  -9.598 -10.084  1.00  0.00     0.161 HD
BRANCH  21  23
HETATM   23  C10 UNL     1      25.641  -9.176 -10.548  1.00  0.00     0.175 C 
HETATM   24  C11 UNL     1      26.030 -10.122 -11.644  1.00  0.00     0.035 C 
HETATM   25  C12 UNL     1      27.034 -11.158 -11.224  1.00  0.00     0.002 C 
HETATM   26  C13 UNL     1      28.059 -11.445 -12.292  1.00  0.00     0.000 C 
HETATM   27  C14 UNL     1      27.518 -11.236 -13.685  1.00  0.00     0.000 C 
HETATM   28  C15 UNL     1      28.304 -12.131 -14.647  1.00  0.00     0.000 C 
HETATM   29  C16 UNL     1      29.721 -11.681 -14.792  1.00  0.00     0.000 C 
HETATM   30  C17 UNL     1      29.943 -10.838 -16.029  1.00  0.00     0.000 C 
HETATM   31  C18 UNL     1      30.655  -9.543 -15.701  1.00  0.00     0.000 C 
HETATM   32  C19 UNL     1      30.116  -8.375 -16.463  1.00  0.00     0.000 C 
HETATM   33  C20 UNL     1      28.914  -7.747 -15.831  1.00  0.00     0.000 C 
HETATM   34  C21 UNL     1      29.230  -7.065 -14.540  1.00  0.00     0.000 C 
HETATM   35  C22 UNL     1      27.946  -6.770 -13.772  1.00  0.00     0.002 C 
HETATM   36  C23 UNL     1      28.329  -6.227 -12.419  1.00  0.00     0.020 C 
HETATM   37  C24 UNL     1      27.611  -7.010 -11.335  1.00  0.00     0.122 C 
HETATM   38  N6  UNL     1      26.187  -6.895 -11.572  1.00  0.00    -0.359 N 
HETATM   39  C25 UNL     1      25.246  -7.891 -11.184  1.00  0.00     0.240 C 
ATOM     40  H6  UNL     1      25.840  -6.058 -12.040  1.00  0.00     0.162 HD
HETATM   41  O2  UNL     1      24.002  -7.713 -11.372  1.00  0.00    -0.271 OA
ENDBRANCH  21  23
ENDBRANCH   3  21
BRANCH   1  42
HETATM   42  N1  UNL     1      23.130  -8.678  -7.580  1.00  0.00    -0.344 N 
ATOM     43  H12 UNL     1      22.237  -8.900  -8.019  1.00  0.00     0.176 HD
ATOM     44  H11 UNL     1      23.306  -7.725  -7.260  1.00  0.00     0.176 HD
ENDBRANCH   1  42
TORSDOF 9
ENDMDL
MODEL 5
REMARK VINA RESULT: -8.676242502      1.810      3.446
REMARK  9 active torsions:
REMARK  status: ('A' for Active; 'I' for Inactive)
REMARK    1  A    between atoms: N1_1  and  N2_4 
REMARK    2  A    between atoms: C1_6  and  C2_7 
REMARK    3  A    between atoms: C1_6  and  N5_24 
REMARK    4  A    between atoms: C2_7  and  C3_8 
REMARK    5  A    between atoms: C3_8  and  N3_9 
REMARK    6  A    between atoms: N3_9  and  C4_12 
REMARK    7  A    between atoms: C7_15  and  N4_16 
REMARK    8  A    between atoms: C8_20  and  O1_21 
REMARK    9  A    between atoms: N5_24  and  C10_26 
ROOT
HETATM    1  N2  UNL     1      24.263 -10.082  -7.608  1.00  0.00    -0.296 N 
ATOM      2  H2  UNL     1      24.256  -9.428  -6.825  1.00  0.00     0.187 HD
HETATM    3  C1  UNL     1      25.318 -10.775  -7.807  1.00  0.00     0.093 C 
ENDROOT
BRANCH   3   4
HETATM    4  C2  UNL     1      26.479 -10.618  -6.918  1.00  0.00     0.105 C 
BRANCH   4   5
HETATM    5  C3  UNL     1      26.530 -11.846  -5.999  1.00  0.00     0.240 C 
BRANCH   5   6
HETATM    6  N3  UNL     1      27.694 -12.602  -6.421  1.00  0.00    -0.070 N 
ATOM      7  H32 UNL     1      27.807 -12.587  -7.435  1.00  0.00     0.277 HD
ATOM      8  H31 UNL     1      28.562 -12.133  -6.162  1.00  0.00     0.277 HD
BRANCH   6   9
HETATM    9  C4  UNL     1      27.643 -13.971  -5.902  1.00  0.00     0.188 C 
HETATM   10  C5  UNL     1      28.035 -13.905  -4.458  1.00  0.00     0.035 C 
HETATM   11  C6  UNL     1      27.392 -14.935  -3.597  1.00  0.00     0.037 C 
HETATM   12  C7  UNL     1      26.908 -16.146  -4.363  1.00  0.00     0.212 C 
HETATM   13  C8  UNL     1      25.898 -15.696  -5.363  1.00  0.00     0.150 C 
HETATM   14  C9  UNL     1      26.282 -14.502  -6.156  1.00  0.00     0.067 C 
BRANCH  12  15
HETATM   15  N4  UNL     1      26.204 -16.988  -3.382  1.00  0.00    -0.073 N 
ATOM     16  H43 UNL     1      25.911 -16.482  -2.546  1.00  0.00     0.274 HD
ATOM     17  H42 UNL     1      25.273 -17.274  -3.684  1.00  0.00     0.274 HD
ATOM     18  H41 UNL     1      26.828 -17.770  -3.186  1.00  0.00     0.274 HD
ENDBRANCH  12  15
BRANCH  13  19
HETATM   19  O1  UNL     1      25.573 -16.812  -6.161  1.00  0.00    -0.393 OA
ATOM     20  H1  UNL     1      24.754 -16.615  -6.601  1.00  0.00     0.210 HD
ENDBRANCH  13  19
ENDBRANCH   6   9
ENDBRANCH   5   6
ENDBRANCH   4   5
ENDBRANCH   3   4
BRANCH   3  21
HETATM   21  N5  UNL     1      25.365 -11.683  -8.874  1.00  0.00    -0.365 N 
ATOM     22  H5  UNL     1      24.923 -12.593  -8.742  1.00  0.00     0.161 HD
BRANCH  21  23
HETATM   23  C10 UNL     1      25.995 -11.419 -10.146  1.00  0.00     0.175 C 
HETATM   24  C11 UNL     1      26.674 -10.084 -10.226  1.00  0.00     0.035 C 
HETATM   25  C12 UNL     1      25.761  -8.963 -10.631  1.00  0.00     0.002 C 
HETATM   26  C13 UNL     1      26.425  -7.976 -11.559  1.00  0.00     0.000 C 
HETATM   27  C14 UNL     1      27.914  -7.883 -11.335  1.00  0.00     0.000 C 
HETATM   28  C15 UNL     1      28.381  -6.492 -11.777  1.00  0.00     0.000 C 
HETATM   29  C16 UNL     1      28.275  -6.314 -13.256  1.00  0.00     0.000 C 
HETATM   30  C17 UNL     1      29.590  -6.543 -13.968  1.00  0.00     0.000 C 
HETATM   31  C18 UNL     1      29.440  -7.516 -15.118  1.00  0.00     0.000 C 
HETATM   32  C19 UNL     1      30.589  -8.467 -15.229  1.00  0.00     0.000 C 
HETATM   33  C20 UNL     1      30.465  -9.666 -14.343  1.00  0.00     0.000 C 
HETATM   34  C21 UNL     1      29.358 -10.579 -14.757  1.00  0.00     0.000 C 
HETATM   35  C22 UNL     1      29.041 -11.566 -13.638  1.00  0.00     0.002 C 
HETATM   36  C23 UNL     1      27.825 -12.354 -14.045  1.00  0.00     0.020 C 
HETATM   37  C24 UNL     1      26.792 -12.307 -12.933  1.00  0.00     0.122 C 
HETATM   38  N6  UNL     1      27.402 -12.848 -11.736  1.00  0.00    -0.359 N 
HETATM   39  C25 UNL     1      27.020 -12.461 -10.420  1.00  0.00     0.240 C 
ATOM     40  H6  UNL     1      28.143 -13.541 -11.841  1.00  0.00     0.162 HD
HETATM   41  O2  UNL     1      27.555 -13.008  -9.405  1.00  0.00    -0.271 OA
ENDBRANCH  21  23
ENDBRANCH   3  21
BRANCH   1  42
HETATM   42  N1  UNL     1      23.118 -10.170  -8.405  1.00  0.00    -0.344 N 
ATOM     43  H12 UNL     1      22.882  -9.356  -8.974  1.00  0.00     0.176 HD
ATOM     44  H11 UNL     1      22.520 -10.996  -8.444  1.00  0.00     0.176 HD
ENDBRANCH   1  42
TORSDOF 9
ENDMDL
