MODEL 1
REMARK VINA RESULT: -7.006054789      0.000      0.000
REMARK  7 active torsions:
REMARK  status: ('A' for Active; 'I' for Inactive)
REMARK    1  A    between atoms: C1_2  and  C2_4 
REMARK    2  A    between atoms: C4_6  and  C5_7 
REMARK    3  A    between atoms: C8_15  and  C9_16 
REMARK    4  A    between atoms: C9_16  and  C10_17 
REMARK    5  A    between atoms: C10_17  and  O4_18 
REMARK    6  A    between atoms: N4_20  and  O5_22 
REMARK    7  A    between atoms: C13_26  and  C14_27 
ROOT
HETATM    1  C2  UNL     1       4.680  17.631  86.028  1.00  0.00     0.034 C 
HETATM    2  C3  UNL     1       5.839  18.185  85.835  1.00  0.00     0.057 C 
HETATM    3  C4  UNL     1       7.288  17.930  85.961  1.00  0.00     0.237 C 
HETATM    4  N2  UNL     1       7.777  17.930  84.599  1.00  0.00    -0.361 N 
HETATM    5  C6  UNL     1       8.395  16.765  84.096  1.00  0.00     0.143 C 
HETATM    6  C7  UNL     1       8.432  16.735  82.580  1.00  0.00     0.134 C 
HETATM    7  N3  UNL     1       9.397  17.585  81.999  1.00  0.00    -0.415 N 
ATOM      8  H3  UNL     1       9.882  17.331  81.139  1.00  0.00     0.153 HD
HETATM    9  C8  UNL     1       9.658  18.803  82.665  1.00  0.00     0.089 C 
HETATM   10  C11 UNL     1       8.429  19.705  82.793  1.00  0.00     0.084 C 
HETATM   11  C12 UNL     1       7.550  19.183  83.889  1.00  0.00     0.044 C 
HETATM   12  C13 UNL     1       6.493  19.938  84.166  1.00  0.00     0.135 C 
HETATM   13  N5  UNL     1       5.564  19.476  85.162  1.00  0.00    -0.340 N 
HETATM   14  C15 UNL     1       4.307  19.942  85.658  1.00  0.00     0.134 C 
HETATM   15  C16 UNL     1       3.551  18.607  85.702  1.00  0.00     0.066 C 
ENDROOT
BRANCH   9  16
HETATM   16  C9  UNL     1      10.792  19.612  82.149  1.00  0.00     0.110 C 
BRANCH  16  17
HETATM   17  C10 UNL     1      12.115  18.968  82.274  1.00  0.00     0.137 C 
HETATM   18  N4  UNL     1      13.207  19.625  82.449  1.00  0.00    -0.251 N 
ATOM     19  H4  UNL     1      14.084  19.108  82.527  1.00  0.00     0.196 HD
BRANCH  17  20
HETATM   20  O4  UNL     1      12.186  17.590  82.201  1.00  0.00    -0.348 OA
ATOM     21  H4  UNL     1      12.700  17.127  82.853  1.00  0.00     0.219 HD
ENDBRANCH  17  20
BRANCH  18  22
HETATM   22  O5  UNL     1      13.242  21.000  82.535  1.00  0.00    -0.288 OA
ATOM     23  H5  UNL     1      13.342  21.459  83.361  1.00  0.00     0.244 HD
ENDBRANCH  18  22
ENDBRANCH  16  17
ENDBRANCH   9  16
BRANCH  12  24
HETATM   24  C14 UNL     1       6.228  21.186  83.494  1.00  0.00     0.229 C 
HETATM   25  O6  UNL     1       6.630  22.284  83.934  1.00  0.00    -0.643 OA
HETATM   26  O7  UNL     1       5.489  21.216  82.292  1.00  0.00    -0.643 OA
ENDBRANCH  12  24
BRANCH   3  27
HETATM   27  C5  UNL     1       7.783  16.940  86.863  1.00  0.00     0.203 C 
HETATM   28  O2  UNL     1       7.371  15.782  87.113  1.00  0.00    -0.646 OA
HETATM   29  O3  UNL     1       8.939  17.272  87.622  1.00  0.00    -0.646 OA
ENDBRANCH   3  27
BRANCH   1  30
HETATM   30  C1  UNL     1       4.370  16.316  86.520  1.00  0.00     0.263 C 
HETATM   31  N1  UNL     1       4.052  16.162  87.921  1.00  0.00    -0.057 NA
HETATM   32  O1  UNL     1       4.344  15.275  85.866  1.00  0.00    -0.271 OA
ENDBRANCH   1  30
TORSDOF 7
ENDMDL
MODEL 2
REMARK VINA RESULT: -6.970064652      1.369      1.411
REMARK  7 active torsions:
REMARK  status: ('A' for Active; 'I' for Inactive)
REMARK    1  A    between atoms: C1_2  and  C2_4 
REMARK    2  A    between atoms: C4_6  and  C5_7 
REMARK    3  A    between atoms: C8_15  and  C9_16 
REMARK    4  A    between atoms: C9_16  and  C10_17 
REMARK    5  A    between atoms: C10_17  and  O4_18 
REMARK    6  A    between atoms: N4_20  and  O5_22 
REMARK    7  A    between atoms: C13_26  and  C14_27 
ROOT
HETATM    1  C2  UNL     1       4.219  18.612  85.502  1.00  0.00     0.034 C 
HETATM    2  C3  UNL     1       5.495  18.847  85.526  1.00  0.00     0.057 C 
HETATM    3  C4  UNL     1       6.778  18.273  85.980  1.00  0.00     0.237 C 
HETATM    4  N2  UNL     1       7.503  17.991  84.758  1.00  0.00    -0.361 N 
HETATM    5  C6  UNL     1       7.884  16.660  84.483  1.00  0.00     0.143 C 
HETATM    6  C7  UNL     1       8.202  16.439  83.016  1.00  0.00     0.134 C 
HETATM    7  N3  UNL     1       9.446  16.959  82.601  1.00  0.00    -0.415 N 
ATOM      8  H3  UNL     1      10.006  16.494  81.885  1.00  0.00     0.153 HD
HETATM    9  C8  UNL     1       9.880  18.152  83.221  1.00  0.00     0.089 C 
HETATM   10  C11 UNL     1       8.923  19.328  83.018  1.00  0.00     0.084 C 
HETATM   11  C12 UNL     1       7.746  19.167  83.931  1.00  0.00     0.044 C 
HETATM   12  C13 UNL     1       6.886  20.179  83.921  1.00  0.00     0.135 C 
HETATM   13  N5  UNL     1       5.697  20.075  84.721  1.00  0.00    -0.340 N 
HETATM   14  C15 UNL     1       4.531  20.883  84.901  1.00  0.00     0.134 C 
HETATM   15  C16 UNL     1       3.463  19.781  84.873  1.00  0.00     0.066 C 
ENDROOT
BRANCH   9  16
HETATM   16  C9  UNL     1      11.260  18.600  82.908  1.00  0.00     0.110 C 
BRANCH  16  17
HETATM   17  C10 UNL     1      11.783  18.123  81.610  1.00  0.00     0.137 C 
HETATM   18  N4  UNL     1      11.755  18.830  80.535  1.00  0.00    -0.251 N 
ATOM     19  H4  UNL     1      12.136  18.430  79.677  1.00  0.00     0.196 HD
BRANCH  17  20
HETATM   20  O4  UNL     1      12.329  16.856  81.546  1.00  0.00    -0.348 OA
ATOM     21  H4  UNL     1      12.687  16.559  80.717  1.00  0.00     0.219 HD
ENDBRANCH  17  20
BRANCH  18  22
HETATM   22  O5  UNL     1      11.231  20.104  80.496  1.00  0.00    -0.288 OA
ATOM     23  H5  UNL     1      11.776  20.882  80.505  1.00  0.00     0.244 HD
ENDBRANCH  18  22
ENDBRANCH  16  17
ENDBRANCH   9  16
BRANCH  12  24
HETATM   24  C14 UNL     1       7.086  21.363  83.123  1.00  0.00     0.229 C 
HETATM   25  O6  UNL     1       7.641  22.389  83.569  1.00  0.00    -0.643 OA
HETATM   26  O7  UNL     1       6.651  21.410  81.780  1.00  0.00    -0.643 OA
ENDBRANCH  12  24
BRANCH   3  27
HETATM   27  C5  UNL     1       6.819  17.310  87.033  1.00  0.00     0.203 C 
HETATM   28  O2  UNL     1       6.041  16.366  87.310  1.00  0.00    -0.646 OA
HETATM   29  O3  UNL     1       7.909  17.388  87.943  1.00  0.00    -0.646 OA
ENDBRANCH   3  27
BRANCH   1  30
HETATM   30  C1  UNL     1       3.492  17.477  86.005  1.00  0.00     0.263 C 
HETATM   31  N1  UNL     1       3.422  16.288  85.187  1.00  0.00    -0.057 NA
HETATM   32  O1  UNL     1       2.907  17.399  87.083  1.00  0.00    -0.271 OA
ENDBRANCH   1  30
TORSDOF 7
ENDMDL
MODEL 3
REMARK VINA RESULT: -6.959073200      1.538      1.773
REMARK  7 active torsions:
REMARK  status: ('A' for Active; 'I' for Inactive)
REMARK    1  A    between atoms: C1_2  and  C2_4 
REMARK    2  A    between atoms: C4_6  and  C5_7 
REMARK    3  A    between atoms: C8_15  and  C9_16 
REMARK    4  A    between atoms: C9_16  and  C10_17 
REMARK    5  A    between atoms: C10_17  and  O4_18 
REMARK    6  A    between atoms: N4_20  and  O5_22 
REMARK    7  A    between atoms: C13_26  and  C14_27 
ROOT
HETATM    1  C2  UNL     1       4.242  18.758  85.520  1.00  0.00     0.034 C 
HETATM    2  C3  UNL     1       5.527  18.941  85.491  1.00  0.00     0.057 C 
HETATM    3  C4  UNL     1       6.802  18.328  85.915  1.00  0.00     0.237 C 
HETATM    4  N2  UNL     1       7.468  17.982  84.677  1.00  0.00    -0.361 N 
HETATM    5  C6  UNL     1       7.786  16.629  84.427  1.00  0.00     0.143 C 
HETATM    6  C7  UNL     1       8.039  16.354  82.958  1.00  0.00     0.134 C 
HETATM    7  N3  UNL     1       9.287  16.810  82.482  1.00  0.00    -0.415 N 
ATOM      8  H3  UNL     1       9.800  16.303  81.761  1.00  0.00     0.153 HD
HETATM    9  C8  UNL     1       9.791  18.001  83.050  1.00  0.00     0.089 C 
HETATM   10  C11 UNL     1       8.875  19.209  82.846  1.00  0.00     0.084 C 
HETATM   11  C12 UNL     1       7.727  19.122  83.807  1.00  0.00     0.044 C 
HETATM   12  C13 UNL     1       6.908  20.168  83.797  1.00  0.00     0.135 C 
HETATM   13  N5  UNL     1       5.747  20.137  84.643  1.00  0.00    -0.340 N 
HETATM   14  C15 UNL     1       4.622  20.996  84.840  1.00  0.00     0.134 C 
HETATM   15  C16 UNL     1       3.511  19.938  84.884  1.00  0.00     0.066 C 
ENDROOT
BRANCH   9  16
HETATM   16  C9  UNL     1      11.175  18.383  82.673  1.00  0.00     0.110 C 
BRANCH  16  17
HETATM   17  C10 UNL     1      11.592  17.937  81.328  1.00  0.00     0.137 C 
HETATM   18  N4  UNL     1      12.596  17.159  81.121  1.00  0.00    -0.251 N 
ATOM     19  H4  UNL     1      12.822  16.895  80.161  1.00  0.00     0.196 HD
BRANCH  17  20
HETATM   20  O4  UNL     1      10.870  18.376  80.235  1.00  0.00    -0.348 OA
ATOM     21  H4  UNL     1      11.214  18.205  79.366  1.00  0.00     0.219 HD
ENDBRANCH  17  20
BRANCH  18  22
HETATM   22  O5  UNL     1      13.379  16.668  82.144  1.00  0.00    -0.288 OA
ATOM     23  H5  UNL     1      13.747  15.792  82.131  1.00  0.00     0.244 HD
ENDBRANCH  18  22
ENDBRANCH  16  17
ENDBRANCH   9  16
BRANCH  12  24
HETATM   24  C14 UNL     1       7.126  21.320  82.957  1.00  0.00     0.229 C 
HETATM   25  O6  UNL     1       6.655  21.410  81.803  1.00  0.00    -0.643 OA
HETATM   26  O7  UNL     1       7.896  22.412  83.415  1.00  0.00    -0.643 OA
ENDBRANCH  12  24
BRANCH   3  27
HETATM   27  C5  UNL     1       6.844  17.395  86.995  1.00  0.00     0.203 C 
HETATM   28  O2  UNL     1       6.020  16.519  87.352  1.00  0.00    -0.646 OA
HETATM   29  O3  UNL     1       7.995  17.417  87.828  1.00  0.00    -0.646 OA
ENDBRANCH   3  27
BRANCH   1  30
HETATM   30  C1  UNL     1       3.490  17.669  86.083  1.00  0.00     0.263 C 
HETATM   31  N1  UNL     1       3.341  16.461  85.303  1.00  0.00    -0.057 NA
HETATM   32  O1  UNL     1       2.943  17.645  87.184  1.00  0.00    -0.271 OA
ENDBRANCH   1  30
TORSDOF 7
ENDMDL
MODEL 4
REMARK VINA RESULT: -6.595170851      3.692      6.928
REMARK  7 active torsions:
REMARK  status: ('A' for Active; 'I' for Inactive)
REMARK    1  A    between atoms: C1_2  and  C2_4 
REMARK    2  A    between atoms: C4_6  and  C5_7 
REMARK    3  A    between atoms: C8_15  and  C9_16 
REMARK    4  A    between atoms: C9_16  and  C10_17 
REMARK    5  A    between atoms: C10_17  and  O4_18 
REMARK    6  A    between atoms: N4_20  and  O5_22 
REMARK    7  A    between atoms: C13_26  and  C14_27 
ROOT
HETATM    1  C2  UNL     1       2.406  22.992  82.769  1.00  0.00     0.034 C 
HETATM    2  C3  UNL     1       3.130  22.543  83.749  1.00  0.00     0.057 C 
HETATM    3  C4  UNL     1       3.039  22.080  85.149  1.00  0.00     0.237 C 
HETATM    4  N2  UNL     1       3.393  20.677  85.091  1.00  0.00    -0.361 N 
HETATM    5  C6  UNL     1       2.451  19.716  85.518  1.00  0.00     0.143 C 
HETATM    6  C7  UNL     1       2.753  18.329  84.985  1.00  0.00     0.134 C 
HETATM    7  N3  UNL     1       3.823  17.673  85.629  1.00  0.00    -0.415 N 
ATOM      8  H3  UNL     1       3.823  16.662  85.766  1.00  0.00     0.153 HD
HETATM    9  C8  UNL     1       4.892  18.481  86.076  1.00  0.00     0.089 C 
HETATM   10  C11 UNL     1       5.583  19.255  84.952  1.00  0.00     0.084 C 
HETATM   11  C12 UNL     1       4.731  20.427  84.568  1.00  0.00     0.044 C 
HETATM   12  C13 UNL     1       5.269  21.239  83.664  1.00  0.00     0.135 C 
HETATM   13  N5  UNL     1       4.490  22.352  83.194  1.00  0.00    -0.340 N 
HETATM   14  C15 UNL     1       4.676  23.361  82.198  1.00  0.00     0.134 C 
HETATM   15  C16 UNL     1       3.279  23.339  81.565  1.00  0.00     0.066 C 
ENDROOT
BRANCH   9  16
HETATM   16  C9  UNL     1       5.929  17.813  86.902  1.00  0.00     0.110 C 
BRANCH  16  17
HETATM   17  C10 UNL     1       5.401  17.020  88.031  1.00  0.00     0.137 C 
HETATM   18  N4  UNL     1       5.845  15.854  88.345  1.00  0.00    -0.251 N 
ATOM     19  H4  UNL     1       5.428  15.368  89.140  1.00  0.00     0.196 HD
BRANCH  17  20
HETATM   20  O4  UNL     1       4.378  17.556  88.791  1.00  0.00    -0.348 OA
ATOM     21  H4  UNL     1       4.167  17.144  89.620  1.00  0.00     0.219 HD
ENDBRANCH  17  20
BRANCH  18  22
HETATM   22  O5  UNL     1       6.861  15.234  87.649  1.00  0.00    -0.288 OA
ATOM     23  H5  UNL     1       6.962  15.316  86.708  1.00  0.00     0.244 HD
ENDBRANCH  18  22
ENDBRANCH  16  17
ENDBRANCH   9  16
BRANCH  12  24
HETATM   24  C14 UNL     1       6.589  21.034  83.121  1.00  0.00     0.229 C 
HETATM   25  O6  UNL     1       7.623  21.425  83.702  1.00  0.00    -0.643 OA
HETATM   26  O7  UNL     1       6.767  20.374  81.886  1.00  0.00    -0.643 OA
ENDBRANCH  12  24
BRANCH   3  27
HETATM   27  C5  UNL     1       1.948  22.472  85.982  1.00  0.00     0.203 C 
HETATM   28  O2  UNL     1       0.710  22.338  85.828  1.00  0.00    -0.646 OA
HETATM   29  O3  UNL     1       2.266  23.122  87.206  1.00  0.00    -0.646 OA
ENDBRANCH   3  27
BRANCH   1  30
HETATM   30  C1  UNL     1       0.987  23.221  82.715  1.00  0.00     0.263 C 
HETATM   31  N1  UNL     1       0.124  22.110  82.383  1.00  0.00    -0.057 NA
HETATM   32  O1  UNL     1       0.406  24.283  82.926  1.00  0.00    -0.271 OA
ENDBRANCH   1  30
TORSDOF 7
ENDMDL
MODEL 5
REMARK VINA RESULT: -6.584996808      3.112      6.767
REMARK  7 active torsions:
REMARK  status: ('A' for Active; 'I' for Inactive)
REMARK    1  A    between atoms: C1_2  and  C2_4 
REMARK    2  A    between atoms: C4_6  and  C5_7 
REMARK    3  A    between atoms: C8_15  and  C9_16 
REMARK    4  A    between atoms: C9_16  and  C10_17 
REMARK    5  A    between atoms: C10_17  and  O4_18 
REMARK    6  A    between atoms: N4_20  and  O5_22 
REMARK    7  A    between atoms: C13_26  and  C14_27 
ROOT
HETATM    1  C2  UNL     1       4.998  22.056  82.852  1.00  0.00     0.034 C 
HETATM    2  C3  UNL     1       5.094  21.498  84.020  1.00  0.00     0.057 C 
HETATM    3  C4  UNL     1       4.341  21.276  85.271  1.00  0.00     0.237 C 
HETATM    4  N2  UNL     1       4.123  19.845  85.315  1.00  0.00    -0.361 N 
HETATM    5  C6  UNL     1       2.798  19.357  85.334  1.00  0.00     0.143 C 
HETATM    6  C7  UNL     1       2.709  17.901  84.918  1.00  0.00     0.134 C 
HETATM    7  N3  UNL     1       3.139  16.983  85.899  1.00  0.00    -0.415 N 
ATOM      8  H3  UNL     1       2.701  16.068  86.001  1.00  0.00     0.153 HD
HETATM    9  C8  UNL     1       4.203  17.392  86.734  1.00  0.00     0.089 C 
HETATM   10  C11 UNL     1       5.488  17.714  85.971  1.00  0.00     0.084 C 
HETATM   11  C12 UNL     1       5.351  19.060  85.325  1.00  0.00     0.044 C 
HETATM   12  C13 UNL     1       6.442  19.500  84.709  1.00  0.00     0.135 C 
HETATM   13  N5  UNL     1       6.376  20.755  84.010  1.00  0.00    -0.340 N 
HETATM   14  C15 UNL     1       7.276  21.494  83.182  1.00  0.00     0.134 C 
HETATM   15  C16 UNL     1       6.302  21.908  82.071  1.00  0.00     0.066 C 
ENDROOT
BRANCH   9  16
HETATM   16  C9  UNL     1       4.535  16.497  87.872  1.00  0.00     0.110 C 
BRANCH  16  17
HETATM   17  C10 UNL     1       5.167  15.219  87.486  1.00  0.00     0.137 C 
HETATM   18  N4  UNL     1       6.211  14.742  88.068  1.00  0.00    -0.251 N 
ATOM     19  H4  UNL     1       6.589  13.851  87.744  1.00  0.00     0.196 HD
BRANCH  17  20
HETATM   20  O4  UNL     1       4.610  14.496  86.448  1.00  0.00    -0.348 OA
ATOM     21  H4  UNL     1       4.679  14.843  85.566  1.00  0.00     0.219 HD
ENDBRANCH  17  20
BRANCH  18  22
HETATM   22  O5  UNL     1       6.839  15.387  89.112  1.00  0.00    -0.288 OA
ATOM     23  H5  UNL     1       7.780  15.515  89.142  1.00  0.00     0.244 HD
ENDBRANCH  18  22
ENDBRANCH  16  17
ENDBRANCH   9  16
BRANCH  12  24
HETATM   24  C14 UNL     1       7.681  18.761  84.695  1.00  0.00     0.229 C 
HETATM   25  O6  UNL     1       8.570  18.922  85.558  1.00  0.00    -0.643 OA
HETATM   26  O7  UNL     1       7.942  17.811  83.684  1.00  0.00    -0.643 OA
ENDBRANCH  12  24
BRANCH   3  27
HETATM   27  C5  UNL     1       3.268  22.140  85.645  1.00  0.00     0.203 C 
HETATM   28  O2  UNL     1       2.279  22.548  84.989  1.00  0.00    -0.646 OA
HETATM   29  O3  UNL     1       3.272  22.643  86.975  1.00  0.00    -0.646 OA
ENDBRANCH   3  27
BRANCH   1  30
HETATM   30  C1  UNL     1       3.897  22.781  82.276  1.00  0.00     0.263 C 
HETATM   31  N1  UNL     1       2.879  22.036  81.570  1.00  0.00    -0.057 NA
HETATM   32  O1  UNL     1       3.716  23.995  82.317  1.00  0.00    -0.271 OA
ENDBRANCH   1  30
TORSDOF 7
ENDMDL
