MODEL 1
REMARK VINA RESULT: -6.694164139      0.000      0.000
REMARK  10 active torsions:
REMARK  status: ('A' for Active; 'I' for Inactive)
REMARK    1  A    between atoms: C2_2  and  O1_3 
REMARK    2  A    between atoms: C3_5  and  C4_6 
REMARK    3  A    between atoms: C4_6  and  O2_7 
REMARK    4  A    between atoms: C4_6  and  C5_9 
REMARK    5  A    between atoms: C5_9  and  O3_10 
REMARK    6  A    between atoms: C5_9  and  C6_12 
REMARK    7  A    between atoms: C6_12  and  O4_13 
REMARK    8  A    between atoms: C6_12  and  C7_15 
REMARK    9  A    between atoms: C7_15  and  O5_16 
REMARK   10  A    between atoms: C10_20  and  O6_21 
ROOT
HETATM    1  C1  UNL     1       5.068  15.104  84.890  1.00  0.00     0.049 C 
HETATM    2  C2  UNL     1       5.119  16.357  85.800  1.00  0.00     0.089 C 
HETATM    3  C3  UNL     1       6.596  16.547  86.095  1.00  0.00     0.054 C 
HETATM    4  C8  UNL     1       7.023  17.970  86.182  1.00  0.00     0.013 C 
HETATM    5  C9  UNL     1       6.382  18.883  85.120  1.00  0.00     0.042 C 
HETATM    6  C10 UNL     1       4.957  18.846  85.391  1.00  0.00     0.100 C 
HETATM    7  C11 UNL     1       4.479  17.425  85.035  1.00  0.00     0.192 C 
HETATM    8  O7  UNL     1       3.104  17.639  85.307  1.00  0.00    -0.370 OA
HETATM    9  C12 UNL     1       2.908  18.624  84.384  1.00  0.00     0.161 C 
HETATM   10  C13 UNL     1       1.657  19.312  84.268  1.00  0.00     0.030 C 
HETATM   11  C14 UNL     1       1.717  20.508  83.687  1.00  0.00     0.134 C 
HETATM   12  O8  UNL     1       2.917  21.042  83.228  1.00  0.00    -0.352 OA
HETATM   13  C15 UNL     1       4.195  20.425  83.521  1.00  0.00     0.072 C 
HETATM   14  C16 UNL     1       5.163  21.603  83.678  1.00  0.00     0.047 C 
HETATM   15  C17 UNL     1       4.544  19.686  82.286  1.00  0.00     0.047 C 
HETATM   16  C18 UNL     1       3.966  19.685  84.762  1.00  0.00     0.050 C 
HETATM   17  C19 UNL     1       3.428  20.664  85.792  1.00  0.00     0.025 C 
ENDROOT
BRANCH   3  18
HETATM   18  C4  UNL     1       6.832  15.914  87.440  1.00  0.00     0.156 C 
BRANCH  18  19
HETATM   19  O2  UNL     1       7.851  14.959  87.359  1.00  0.00    -0.392 OA
ATOM     20  H2  UNL     1       8.400  14.992  88.134  1.00  0.00     0.210 HD
ENDBRANCH  18  19
BRANCH  18  21
HETATM   21  C5  UNL     1       7.111  16.858  88.565  1.00  0.00     0.178 C 
BRANCH  21  22
HETATM   22  O3  UNL     1       5.877  17.165  89.226  1.00  0.00    -0.390 OA
ATOM     23  H3  UNL     1       6.066  17.437  90.115  1.00  0.00     0.210 HD
ENDBRANCH  21  22
BRANCH  21  24
HETATM   24  C6  UNL     1       8.035  16.396  89.629  1.00  0.00     0.172 C 
BRANCH  24  25
HETATM   25  O4  UNL     1       7.562  16.456  90.917  1.00  0.00    -0.391 OA
ATOM     26  H4  UNL     1       8.207  16.618  91.597  1.00  0.00     0.210 HD
ENDBRANCH  24  25
BRANCH  24  27
HETATM   27  C7  UNL     1       9.416  17.018  89.551  1.00  0.00     0.198 C 
BRANCH  27  28
HETATM   28  O5  UNL     1       9.968  16.663  88.298  1.00  0.00    -0.398 OA
ATOM     29  H5  UNL     1      10.191  17.470  87.848  1.00  0.00     0.209 HD
ENDBRANCH  27  28
ENDBRANCH  24  27
ENDBRANCH  21  24
ENDBRANCH  18  21
ENDBRANCH   3  18
BRANCH   2  30
HETATM   30  O1  UNL     1       4.404  15.924  86.927  1.00  0.00    -0.387 OA
ATOM     31  H1  UNL     1       3.555  16.327  86.786  1.00  0.00     0.210 HD
ENDBRANCH   2  30
BRANCH   6  32
HETATM   32  O6  UNL     1       4.789  18.872  86.802  1.00  0.00    -0.386 OA
ATOM     33  H6  UNL     1       3.928  19.231  86.982  1.00  0.00     0.210 HD
ENDBRANCH   6  32
TORSDOF 10
ENDMDL
MODEL 2
REMARK VINA RESULT: -6.562634237      2.124      7.151
REMARK  10 active torsions:
REMARK  status: ('A' for Active; 'I' for Inactive)
REMARK    1  A    between atoms: C2_2  and  O1_3 
REMARK    2  A    between atoms: C3_5  and  C4_6 
REMARK    3  A    between atoms: C4_6  and  O2_7 
REMARK    4  A    between atoms: C4_6  and  C5_9 
REMARK    5  A    between atoms: C5_9  and  O3_10 
REMARK    6  A    between atoms: C5_9  and  C6_12 
REMARK    7  A    between atoms: C6_12  and  O4_13 
REMARK    8  A    between atoms: C6_12  and  C7_15 
REMARK    9  A    between atoms: C7_15  and  O5_16 
REMARK   10  A    between atoms: C10_20  and  O6_21 
ROOT
HETATM    1  C1  UNL     1       3.697  21.683  85.618  1.00  0.00     0.049 C 
HETATM    2  C2  UNL     1       3.296  20.262  85.148  1.00  0.00     0.089 C 
HETATM    3  C3  UNL     1       3.126  20.396  83.645  1.00  0.00     0.054 C 
HETATM    4  C8  UNL     1       3.562  19.202  82.872  1.00  0.00     0.013 C 
HETATM    5  C9  UNL     1       4.864  18.561  83.392  1.00  0.00     0.042 C 
HETATM    6  C10 UNL     1       4.561  18.113  84.738  1.00  0.00     0.100 C 
HETATM    7  C11 UNL     1       4.374  19.382  85.591  1.00  0.00     0.192 C 
HETATM    8  O7  UNL     1       4.161  18.720  86.827  1.00  0.00    -0.370 OA
HETATM    9  C12 UNL     1       5.369  18.089  86.884  1.00  0.00     0.161 C 
HETATM   10  C13 UNL     1       5.691  17.165  87.931  1.00  0.00     0.030 C 
HETATM   11  C14 UNL     1       6.662  16.300  87.647  1.00  0.00     0.134 C 
HETATM   12  O8  UNL     1       7.311  16.302  86.417  1.00  0.00    -0.352 OA
HETATM   13  C15 UNL     1       6.851  17.110  85.306  1.00  0.00     0.072 C 
HETATM   14  C16 UNL     1       7.149  16.262  84.064  1.00  0.00     0.047 C 
HETATM   15  C17 UNL     1       7.749  18.287  85.302  1.00  0.00     0.047 C 
HETATM   16  C18 UNL     1       5.422  17.296  85.558  1.00  0.00     0.050 C 
HETATM   17  C19 UNL     1       4.795  15.921  85.709  1.00  0.00     0.025 C 
ENDROOT
BRANCH   3  18
HETATM   18  C4  UNL     1       1.650  20.579  83.413  1.00  0.00     0.156 C 
BRANCH  18  19
HETATM   19  O2  UNL     1       1.419  21.678  82.578  1.00  0.00    -0.392 OA
ATOM     20  H2  UNL     1       1.138  21.389  81.718  1.00  0.00     0.210 HD
ENDBRANCH  18  19
BRANCH  18  21
HETATM   21  C5  UNL     1       0.920  19.384  82.889  1.00  0.00     0.178 C 
BRANCH  21  22
HETATM   22  O3  UNL     1      -0.121  19.040  83.812  1.00  0.00    -0.390 OA
ATOM     23  H3  UNL     1      -0.960  19.175  83.390  1.00  0.00     0.210 HD
ENDBRANCH  21  22
BRANCH  21  24
HETATM   24  C6  UNL     1       0.261  19.512  81.567  1.00  0.00     0.172 C 
BRANCH  24  25
HETATM   25  O4  UNL     1      -0.994  20.068  81.561  1.00  0.00    -0.391 OA
ATOM     26  H4  UNL     1      -1.714  19.484  81.352  1.00  0.00     0.210 HD
ENDBRANCH  24  25
BRANCH  24  27
HETATM   27  C7  UNL     1       0.267  18.231  80.754  1.00  0.00     0.198 C 
BRANCH  27  28
HETATM   28  O5  UNL     1      -0.441  17.258  81.496  1.00  0.00    -0.398 OA
ATOM     29  H5  UNL     1       0.137  16.951  82.185  1.00  0.00     0.209 HD
ENDBRANCH  27  28
ENDBRANCH  24  27
ENDBRANCH  21  24
ENDBRANCH  18  21
ENDBRANCH   3  18
BRANCH   2  30
HETATM   30  O1  UNL     1       2.070  20.077  85.806  1.00  0.00    -0.387 OA
ATOM     31  H1  UNL     1       1.535  20.759  85.417  1.00  0.00     0.210 HD
ENDBRANCH   2  30
BRANCH   6  32
HETATM   32  O6  UNL     1       3.248  17.569  84.722  1.00  0.00    -0.386 OA
ATOM     33  H6  UNL     1       3.184  16.954  85.444  1.00  0.00     0.210 HD
ENDBRANCH   6  32
TORSDOF 10
ENDMDL
MODEL 3
REMARK VINA RESULT: -6.447525133      1.015      1.279
REMARK  10 active torsions:
REMARK  status: ('A' for Active; 'I' for Inactive)
REMARK    1  A    between atoms: C2_2  and  O1_3 
REMARK    2  A    between atoms: C3_5  and  C4_6 
REMARK    3  A    between atoms: C4_6  and  O2_7 
REMARK    4  A    between atoms: C4_6  and  C5_9 
REMARK    5  A    between atoms: C5_9  and  O3_10 
REMARK    6  A    between atoms: C5_9  and  C6_12 
REMARK    7  A    between atoms: C6_12  and  O4_13 
REMARK    8  A    between atoms: C6_12  and  C7_15 
REMARK    9  A    between atoms: C7_15  and  O5_16 
REMARK   10  A    between atoms: C10_20  and  O6_21 
ROOT
HETATM    1  C1  UNL     1       3.782  15.462  85.663  1.00  0.00     0.049 C 
HETATM    2  C2  UNL     1       4.091  16.869  86.236  1.00  0.00     0.089 C 
HETATM    3  C3  UNL     1       5.590  16.858  86.471  1.00  0.00     0.054 C 
HETATM    4  C8  UNL     1       6.259  18.160  86.205  1.00  0.00     0.013 C 
HETATM    5  C9  UNL     1       5.736  18.888  84.952  1.00  0.00     0.042 C 
HETATM    6  C10 UNL     1       4.340  19.172  85.229  1.00  0.00     0.100 C 
HETATM    7  C11 UNL     1       3.609  17.816  85.235  1.00  0.00     0.192 C 
HETATM    8  O7  UNL     1       2.305  18.332  85.450  1.00  0.00    -0.370 OA
HETATM    9  C12 UNL     1       2.239  19.083  84.314  1.00  0.00     0.161 C 
HETATM   10  C13 UNL     1       1.121  19.935  84.036  1.00  0.00     0.030 C 
HETATM   11  C14 UNL     1       1.358  20.924  83.178  1.00  0.00     0.134 C 
HETATM   12  O8  UNL     1       2.609  21.110  82.599  1.00  0.00    -0.352 OA
HETATM   13  C15 UNL     1       3.774  20.363  83.030  1.00  0.00     0.072 C 
HETATM   14  C16 UNL     1       4.937  21.352  82.890  1.00  0.00     0.047 C 
HETATM   15  C17 UNL     1       3.933  19.298  82.014  1.00  0.00     0.047 C 
HETATM   16  C18 UNL     1       3.480  19.998  84.416  1.00  0.00     0.050 C 
HETATM   17  C19 UNL     1       3.167  21.276  85.176  1.00  0.00     0.025 C 
ENDROOT
BRANCH   3  18
HETATM   18  C4  UNL     1       5.776  16.536  87.930  1.00  0.00     0.156 C 
BRANCH  18  19
HETATM   19  O2  UNL     1       5.538  15.178  88.166  1.00  0.00    -0.392 OA
ATOM     20  H2  UNL     1       6.100  14.858  88.862  1.00  0.00     0.210 HD
ENDBRANCH  18  19
BRANCH  18  21
HETATM   21  C5  UNL     1       7.092  16.930  88.522  1.00  0.00     0.178 C 
BRANCH  21  22
HETATM   22  O3  UNL     1       7.073  16.636  89.924  1.00  0.00    -0.390 OA
ATOM     23  H3  UNL     1       7.387  15.749  90.054  1.00  0.00     0.210 HD
ENDBRANCH  21  22
BRANCH  21  24
HETATM   24  C6  UNL     1       8.306  16.266  87.986  1.00  0.00     0.172 C 
BRANCH  24  25
HETATM   25  O4  UNL     1       8.273  14.895  87.918  1.00  0.00    -0.391 OA
ATOM     26  H4  UNL     1       8.864  14.429  88.498  1.00  0.00     0.210 HD
ENDBRANCH  24  25
BRANCH  24  27
HETATM   27  C7  UNL     1       9.593  16.724  88.645  1.00  0.00     0.198 C 
BRANCH  27  28
HETATM   28  O5  UNL     1      10.306  17.488  87.691  1.00  0.00    -0.398 OA
ATOM     29  H5  UNL     1       9.888  17.351  86.849  1.00  0.00     0.209 HD
ENDBRANCH  27  28
ENDBRANCH  24  27
ENDBRANCH  21  24
ENDBRANCH  18  21
ENDBRANCH   3  18
BRANCH   2  30
HETATM   30  O1  UNL     1       3.365  16.855  87.438  1.00  0.00    -0.387 OA
ATOM     31  H1  UNL     1       3.203  17.781  87.578  1.00  0.00     0.210 HD
ENDBRANCH   2  30
BRANCH   6  32
HETATM   32  O6  UNL     1       4.245  19.568  86.591  1.00  0.00    -0.386 OA
ATOM     33  H6  UNL     1       3.365  19.897  86.733  1.00  0.00     0.210 HD
ENDBRANCH   6  32
TORSDOF 10
ENDMDL
MODEL 4
REMARK VINA RESULT: -6.354134917      2.613      4.527
REMARK  10 active torsions:
REMARK  status: ('A' for Active; 'I' for Inactive)
REMARK    1  A    between atoms: C2_2  and  O1_3 
REMARK    2  A    between atoms: C3_5  and  C4_6 
REMARK    3  A    between atoms: C4_6  and  O2_7 
REMARK    4  A    between atoms: C4_6  and  C5_9 
REMARK    5  A    between atoms: C5_9  and  O3_10 
REMARK    6  A    between atoms: C5_9  and  C6_12 
REMARK    7  A    between atoms: C6_12  and  O4_13 
REMARK    8  A    between atoms: C6_12  and  C7_15 
REMARK    9  A    between atoms: C7_15  and  O5_16 
REMARK   10  A    between atoms: C10_20  and  O6_21 
ROOT
HETATM    1  C1  UNL     1       2.324  19.225  82.268  1.00  0.00     0.049 C 
HETATM    2  C2  UNL     1       2.352  19.595  83.773  1.00  0.00     0.089 C 
HETATM    3  C3  UNL     1       3.797  19.378  84.186  1.00  0.00     0.054 C 
HETATM    4  C8  UNL     1       4.298  20.357  85.189  1.00  0.00     0.013 C 
HETATM    5  C9  UNL     1       3.834  21.805  84.937  1.00  0.00     0.042 C 
HETATM    6  C10 UNL     1       2.388  21.770  85.057  1.00  0.00     0.100 C 
HETATM    7  C11 UNL     1       1.867  20.970  83.849  1.00  0.00     0.192 C 
HETATM    8  O7  UNL     1       0.485  21.121  84.134  1.00  0.00    -0.370 OA
HETATM    9  C12 UNL     1       0.452  22.483  84.055  1.00  0.00     0.161 C 
HETATM   10  C13 UNL     1      -0.734  23.228  84.354  1.00  0.00     0.030 C 
HETATM   11  C14 UNL     1      -0.538  24.502  84.683  1.00  0.00     0.134 C 
HETATM   12  O8  UNL     1       0.735  25.061  84.731  1.00  0.00    -0.352 OA
HETATM   13  C15 UNL     1       1.933  24.254  84.613  1.00  0.00     0.072 C 
HETATM   14  C16 UNL     1       2.949  24.939  85.535  1.00  0.00     0.047 C 
HETATM   15  C17 UNL     1       2.370  24.436  83.210  1.00  0.00     0.047 C 
HETATM   16  C18 UNL     1       1.526  22.927  85.074  1.00  0.00     0.050 C 
HETATM   17  C19 UNL     1       0.939  23.080  86.467  1.00  0.00     0.025 C 
ENDROOT
BRANCH   3  18
HETATM   18  C4  UNL     1       3.845  18.012  84.815  1.00  0.00     0.156 C 
BRANCH  18  19
HETATM   19  O2  UNL     1       4.858  17.241  84.235  1.00  0.00    -0.392 OA
ATOM     20  H2  UNL     1       5.601  17.170  84.823  1.00  0.00     0.210 HD
ENDBRANCH  18  19
BRANCH  18  21
HETATM   21  C5  UNL     1       3.979  17.984  86.304  1.00  0.00     0.178 C 
BRANCH  21  22
HETATM   22  O3  UNL     1       2.674  17.851  86.881  1.00  0.00    -0.390 OA
ATOM     23  H3  UNL     1       2.072  18.410  86.405  1.00  0.00     0.210 HD
ENDBRANCH  21  22
BRANCH  21  24
HETATM   24  C6  UNL     1       4.794  16.895  86.895  1.00  0.00     0.172 C 
BRANCH  24  25
HETATM   25  O4  UNL     1       4.231  15.643  86.899  1.00  0.00    -0.391 OA
ATOM     26  H4  UNL     1       3.927  15.319  87.739  1.00  0.00     0.210 HD
ENDBRANCH  24  25
BRANCH  24  27
HETATM   27  C7  UNL     1       5.347  17.223  88.270  1.00  0.00     0.198 C 
BRANCH  27  28
HETATM   28  O5  UNL     1       4.246  17.518  89.107  1.00  0.00    -0.398 OA
ATOM     29  H5  UNL     1       4.295  18.442  89.324  1.00  0.00     0.209 HD
ENDBRANCH  27  28
ENDBRANCH  24  27
ENDBRANCH  21  24
ENDBRANCH  18  21
ENDBRANCH   3  18
BRANCH   2  30
HETATM   30  O1  UNL     1       1.493  18.630  84.322  1.00  0.00    -0.387 OA
ATOM     31  H1  UNL     1       1.667  18.722  85.252  1.00  0.00     0.210 HD
ENDBRANCH   2  30
BRANCH   6  32
HETATM   32  O6  UNL     1       2.069  20.912  86.144  1.00  0.00    -0.386 OA
ATOM     33  H6  UNL     1       1.905  21.459  86.903  1.00  0.00     0.210 HD
ENDBRANCH   6  32
TORSDOF 10
ENDMDL
MODEL 5
REMARK VINA RESULT: -6.238332458      3.149      4.782
REMARK  10 active torsions:
REMARK  status: ('A' for Active; 'I' for Inactive)
REMARK    1  A    between atoms: C2_2  and  O1_3 
REMARK    2  A    between atoms: C3_5  and  C4_6 
REMARK    3  A    between atoms: C4_6  and  O2_7 
REMARK    4  A    between atoms: C4_6  and  C5_9 
REMARK    5  A    between atoms: C5_9  and  O3_10 
REMARK    6  A    between atoms: C5_9  and  C6_12 
REMARK    7  A    between atoms: C6_12  and  O4_13 
REMARK    8  A    between atoms: C6_12  and  C7_15 
REMARK    9  A    between atoms: C7_15  and  O5_16 
REMARK   10  A    between atoms: C10_20  and  O6_21 
ROOT
HETATM    1  C1  UNL     1       4.319  18.754  83.417  1.00  0.00     0.049 C 
HETATM    2  C2  UNL     1       5.527  18.427  84.331  1.00  0.00     0.089 C 
HETATM    3  C3  UNL     1       5.485  16.917  84.485  1.00  0.00     0.054 C 
HETATM    4  C8  UNL     1       6.824  16.272  84.547  1.00  0.00     0.013 C 
HETATM    5  C9  UNL     1       7.850  16.864  83.561  1.00  0.00     0.042 C 
HETATM    6  C10 UNL     1       8.021  18.246  83.968  1.00  0.00     0.100 C 
HETATM    7  C11 UNL     1       6.698  18.965  83.644  1.00  0.00     0.192 C 
HETATM    8  O7  UNL     1       7.110  20.260  84.051  1.00  0.00    -0.370 OA
HETATM    9  C12 UNL     1       8.136  20.390  83.162  1.00  0.00     0.161 C 
HETATM   10  C13 UNL     1       9.008  21.527  83.174  1.00  0.00     0.030 C 
HETATM   11  C14 UNL     1      10.195  21.339  82.603  1.00  0.00     0.134 C 
HETATM   12  O8  UNL     1      10.555  20.121  82.037  1.00  0.00    -0.352 OA
HETATM   13  C15 UNL     1       9.744  18.930  82.198  1.00  0.00     0.072 C 
HETATM   14  C16 UNL     1      10.759  17.783  82.274  1.00  0.00     0.047 C 
HETATM   15  C17 UNL     1       8.993  18.815  80.927  1.00  0.00     0.047 C 
HETATM   16  C18 UNL     1       9.016  19.151  83.447  1.00  0.00     0.050 C 
HETATM   17  C19 UNL     1      10.038  19.435  84.535  1.00  0.00     0.025 C 
ENDROOT
BRANCH   3  18
HETATM   18  C4  UNL     1       4.789  16.655  85.794  1.00  0.00     0.156 C 
BRANCH  18  19
HETATM   19  O2  UNL     1       3.679  15.826  85.601  1.00  0.00    -0.392 OA
ATOM     20  H2  UNL     1       3.890  15.121  85.000  1.00  0.00     0.210 HD
ENDBRANCH  18  19
BRANCH  18  21
HETATM   21  C5  UNL     1       5.646  16.107  86.889  1.00  0.00     0.178 C 
BRANCH  21  22
HETATM   22  O3  UNL     1       6.051  17.185  87.741  1.00  0.00    -0.390 OA
ATOM     23  H3  UNL     1       6.964  17.383  87.568  1.00  0.00     0.210 HD
ENDBRANCH  21  22
BRANCH  21  24
HETATM   24  C6  UNL     1       5.040  15.091  87.784  1.00  0.00     0.172 C 
BRANCH  24  25
HETATM   25  O4  UNL     1       3.996  15.513  88.569  1.00  0.00    -0.391 OA
ATOM     26  H4  UNL     1       3.754  16.429  88.495  1.00  0.00     0.210 HD
ENDBRANCH  24  25
BRANCH  24  27
HETATM   27  C7  UNL     1       6.052  14.336  88.626  1.00  0.00     0.198 C 
BRANCH  27  28
HETATM   28  O5  UNL     1       7.339  14.721  88.182  1.00  0.00    -0.398 OA
ATOM     29  H5  UNL     1       7.656  15.390  88.778  1.00  0.00     0.209 HD
ENDBRANCH  27  28
ENDBRANCH  24  27
ENDBRANCH  21  24
ENDBRANCH  18  21
ENDBRANCH   3  18
BRANCH   2  30
HETATM   30  O1  UNL     1       5.177  19.091  85.518  1.00  0.00    -0.387 OA
ATOM     31  H1  UNL     1       5.826  19.784  85.552  1.00  0.00     0.210 HD
ENDBRANCH   2  30
BRANCH   6  32
HETATM   32  O6  UNL     1       8.036  18.275  85.389  1.00  0.00    -0.386 OA
ATOM     33  H6  UNL     1       8.811  17.806  85.677  1.00  0.00     0.210 HD
ENDBRANCH   6  32
TORSDOF 10
ENDMDL
