MODEL 1
REMARK VINA RESULT: -6.150601761      0.000      0.000
REMARK  12 active torsions:
REMARK  status: ('A' for Active; 'I' for Inactive)
REMARK    1  A    between atoms: O1_2  and  C2_3 
REMARK    2  A    between atoms: C2_3  and  C3_5 
REMARK    3  A    between atoms: C3_5  and  N1_6 
REMARK    4  A    between atoms: N1_6  and  O3_7 
REMARK    5  A    between atoms: C8_14  and  C9_15 
REMARK    6  A    between atoms: C9_15  and  O5_16 
REMARK    7  A    between atoms: C9_15  and  C10_18 
REMARK    8  A    between atoms: C10_18  and  O6_19 
REMARK    9  A    between atoms: C10_18  and  C11_21 
REMARK   10  A    between atoms: C11_21  and  O7_22 
REMARK   11  A    between atoms: C16_34  and  C17_35 
REMARK   12  A    between atoms: C17_35  and  O9_36 
ROOT
HETATM    1  C3  UNL     1      -6.065  39.959  26.128  1.00  0.00     0.147 C 
HETATM    2  C4  UNL     1      -4.742  40.622  26.078  1.00  0.00     0.045 C 
HETATM    3  C5  UNL     1      -4.391  41.471  27.250  1.00  0.00     0.074 C 
HETATM    4  C6  UNL     1      -3.353  40.871  28.158  1.00  0.00     0.192 C 
HETATM    5  C7  UNL     1      -3.576  39.491  28.587  1.00  0.00     0.237 C 
HETATM    6  O4  UNL     1      -4.648  38.834  28.041  1.00  0.00    -0.378 OA
HETATM    7  C8  UNL     1      -5.865  39.216  28.544  1.00  0.00     0.155 C 
HETATM    8  C12 UNL     1      -6.702  39.771  27.452  1.00  0.00     0.074 C 
HETATM    9  O8  UNL     1      -3.073  41.738  29.213  1.00  0.00    -0.313 OA
HETATM   10  C13 UNL     1      -1.699  41.762  28.881  1.00  0.00     0.209 C 
HETATM   11  C14 UNL     1      -0.862  40.851  29.720  1.00  0.00     0.193 C 
HETATM   12  N2  UNL     1       0.097  41.502  30.552  1.00  0.00    -0.359 N 
ATOM     13  H2  UNL     1       0.618  40.909  31.197  1.00  0.00     0.162 HD
HETATM   14  C15 UNL     1       0.370  42.741  30.572  1.00  0.00     0.184 C 
HETATM   15  N3  UNL     1       1.355  43.241  31.459  1.00  0.00    -0.064 NA
HETATM   16  N4  UNL     1      -0.313  43.612  29.708  1.00  0.00    -0.353 N 
ATOM     17  H4  UNL     1      -0.220  44.620  29.836  1.00  0.00     0.162 HD
HETATM   18  C16 UNL     1      -1.139  43.108  28.648  1.00  0.00     0.171 C 
HETATM   19  O10 UNL     1      -2.046  41.126  27.687  1.00  0.00    -0.313 OA
ENDROOT
BRANCH   1  20
HETATM   20  C2  UNL     1      -7.024  40.804  25.322  1.00  0.00     0.285 C 
HETATM   21  O2  UNL     1      -6.790  41.238  24.191  1.00  0.00    -0.263 OA
BRANCH  20  22
HETATM   22  O1  UNL     1      -8.242  41.088  25.938  1.00  0.00    -0.325 OA
HETATM   23  C1  UNL     1      -8.661  42.446  26.047  1.00  0.00     0.213 C 
ENDBRANCH  20  22
ENDBRANCH   1  20
BRANCH   1  24
HETATM   24  N1  UNL     1      -5.968  38.699  25.375  1.00  0.00    -0.083 NA
BRANCH  24  25
HETATM   25  O3  UNL     1      -7.096  38.471  24.668  1.00  0.00    -0.295 OA
ATOM     26  H3  UNL     1      -6.898  38.043  23.843  1.00  0.00     0.238 HD
ENDBRANCH  24  25
ENDBRANCH   1  24
BRANCH   7  27
HETATM   27  C9  UNL     1      -6.540  38.135  29.352  1.00  0.00     0.178 C 
BRANCH  27  28
HETATM   28  O5  UNL     1      -6.720  38.630  30.644  1.00  0.00    -0.390 OA
ATOM     29  H5  UNL     1      -7.460  39.225  30.621  1.00  0.00     0.210 HD
ENDBRANCH  27  28
BRANCH  27  30
HETATM   30  C10 UNL     1      -5.784  36.864  29.442  1.00  0.00     0.172 C 
BRANCH  30  31
HETATM   31  O6  UNL     1      -4.668  36.965  30.275  1.00  0.00    -0.391 OA
ATOM     32  H6  UNL     1      -4.647  36.284  30.938  1.00  0.00     0.210 HD
ENDBRANCH  30  31
BRANCH  30  33
HETATM   33  C11 UNL     1      -6.689  35.827  30.086  1.00  0.00     0.198 C 
BRANCH  33  34
HETATM   34  O7  UNL     1      -8.022  36.149  29.866  1.00  0.00    -0.398 OA
ATOM     35  H7  UNL     1      -8.582  35.423  30.116  1.00  0.00     0.209 HD
ENDBRANCH  33  34
ENDBRANCH  30  33
ENDBRANCH  27  30
ENDBRANCH   7  27
BRANCH  18  36
HETATM   36  C17 UNL     1      -0.296  43.176  27.369  1.00  0.00     0.195 C 
BRANCH  36  37
HETATM   37  O9  UNL     1      -1.044  43.569  26.278  1.00  0.00    -0.399 OA
ATOM     38  H9  UNL     1      -0.505  43.703  25.507  1.00  0.00     0.209 HD
ENDBRANCH  36  37
ENDBRANCH  18  36
TORSDOF 12
ENDMDL
MODEL 2
REMARK VINA RESULT: -5.944336394      4.040      6.841
REMARK  12 active torsions:
REMARK  status: ('A' for Active; 'I' for Inactive)
REMARK    1  A    between atoms: O1_2  and  C2_3 
REMARK    2  A    between atoms: C2_3  and  C3_5 
REMARK    3  A    between atoms: C3_5  and  N1_6 
REMARK    4  A    between atoms: N1_6  and  O3_7 
REMARK    5  A    between atoms: C8_14  and  C9_15 
REMARK    6  A    between atoms: C9_15  and  O5_16 
REMARK    7  A    between atoms: C9_15  and  C10_18 
REMARK    8  A    between atoms: C10_18  and  O6_19 
REMARK    9  A    between atoms: C10_18  and  C11_21 
REMARK   10  A    between atoms: C11_21  and  O7_22 
REMARK   11  A    between atoms: C16_34  and  C17_35 
REMARK   12  A    between atoms: C17_35  and  O9_36 
ROOT
HETATM    1  C3  UNL     1      -8.724  44.577  22.330  1.00  0.00     0.147 C 
HETATM    2  C4  UNL     1      -7.475  43.804  22.516  1.00  0.00     0.045 C 
HETATM    3  C5  UNL     1      -6.753  44.027  23.799  1.00  0.00     0.074 C 
HETATM    4  C6  UNL     1      -6.858  42.888  24.775  1.00  0.00     0.192 C 
HETATM    5  C7  UNL     1      -8.202  42.373  25.038  1.00  0.00     0.237 C 
HETATM    6  O4  UNL     1      -9.227  42.901  24.297  1.00  0.00    -0.378 OA
HETATM    7  C8  UNL     1      -9.608  44.164  24.671  1.00  0.00     0.155 C 
HETATM    8  C12 UNL     1      -9.409  45.099  23.537  1.00  0.00     0.074 C 
HETATM    9  O8  UNL     1      -6.140  43.174  25.934  1.00  0.00    -0.313 OA
HETATM   10  C13 UNL     1      -5.362  42.002  25.788  1.00  0.00     0.209 C 
HETATM   11  C14 UNL     1      -5.824  40.864  26.640  1.00  0.00     0.193 C 
HETATM   12  N2  UNL     1      -4.904  40.447  27.647  1.00  0.00    -0.359 N 
ATOM     13  H2  UNL     1      -5.232  39.732  28.296  1.00  0.00     0.162 HD
HETATM   14  C15 UNL     1      -3.721  40.872  27.820  1.00  0.00     0.184 C 
HETATM   15  N3  UNL     1      -2.923  40.356  28.871  1.00  0.00    -0.064 NA
HETATM   16  N4  UNL     1      -3.209  41.857  26.961  1.00  0.00    -0.353 N 
ATOM     17  H4  UNL     1      -2.330  42.319  27.194  1.00  0.00     0.162 HD
HETATM   18  C16 UNL     1      -3.902  42.225  25.759  1.00  0.00     0.171 C 
HETATM   19  O10 UNL     1      -5.899  41.886  24.505  1.00  0.00    -0.313 OA
ENDROOT
BRANCH   1  20
HETATM   20  C2  UNL     1      -8.385  45.786  21.489  1.00  0.00     0.285 C 
HETATM   21  O2  UNL     1      -9.145  46.738  21.298  1.00  0.00    -0.263 OA
BRANCH  20  22
HETATM   22  O1  UNL     1      -7.116  45.781  20.911  1.00  0.00    -0.325 OA
HETATM   23  C1  UNL     1      -6.366  46.992  20.882  1.00  0.00     0.213 C 
ENDBRANCH  20  22
ENDBRANCH   1  20
BRANCH   1  24
HETATM   24  N1  UNL     1      -9.625  43.783  21.481  1.00  0.00    -0.083 NA
BRANCH  24  25
HETATM   25  O3  UNL     1      -9.462  44.099  20.178  1.00  0.00    -0.295 OA
ATOM     26  H3  UNL     1      -9.609  45.026  20.033  1.00  0.00     0.238 HD
ENDBRANCH  24  25
ENDBRANCH   1  24
BRANCH   7  27
HETATM   27  C9  UNL     1     -10.988  44.214  25.278  1.00  0.00     0.178 C 
BRANCH  27  28
HETATM   28  O5  UNL     1     -11.804  44.931  24.402  1.00  0.00    -0.390 OA
ATOM     29  H5  UNL     1     -12.664  44.528  24.420  1.00  0.00     0.210 HD
ENDBRANCH  27  28
BRANCH  27  30
HETATM   30  C10 UNL     1     -11.057  44.859  26.611  1.00  0.00     0.172 C 
BRANCH  30  31
HETATM   31  O6  UNL     1     -12.353  45.259  26.943  1.00  0.00    -0.391 OA
ATOM     32  H6  UNL     1     -12.570  46.115  26.591  1.00  0.00     0.210 HD
ENDBRANCH  30  31
BRANCH  30  33
HETATM   33  C11 UNL     1     -10.663  43.824  27.651  1.00  0.00     0.198 C 
BRANCH  33  34
HETATM   34  O7  UNL     1     -10.828  42.543  27.142  1.00  0.00    -0.398 OA
ATOM     35  H7  UNL     1     -10.023  42.243  26.735  1.00  0.00     0.209 HD
ENDBRANCH  33  34
ENDBRANCH  30  33
ENDBRANCH  27  30
ENDBRANCH   7  27
BRANCH  18  36
HETATM   36  C17 UNL     1      -3.219  41.468  24.613  1.00  0.00     0.195 C 
BRANCH  36  37
HETATM   37  O9  UNL     1      -3.270  42.172  23.427  1.00  0.00    -0.399 OA
ATOM     38  H9  UNL     1      -4.158  42.246  23.095  1.00  0.00     0.209 HD
ENDBRANCH  36  37
ENDBRANCH  18  36
TORSDOF 12
ENDMDL
MODEL 3
REMARK VINA RESULT: -5.758066188      2.793      5.011
REMARK  12 active torsions:
REMARK  status: ('A' for Active; 'I' for Inactive)
REMARK    1  A    between atoms: O1_2  and  C2_3 
REMARK    2  A    between atoms: C2_3  and  C3_5 
REMARK    3  A    between atoms: C3_5  and  N1_6 
REMARK    4  A    between atoms: N1_6  and  O3_7 
REMARK    5  A    between atoms: C8_14  and  C9_15 
REMARK    6  A    between atoms: C9_15  and  O5_16 
REMARK    7  A    between atoms: C9_15  and  C10_18 
REMARK    8  A    between atoms: C10_18  and  O6_19 
REMARK    9  A    between atoms: C10_18  and  C11_21 
REMARK   10  A    between atoms: C11_21  and  O7_22 
REMARK   11  A    between atoms: C16_34  and  C17_35 
REMARK   12  A    between atoms: C17_35  and  O9_36 
ROOT
HETATM    1  C3  UNL     1      -6.033  36.649  29.739  1.00  0.00     0.147 C 
HETATM    2  C4  UNL     1      -5.605  37.992  30.192  1.00  0.00     0.045 C 
HETATM    3  C5  UNL     1      -4.136  38.235  30.220  1.00  0.00     0.074 C 
HETATM    4  C6  UNL     1      -3.639  39.139  29.125  1.00  0.00     0.192 C 
HETATM    5  C7  UNL     1      -4.070  38.819  27.764  1.00  0.00     0.237 C 
HETATM    6  O4  UNL     1      -4.969  37.794  27.621  1.00  0.00    -0.378 OA
HETATM    7  C8  UNL     1      -4.432  36.542  27.775  1.00  0.00     0.155 C 
HETATM    8  C12 UNL     1      -5.090  35.857  28.915  1.00  0.00     0.074 C 
HETATM    9  O8  UNL     1      -2.263  39.326  29.239  1.00  0.00    -0.313 OA
HETATM   10  C13 UNL     1      -2.420  40.730  29.312  1.00  0.00     0.209 C 
HETATM   11  C14 UNL     1      -2.169  41.431  28.015  1.00  0.00     0.193 C 
HETATM   12  N2  UNL     1      -1.046  42.310  28.008  1.00  0.00    -0.359 N 
ATOM     13  H2  UNL     1      -0.802  42.731  27.113  1.00  0.00     0.162 HD
HETATM   14  C15 UNL     1      -0.318  42.623  29.000  1.00  0.00     0.184 C 
HETATM   15  N3  UNL     1       0.768  43.517  28.835  1.00  0.00    -0.064 NA
HETATM   16  N4  UNL     1      -0.600  42.077  30.262  1.00  0.00    -0.353 N 
ATOM     17  H4  UNL     1       0.073  42.190  31.020  1.00  0.00     0.162 HD
HETATM   18  C16 UNL     1      -1.820  41.361  30.504  1.00  0.00     0.171 C 
HETATM   19  O10 UNL     1      -3.788  40.501  29.472  1.00  0.00    -0.313 OA
ENDROOT
BRANCH   1  20
HETATM   20  C2  UNL     1      -6.302  35.821  30.974  1.00  0.00     0.285 C 
HETATM   21  O2  UNL     1      -6.747  36.272  32.032  1.00  0.00    -0.263 OA
BRANCH  20  22
HETATM   22  O1  UNL     1      -6.014  34.461  30.862  1.00  0.00    -0.325 OA
HETATM   23  C1  UNL     1      -5.428  33.787  31.973  1.00  0.00     0.213 C 
ENDBRANCH  20  22
ENDBRANCH   1  20
BRANCH   1  24
HETATM   24  N1  UNL     1      -7.350  36.787  29.098  1.00  0.00    -0.083 NA
BRANCH  24  25
HETATM   25  O3  UNL     1      -8.299  36.131  29.800  1.00  0.00    -0.295 OA
ATOM     26  H3  UNL     1      -9.166  36.447  29.575  1.00  0.00     0.238 HD
ENDBRANCH  24  25
ENDBRANCH   1  24
BRANCH   7  27
HETATM   27  C9  UNL     1      -4.417  35.740  26.498  1.00  0.00     0.178 C 
BRANCH  27  28
HETATM   28  O5  UNL     1      -4.559  34.396  26.846  1.00  0.00    -0.390 OA
ATOM     29  H5  UNL     1      -3.751  33.953  26.611  1.00  0.00     0.210 HD
ENDBRANCH  27  28
BRANCH  27  30
HETATM   30  C10 UNL     1      -3.182  35.883  25.690  1.00  0.00     0.172 C 
BRANCH  30  31
HETATM   31  O6  UNL     1      -3.125  37.106  25.017  1.00  0.00    -0.391 OA
ATOM     32  H6  UNL     1      -3.181  37.004  24.074  1.00  0.00     0.210 HD
ENDBRANCH  30  31
BRANCH  30  33
HETATM   33  C11 UNL     1      -1.998  35.877  26.641  1.00  0.00     0.198 C 
BRANCH  33  34
HETATM   34  O7  UNL     1      -1.601  34.573  26.908  1.00  0.00    -0.398 OA
ATOM     35  H7  UNL     1      -0.723  34.421  26.577  1.00  0.00     0.209 HD
ENDBRANCH  33  34
ENDBRANCH  30  33
ENDBRANCH  27  30
ENDBRANCH   7  27
BRANCH  18  36
HETATM   36  C17 UNL     1      -2.777  42.348  31.185  1.00  0.00     0.195 C 
BRANCH  36  37
HETATM   37  O9  UNL     1      -3.000  43.469  30.410  1.00  0.00    -0.399 OA
ATOM     38  H9  UNL     1      -3.911  43.548  30.155  1.00  0.00     0.209 HD
ENDBRANCH  36  37
ENDBRANCH  18  36
TORSDOF 12
ENDMDL
MODEL 4
REMARK VINA RESULT: -5.701027558      3.114      7.819
REMARK  12 active torsions:
REMARK  status: ('A' for Active; 'I' for Inactive)
REMARK    1  A    between atoms: O1_2  and  C2_3 
REMARK    2  A    between atoms: C2_3  and  C3_5 
REMARK    3  A    between atoms: C3_5  and  N1_6 
REMARK    4  A    between atoms: N1_6  and  O3_7 
REMARK    5  A    between atoms: C8_14  and  C9_15 
REMARK    6  A    between atoms: C9_15  and  O5_16 
REMARK    7  A    between atoms: C9_15  and  C10_18 
REMARK    8  A    between atoms: C10_18  and  O6_19 
REMARK    9  A    between atoms: C10_18  and  C11_21 
REMARK   10  A    between atoms: C11_21  and  O7_22 
REMARK   11  A    between atoms: C16_34  and  C17_35 
REMARK   12  A    between atoms: C17_35  and  O9_36 
ROOT
HETATM    1  C3  UNL     1      -0.402  42.833  29.265  1.00  0.00     0.147 C 
HETATM    2  C4  UNL     1      -1.030  41.654  28.624  1.00  0.00     0.045 C 
HETATM    3  C5  UNL     1      -1.640  40.656  29.545  1.00  0.00     0.074 C 
HETATM    4  C6  UNL     1      -3.143  40.662  29.555  1.00  0.00     0.192 C 
HETATM    5  C7  UNL     1      -3.793  41.962  29.723  1.00  0.00     0.237 C 
HETATM    6  O4  UNL     1      -2.979  43.065  29.749  1.00  0.00    -0.378 OA
HETATM    7  C8  UNL     1      -2.283  43.231  30.919  1.00  0.00     0.155 C 
HETATM    8  C12 UNL     1      -0.827  43.188  30.639  1.00  0.00     0.074 C 
HETATM    9  O8  UNL     1      -3.626  39.688  30.426  1.00  0.00    -0.313 OA
HETATM   10  C13 UNL     1      -4.374  39.077  29.393  1.00  0.00     0.209 C 
HETATM   11  C14 UNL     1      -5.820  39.456  29.394  1.00  0.00     0.193 C 
HETATM   12  N2  UNL     1      -6.727  38.387  29.658  1.00  0.00    -0.359 N 
ATOM     13  H2  UNL     1      -7.711  38.637  29.752  1.00  0.00     0.162 HD
HETATM   14  C15 UNL     1      -6.438  37.158  29.790  1.00  0.00     0.184 C 
HETATM   15  N3  UNL     1      -7.456  36.209  30.050  1.00  0.00    -0.064 NA
HETATM   16  N4  UNL     1      -5.100  36.748  29.673  1.00  0.00    -0.353 N 
ATOM     17  H4  UNL     1      -4.841  35.799  29.941  1.00  0.00     0.162 HD
HETATM   18  C16 UNL     1      -4.090  37.643  29.184  1.00  0.00     0.171 C 
HETATM   19  O10 UNL     1      -3.670  39.886  28.499  1.00  0.00    -0.313 OA
ENDROOT
BRANCH   1  20
HETATM   20  C2  UNL     1       1.083  42.564  29.345  1.00  0.00     0.285 C 
HETATM   21  O2  UNL     1       1.900  42.909  28.489  1.00  0.00    -0.263 OA
BRANCH  20  22
HETATM   22  O1  UNL     1       1.511  41.879  30.481  1.00  0.00    -0.325 OA
HETATM   23  C1  UNL     1       1.948  40.529  30.349  1.00  0.00     0.213 C 
ENDBRANCH  20  22
ENDBRANCH   1  20
BRANCH   1  24
HETATM   24  N1  UNL     1      -0.519  43.968  28.336  1.00  0.00    -0.083 NA
BRANCH  24  25
HETATM   25  O3  UNL     1      -1.016  43.568  27.146  1.00  0.00    -0.295 OA
ATOM     26  H3  UNL     1      -1.201  44.314  26.589  1.00  0.00     0.238 HD
ENDBRANCH  24  25
ENDBRANCH   1  24
BRANCH   7  27
HETATM   27  C9  UNL     1      -2.726  44.437  31.709  1.00  0.00     0.178 C 
BRANCH  27  28
HETATM   28  O5  UNL     1      -3.617  45.156  30.911  1.00  0.00    -0.390 OA
ATOM     29  H5  UNL     1      -4.390  45.331  31.434  1.00  0.00     0.210 HD
ENDBRANCH  27  28
BRANCH  27  30
HETATM   30  C10 UNL     1      -1.630  45.347  32.118  1.00  0.00     0.172 C 
BRANCH  30  31
HETATM   31  O6  UNL     1      -1.106  46.068  31.043  1.00  0.00    -0.391 OA
ATOM     32  H6  UNL     1      -0.846  46.949  31.289  1.00  0.00     0.210 HD
ENDBRANCH  30  31
BRANCH  30  33
HETATM   33  C11 UNL     1      -2.212  46.381  33.067  1.00  0.00     0.198 C 
BRANCH  33  34
HETATM   34  O7  UNL     1      -2.778  47.427  32.350  1.00  0.00    -0.398 OA
ATOM     35  H7  UNL     1      -3.668  47.585  32.644  1.00  0.00     0.209 HD
ENDBRANCH  33  34
ENDBRANCH  30  33
ENDBRANCH  27  30
ENDBRANCH   7  27
BRANCH  18  36
HETATM   36  C17 UNL     1      -3.884  37.299  27.703  1.00  0.00     0.195 C 
BRANCH  36  37
HETATM   37  O9  UNL     1      -2.598  37.575  27.284  1.00  0.00    -0.399 OA
ATOM     38  H9  UNL     1      -2.302  38.427  27.585  1.00  0.00     0.209 HD
ENDBRANCH  36  37
ENDBRANCH  18  36
TORSDOF 12
ENDMDL
MODEL 5
REMARK VINA RESULT: -5.672245360      3.026      4.371
REMARK  12 active torsions:
REMARK  status: ('A' for Active; 'I' for Inactive)
REMARK    1  A    between atoms: O1_2  and  C2_3 
REMARK    2  A    between atoms: C2_3  and  C3_5 
REMARK    3  A    between atoms: C3_5  and  N1_6 
REMARK    4  A    between atoms: N1_6  and  O3_7 
REMARK    5  A    between atoms: C8_14  and  C9_15 
REMARK    6  A    between atoms: C9_15  and  O5_16 
REMARK    7  A    between atoms: C9_15  and  C10_18 
REMARK    8  A    between atoms: C10_18  and  O6_19 
REMARK    9  A    between atoms: C10_18  and  C11_21 
REMARK   10  A    between atoms: C11_21  and  O7_22 
REMARK   11  A    between atoms: C16_34  and  C17_35 
REMARK   12  A    between atoms: C17_35  and  O9_36 
ROOT
HETATM    1  C3  UNL     1      -1.877  37.996  28.205  1.00  0.00     0.147 C 
HETATM    2  C4  UNL     1      -1.144  39.050  28.943  1.00  0.00     0.045 C 
HETATM    3  C5  UNL     1      -1.591  40.449  28.700  1.00  0.00     0.074 C 
HETATM    4  C6  UNL     1      -2.353  41.062  29.843  1.00  0.00     0.192 C 
HETATM    5  C7  UNL     1      -3.453  40.272  30.395  1.00  0.00     0.237 C 
HETATM    6  O4  UNL     1      -3.623  39.006  29.896  1.00  0.00    -0.378 OA
HETATM    7  C8  UNL     1      -4.181  38.959  28.644  1.00  0.00     0.155 C 
HETATM    8  C12 UNL     1      -3.235  38.311  27.704  1.00  0.00     0.074 C 
HETATM    9  O8  UNL     1      -2.714  42.372  29.538  1.00  0.00    -0.313 OA
HETATM   10  C13 UNL     1      -2.053  42.864  30.688  1.00  0.00     0.209 C 
HETATM   11  C14 UNL     1      -2.968  43.132  31.839  1.00  0.00     0.193 C 
HETATM   12  N2  UNL     1      -3.067  44.499  32.231  1.00  0.00    -0.359 N 
ATOM     13  H2  UNL     1      -3.751  44.718  32.955  1.00  0.00     0.162 HD
HETATM   14  C15 UNL     1      -2.393  45.473  31.773  1.00  0.00     0.184 C 
HETATM   15  N3  UNL     1      -2.605  46.783  32.267  1.00  0.00    -0.064 NA
HETATM   16  N4  UNL     1      -1.435  45.239  30.773  1.00  0.00    -0.353 N 
ATOM     17  H4  UNL     1      -1.014  46.031  30.287  1.00  0.00     0.162 HD
HETATM   18  C16 UNL     1      -1.039  43.905  30.424  1.00  0.00     0.171 C 
HETATM   19  O10 UNL     1      -1.481  41.597  30.818  1.00  0.00    -0.313 OA
ENDROOT
BRANCH   1  20
HETATM   20  C2  UNL     1      -1.055  37.645  26.986  1.00  0.00     0.285 C 
HETATM   21  O2  UNL     1      -0.105  36.858  26.989  1.00  0.00    -0.263 OA
BRANCH  20  22
HETATM   22  O1  UNL     1      -1.433  38.276  25.802  1.00  0.00    -0.325 OA
HETATM   23  C1  UNL     1      -0.536  39.205  25.199  1.00  0.00     0.213 C 
ENDBRANCH  20  22
ENDBRANCH   1  20
BRANCH   1  24
HETATM   24  N1  UNL     1      -1.856  36.774  29.024  1.00  0.00    -0.083 NA
BRANCH  24  25
HETATM   25  O3  UNL     1      -1.649  37.069  30.325  1.00  0.00    -0.295 OA
ATOM     26  H3  UNL     1      -0.779  36.802  30.598  1.00  0.00     0.238 HD
ENDBRANCH  24  25
ENDBRANCH   1  24
BRANCH   7  27
HETATM   27  C9  UNL     1      -5.568  38.366  28.633  1.00  0.00     0.178 C 
BRANCH  27  28
HETATM   28  O5  UNL     1      -6.383  39.193  29.408  1.00  0.00    -0.390 OA
ATOM     29  H5  UNL     1      -6.922  39.700  28.813  1.00  0.00     0.210 HD
ENDBRANCH  27  28
BRANCH  27  30
HETATM   30  C10 UNL     1      -5.658  36.988  29.171  1.00  0.00     0.172 C 
BRANCH  30  31
HETATM   31  O6  UNL     1      -4.663  36.717  30.113  1.00  0.00    -0.391 OA
ATOM     32  H6  UNL     1      -4.686  35.817  30.416  1.00  0.00     0.210 HD
ENDBRANCH  30  31
BRANCH  30  33
HETATM   33  C11 UNL     1      -6.977  36.862  29.913  1.00  0.00     0.198 C 
BRANCH  33  34
HETATM   34  O7  UNL     1      -6.776  37.003  31.280  1.00  0.00    -0.398 OA
ATOM     35  H7  UNL     1      -7.530  37.419  31.683  1.00  0.00     0.209 HD
ENDBRANCH  33  34
ENDBRANCH  30  33
ENDBRANCH  27  30
ENDBRANCH   7  27
BRANCH  18  36
HETATM   36  C17 UNL     1       0.279  43.634  31.160  1.00  0.00     0.195 C 
BRANCH  36  37
HETATM   37  O9  UNL     1       1.002  42.618  30.569  1.00  0.00    -0.399 OA
ATOM     38  H9  UNL     1       1.845  42.492  30.988  1.00  0.00     0.209 HD
ENDBRANCH  36  37
ENDBRANCH  18  36
TORSDOF 12
ENDMDL
