MODEL 1
REMARK VINA RESULT: -7.949595239      0.000      0.000
REMARK  10 active torsions:
REMARK  status: ('A' for Active; 'I' for Inactive)
REMARK    1  A    between atoms: C4_7  and  N4_8 
REMARK    2  A    between atoms: N5_11  and  C5_12 
REMARK    3  A    between atoms: C5_12  and  C6_13 
REMARK    4  A    between atoms: C6_13  and  N11_29 
REMARK    5  A    between atoms: N6_14  and  O1_16 
REMARK    6  A    between atoms: O1_16  and  C7_17 
REMARK    7  A    between atoms: C8_23  and  N9_24 
REMARK    8  A    between atoms: N9_24  and  N10_26 
REMARK    9  A    between atoms: N11_29  and  C9_31 
REMARK   10  A    between atoms: C9_31  and  C10_32 
ROOT
HETATM    1  C6  UNL     1      -9.104  32.622  -9.095  1.00  0.00     0.117 C 
HETATM    2  N6  UNL     1      -9.756  32.722 -10.222  1.00  0.00    -0.245 N 
ATOM      3  H6  UNL     1     -10.553  32.118 -10.424  1.00  0.00     0.196 HD
ENDROOT
BRANCH   1   4
HETATM    4  C5  UNL     1      -9.486  31.629  -8.051  1.00  0.00     0.213 C 
BRANCH   4   5
HETATM    5  N5  UNL     1      -8.663  30.466  -8.064  1.00  0.00    -0.277 N 
HETATM    6  C4  UNL     1      -8.916  29.449  -8.892  1.00  0.00     0.133 A 
HETATM    7  C3  UNL     1      -8.111  28.304  -8.905  1.00  0.00     0.131 A 
HETATM    8  C2  UNL     1      -7.044  28.231  -8.049  1.00  0.00     0.150 A 
HETATM    9  N3  UNL     1      -8.391  27.237  -9.787  1.00  0.00    -0.095 NA
HETATM   10  N1  UNL     1      -6.813  29.267  -7.228  1.00  0.00    -0.290 N 
HETATM   11  N2  UNL     1      -6.188  27.074  -8.025  1.00  0.00    -0.080 NA
HETATM   12  C1  UNL     1      -5.687  29.201  -6.319  1.00  0.00     0.162 C 
HETATM   13  C12 UNL     1      -7.615  30.374  -7.236  1.00  0.00     0.331 A 
HETATM   14  O3  UNL     1      -7.314  31.293  -6.426  1.00  0.00    -0.246 OA
BRANCH   6  15
HETATM   15  N4  UNL     1      -9.897  29.439  -9.727  1.00  0.00    -0.384 N 
ATOM     16  H42 UNL     1     -10.216  28.599 -10.210  1.00  0.00     0.157 HD
ATOM     17  H41 UNL     1     -10.347  30.342  -9.879  1.00  0.00     0.157 HD
ENDBRANCH   6  15
ENDBRANCH   4   5
ENDBRANCH   1   4
BRANCH   1  18
HETATM   18  N11 UNL     1      -7.993  33.453  -8.796  1.00  0.00    -0.371 N 
ATOM     19  H11 UNL     1      -7.050  33.097  -8.955  1.00  0.00     0.161 HD
BRANCH  18  20
HETATM   20  C9  UNL     1      -8.161  34.784  -8.276  1.00  0.00     0.187 C 
BRANCH  20  21
HETATM   21  C10 UNL     1      -7.683  34.803  -6.847  1.00  0.00     0.087 A 
HETATM   22  N12 UNL     1      -7.990  34.003  -5.849  1.00  0.00    -0.294 N 
HETATM   23  N13 UNL     1      -7.482  34.175  -4.700  1.00  0.00    -0.279 N 
ATOM     24  H12 UNL     1      -8.645  33.235  -6.001  1.00  0.00     0.187 HD
HETATM   25  C11 UNL     1      -6.627  35.190  -4.523  1.00  0.00     0.158 A 
ATOM     26  H13 UNL     1      -7.720  33.554  -3.927  1.00  0.00     0.189 HD
HETATM   27  N14 UNL     1      -6.005  35.525  -3.414  1.00  0.00    -0.379 N 
HETATM   28  S1  UNL     1      -6.583  35.888  -6.083  1.00  0.00    -0.037 SA
ATOM     29 2H14 UNL     1      -6.031  35.109  -2.483  1.00  0.00     0.158 HD
ATOM     30 1H14 UNL     1      -5.353  36.298  -3.280  1.00  0.00     0.158 HD
ENDBRANCH  20  21
ENDBRANCH  18  20
ENDBRANCH   1  18
BRANCH   2  31
HETATM   31  O1  UNL     1      -9.337  33.660 -11.121  1.00  0.00    -0.212 OA
BRANCH  31  32
HETATM   32  C7  UNL     1      -8.911  33.431 -12.389  1.00  0.00     0.239 A 
HETATM   33  N7  UNL     1      -7.641  33.248 -12.779  1.00  0.00    -0.214 N 
HETATM   34  O2  UNL     1      -7.622  33.053 -14.086  1.00  0.00    -0.153 OA
ATOM     35  H7  UNL     1      -6.825  33.258 -12.168  1.00  0.00     0.199 HD
HETATM   36  N8  UNL     1      -8.843  33.105 -14.558  1.00  0.00    -0.220 N 
HETATM   37  C8  UNL     1      -9.681  33.340 -13.524  1.00  0.00     0.197 A 
ATOM     38  H8  UNL     1      -9.114  32.988 -15.534  1.00  0.00     0.198 HD
BRANCH  37  39
HETATM   39  N9  UNL     1     -10.965  33.449 -13.648  1.00  0.00    -0.287 N 
ATOM     40  H9  UNL     1     -11.344  34.152 -14.282  1.00  0.00     0.188 HD
BRANCH  39  41
HETATM   41  N10 UNL     1     -11.843  32.632 -12.942  1.00  0.00    -0.343 N 
ATOM     42 2H10 UNL     1     -11.802  31.626 -13.109  1.00  0.00     0.176 HD
ATOM     43 1H10 UNL     1     -12.513  33.013 -12.275  1.00  0.00     0.176 HD
ENDBRANCH  39  41
ENDBRANCH  37  39
ENDBRANCH  31  32
ENDBRANCH   2  31
TORSDOF 10
ENDMDL
MODEL 2
REMARK VINA RESULT: -7.796365839      1.048      1.372
REMARK  10 active torsions:
REMARK  status: ('A' for Active; 'I' for Inactive)
REMARK    1  A    between atoms: C4_7  and  N4_8 
REMARK    2  A    between atoms: N5_11  and  C5_12 
REMARK    3  A    between atoms: C5_12  and  C6_13 
REMARK    4  A    between atoms: C6_13  and  N11_29 
REMARK    5  A    between atoms: N6_14  and  O1_16 
REMARK    6  A    between atoms: O1_16  and  C7_17 
REMARK    7  A    between atoms: C8_23  and  N9_24 
REMARK    8  A    between atoms: N9_24  and  N10_26 
REMARK    9  A    between atoms: N11_29  and  C9_31 
REMARK   10  A    between atoms: C9_31  and  C10_32 
ROOT
HETATM    1  C6  UNL     1      -9.078  32.611  -9.164  1.00  0.00     0.117 C 
HETATM    2  N6  UNL     1      -9.692  32.680 -10.315  1.00  0.00    -0.245 N 
ATOM      3  H6  UNL     1     -10.467  32.054 -10.536  1.00  0.00     0.196 HD
ENDROOT
BRANCH   1   4
HETATM    4  C5  UNL     1      -9.475  31.624  -8.120  1.00  0.00     0.213 C 
BRANCH   4   5
HETATM    5  N5  UNL     1      -8.659  30.456  -8.122  1.00  0.00    -0.277 N 
HETATM    6  C4  UNL     1      -8.917  29.432  -8.940  1.00  0.00     0.133 A 
HETATM    7  C3  UNL     1      -8.118  28.283  -8.942  1.00  0.00     0.131 A 
HETATM    8  C2  UNL     1      -7.052  28.212  -8.085  1.00  0.00     0.150 A 
HETATM    9  N3  UNL     1      -8.403  27.210  -9.814  1.00  0.00    -0.095 NA
HETATM   10  N1  UNL     1      -6.815  29.255  -7.273  1.00  0.00    -0.290 N 
HETATM   11  N2  UNL     1      -6.202  27.051  -8.049  1.00  0.00    -0.080 NA
HETATM   12  C1  UNL     1      -5.691  29.190  -6.363  1.00  0.00     0.162 C 
HETATM   13  C12 UNL     1      -7.612  30.366  -7.292  1.00  0.00     0.331 A 
HETATM   14  O3  UNL     1      -7.306  31.290  -6.491  1.00  0.00    -0.246 OA
BRANCH   6  15
HETATM   15  N4  UNL     1      -9.897  29.421  -9.775  1.00  0.00    -0.384 N 
ATOM     16  H42 UNL     1     -10.689  28.781  -9.705  1.00  0.00     0.157 HD
ATOM     17  H41 UNL     1      -9.835  30.105 -10.529  1.00  0.00     0.157 HD
ENDBRANCH   6  15
ENDBRANCH   4   5
ENDBRANCH   1   4
BRANCH   1  18
HETATM   18  N11 UNL     1      -7.998  33.471  -8.838  1.00  0.00    -0.371 N 
ATOM     19  H11 UNL     1      -7.042  33.150  -8.994  1.00  0.00     0.161 HD
BRANCH  18  20
HETATM   20  C9  UNL     1      -8.215  34.785  -8.294  1.00  0.00     0.187 C 
BRANCH  20  21
HETATM   21  C10 UNL     1      -7.731  34.798  -6.867  1.00  0.00     0.087 A 
HETATM   22  N12 UNL     1      -8.019  33.981  -5.876  1.00  0.00    -0.294 N 
HETATM   23  N13 UNL     1      -7.510  34.150  -4.727  1.00  0.00    -0.279 N 
ATOM     24  H12 UNL     1      -8.660  33.204  -6.034  1.00  0.00     0.187 HD
HETATM   25  C11 UNL     1      -6.672  35.179  -4.543  1.00  0.00     0.158 A 
ATOM     26  H13 UNL     1      -7.733  33.516  -3.960  1.00  0.00     0.189 HD
HETATM   27  N14 UNL     1      -6.052  35.513  -3.433  1.00  0.00    -0.379 N 
HETATM   28  S1  UNL     1      -6.648  35.894  -6.096  1.00  0.00    -0.037 SA
ATOM     29 2H14 UNL     1      -6.067  35.086  -2.506  1.00  0.00     0.158 HD
ATOM     30 1H14 UNL     1      -5.414  36.296  -3.292  1.00  0.00     0.158 HD
ENDBRANCH  20  21
ENDBRANCH  18  20
ENDBRANCH   1  18
BRANCH   2  31
HETATM   31  O1  UNL     1      -9.263  33.615 -11.212  1.00  0.00    -0.212 OA
BRANCH  31  32
HETATM   32  C7  UNL     1      -8.384  33.417 -12.227  1.00  0.00     0.239 A 
HETATM   33  N7  UNL     1      -7.752  32.271 -12.519  1.00  0.00    -0.214 N 
HETATM   34  O2  UNL     1      -6.979  32.467 -13.572  1.00  0.00    -0.153 OA
ATOM     35  H7  UNL     1      -7.852  31.392 -12.010  1.00  0.00     0.199 HD
HETATM   36  N8  UNL     1      -7.089  33.709 -13.975  1.00  0.00    -0.220 N 
HETATM   37  C8  UNL     1      -7.962  34.338 -13.156  1.00  0.00     0.197 A 
ATOM     38  H8  UNL     1      -6.602  34.128 -14.767  1.00  0.00     0.198 HD
BRANCH  37  39
HETATM   39  N9  UNL     1      -8.296  35.582 -13.280  1.00  0.00    -0.287 N 
ATOM     40  H9  UNL     1      -9.135  35.820 -13.810  1.00  0.00     0.188 HD
BRANCH  39  41
HETATM   41  N10 UNL     1      -7.544  36.605 -12.711  1.00  0.00    -0.343 N 
ATOM     42 2H10 UNL     1      -6.680  36.354 -12.230  1.00  0.00     0.176 HD
ATOM     43 1H10 UNL     1      -7.834  37.581 -12.766  1.00  0.00     0.176 HD
ENDBRANCH  39  41
ENDBRANCH  37  39
ENDBRANCH  31  32
ENDBRANCH   2  31
TORSDOF 10
ENDMDL
MODEL 3
REMARK VINA RESULT: -7.724875932      2.609      5.608
REMARK  10 active torsions:
REMARK  status: ('A' for Active; 'I' for Inactive)
REMARK    1  A    between atoms: C4_7  and  N4_8 
REMARK    2  A    between atoms: N5_11  and  C5_12 
REMARK    3  A    between atoms: C5_12  and  C6_13 
REMARK    4  A    between atoms: C6_13  and  N11_29 
REMARK    5  A    between atoms: N6_14  and  O1_16 
REMARK    6  A    between atoms: O1_16  and  C7_17 
REMARK    7  A    between atoms: C8_23  and  N9_24 
REMARK    8  A    between atoms: N9_24  and  N10_26 
REMARK    9  A    between atoms: N11_29  and  C9_31 
REMARK   10  A    between atoms: C9_31  and  C10_32 
ROOT
HETATM    1  C6  UNL     1      -8.498  32.604  -8.055  1.00  0.00     0.117 C 
HETATM    2  N6  UNL     1      -8.176  33.506  -7.168  1.00  0.00    -0.245 N 
ATOM      3  H6  UNL     1      -8.418  33.387  -6.184  1.00  0.00     0.196 HD
ENDROOT
BRANCH   1   4
HETATM    4  C5  UNL     1      -9.230  31.360  -7.681  1.00  0.00     0.213 C 
BRANCH   4   5
HETATM    5  N5  UNL     1      -8.433  30.187  -7.812  1.00  0.00    -0.277 N 
HETATM    6  C4  UNL     1      -8.685  29.281  -8.761  1.00  0.00     0.133 A 
HETATM    7  C3  UNL     1      -7.906  28.125  -8.890  1.00  0.00     0.131 A 
HETATM    8  C2  UNL     1      -6.864  27.925  -8.023  1.00  0.00     0.150 A 
HETATM    9  N3  UNL     1      -8.184  27.178  -9.899  1.00  0.00    -0.095 NA
HETATM   10  N1  UNL     1      -6.633  28.851  -7.079  1.00  0.00    -0.290 N 
HETATM   11  N2  UNL     1      -6.034  26.753  -8.115  1.00  0.00    -0.080 NA
HETATM   12  C1  UNL     1      -5.534  28.650  -6.157  1.00  0.00     0.162 C 
HETATM   13  C12 UNL     1      -7.410  29.971  -6.975  1.00  0.00     0.331 A 
HETATM   14  O3  UNL     1      -7.111  30.780  -6.055  1.00  0.00    -0.246 OA
BRANCH   6  15
HETATM   15  N4  UNL     1      -9.643  29.395  -9.615  1.00  0.00    -0.384 N 
ATOM     16  H42 UNL     1      -9.752  28.781 -10.423  1.00  0.00     0.157 HD
ATOM     17  H41 UNL     1     -10.301  30.152  -9.432  1.00  0.00     0.157 HD
ENDBRANCH   6  15
ENDBRANCH   4   5
ENDBRANCH   1   4
BRANCH   1  18
HETATM   18  N11 UNL     1      -8.171  32.752  -9.428  1.00  0.00    -0.371 N 
ATOM     19  H11 UNL     1      -7.411  32.196  -9.821  1.00  0.00     0.161 HD
BRANCH  18  20
HETATM   20  C9  UNL     1      -8.883  33.667 -10.281  1.00  0.00     0.187 C 
BRANCH  20  21
HETATM   21  C10 UNL     1      -9.905  32.890 -11.069  1.00  0.00     0.087 A 
HETATM   22  N12 UNL     1     -11.206  32.800 -10.897  1.00  0.00    -0.294 N 
HETATM   23  N13 UNL     1     -11.915  32.087 -11.670  1.00  0.00    -0.279 N 
ATOM     24  H12 UNL     1     -11.649  33.309 -10.132  1.00  0.00     0.187 HD
HETATM   25  C11 UNL     1     -11.310  31.427 -12.666  1.00  0.00     0.158 A 
ATOM     26  H13 UNL     1     -12.924  32.019 -11.536  1.00  0.00     0.189 HD
HETATM   27  N14 UNL     1     -11.873  30.645 -13.561  1.00  0.00    -0.379 N 
HETATM   28  S1  UNL     1      -9.676  31.875 -12.443  1.00  0.00    -0.037 SA
ATOM     29 2H14 UNL     1     -12.849  30.377 -13.693  1.00  0.00     0.158 HD
ATOM     30 1H14 UNL     1     -11.413  30.142 -14.320  1.00  0.00     0.158 HD
ENDBRANCH  20  21
ENDBRANCH  18  20
ENDBRANCH   1  18
BRANCH   2  31
HETATM   31  O1  UNL     1      -7.505  34.615  -7.600  1.00  0.00    -0.212 OA
BRANCH  31  32
HETATM   32  C7  UNL     1      -7.361  35.785  -6.927  1.00  0.00     0.239 A 
HETATM   33  N7  UNL     1      -6.862  35.934  -5.692  1.00  0.00    -0.214 N 
HETATM   34  O2  UNL     1      -6.880  37.217  -5.377  1.00  0.00    -0.153 OA
ATOM     35  H7  UNL     1      -6.525  35.180  -5.093  1.00  0.00     0.199 HD
HETATM   36  N8  UNL     1      -7.377  37.908  -6.374  1.00  0.00    -0.220 N 
HETATM   37  C8  UNL     1      -7.691  37.045  -7.366  1.00  0.00     0.197 A 
ATOM     38  H8  UNL     1      -7.505  38.920  -6.397  1.00  0.00     0.198 HD
BRANCH  37  39
HETATM   39  N9  UNL     1      -8.205  37.405  -8.498  1.00  0.00    -0.287 N 
ATOM     40  H9  UNL     1      -9.140  37.811  -8.511  1.00  0.00     0.188 HD
BRANCH  39  41
HETATM   41  N10 UNL     1      -7.517  37.255  -9.698  1.00  0.00    -0.343 N 
ATOM     42 2H10 UNL     1      -7.599  36.365 -10.190  1.00  0.00     0.176 HD
ATOM     43 1H10 UNL     1      -6.943  38.003 -10.087  1.00  0.00     0.176 HD
ENDBRANCH  39  41
ENDBRANCH  37  39
ENDBRANCH  31  32
ENDBRANCH   2  31
TORSDOF 10
ENDMDL
MODEL 4
REMARK VINA RESULT: -7.685873296      2.571      5.537
REMARK  10 active torsions:
REMARK  status: ('A' for Active; 'I' for Inactive)
REMARK    1  A    between atoms: C4_7  and  N4_8 
REMARK    2  A    between atoms: N5_11  and  C5_12 
REMARK    3  A    between atoms: C5_12  and  C6_13 
REMARK    4  A    between atoms: C6_13  and  N11_29 
REMARK    5  A    between atoms: N6_14  and  O1_16 
REMARK    6  A    between atoms: O1_16  and  C7_17 
REMARK    7  A    between atoms: C8_23  and  N9_24 
REMARK    8  A    between atoms: N9_24  and  N10_26 
REMARK    9  A    between atoms: N11_29  and  C9_31 
REMARK   10  A    between atoms: C9_31  and  C10_32 
ROOT
HETATM    1  C6  UNL     1      -8.657  32.593  -8.236  1.00  0.00     0.117 C 
HETATM    2  N6  UNL     1      -8.352  33.495  -7.341  1.00  0.00    -0.245 N 
ATOM      3  H6  UNL     1      -8.593  33.363  -6.358  1.00  0.00     0.196 HD
ENDROOT
BRANCH   1   4
HETATM    4  C5  UNL     1      -9.367  31.334  -7.872  1.00  0.00     0.213 C 
BRANCH   4   5
HETATM    5  N5  UNL     1      -8.531  30.183  -7.953  1.00  0.00    -0.277 N 
HETATM    6  C4  UNL     1      -8.744  29.237  -8.873  1.00  0.00     0.133 A 
HETATM    7  C3  UNL     1      -7.926  28.104  -8.952  1.00  0.00     0.131 A 
HETATM    8  C2  UNL     1      -6.889  27.967  -8.067  1.00  0.00     0.150 A 
HETATM    9  N3  UNL     1      -8.163  27.113  -9.930  1.00  0.00    -0.095 NA
HETATM   10  N1  UNL     1      -6.699  28.933  -7.154  1.00  0.00    -0.290 N 
HETATM   11  N2  UNL     1      -6.022  26.819  -8.110  1.00  0.00    -0.080 NA
HETATM   12  C1  UNL     1      -5.605  28.798  -6.214  1.00  0.00     0.162 C 
HETATM   13  C12 UNL     1      -7.513  30.030  -7.098  1.00  0.00     0.331 A 
HETATM   14  O3  UNL     1      -7.250  30.879  -6.204  1.00  0.00    -0.246 OA
BRANCH   6  15
HETATM   15  N4  UNL     1      -9.694  29.291  -9.740  1.00  0.00    -0.384 N 
ATOM     16  H42 UNL     1      -9.590  29.712 -10.663  1.00  0.00     0.157 HD
ATOM     17  H41 UNL     1     -10.577  28.876  -9.443  1.00  0.00     0.157 HD
ENDBRANCH   6  15
ENDBRANCH   4   5
ENDBRANCH   1   4
BRANCH   1  18
HETATM   18  N11 UNL     1      -8.331  32.759  -9.607  1.00  0.00    -0.371 N 
ATOM     19  H11 UNL     1      -7.350  32.801  -9.883  1.00  0.00     0.161 HD
BRANCH  18  20
HETATM   20  C9  UNL     1      -9.349  32.868 -10.618  1.00  0.00     0.187 C 
BRANCH  20  21
HETATM   21  C10 UNL     1      -8.735  33.480 -11.851  1.00  0.00     0.087 A 
HETATM   22  N12 UNL     1      -8.085  34.616 -11.989  1.00  0.00    -0.294 N 
HETATM   23  N13 UNL     1      -7.634  34.971 -13.120  1.00  0.00    -0.279 N 
ATOM     24  H12 UNL     1      -7.943  35.217 -11.177  1.00  0.00     0.187 HD
HETATM   25  C11 UNL     1      -7.834  34.166 -14.171  1.00  0.00     0.158 A 
ATOM     26  H13 UNL     1      -7.129  35.851 -13.226  1.00  0.00     0.189 HD
HETATM   27  N14 UNL     1      -7.445  34.364 -15.411  1.00  0.00    -0.379 N 
HETATM   28  S1  UNL     1      -8.700  32.873 -13.463  1.00  0.00    -0.037 SA
ATOM     29 2H14 UNL     1      -6.929  35.136 -15.834  1.00  0.00     0.158 HD
ATOM     30 1H14 UNL     1      -7.597  33.751 -16.212  1.00  0.00     0.158 HD
ENDBRANCH  20  21
ENDBRANCH  18  20
ENDBRANCH   1  18
BRANCH   2  31
HETATM   31  O1  UNL     1      -7.700  34.618  -7.763  1.00  0.00    -0.212 OA
BRANCH  31  32
HETATM   32  C7  UNL     1      -7.466  35.738  -7.033  1.00  0.00     0.239 A 
HETATM   33  N7  UNL     1      -6.968  35.786  -5.789  1.00  0.00    -0.214 N 
HETATM   34  O2  UNL     1      -6.882  37.049  -5.413  1.00  0.00    -0.153 OA
ATOM     35  H7  UNL     1      -6.699  34.979  -5.226  1.00  0.00     0.199 HD
HETATM   36  N8  UNL     1      -7.311  37.826  -6.377  1.00  0.00    -0.220 N 
HETATM   37  C8  UNL     1      -7.686  37.041  -7.411  1.00  0.00     0.197 A 
ATOM     38  H8  UNL     1      -7.354  38.845  -6.352  1.00  0.00     0.198 HD
BRANCH  37  39
HETATM   39  N9  UNL     1      -8.158  37.497  -8.527  1.00  0.00    -0.287 N 
ATOM     40  H9  UNL     1      -9.027  38.031  -8.516  1.00  0.00     0.188 HD
BRANCH  39  41
HETATM   41  N10 UNL     1      -7.513  37.280  -9.741  1.00  0.00    -0.343 N 
ATOM     42 2H10 UNL     1      -6.642  36.749  -9.733  1.00  0.00     0.176 HD
ATOM     43 1H10 UNL     1      -7.888  37.634 -10.621  1.00  0.00     0.176 HD
ENDBRANCH  39  41
ENDBRANCH  37  39
ENDBRANCH  31  32
ENDBRANCH   2  31
TORSDOF 10
ENDMDL
MODEL 5
REMARK VINA RESULT: -7.601135660      2.291      3.221
REMARK  10 active torsions:
REMARK  status: ('A' for Active; 'I' for Inactive)
REMARK    1  A    between atoms: C4_7  and  N4_8 
REMARK    2  A    between atoms: N5_11  and  C5_12 
REMARK    3  A    between atoms: C5_12  and  C6_13 
REMARK    4  A    between atoms: C6_13  and  N11_29 
REMARK    5  A    between atoms: N6_14  and  O1_16 
REMARK    6  A    between atoms: O1_16  and  C7_17 
REMARK    7  A    between atoms: C8_23  and  N9_24 
REMARK    8  A    between atoms: N9_24  and  N10_26 
REMARK    9  A    between atoms: N11_29  and  C9_31 
REMARK   10  A    between atoms: C9_31  and  C10_32 
ROOT
HETATM    1  C6  UNL     1      -7.845  31.978  -8.704  1.00  0.00     0.117 C 
HETATM    2  N6  UNL     1      -8.130  32.727  -9.736  1.00  0.00    -0.245 N 
ATOM      3  H6  UNL     1      -7.433  32.919 -10.455  1.00  0.00     0.196 HD
ENDROOT
BRANCH   1   4
HETATM    4  C5  UNL     1      -6.497  31.368  -8.525  1.00  0.00     0.213 C 
BRANCH   4   5
HETATM    5  N5  UNL     1      -6.491  29.961  -8.749  1.00  0.00    -0.277 N 
HETATM    6  C4  UNL     1      -6.393  29.099  -7.733  1.00  0.00     0.133 A 
HETATM    7  C3  UNL     1      -6.384  27.716  -7.950  1.00  0.00     0.131 A 
HETATM    8  C2  UNL     1      -6.476  27.243  -9.233  1.00  0.00     0.150 A 
HETATM    9  N3  UNL     1      -6.281  26.818  -6.866  1.00  0.00    -0.095 NA
HETATM   10  N1  UNL     1      -6.573  28.132 -10.235  1.00  0.00    -0.290 N 
HETATM   11  N2  UNL     1      -6.470  25.830  -9.506  1.00  0.00    -0.080 NA
HETATM   12  C1  UNL     1      -6.672  27.643 -11.595  1.00  0.00     0.162 C 
HETATM   13  C12 UNL     1      -6.580  29.477  -9.995  1.00  0.00     0.331 A 
HETATM   14  O3  UNL     1      -6.674  30.228 -11.003  1.00  0.00    -0.246 OA
BRANCH   6  15
HETATM   15  N4  UNL     1      -6.304  29.462  -6.501  1.00  0.00    -0.384 N 
ATOM     16  H42 UNL     1      -6.113  28.813  -5.736  1.00  0.00     0.157 HD
ATOM     17  H41 UNL     1      -6.436  30.458  -6.329  1.00  0.00     0.157 HD
ENDBRANCH   6  15
ENDBRANCH   4   5
ENDBRANCH   1   4
BRANCH   1  18
HETATM   18  N11 UNL     1      -8.800  31.701  -7.692  1.00  0.00    -0.371 N 
ATOM     19  H11 UNL     1      -9.598  31.104  -7.912  1.00  0.00     0.161 HD
BRANCH  18  20
HETATM   20  C9  UNL     1      -8.673  32.240  -6.364  1.00  0.00     0.187 C 
BRANCH  20  21
HETATM   21  C10 UNL     1      -8.357  33.710  -6.473  1.00  0.00     0.087 A 
HETATM   22  N12 UNL     1      -9.038  34.674  -7.055  1.00  0.00    -0.294 N 
HETATM   23  N13 UNL     1      -8.609  35.867  -7.045  1.00  0.00    -0.279 N 
ATOM     24  H12 UNL     1      -9.920  34.458  -7.519  1.00  0.00     0.187 HD
HETATM   25  C11 UNL     1      -7.448  36.126  -6.430  1.00  0.00     0.158 A 
ATOM     26  H13 UNL     1      -9.138  36.614  -7.495  1.00  0.00     0.189 HD
HETATM   27  N14 UNL     1      -6.848  37.290  -6.317  1.00  0.00    -0.379 N 
HETATM   28  S1  UNL     1      -6.997  34.577  -5.865  1.00  0.00    -0.037 SA
ATOM     29 2H14 UNL     1      -7.117  38.215  -6.655  1.00  0.00     0.158 HD
ATOM     30 1H14 UNL     1      -5.964  37.488  -5.849  1.00  0.00     0.158 HD
ENDBRANCH  20  21
ENDBRANCH  18  20
ENDBRANCH   1  18
BRANCH   2  31
HETATM   31  O1  UNL     1      -9.391  33.245  -9.819  1.00  0.00    -0.212 OA
BRANCH  31  32
HETATM   32  C7  UNL     1     -10.366  32.862 -10.682  1.00  0.00     0.239 A 
HETATM   33  N7  UNL     1     -10.264  32.798 -12.017  1.00  0.00    -0.214 N 
HETATM   34  O2  UNL     1     -11.417  32.385 -12.513  1.00  0.00    -0.153 OA
ATOM     35  H7  UNL     1      -9.433  33.031 -12.561  1.00  0.00     0.199 HD
HETATM   36  N8  UNL     1     -12.268  32.178 -11.537  1.00  0.00    -0.220 N 
HETATM   37  C8  UNL     1     -11.646  32.467 -10.373  1.00  0.00     0.197 A 
ATOM     38  H8  UNL     1     -13.230  31.856 -11.639  1.00  0.00     0.198 HD
BRANCH  37  39
HETATM   39  N9  UNL     1     -12.210  32.367  -9.212  1.00  0.00    -0.287 N 
ATOM     40  H9  UNL     1     -12.795  31.556  -9.013  1.00  0.00     0.188 HD
BRANCH  39  41
HETATM   41  N10 UNL     1     -12.039  33.335  -8.227  1.00  0.00    -0.343 N 
ATOM     42 2H10 UNL     1     -12.862  33.854  -7.917  1.00  0.00     0.176 HD
ATOM     43 1H10 UNL     1     -11.126  33.532  -7.818  1.00  0.00     0.176 HD
ENDBRANCH  39  41
ENDBRANCH  37  39
ENDBRANCH  31  32
ENDBRANCH   2  31
TORSDOF 10
ENDMDL
