MODEL 1
REMARK VINA RESULT: -9.383490815      0.000      0.000
REMARK  13 active torsions:
REMARK  status: ('A' for Active; 'I' for Inactive)
REMARK    1  A    between atoms: C2_2  and  C3_3 
REMARK    2  A    between atoms: C3_3  and  C4_4 
REMARK    3  A    between atoms: C4_4  and  C5_5 
REMARK    4  A    between atoms: C5_5  and  C6_6 
REMARK    5  A    between atoms: C6_6  and  N1_7 
REMARK    6  A    between atoms: C6_6  and  N2_17 
REMARK       I    between atoms: N1_7  and  C7_9 
REMARK    7  A    between atoms: C7_9  and  C8_11 
REMARK    8  A    between atoms: C8_11  and  C9_13 
REMARK       I    between atoms: N2_17  and  C13_19 
REMARK    9  A    between atoms: C13_19  and  C14_21 
REMARK   10  A    between atoms: C16_23  and  O4_24 
REMARK   11  A    between atoms: O4_24  and  C17_25 
REMARK   12  A    between atoms: C17_25  and  C18_26 
REMARK       I    between atoms: C18_26  and  N3_28 
REMARK   13  A    between atoms: C23_33  and  N4_34 
ROOT
HETATM    1  C14 UNL     1      -9.549  15.129  25.952  1.00  0.00     0.072 A 
HETATM    2  C15 UNL     1      -8.737  16.126  25.406  1.00  0.00     0.060 A 
HETATM    3  C16 UNL     1      -8.405  16.113  24.074  1.00  0.00     0.114 A 
HETATM    4  C23 UNL     1      -8.858  15.127  23.232  1.00  0.00     0.138 A 
HETATM    5  N5  UNL     1      -9.652  14.152  23.768  1.00  0.00    -0.331 N 
ATOM      6  H5  UNL     1     -10.003  13.405  23.168  1.00  0.00     0.168 HD
HETATM    7  C28 UNL     1      -9.983  14.159  25.093  1.00  0.00     0.131 A 
HETATM    8  C29 UNL     1     -10.821  13.106  25.600  1.00  0.00     0.118 C 
HETATM    9  N6  UNL     1     -11.467  12.262  26.008  1.00  0.00    -0.190 NA
ENDROOT
BRANCH   1  10
HETATM   10  C13 UNL     1      -9.887  15.120  27.361  1.00  0.00     0.256 C 
HETATM   11  N2  UNL     1      -9.296  14.381  28.382  1.00  0.00    -0.336 N 
ATOM     12  H2  UNL     1      -8.526  13.770  28.106  1.00  0.00     0.164 HD
HETATM   13  O3  UNL     1     -10.849  15.905  27.648  1.00  0.00    -0.267 OA
BRANCH  11  14
HETATM   14  C6  UNL     1      -9.640  14.374  29.788  1.00  0.00     0.187 C 
BRANCH  14  15
HETATM   15  C5  UNL     1      -8.578  13.685  30.633  1.00  0.00     0.047 C 
BRANCH  15  16
HETATM   16  C4  UNL     1      -8.613  14.016  32.070  1.00  0.00     0.004 C 
BRANCH  16  17
HETATM   17  C3  UNL     1      -8.637  15.507  32.297  1.00  0.00    -0.000 C 
BRANCH  17  18
HETATM   18  C2  UNL     1      -9.371  15.865  33.567  1.00  0.00    -0.005 C 
HETATM   19  C1  UNL     1      -9.704  14.594  34.304  1.00  0.00     0.005 C 
ENDBRANCH  17  18
ENDBRANCH  16  17
ENDBRANCH  15  16
ENDBRANCH  14  15
BRANCH  14  20
HETATM   20  N1  UNL     1     -10.879  13.624  29.878  1.00  0.00    -0.333 N 
HETATM   21  C7  UNL     1     -12.001  13.977  30.655  1.00  0.00     0.289 C 
HETATM   22  O1  UNL     1     -12.038  15.014  31.355  1.00  0.00    -0.264 OA
ATOM     23  H1  UNL     1     -10.944  12.765  29.331  1.00  0.00     0.165 HD
BRANCH  21  24
HETATM   24  C8  UNL     1     -13.175  13.124  30.668  1.00  0.00     0.224 C 
HETATM   25  O2  UNL     1     -13.517  12.598  31.785  1.00  0.00    -0.286 OA
BRANCH  24  26
HETATM   26  C9  UNL     1     -13.954  12.870  29.444  1.00  0.00     0.019 C 
HETATM   27  C10 UNL     1     -13.673  13.854  28.332  1.00  0.00     0.023 C 
HETATM   28  C11 UNL     1     -13.710  11.445  29.008  1.00  0.00     0.023 C 
HETATM   29  C12 UNL     1     -15.446  13.006  29.752  1.00  0.00     0.023 C 
ENDBRANCH  24  26
ENDBRANCH  21  24
ENDBRANCH  14  20
ENDBRANCH  11  14
ENDBRANCH   1  10
BRANCH   4  30
HETATM   30  N4  UNL     1      -8.544  15.098  21.851  1.00  0.00    -0.365 N 
HETATM   31  C24 UNL     1      -7.530  14.278  21.259  1.00  0.00     0.124 C 
HETATM   32  C25 UNL     1      -6.918  15.174  20.210  1.00  0.00     0.021 C 
HETATM   33  C26 UNL     1      -8.050  16.091  19.824  1.00  0.00     0.021 C 
HETATM   34  C27 UNL     1      -9.164  15.869  20.827  1.00  0.00     0.124 C 
ENDBRANCH   4  30
BRANCH   3  35
HETATM   35  O4  UNL     1      -7.581  17.134  23.572  1.00  0.00    -0.338 OA
BRANCH  35  36
HETATM   36  C17 UNL     1      -6.192  16.926  23.393  1.00  0.00     0.278 C 
BRANCH  36  37
HETATM   37  C18 UNL     1      -5.473  17.877  24.289  1.00  0.00     0.244 C 
HETATM   38  O5  UNL     1      -5.229  19.056  23.933  1.00  0.00    -0.271 OA
HETATM   39  N3  UNL     1      -5.037  17.483  25.591  1.00  0.00    -0.350 N 
HETATM   40  C19 UNL     1      -4.389  18.287  26.594  1.00  0.00     0.126 C 
HETATM   41  C22 UNL     1      -5.184  16.113  26.079  1.00  0.00     0.126 C 
HETATM   42  C20 UNL     1      -4.688  17.603  27.885  1.00  0.00     0.021 C 
HETATM   43  C21 UNL     1      -4.546  16.129  27.462  1.00  0.00     0.021 C 
ENDBRANCH  36  37
ENDBRANCH  35  36
ENDBRANCH   3  35
TORSDOF 13
ENDMDL
MODEL 2
REMARK VINA RESULT: -9.103878303      1.337      1.630
REMARK  13 active torsions:
REMARK  status: ('A' for Active; 'I' for Inactive)
REMARK    1  A    between atoms: C2_2  and  C3_3 
REMARK    2  A    between atoms: C3_3  and  C4_4 
REMARK    3  A    between atoms: C4_4  and  C5_5 
REMARK    4  A    between atoms: C5_5  and  C6_6 
REMARK    5  A    between atoms: C6_6  and  N1_7 
REMARK    6  A    between atoms: C6_6  and  N2_17 
REMARK       I    between atoms: N1_7  and  C7_9 
REMARK    7  A    between atoms: C7_9  and  C8_11 
REMARK    8  A    between atoms: C8_11  and  C9_13 
REMARK       I    between atoms: N2_17  and  C13_19 
REMARK    9  A    between atoms: C13_19  and  C14_21 
REMARK   10  A    between atoms: C16_23  and  O4_24 
REMARK   11  A    between atoms: O4_24  and  C17_25 
REMARK   12  A    between atoms: C17_25  and  C18_26 
REMARK       I    between atoms: C18_26  and  N3_28 
REMARK   13  A    between atoms: C23_33  and  N4_34 
ROOT
HETATM    1  C14 UNL     1      -9.233  16.112  25.300  1.00  0.00     0.072 A 
HETATM    2  C15 UNL     1      -8.359  16.952  24.607  1.00  0.00     0.060 A 
HETATM    3  C16 UNL     1      -8.032  16.702  23.296  1.00  0.00     0.114 A 
HETATM    4  C23 UNL     1      -8.552  15.626  22.621  1.00  0.00     0.138 A 
HETATM    5  N5  UNL     1      -9.407  14.804  23.301  1.00  0.00    -0.331 N 
ATOM      6  H5  UNL     1      -9.808  13.995  22.826  1.00  0.00     0.168 HD
HETATM    7  C28 UNL     1      -9.733  15.046  24.605  1.00  0.00     0.131 A 
HETATM    8  C29 UNL     1     -10.637  14.146  25.268  1.00  0.00     0.118 C 
HETATM    9  N6  UNL     1     -11.336  13.423  25.801  1.00  0.00    -0.190 NA
ENDROOT
BRANCH   1  10
HETATM   10  C13 UNL     1      -9.567  16.352  26.689  1.00  0.00     0.256 C 
HETATM   11  N2  UNL     1      -9.048  15.725  27.819  1.00  0.00    -0.336 N 
ATOM     12  H2  UNL     1      -8.342  15.007  27.649  1.00  0.00     0.164 HD
HETATM   13  O3  UNL     1     -10.447  17.261  26.840  1.00  0.00    -0.267 OA
BRANCH  11  14
HETATM   14  C6  UNL     1      -9.387  15.967  29.205  1.00  0.00     0.187 C 
BRANCH  14  15
HETATM   15  C5  UNL     1      -8.527  15.147  30.156  1.00  0.00     0.047 C 
BRANCH  15  16
HETATM   16  C4  UNL     1      -8.848  15.312  31.586  1.00  0.00     0.004 C 
BRANCH  16  17
HETATM   17  C3  UNL     1      -8.843  13.990  32.313  1.00  0.00    -0.000 C 
BRANCH  17  18
HETATM   18  C2  UNL     1      -9.488  14.101  33.674  1.00  0.00    -0.005 C 
HETATM   19  C1  UNL     1      -9.257  15.493  34.203  1.00  0.00     0.005 C 
ENDBRANCH  17  18
ENDBRANCH  16  17
ENDBRANCH  15  16
ENDBRANCH  14  15
BRANCH  14  20
HETATM   20  N1  UNL     1     -10.772  15.555  29.340  1.00  0.00    -0.333 N 
HETATM   21  C7  UNL     1     -11.253  14.235  29.221  1.00  0.00     0.289 C 
HETATM   22  O1  UNL     1     -10.502  13.261  28.991  1.00  0.00    -0.264 OA
ATOM     23  H1  UNL     1     -11.458  16.283  29.539  1.00  0.00     0.165 HD
BRANCH  21  24
HETATM   24  C8  UNL     1     -12.672  13.962  29.361  1.00  0.00     0.224 C 
HETATM   25  O2  UNL     1     -13.380  13.921  28.295  1.00  0.00    -0.286 OA
BRANCH  24  26
HETATM   26  C9  UNL     1     -13.284  13.736  30.683  1.00  0.00     0.019 C 
HETATM   27  C10 UNL     1     -12.599  14.486  31.802  1.00  0.00     0.023 C 
HETATM   28  C11 UNL     1     -14.753  14.074  30.595  1.00  0.00     0.023 C 
HETATM   29  C12 UNL     1     -13.175  12.255  31.047  1.00  0.00     0.023 C 
ENDBRANCH  24  26
ENDBRANCH  21  24
ENDBRANCH  14  20
ENDBRANCH  11  14
ENDBRANCH   1  10
BRANCH   4  30
HETATM   30  N4  UNL     1      -8.244  15.354  21.265  1.00  0.00    -0.365 N 
HETATM   31  C24 UNL     1      -7.167  14.521  20.821  1.00  0.00     0.124 C 
HETATM   32  C25 UNL     1      -6.640  15.243  19.604  1.00  0.00     0.021 C 
HETATM   33  C26 UNL     1      -7.849  15.970  19.073  1.00  0.00     0.021 C 
HETATM   34  C27 UNL     1      -8.934  15.857  20.125  1.00  0.00     0.124 C 
ENDBRANCH   4  30
BRANCH   3  35
HETATM   35  O4  UNL     1      -7.144  17.573  22.643  1.00  0.00    -0.338 OA
BRANCH  35  36
HETATM   36  C17 UNL     1      -5.747  17.342  22.669  1.00  0.00     0.278 C 
BRANCH  36  37
HETATM   37  C18 UNL     1      -5.160  18.241  23.704  1.00  0.00     0.244 C 
HETATM   38  O5  UNL     1      -4.929  19.452  23.465  1.00  0.00    -0.271 OA
HETATM   39  N3  UNL     1      -4.839  17.759  25.010  1.00  0.00    -0.350 N 
HETATM   40  C19 UNL     1      -4.326  18.502  26.131  1.00  0.00     0.126 C 
HETATM   41  C22 UNL     1      -4.978  16.351  25.375  1.00  0.00     0.126 C 
HETATM   42  C20 UNL     1      -4.724  17.708  27.329  1.00  0.00     0.021 C 
HETATM   43  C21 UNL     1      -4.481  16.277  26.813  1.00  0.00     0.021 C 
ENDBRANCH  36  37
ENDBRANCH  35  36
ENDBRANCH   3  35
TORSDOF 13
ENDMDL
MODEL 3
REMARK VINA RESULT: -9.057615996      1.779      9.835
REMARK  13 active torsions:
REMARK  status: ('A' for Active; 'I' for Inactive)
REMARK    1  A    between atoms: C2_2  and  C3_3 
REMARK    2  A    between atoms: C3_3  and  C4_4 
REMARK    3  A    between atoms: C4_4  and  C5_5 
REMARK    4  A    between atoms: C5_5  and  C6_6 
REMARK    5  A    between atoms: C6_6  and  N1_7 
REMARK    6  A    between atoms: C6_6  and  N2_17 
REMARK       I    between atoms: N1_7  and  C7_9 
REMARK    7  A    between atoms: C7_9  and  C8_11 
REMARK    8  A    between atoms: C8_11  and  C9_13 
REMARK       I    between atoms: N2_17  and  C13_19 
REMARK    9  A    between atoms: C13_19  and  C14_21 
REMARK   10  A    between atoms: C16_23  and  O4_24 
REMARK   11  A    between atoms: O4_24  and  C17_25 
REMARK   12  A    between atoms: C17_25  and  C18_26 
REMARK       I    between atoms: C18_26  and  N3_28 
REMARK   13  A    between atoms: C23_33  and  N4_34 
ROOT
HETATM    1  C14 UNL     1      -8.451  15.780  27.487  1.00  0.00     0.072 A 
HETATM    2  C15 UNL     1      -9.719  15.563  28.030  1.00  0.00     0.060 A 
HETATM    3  C16 UNL     1      -9.876  15.285  29.366  1.00  0.00     0.114 A 
HETATM    4  C23 UNL     1      -8.798  15.214  30.215  1.00  0.00     0.138 A 
HETATM    5  N5  UNL     1      -7.558  15.427  29.681  1.00  0.00    -0.331 N 
ATOM      6  H5  UNL     1      -6.738  15.379  30.287  1.00  0.00     0.168 HD
HETATM    7  C28 UNL     1      -7.396  15.701  28.353  1.00  0.00     0.131 A 
HETATM    8  C29 UNL     1      -6.066  15.915  27.850  1.00  0.00     0.118 C 
HETATM    9  N6  UNL     1      -5.013  16.064  27.446  1.00  0.00    -0.190 NA
ENDROOT
BRANCH   1  10
HETATM   10  C13 UNL     1      -8.271  16.051  26.076  1.00  0.00     0.256 C 
HETATM   11  N2  UNL     1      -7.918  15.158  25.067  1.00  0.00    -0.336 N 
ATOM     12  H2  UNL     1      -7.769  14.191  25.356  1.00  0.00     0.164 HD
HETATM   13  O3  UNL     1      -8.477  17.272  25.773  1.00  0.00    -0.267 OA
BRANCH  11  14
HETATM   14  C6  UNL     1      -7.737  15.436  23.658  1.00  0.00     0.187 C 
BRANCH  14  15
HETATM   15  C5  UNL     1      -7.652  14.161  22.831  1.00  0.00     0.047 C 
BRANCH  15  16
HETATM   16  C4  UNL     1      -7.750  14.356  21.372  1.00  0.00     0.004 C 
BRANCH  16  17
HETATM   17  C3  UNL     1      -9.020  15.078  20.993  1.00  0.00    -0.000 C 
BRANCH  17  18
HETATM   18  C2  UNL     1      -8.879  15.793  19.670  1.00  0.00    -0.005 C 
HETATM   19  C1  UNL     1      -7.450  15.674  19.209  1.00  0.00     0.005 C 
ENDBRANCH  17  18
ENDBRANCH  16  17
ENDBRANCH  15  16
ENDBRANCH  14  15
BRANCH  14  20
HETATM   20  N1  UNL     1      -6.477  16.149  23.564  1.00  0.00    -0.333 N 
HETATM   21  C7  UNL     1      -6.239  17.302  22.790  1.00  0.00     0.289 C 
HETATM   22  O1  UNL     1      -7.128  17.846  22.097  1.00  0.00    -0.264 OA
ATOM     23  H1  UNL     1      -5.693  15.783  24.106  1.00  0.00     0.165 HD
BRANCH  21  24
HETATM   24  C8  UNL     1      -4.920  17.908  22.771  1.00  0.00     0.224 C 
HETATM   25  O2  UNL     1      -4.327  18.011  21.641  1.00  0.00    -0.286 OA
BRANCH  24  26
HETATM   26  C9  UNL     1      -4.279  18.392  24.007  1.00  0.00     0.019 C 
HETATM   27  C10 UNL     1      -5.257  18.675  25.124  1.00  0.00     0.023 C 
HETATM   28  C11 UNL     1      -3.224  17.395  24.422  1.00  0.00     0.023 C 
HETATM   29  C12 UNL     1      -3.572  19.719  23.727  1.00  0.00     0.023 C 
ENDBRANCH  24  26
ENDBRANCH  21  24
ENDBRANCH  14  20
ENDBRANCH  11  14
ENDBRANCH   1  10
BRANCH   4  30
HETATM   30  N4  UNL     1      -8.933  14.945  31.599  1.00  0.00    -0.365 N 
HETATM   31  C24 UNL     1      -8.703  13.671  32.211  1.00  0.00     0.124 C 
HETATM   32  C25 UNL     1      -9.790  13.579  33.255  1.00  0.00     0.021 C 
HETATM   33  C26 UNL     1     -10.056  15.018  33.617  1.00  0.00     0.021 C 
HETATM   34  C27 UNL     1      -9.320  15.874  32.606  1.00  0.00     0.124 C 
ENDBRANCH   4  30
BRANCH   3  35
HETATM   35  O4  UNL     1     -11.171  15.067  29.864  1.00  0.00    -0.338 OA
BRANCH  35  36
HETATM   36  C17 UNL     1     -11.690  13.756  29.994  1.00  0.00     0.278 C 
BRANCH  36  37
HETATM   37  C18 UNL     1     -12.829  13.625  29.040  1.00  0.00     0.244 C 
HETATM   38  O5  UNL     1     -13.987  14.002  29.345  1.00  0.00    -0.271 OA
HETATM   39  N3  UNL     1     -12.645  13.066  27.738  1.00  0.00    -0.350 N 
HETATM   40  C19 UNL     1     -13.617  12.922  26.686  1.00  0.00     0.126 C 
HETATM   41  C22 UNL     1     -11.365  12.510  27.305  1.00  0.00     0.126 C 
HETATM   42  C20 UNL     1     -12.813  12.853  25.431  1.00  0.00     0.021 C 
HETATM   43  C21 UNL     1     -11.632  11.983  25.901  1.00  0.00     0.021 C 
ENDBRANCH  36  37
ENDBRANCH  35  36
ENDBRANCH   3  35
TORSDOF 13
ENDMDL
MODEL 4
REMARK VINA RESULT: -8.865865085      1.292      1.673
REMARK  13 active torsions:
REMARK  status: ('A' for Active; 'I' for Inactive)
REMARK    1  A    between atoms: C2_2  and  C3_3 
REMARK    2  A    between atoms: C3_3  and  C4_4 
REMARK    3  A    between atoms: C4_4  and  C5_5 
REMARK    4  A    between atoms: C5_5  and  C6_6 
REMARK    5  A    between atoms: C6_6  and  N1_7 
REMARK    6  A    between atoms: C6_6  and  N2_17 
REMARK       I    between atoms: N1_7  and  C7_9 
REMARK    7  A    between atoms: C7_9  and  C8_11 
REMARK    8  A    between atoms: C8_11  and  C9_13 
REMARK       I    between atoms: N2_17  and  C13_19 
REMARK    9  A    between atoms: C13_19  and  C14_21 
REMARK   10  A    between atoms: C16_23  and  O4_24 
REMARK   11  A    between atoms: O4_24  and  C17_25 
REMARK   12  A    between atoms: C17_25  and  C18_26 
REMARK       I    between atoms: C18_26  and  N3_28 
REMARK   13  A    between atoms: C23_33  and  N4_34 
ROOT
HETATM    1  C14 UNL     1      -9.570  15.095  26.002  1.00  0.00     0.072 A 
HETATM    2  C15 UNL     1      -8.782  16.104  25.444  1.00  0.00     0.060 A 
HETATM    3  C16 UNL     1      -8.444  16.081  24.114  1.00  0.00     0.114 A 
HETATM    4  C23 UNL     1      -8.869  15.072  23.284  1.00  0.00     0.138 A 
HETATM    5  N5  UNL     1      -9.640  14.084  23.832  1.00  0.00    -0.331 N 
ATOM      6  H5  UNL     1      -9.969  13.321  23.241  1.00  0.00     0.168 HD
HETATM    7  C28 UNL     1      -9.977  14.102  25.155  1.00  0.00     0.131 A 
HETATM    8  C29 UNL     1     -10.789  13.035  25.674  1.00  0.00     0.118 C 
HETATM    9  N6  UNL     1     -11.416  12.181  26.091  1.00  0.00    -0.190 NA
ENDROOT
BRANCH   1  10
HETATM   10  C13 UNL     1      -9.914  15.097  27.409  1.00  0.00     0.256 C 
HETATM   11  N2  UNL     1      -9.315  14.379  28.441  1.00  0.00    -0.336 N 
ATOM     12  H2  UNL     1      -8.535  13.777  28.175  1.00  0.00     0.164 HD
HETATM   13  O3  UNL     1     -10.888  15.871  27.683  1.00  0.00    -0.267 OA
BRANCH  11  14
HETATM   14  C6  UNL     1      -9.664  14.384  29.846  1.00  0.00     0.187 C 
BRANCH  14  15
HETATM   15  C5  UNL     1      -8.600  13.712  30.702  1.00  0.00     0.047 C 
BRANCH  15  16
HETATM   16  C4  UNL     1      -8.636  14.066  32.133  1.00  0.00     0.004 C 
BRANCH  16  17
HETATM   17  C3  UNL     1      -8.675  15.561  32.335  1.00  0.00    -0.000 C 
BRANCH  17  18
HETATM   18  C2  UNL     1      -9.430  15.933  33.589  1.00  0.00    -0.005 C 
HETATM   19  C1  UNL     1      -9.847  14.668  34.293  1.00  0.00     0.005 C 
ENDBRANCH  17  18
ENDBRANCH  16  17
ENDBRANCH  15  16
ENDBRANCH  14  15
BRANCH  14  20
HETATM   20  N1  UNL     1     -10.897  13.624  29.939  1.00  0.00    -0.333 N 
HETATM   21  C7  UNL     1     -12.028  13.979  30.703  1.00  0.00     0.289 C 
HETATM   22  O1  UNL     1     -12.079  15.026  31.387  1.00  0.00    -0.264 OA
ATOM     23  H1  UNL     1     -10.951  12.757  29.404  1.00  0.00     0.165 HD
BRANCH  21  24
HETATM   24  C8  UNL     1     -13.194  13.116  30.721  1.00  0.00     0.224 C 
HETATM   25  O2  UNL     1     -13.541  12.605  31.844  1.00  0.00    -0.286 OA
BRANCH  24  26
HETATM   26  C9  UNL     1     -13.961  12.833  29.495  1.00  0.00     0.019 C 
HETATM   27  C10 UNL     1     -13.684  13.804  28.371  1.00  0.00     0.023 C 
HETATM   28  C11 UNL     1     -13.695  11.405  29.082  1.00  0.00     0.023 C 
HETATM   29  C12 UNL     1     -15.456  12.955  29.790  1.00  0.00     0.023 C 
ENDBRANCH  24  26
ENDBRANCH  21  24
ENDBRANCH  14  20
ENDBRANCH  11  14
ENDBRANCH   1  10
BRANCH   4  30
HETATM   30  N4  UNL     1      -8.548  15.031  21.905  1.00  0.00    -0.365 N 
HETATM   31  C24 UNL     1      -7.485  14.259  21.334  1.00  0.00     0.124 C 
HETATM   32  C25 UNL     1      -6.924  15.167  20.266  1.00  0.00     0.021 C 
HETATM   33  C26 UNL     1      -8.107  16.007  19.858  1.00  0.00     0.021 C 
HETATM   34  C27 UNL     1      -9.209  15.742  20.863  1.00  0.00     0.124 C 
ENDBRANCH   4  30
BRANCH   3  35
HETATM   35  O4  UNL     1      -7.644  17.115  23.600  1.00  0.00    -0.338 OA
BRANCH  35  36
HETATM   36  C17 UNL     1      -6.306  17.283  24.033  1.00  0.00     0.278 C 
BRANCH  36  37
HETATM   37  C18 UNL     1      -5.473  17.556  22.826  1.00  0.00     0.244 C 
HETATM   38  O5  UNL     1      -5.973  18.035  21.779  1.00  0.00    -0.271 OA
HETATM   39  N3  UNL     1      -4.070  17.284  22.817  1.00  0.00    -0.350 N 
HETATM   40  C19 UNL     1      -3.121  17.541  21.766  1.00  0.00     0.126 C 
HETATM   41  C22 UNL     1      -3.396  16.643  23.943  1.00  0.00     0.126 C 
HETATM   42  C20 UNL     1      -1.802  17.629  22.456  1.00  0.00     0.021 C 
HETATM   43  C21 UNL     1      -1.948  16.497  23.490  1.00  0.00     0.021 C 
ENDBRANCH  36  37
ENDBRANCH  35  36
ENDBRANCH   3  35
TORSDOF 13
ENDMDL
MODEL 5
REMARK VINA RESULT: -8.792172184      2.643      5.618
REMARK  13 active torsions:
REMARK  status: ('A' for Active; 'I' for Inactive)
REMARK    1  A    between atoms: C2_2  and  C3_3 
REMARK    2  A    between atoms: C3_3  and  C4_4 
REMARK    3  A    between atoms: C4_4  and  C5_5 
REMARK    4  A    between atoms: C5_5  and  C6_6 
REMARK    5  A    between atoms: C6_6  and  N1_7 
REMARK    6  A    between atoms: C6_6  and  N2_17 
REMARK       I    between atoms: N1_7  and  C7_9 
REMARK    7  A    between atoms: C7_9  and  C8_11 
REMARK    8  A    between atoms: C8_11  and  C9_13 
REMARK       I    between atoms: N2_17  and  C13_19 
REMARK    9  A    between atoms: C13_19  and  C14_21 
REMARK   10  A    between atoms: C16_23  and  O4_24 
REMARK   11  A    between atoms: O4_24  and  C17_25 
REMARK   12  A    between atoms: C17_25  and  C18_26 
REMARK       I    between atoms: C18_26  and  N3_28 
REMARK   13  A    between atoms: C23_33  and  N4_34 
ROOT
HETATM    1  C14 UNL     1      -5.596  17.135  25.433  1.00  0.00     0.072 A 
HETATM    2  C15 UNL     1      -5.667  17.196  24.040  1.00  0.00     0.060 A 
HETATM    3  C16 UNL     1      -4.526  17.235  23.277  1.00  0.00     0.114 A 
HETATM    4  C23 UNL     1      -3.279  17.212  23.851  1.00  0.00     0.138 A 
HETATM    5  N5  UNL     1      -3.211  17.154  25.215  1.00  0.00    -0.331 N 
ATOM      6  H5  UNL     1      -2.299  17.137  25.671  1.00  0.00     0.168 HD
HETATM    7  C28 UNL     1      -4.343  17.117  25.979  1.00  0.00     0.131 A 
HETATM    8  C29 UNL     1      -4.208  17.057  27.409  1.00  0.00     0.118 C 
HETATM    9  N6  UNL     1      -4.104  17.029  28.542  1.00  0.00    -0.190 NA
ENDROOT
BRANCH   1  10
HETATM   10  C13 UNL     1      -6.793  17.116  26.250  1.00  0.00     0.256 C 
HETATM   11  N2  UNL     1      -7.120  16.234  27.276  1.00  0.00    -0.336 N 
ATOM     12  H2  UNL     1      -6.431  15.510  27.482  1.00  0.00     0.164 HD
HETATM   13  O3  UNL     1      -7.612  18.045  25.953  1.00  0.00    -0.267 OA
BRANCH  11  14
HETATM   14  C6  UNL     1      -8.318  16.219  28.088  1.00  0.00     0.187 C 
BRANCH  14  15
HETATM   15  C5  UNL     1      -8.147  15.379  29.345  1.00  0.00     0.047 C 
BRANCH  15  16
HETATM   16  C4  UNL     1      -9.307  15.377  30.256  1.00  0.00     0.004 C 
BRANCH  16  17
HETATM   17  C3  UNL     1      -9.047  14.544  31.486  1.00  0.00    -0.000 C 
BRANCH  17  18
HETATM   18  C2  UNL     1      -8.534  15.385  32.630  1.00  0.00    -0.005 C 
HETATM   19  C1  UNL     1      -9.713  15.892  33.420  1.00  0.00     0.005 C 
ENDBRANCH  17  18
ENDBRANCH  16  17
ENDBRANCH  15  16
ENDBRANCH  14  15
BRANCH  14  20
HETATM   20  N1  UNL     1      -9.342  15.619  27.251  1.00  0.00    -0.333 N 
HETATM   21  C7  UNL     1      -9.266  14.353  26.637  1.00  0.00     0.289 C 
HETATM   22  O1  UNL     1      -8.278  13.596  26.771  1.00  0.00    -0.264 OA
ATOM     23  H1  UNL     1     -10.191  16.162  27.094  1.00  0.00     0.165 HD
BRANCH  21  24
HETATM   24  C8  UNL     1     -10.358  13.879  25.807  1.00  0.00     0.224 C 
HETATM   25  O2  UNL     1     -10.207  13.932  24.536  1.00  0.00    -0.286 OA
BRANCH  24  26
HETATM   26  C9  UNL     1     -11.601  13.352  26.399  1.00  0.00     0.019 C 
HETATM   27  C10 UNL     1     -11.398  12.695  27.744  1.00  0.00     0.023 C 
HETATM   28  C11 UNL     1     -12.612  14.471  26.466  1.00  0.00     0.023 C 
HETATM   29  C12 UNL     1     -12.176  12.267  25.488  1.00  0.00     0.023 C 
ENDBRANCH  24  26
ENDBRANCH  21  24
ENDBRANCH  14  20
ENDBRANCH  11  14
ENDBRANCH   1  10
BRANCH   4  30
HETATM   30  N4  UNL     1      -2.086  17.236  23.087  1.00  0.00    -0.365 N 
HETATM   31  C24 UNL     1      -1.402  16.075  22.602  1.00  0.00     0.124 C 
HETATM   32  C25 UNL     1       0.056  16.427  22.773  1.00  0.00     0.021 C 
HETATM   33  C26 UNL     1       0.075  17.929  22.653  1.00  0.00     0.021 C 
HETATM   34  C27 UNL     1      -1.367  18.395  22.680  1.00  0.00     0.124 C 
ENDBRANCH   4  30
BRANCH   3  35
HETATM   35  O4  UNL     1      -4.649  17.302  21.879  1.00  0.00    -0.338 OA
BRANCH  35  36
HETATM   36  C17 UNL     1      -5.603  18.154  21.272  1.00  0.00     0.278 C 
BRANCH  36  37
HETATM   37  C18 UNL     1      -6.255  17.390  20.170  1.00  0.00     0.244 C 
HETATM   38  O5  UNL     1      -5.806  17.417  18.998  1.00  0.00    -0.271 OA
HETATM   39  N3  UNL     1      -7.417  16.594  20.407  1.00  0.00    -0.350 N 
HETATM   40  C19 UNL     1      -8.127  15.757  19.475  1.00  0.00     0.126 C 
HETATM   41  C22 UNL     1      -8.083  16.557  21.707  1.00  0.00     0.126 C 
HETATM   42  C20 UNL     1      -8.833  14.754  20.324  1.00  0.00     0.021 C 
HETATM   43  C21 UNL     1      -9.285  15.645  21.497  1.00  0.00     0.021 C 
ENDBRANCH  36  37
ENDBRANCH  35  36
ENDBRANCH   3  35
TORSDOF 13
ENDMDL
