MODEL 1
REMARK VINA RESULT: -3.659932153      0.000      0.000
REMARK  1 active torsions:
REMARK  status: ('A' for Active; 'I' for Inactive)
REMARK    1  A    between atoms: O1_1  and  C1_3 
ROOT
HETATM    1  C1  UNL     1       8.493   6.320  44.227  1.00  0.00     0.265 C 
HETATM    2  C2  UNL     1       7.347   6.970  43.436  1.00  0.00     0.134 C 
HETATM    3  S1  UNL     1       7.325   6.063  41.864  1.00  0.00    -0.162 SA
HETATM    4  C3  UNL     1       8.942   5.350  41.635  1.00  0.00     0.100 C 
HETATM    5  C4  UNL     1      10.015   5.903  42.505  1.00  0.00     0.181 C 
HETATM    6  O2  UNL     1       9.685   6.522  43.631  1.00  0.00    -0.360 OA
ENDROOT
BRANCH   1   7
HETATM    7  O1  UNL     1       8.193   4.996  44.535  1.00  0.00    -0.370 OA
ATOM      8  H1  UNL     1       8.202   4.858  45.475  1.00  0.00     0.212 HD
ENDBRANCH   1   7
TORSDOF 1
ENDMDL
MODEL 2
REMARK VINA RESULT: -3.522531168      2.115      2.610
REMARK  1 active torsions:
REMARK  status: ('A' for Active; 'I' for Inactive)
REMARK    1  A    between atoms: O1_1  and  C1_3 
ROOT
HETATM    1  C1  UNL     1       9.569   6.401  42.854  1.00  0.00     0.265 C 
HETATM    2  C2  UNL     1       9.052   5.226  42.011  1.00  0.00     0.134 C 
HETATM    3  S1  UNL     1      10.083   5.263  40.518  1.00  0.00    -0.162 SA
HETATM    4  C3  UNL     1      10.721   6.918  40.350  1.00  0.00     0.100 C 
HETATM    5  C4  UNL     1      10.040   7.954  41.173  1.00  0.00     0.181 C 
HETATM    6  O2  UNL     1       9.351   7.583  42.245  1.00  0.00    -0.360 OA
ENDROOT
BRANCH   1   7
HETATM    7  O1  UNL     1      10.878   6.173  43.268  1.00  0.00    -0.370 OA
ATOM      8  H1  UNL     1      10.967   5.307  43.649  1.00  0.00     0.212 HD
ENDBRANCH   1   7
TORSDOF 1
ENDMDL
MODEL 3
REMARK VINA RESULT: -3.426952529      1.475      2.688
REMARK  1 active torsions:
REMARK  status: ('A' for Active; 'I' for Inactive)
REMARK    1  A    between atoms: O1_1  and  C1_3 
ROOT
HETATM    1  C1  UNL     1      10.175   5.375  42.424  1.00  0.00     0.265 C 
HETATM    2  C2  UNL     1      10.024   6.094  41.076  1.00  0.00     0.134 C 
HETATM    3  S1  UNL     1       9.092   7.599  41.479  1.00  0.00    -0.162 SA
HETATM    4  C3  UNL     1       8.210   7.291  42.996  1.00  0.00     0.100 C 
HETATM    5  C4  UNL     1       8.110   5.863  43.401  1.00  0.00     0.181 C 
HETATM    6  O2  UNL     1       8.982   4.988  42.918  1.00  0.00    -0.360 OA
ENDROOT
BRANCH   1   7
HETATM    7  O1  UNL     1      10.971   6.115  43.293  1.00  0.00    -0.370 OA
ATOM      8  H1  UNL     1      10.512   6.290  44.106  1.00  0.00     0.212 HD
ENDBRANCH   1   7
TORSDOF 1
ENDMDL
MODEL 4
REMARK VINA RESULT: -3.425116679      2.011      2.359
REMARK  1 active torsions:
REMARK  status: ('A' for Active; 'I' for Inactive)
REMARK    1  A    between atoms: O1_1  and  C1_3 
ROOT
HETATM    1  C1  UNL     1      10.236   6.071  42.494  1.00  0.00     0.265 C 
HETATM    2  C2  UNL     1       9.386   7.128  41.775  1.00  0.00     0.134 C 
HETATM    3  S1  UNL     1       8.848   6.301  40.251  1.00  0.00    -0.162 SA
HETATM    4  C3  UNL     1      10.005   4.988  39.919  1.00  0.00     0.100 C 
HETATM    5  C4  UNL     1      11.287   5.058  40.670  1.00  0.00     0.181 C 
HETATM    6  O2  UNL     1      11.345   5.764  41.793  1.00  0.00    -0.360 OA
ENDROOT
BRANCH   1   7
HETATM    7  O1  UNL     1       9.455   4.988  42.884  1.00  0.00    -0.370 OA
ATOM      8  H1  UNL     1       9.139   4.509  42.126  1.00  0.00     0.212 HD
ENDBRANCH   1   7
TORSDOF 1
ENDMDL
MODEL 5
REMARK VINA RESULT: -3.392075784      2.201      3.135
REMARK  1 active torsions:
REMARK  status: ('A' for Active; 'I' for Inactive)
REMARK    1  A    between atoms: O1_1  and  C1_3 
ROOT
HETATM    1  C1  UNL     1      10.312   5.493  42.199  1.00  0.00     0.265 C 
HETATM    2  C2  UNL     1      10.983   5.827  40.860  1.00  0.00     0.134 C 
HETATM    3  S1  UNL     1      10.622   7.589  40.611  1.00  0.00    -0.162 SA
HETATM    4  C3  UNL     1       9.176   7.979  41.576  1.00  0.00     0.100 C 
HETATM    5  C4  UNL     1       8.388   6.811  42.052  1.00  0.00     0.181 C 
HETATM    6  O2  UNL     1       8.972   5.621  42.130  1.00  0.00    -0.360 OA
ENDROOT
BRANCH   1   7
HETATM    7  O1  UNL     1      10.925   6.177  43.245  1.00  0.00    -0.370 OA
ATOM      8  H1  UNL     1      10.320   6.304  43.967  1.00  0.00     0.212 HD
ENDBRANCH   1   7
TORSDOF 1
ENDMDL
