MODEL 1
REMARK VINA RESULT: -4.269329059      0.000      0.000
REMARK  0 active torsions:
REMARK  status: ('A' for Active; 'I' for Inactive)
ROOT
HETATM    1  C1  UNL     1       9.885   7.601  41.472  1.00  0.00     0.238 C 
HETATM    2  C2  UNL     1       8.554   7.416  42.136  1.00  0.00     0.062 C 
HETATM    3  C3  UNL     1       8.667   6.313  43.172  1.00  0.00     0.166 C 
HETATM    4  C4  UNL     1       9.051   5.047  42.393  1.00  0.00     0.099 C 
HETATM    5  C5  UNL     1      10.511   5.447  42.132  1.00  0.00     0.360 C 
HETATM    6  N1  UNL     1      10.498   6.387  41.029  1.00  0.00    -0.046 N 
ATOM      7  H11 UNL     1      11.426   6.539  40.635  1.00  0.00     0.280 HD
ATOM      8  H12 UNL     1      10.051   6.006  40.195  1.00  0.00     0.280 HD
HETATM    9  O1  UNL     1      10.838   6.119  43.270  1.00  0.00    -0.206 OA
HETATM   10  O2  UNL     1       9.807   6.528  43.895  1.00  0.00    -0.233 OA
ENDROOT
TORSDOF 0
ENDMDL
MODEL 2
REMARK VINA RESULT: -4.046892918      2.148      2.772
REMARK  0 active torsions:
REMARK  status: ('A' for Active; 'I' for Inactive)
ROOT
HETATM    1  C1  UNL     1       7.656   5.290  42.577  1.00  0.00     0.238 C 
HETATM    2  C2  UNL     1       7.444   6.571  41.826  1.00  0.00     0.062 C 
HETATM    3  C3  UNL     1       8.258   7.670  42.482  1.00  0.00     0.166 C 
HETATM    4  C4  UNL     1       7.712   7.797  43.912  1.00  0.00     0.099 C 
HETATM    5  C5  UNL     1       8.350   6.507  44.450  1.00  0.00     0.360 C 
HETATM    6  N1  UNL     1       7.520   5.408  43.996  1.00  0.00    -0.046 N 
ATOM      7  H11 UNL     1       7.727   4.536  44.482  1.00  0.00     0.280 HD
ATOM      8  H12 UNL     1       6.548   5.505  44.288  1.00  0.00     0.280 HD
HETATM    9  O1  UNL     1       9.533   6.463  43.778  1.00  0.00    -0.206 OA
HETATM   10  O2  UNL     1       9.511   7.179  42.726  1.00  0.00    -0.233 OA
ENDROOT
TORSDOF 0
ENDMDL
MODEL 3
REMARK VINA RESULT: -3.976976914      1.278      2.062
REMARK  0 active torsions:
REMARK  status: ('A' for Active; 'I' for Inactive)
ROOT
HETATM    1  C1  UNL     1       8.680   6.621  41.312  1.00  0.00     0.238 C 
HETATM    2  C2  UNL     1       9.080   5.330  41.961  1.00  0.00     0.062 C 
HETATM    3  C3  UNL     1      10.585   5.317  42.153  1.00  0.00     0.166 C 
HETATM    4  C4  UNL     1      11.186   5.409  40.743  1.00  0.00     0.099 C 
HETATM    5  C5  UNL     1      10.864   6.895  40.519  1.00  0.00     0.360 C 
HETATM    6  N1  UNL     1       9.460   6.971  40.165  1.00  0.00    -0.046 N 
ATOM      7  H11 UNL     1       9.203   7.879  39.780  1.00  0.00     0.280 HD
ATOM      8  H12 UNL     1       9.231   6.403  39.349  1.00  0.00     0.280 HD
HETATM    9  O1  UNL     1      11.025   7.419  41.765  1.00  0.00    -0.206 OA
HETATM   10  O2  UNL     1      10.955   6.527  42.670  1.00  0.00    -0.233 OA
ENDROOT
TORSDOF 0
ENDMDL
MODEL 4
REMARK VINA RESULT: -3.936396154      4.402      5.263
REMARK  0 active torsions:
REMARK  status: ('A' for Active; 'I' for Inactive)
ROOT
HETATM    1  C1  UNL     1       6.902   8.924  46.153  1.00  0.00     0.238 C 
HETATM    2  C2  UNL     1       6.453   7.899  45.155  1.00  0.00     0.062 C 
HETATM    3  C3  UNL     1       6.741   8.412  43.756  1.00  0.00     0.166 C 
HETATM    4  C4  UNL     1       5.913   9.697  43.604  1.00  0.00     0.099 C 
HETATM    5  C5  UNL     1       6.801  10.576  44.499  1.00  0.00     0.360 C 
HETATM    6  N1  UNL     1       6.460  10.255  45.872  1.00  0.00    -0.046 N 
ATOM      7  H11 UNL     1       6.828  10.937  46.534  1.00  0.00     0.280 HD
ATOM      8  H12 UNL     1       5.469  10.388  46.069  1.00  0.00     0.280 HD
HETATM    9  O1  UNL     1       8.048  10.092  44.239  1.00  0.00    -0.206 OA
HETATM   10  O2  UNL     1       8.010   8.919  43.745  1.00  0.00    -0.233 OA
ENDROOT
TORSDOF 0
ENDMDL
MODEL 5
REMARK VINA RESULT: -3.935978613      1.018      1.165
REMARK  0 active torsions:
REMARK  status: ('A' for Active; 'I' for Inactive)
ROOT
HETATM    1  C1  UNL     1       8.620   7.991  42.069  1.00  0.00     0.238 C 
HETATM    2  C2  UNL     1       7.907   6.788  42.612  1.00  0.00     0.062 C 
HETATM    3  C3  UNL     1       8.914   5.676  42.838  1.00  0.00     0.166 C 
HETATM    4  C4  UNL     1       9.506   5.362  41.457  1.00  0.00     0.099 C 
HETATM    5  C5  UNL     1      10.379   6.622  41.357  1.00  0.00     0.360 C 
HETATM    6  N1  UNL     1       9.501   7.711  40.977  1.00  0.00    -0.046 N 
ATOM      7  H11 UNL     1      10.013   8.536  40.668  1.00  0.00     0.280 HD
ATOM      8  H12 UNL     1       8.999   7.524  40.109  1.00  0.00     0.280 HD
HETATM    9  O1  UNL     1      10.768   6.811  42.648  1.00  0.00    -0.206 OA
HETATM   10  O2  UNL     1      10.001   6.213  43.470  1.00  0.00    -0.233 OA
ENDROOT
TORSDOF 0
ENDMDL
