MODEL 1
REMARK VINA RESULT: -7.086952188      0.000      0.000
REMARK  5 active torsions:
REMARK  status: ('A' for Active; 'I' for Inactive)
REMARK    1  A    between atoms: O1_2  and  C2_3 
REMARK    2  A    between atoms: N1_5  and  C4_6 
REMARK    3  A    between atoms: C4_6  and  O2_7 
REMARK    4  A    between atoms: C11_16  and  C12_17 
REMARK    5  A    between atoms: C12_17  and  O4_18 
ROOT
HETATM    1  C2  UNL     1      22.186 -23.047  28.562  1.00  0.00     0.169 C 
HETATM    2  C3  UNL     1      22.351 -21.540  28.309  1.00  0.00     0.309 C 
HETATM    3  N1  UNL     1      23.153 -21.305  27.168  1.00  0.00     0.124 N 
HETATM    4  C5  UNL     1      22.548 -20.820  25.992  1.00  0.00     0.278 C 
HETATM    5  C6  UNL     1      21.043 -20.608  26.085  1.00  0.00     0.208 C 
HETATM    6  O3  UNL     1      20.324 -21.751  26.257  1.00  0.00    -0.382 OA
HETATM    7  C7  UNL     1      20.706 -22.803  25.476  1.00  0.00     0.143 C 
HETATM    8  C8  UNL     1      21.582 -22.417  24.305  1.00  0.00     0.069 C 
HETATM    9  C9  UNL     1      22.786 -21.597  24.731  1.00  0.00    -0.046 C 
HETATM   10  C10 UNL     1      24.067 -22.299  24.609  1.00  0.00    -0.015 C 
HETATM   11  C11 UNL     1      24.400 -23.505  25.350  1.00  0.00     0.036 C 
HETATM   12  C13 UNL     1      23.675 -24.758  25.051  1.00  0.00     0.045 C 
HETATM   13  C14 UNL     1      22.290 -24.668  25.608  1.00  0.00    -0.065 A 
HETATM   14  C15 UNL     1      21.097 -25.247  25.798  1.00  0.00    -0.004 A 
HETATM   15  C16 UNL     1      21.420 -23.857  26.292  1.00  0.00     0.046 A 
HETATM   16  C17 UNL     1      21.133 -23.677  27.731  1.00  0.00     0.132 C 
HETATM   17 CL1  UNL     1      20.681 -25.219  28.541  1.00  0.00    -0.121 Cl
ENDROOT
BRANCH   3  18
HETATM   18  C4  UNL     1      24.291 -20.465  27.589  1.00  0.00     0.438 C 
BRANCH  18  19
HETATM   19  O2  UNL     1      24.573 -19.495  26.660  1.00  0.00    -0.373 OA
ATOM     20  H2  UNL     1      24.684 -18.644  27.067  1.00  0.00     0.211 HD
ENDBRANCH  18  19
ENDBRANCH   3  18
BRANCH   1  21
HETATM   21  O1  UNL     1      21.859 -23.269  29.901  1.00  0.00    -0.387 OA
HETATM   22  C1  UNL     1      21.058 -22.291  30.440  1.00  0.00     0.202 C 
ENDBRANCH   1  21
BRANCH  11  23
HETATM   23  C12 UNL     1      25.863 -23.829  24.931  1.00  0.00     0.172 C 
BRANCH  23  24
HETATM   24  O4  UNL     1      25.790 -25.099  24.359  1.00  0.00    -0.400 OA
ATOM     25  H4  UNL     1      26.525 -25.571  24.733  1.00  0.00     0.209 HD
ENDBRANCH  23  24
ENDBRANCH  11  23
TORSDOF 5
ENDMDL
MODEL 2
REMARK VINA RESULT: -6.863123824      2.214      4.272
REMARK  5 active torsions:
REMARK  status: ('A' for Active; 'I' for Inactive)
REMARK    1  A    between atoms: O1_2  and  C2_3 
REMARK    2  A    between atoms: N1_5  and  C4_6 
REMARK    3  A    between atoms: C4_6  and  O2_7 
REMARK    4  A    between atoms: C11_16  and  C12_17 
REMARK    5  A    between atoms: C12_17  and  O4_18 
ROOT
HETATM    1  C2  UNL     1      20.972 -22.424  29.048  1.00  0.00     0.169 C 
HETATM    2  C3  UNL     1      22.099 -23.415  28.720  1.00  0.00     0.309 C 
HETATM    3  N1  UNL     1      22.191 -23.632  27.326  1.00  0.00     0.124 N 
HETATM    4  C5  UNL     1      23.283 -23.093  26.618  1.00  0.00     0.278 C 
HETATM    5  C6  UNL     1      24.269 -22.301  27.467  1.00  0.00     0.208 C 
HETATM    6  O3  UNL     1      23.758 -21.159  28.002  1.00  0.00    -0.382 OA
HETATM    7  C7  UNL     1      22.999 -20.405  27.155  1.00  0.00     0.143 C 
HETATM    8  C8  UNL     1      23.174 -20.755  25.693  1.00  0.00     0.069 C 
HETATM    9  C9  UNL     1      22.970 -22.236  25.428  1.00  0.00    -0.046 C 
HETATM   10  C10 UNL     1      21.751 -22.551  24.678  1.00  0.00    -0.015 C 
HETATM   11  C11 UNL     1      20.409 -22.270  25.164  1.00  0.00     0.036 C 
HETATM   12  C13 UNL     1      19.972 -20.865  25.301  1.00  0.00     0.045 C 
HETATM   13  C14 UNL     1      20.646 -20.255  26.488  1.00  0.00    -0.065 A 
HETATM   14  C15 UNL     1      20.825 -19.185  27.273  1.00  0.00    -0.004 A 
HETATM   15  C16 UNL     1      21.532 -20.498  27.507  1.00  0.00     0.046 A 
HETATM   16  C17 UNL     1      21.364 -21.004  28.887  1.00  0.00     0.132 C 
HETATM   17 CL1  UNL     1      20.193 -20.025  29.840  1.00  0.00    -0.121 Cl
ENDROOT
BRANCH   3  18
HETATM   18  C4  UNL     1      22.041 -25.080  27.089  1.00  0.00     0.438 C 
BRANCH  18  19
HETATM   19  O2  UNL     1      22.741 -25.818  28.011  1.00  0.00    -0.373 OA
ATOM     20  H2  UNL     1      22.316 -26.648  28.189  1.00  0.00     0.211 HD
ENDBRANCH  18  19
ENDBRANCH   3  18
BRANCH   1  21
HETATM   21  O1  UNL     1      20.555 -22.601  30.369  1.00  0.00    -0.387 OA
HETATM   22  C1  UNL     1      19.533 -23.509  30.504  1.00  0.00     0.202 C 
ENDBRANCH   1  21
BRANCH  11  23
HETATM   23  C12 UNL     1      19.468 -22.833  24.059  1.00  0.00     0.172 C 
BRANCH  23  24
HETATM   24  O4  UNL     1      18.422 -21.913  23.989  1.00  0.00    -0.400 OA
ATOM     25  H4  UNL     1      18.524 -21.501  23.140  1.00  0.00     0.209 HD
ENDBRANCH  23  24
ENDBRANCH  11  23
TORSDOF 5
ENDMDL
MODEL 3
REMARK VINA RESULT: -6.841692078      1.778      4.158
REMARK  5 active torsions:
REMARK  status: ('A' for Active; 'I' for Inactive)
REMARK    1  A    between atoms: O1_2  and  C2_3 
REMARK    2  A    between atoms: N1_5  and  C4_6 
REMARK    3  A    between atoms: C4_6  and  O2_7 
REMARK    4  A    between atoms: C11_16  and  C12_17 
REMARK    5  A    between atoms: C12_17  and  O4_18 
ROOT
HETATM    1  C2  UNL     1      24.160 -24.030  26.348  1.00  0.00     0.169 C 
HETATM    2  C3  UNL     1      24.820 -22.821  25.668  1.00  0.00     0.309 C 
HETATM    3  N1  UNL     1      23.849 -21.988  25.065  1.00  0.00     0.124 N 
HETATM    4  C5  UNL     1      23.562 -20.737  25.645  1.00  0.00     0.278 C 
HETATM    5  C6  UNL     1      24.353 -20.419  26.908  1.00  0.00     0.208 C 
HETATM    6  O3  UNL     1      24.075 -21.230  27.964  1.00  0.00    -0.382 OA
HETATM    7  C7  UNL     1      22.750 -21.487  28.169  1.00  0.00     0.143 C 
HETATM    8  C8  UNL     1      21.819 -20.538  27.449  1.00  0.00     0.069 C 
HETATM    9  C9  UNL     1      22.126 -20.445  25.965  1.00  0.00    -0.046 C 
HETATM   10  C10 UNL     1      21.111 -21.052  25.100  1.00  0.00    -0.015 C 
HETATM   11  C11 UNL     1      20.771 -22.466  25.124  1.00  0.00     0.036 C 
HETATM   12  C13 UNL     1      20.103 -23.026  26.317  1.00  0.00     0.045 C 
HETATM   13  C14 UNL     1      21.095 -23.135  27.430  1.00  0.00    -0.065 A 
HETATM   14  C15 UNL     1      21.355 -23.489  28.695  1.00  0.00    -0.004 A 
HETATM   15  C16 UNL     1      22.402 -22.904  27.777  1.00  0.00     0.046 A 
HETATM   16  C17 UNL     1      23.625 -23.732  27.698  1.00  0.00     0.132 C 
HETATM   17 CL1  UNL     1      23.444 -25.309  28.548  1.00  0.00    -0.121 Cl
ENDROOT
BRANCH   3  18
HETATM   18  C4  UNL     1      24.190 -21.867  23.635  1.00  0.00     0.438 C 
BRANCH  18  19
HETATM   19  O2  UNL     1      23.693 -22.918  22.906  1.00  0.00    -0.373 OA
ATOM     20  H2  UNL     1      24.288 -23.658  22.909  1.00  0.00     0.211 HD
ENDBRANCH  18  19
ENDBRANCH   3  18
BRANCH   1  21
HETATM   21  O1  UNL     1      25.088 -25.065  26.479  1.00  0.00    -0.387 OA
HETATM   22  C1  UNL     1      25.886 -25.229  25.372  1.00  0.00     0.202 C 
ENDBRANCH   1  21
BRANCH  11  23
HETATM   23  C12 UNL     1      19.703 -22.630  24.004  1.00  0.00     0.172 C 
BRANCH  23  24
HETATM   24  O4  UNL     1      18.717 -21.696  24.321  1.00  0.00    -0.400 OA
ATOM     25  H4  UNL     1      17.901 -22.174  24.237  1.00  0.00     0.209 HD
ENDBRANCH  23  24
ENDBRANCH  11  23
TORSDOF 5
ENDMDL
MODEL 4
REMARK VINA RESULT: -6.833514761      1.971      4.357
REMARK  5 active torsions:
REMARK  status: ('A' for Active; 'I' for Inactive)
REMARK    1  A    between atoms: O1_2  and  C2_3 
REMARK    2  A    between atoms: N1_5  and  C4_6 
REMARK    3  A    between atoms: C4_6  and  O2_7 
REMARK    4  A    between atoms: C11_16  and  C12_17 
REMARK    5  A    between atoms: C12_17  and  O4_18 
ROOT
HETATM    1  C2  UNL     1      21.112 -23.619  28.639  1.00  0.00     0.169 C 
HETATM    2  C3  UNL     1      22.047 -24.354  27.666  1.00  0.00     0.309 C 
HETATM    3  N1  UNL     1      21.956 -23.804  26.366  1.00  0.00     0.124 N 
HETATM    4  C5  UNL     1      23.030 -23.041  25.868  1.00  0.00     0.278 C 
HETATM    5  C6  UNL     1      24.203 -22.882  26.826  1.00  0.00     0.208 C 
HETATM    6  O3  UNL     1      23.919 -22.169  27.949  1.00  0.00    -0.382 OA
HETATM    7  C7  UNL     1      23.186 -21.035  27.750  1.00  0.00     0.143 C 
HETATM    8  C8  UNL     1      23.151 -20.567  26.312  1.00  0.00     0.069 C 
HETATM    9  C9  UNL     1      22.713 -21.665  25.360  1.00  0.00    -0.046 C 
HETATM   10  C10 UNL     1      21.389 -21.458  24.769  1.00  0.00    -0.015 C 
HETATM   11  C11 UNL     1      20.160 -21.395  25.545  1.00  0.00     0.036 C 
HETATM   12  C13 UNL     1      19.942 -20.253  26.457  1.00  0.00     0.045 C 
HETATM   13  C14 UNL     1      20.820 -20.408  27.658  1.00  0.00    -0.065 A 
HETATM   14  C15 UNL     1      21.231 -19.930  28.839  1.00  0.00    -0.004 A 
HETATM   15  C16 UNL     1      21.768 -21.209  28.242  1.00  0.00     0.046 A 
HETATM   16  C17 UNL     1      21.681 -22.357  29.170  1.00  0.00     0.132 C 
HETATM   17 CL1  UNL     1      20.768 -21.963  30.670  1.00  0.00    -0.121 Cl
ENDROOT
BRANCH   3  18
HETATM   18  C4  UNL     1      21.580 -24.893  25.445  1.00  0.00     0.438 C 
BRANCH  18  19
HETATM   19  O2  UNL     1      22.686 -25.515  24.920  1.00  0.00    -0.373 OA
ATOM     20  H2  UNL     1      22.447 -26.274  24.404  1.00  0.00     0.211 HD
ENDBRANCH  18  19
ENDBRANCH   3  18
BRANCH   1  21
HETATM   21  O1  UNL     1      20.820 -24.444  29.728  1.00  0.00    -0.387 OA
HETATM   22  C1  UNL     1      20.481 -25.726  29.369  1.00  0.00     0.202 C 
ENDBRANCH   1  21
BRANCH  11  23
HETATM   23  C12 UNL     1      19.035 -21.226  24.483  1.00  0.00     0.172 C 
BRANCH  23  24
HETATM   24  O4  UNL     1      18.924 -22.484  23.890  1.00  0.00    -0.400 OA
ATOM     25  H4  UNL     1      18.861 -22.303  22.959  1.00  0.00     0.209 HD
ENDBRANCH  23  24
ENDBRANCH  11  23
TORSDOF 5
ENDMDL
MODEL 5
REMARK VINA RESULT: -6.748893803      1.654      1.963
REMARK  5 active torsions:
REMARK  status: ('A' for Active; 'I' for Inactive)
REMARK    1  A    between atoms: O1_2  and  C2_3 
REMARK    2  A    between atoms: N1_5  and  C4_6 
REMARK    3  A    between atoms: C4_6  and  O2_7 
REMARK    4  A    between atoms: C11_16  and  C12_17 
REMARK    5  A    between atoms: C12_17  and  O4_18 
ROOT
HETATM    1  C2  UNL     1      21.327 -21.870  29.362  1.00  0.00     0.169 C 
HETATM    2  C3  UNL     1      21.917 -20.856  28.370  1.00  0.00     0.309 C 
HETATM    3  N1  UNL     1      22.865 -21.473  27.521  1.00  0.00     0.124 N 
HETATM    4  C5  UNL     1      22.537 -21.689  26.169  1.00  0.00     0.278 C 
HETATM    5  C6  UNL     1      21.143 -21.227  25.765  1.00  0.00     0.208 C 
HETATM    6  O3  UNL     1      20.129 -21.913  26.358  1.00  0.00    -0.382 OA
HETATM    7  C7  UNL     1      20.290 -23.267  26.405  1.00  0.00     0.143 C 
HETATM    8  C8  UNL     1      21.352 -23.795  25.466  1.00  0.00     0.069 C 
HETATM    9  C9  UNL     1      22.683 -23.088  25.645  1.00  0.00    -0.046 C 
HETATM   10  C10 UNL     1      23.732 -23.919  26.241  1.00  0.00    -0.015 C 
HETATM   11  C11 UNL     1      23.650 -24.487  27.578  1.00  0.00     0.036 C 
HETATM   12  C13 UNL     1      22.648 -25.537  27.854  1.00  0.00     0.045 C 
HETATM   13  C14 UNL     1      21.290 -24.915  27.917  1.00  0.00    -0.065 A 
HETATM   14  C15 UNL     1      19.972 -25.070  28.101  1.00  0.00    -0.004 A 
HETATM   15  C16 UNL     1      20.606 -23.731  27.808  1.00  0.00     0.046 A 
HETATM   16  C17 UNL     1      20.232 -22.691  28.791  1.00  0.00     0.132 C 
HETATM   17 CL1  UNL     1      19.301 -23.359  30.179  1.00  0.00    -0.121 Cl
ENDROOT
BRANCH   3  18
HETATM   18  C4  UNL     1      24.138 -20.742  27.669  1.00  0.00     0.438 C 
BRANCH  18  19
HETATM   19  O2  UNL     1      24.338 -19.863  26.635  1.00  0.00    -0.373 OA
ATOM     20  H2  UNL     1      24.746 -20.287  25.889  1.00  0.00     0.211 HD
ENDBRANCH  18  19
ENDBRANCH   3  18
BRANCH   1  21
HETATM   21  O1  UNL     1      20.817 -21.200  30.477  1.00  0.00    -0.387 OA
HETATM   22  C1  UNL     1      20.290 -19.966  30.181  1.00  0.00     0.202 C 
ENDBRANCH   1  21
BRANCH  11  23
HETATM   23  C12 UNL     1      25.007 -25.224  27.773  1.00  0.00     0.172 C 
BRANCH  23  24
HETATM   24  O4  UNL     1      25.412 -25.558  26.480  1.00  0.00    -0.400 OA
ATOM     25  H4  UNL     1      26.356 -25.455  26.493  1.00  0.00     0.209 HD
ENDBRANCH  23  24
ENDBRANCH  11  23
TORSDOF 5
ENDMDL
