MODEL 1
REMARK VINA RESULT: -5.508683550      0.000      0.000
REMARK  9 active torsions:
REMARK  status: ('A' for Active; 'I' for Inactive)
REMARK    1  A    between atoms: N1_2  and  O1_3 
REMARK    2  A    between atoms: N1_2  and  C2_5 
REMARK    3  A    between atoms: C2_5  and  C3_6 
REMARK    4  A    between atoms: C3_6  and  N2_7 
REMARK    5  A    between atoms: N2_7  and  C4_10 
REMARK    6  A    between atoms: C4_10  and  C5_11 
REMARK    7  A    between atoms: N3_13  and  C7_14 
REMARK    8  A    between atoms: C7_14  and  C9_16 
REMARK    9  A    between atoms: C11_20  and  N5_21 
ROOT
HETATM    1  C5  UNL     1      15.495  -5.608 -37.204  1.00  0.00     0.070 A 
HETATM    2  C6  UNL     1      14.214  -5.250 -36.950  1.00  0.00     0.140 A 
HETATM    3  N3  UNL     1      13.365  -6.092 -37.584  1.00  0.00    -0.277 N 
HETATM    4  N7  UNL     1      14.151  -6.953 -38.210  1.00  0.00    -0.240 N 
ATOM      5  H7  UNL     1      13.795  -7.722 -38.777  1.00  0.00     0.208 HD
HETATM    6  N8  UNL     1      15.414  -6.728 -38.035  1.00  0.00    -0.287 N 
ATOM      7  H8  UNL     1      16.191  -7.261 -38.425  1.00  0.00     0.188 HD
ENDROOT
BRANCH   3   8
HETATM    8  C7  UNL     1      11.940  -6.141 -37.627  1.00  0.00     0.156 C 
HETATM    9  C8  UNL     1      11.339  -4.716 -37.604  1.00  0.00     0.041 C 
BRANCH   8  10
HETATM   10  C9  UNL     1      11.253  -6.946 -36.604  1.00  0.00     0.067 A 
HETATM   11  C10 UNL     1      11.834  -7.922 -35.774  1.00  0.00     0.134 A 
HETATM   12  N4  UNL     1      10.867  -8.439 -34.989  1.00  0.00    -0.200 N 
HETATM   13  C11 UNL     1       9.718  -7.858 -35.275  1.00  0.00     0.676 A 
ATOM     14  H4  UNL     1      11.004  -9.164 -34.285  1.00  0.00     0.183 HD
HETATM   15  N6  UNL     1       9.942  -6.939 -36.264  1.00  0.00    -0.192 N 
ATOM     16  H6  UNL     1       9.230  -6.340 -36.682  1.00  0.00     0.184 HD
BRANCH  13  17
HETATM   17  N5  UNL     1       8.549  -8.083 -34.699  1.00  0.00    -0.234 N 
ATOM     18  H52 UNL     1       8.391  -8.733 -33.929  1.00  0.00     0.174 HD
ATOM     19  H51 UNL     1       7.652  -7.669 -34.951  1.00  0.00     0.174 HD
ENDBRANCH  13  17
ENDBRANCH   8  10
ENDBRANCH   3   8
BRANCH   1  20
HETATM   20  C4  UNL     1      16.845  -5.089 -36.876  1.00  0.00     0.292 C 
BRANCH  20  21
HETATM   21  N2  UNL     1      17.751  -6.241 -36.928  1.00  0.00    -0.068 N 
ATOM     22  H22 UNL     1      17.332  -7.005 -37.459  1.00  0.00     0.277 HD
ATOM     23  H21 UNL     1      17.820  -6.687 -36.013  1.00  0.00     0.277 HD
BRANCH  21  24
HETATM   24  C3  UNL     1      19.049  -5.924 -37.436  1.00  0.00     0.254 C 
BRANCH  24  25
HETATM   25  C2  UNL     1      19.535  -7.099 -38.290  1.00  0.00     0.181 C 
BRANCH  25  26
HETATM   26  N1  UNL     1      18.588  -7.403 -39.350  1.00  0.00    -0.281 N 
HETATM   27  C1  UNL     1      18.420  -7.017 -40.458  1.00  0.00     0.149 C 
BRANCH  26  28
HETATM   28  O1  UNL     1      17.712  -8.471 -38.895  1.00  0.00    -0.289 OA
ATOM     29  H1  UNL     1      17.387  -8.403 -38.004  1.00  0.00     0.244 HD
ENDBRANCH  26  28
ENDBRANCH  25  26
ENDBRANCH  24  25
ENDBRANCH  21  24
ENDBRANCH  20  21
ENDBRANCH   1  20
TORSDOF 9
ENDMDL
MODEL 2
REMARK VINA RESULT: -5.318636195      1.531      2.316
REMARK  9 active torsions:
REMARK  status: ('A' for Active; 'I' for Inactive)
REMARK    1  A    between atoms: N1_2  and  O1_3 
REMARK    2  A    between atoms: N1_2  and  C2_5 
REMARK    3  A    between atoms: C2_5  and  C3_6 
REMARK    4  A    between atoms: C3_6  and  N2_7 
REMARK    5  A    between atoms: N2_7  and  C4_10 
REMARK    6  A    between atoms: C4_10  and  C5_11 
REMARK    7  A    between atoms: N3_13  and  C7_14 
REMARK    8  A    between atoms: C7_14  and  C9_16 
REMARK    9  A    between atoms: C11_20  and  N5_21 
ROOT
HETATM    1  C5  UNL     1      14.316  -6.543 -38.768  1.00  0.00     0.070 A 
HETATM    2  C6  UNL     1      13.211  -6.488 -37.987  1.00  0.00     0.140 A 
HETATM    3  N3  UNL     1      13.555  -6.146 -36.723  1.00  0.00    -0.277 N 
HETATM    4  N7  UNL     1      14.869  -5.996 -36.763  1.00  0.00    -0.240 N 
ATOM      5  H7  UNL     1      15.424  -5.731 -35.949  1.00  0.00     0.208 HD
HETATM    6  N8  UNL     1      15.384  -6.216 -37.930  1.00  0.00    -0.287 N 
ATOM      7  H8  UNL     1      16.371  -6.162 -38.185  1.00  0.00     0.188 HD
ENDROOT
BRANCH   3   8
HETATM    8  C7  UNL     1      12.768  -5.953 -35.549  1.00  0.00     0.156 C 
HETATM    9  C8  UNL     1      13.664  -5.896 -34.289  1.00  0.00     0.041 C 
BRANCH   8  10
HETATM   10  C9  UNL     1      11.677  -6.907 -35.294  1.00  0.00     0.067 A 
HETATM   11  C10 UNL     1      11.806  -8.219 -34.803  1.00  0.00     0.134 A 
HETATM   12  N4  UNL     1      10.576  -8.765 -34.727  1.00  0.00    -0.200 N 
HETATM   13  C11 UNL     1       9.684  -7.887 -35.144  1.00  0.00     0.676 A 
ATOM     14  H4  UNL     1      10.368  -9.708 -34.398  1.00  0.00     0.183 HD
HETATM   15  N6  UNL     1      10.347  -6.743 -35.494  1.00  0.00    -0.192 N 
ATOM     16  H6  UNL     1       9.908  -5.895 -35.851  1.00  0.00     0.184 HD
BRANCH  13  17
HETATM   17  N5  UNL     1       8.372  -8.049 -35.193  1.00  0.00    -0.234 N 
ATOM     18  H52 UNL     1       7.767  -7.698 -35.935  1.00  0.00     0.174 HD
ATOM     19  H51 UNL     1       7.786  -8.514 -34.500  1.00  0.00     0.174 HD
ENDBRANCH  13  17
ENDBRANCH   8  10
ENDBRANCH   3   8
BRANCH   1  20
HETATM   20  C4  UNL     1      14.626  -6.900 -40.173  1.00  0.00     0.292 C 
BRANCH  20  21
HETATM   21  N2  UNL     1      16.000  -6.450 -40.417  1.00  0.00    -0.068 N 
ATOM     22  H22 UNL     1      16.450  -6.177 -39.543  1.00  0.00     0.277 HD
ATOM     23  H21 UNL     1      16.005  -5.551 -40.899  1.00  0.00     0.277 HD
BRANCH  21  24
HETATM   24  C3  UNL     1      16.798  -7.405 -41.120  1.00  0.00     0.254 C 
BRANCH  24  25
HETATM   25  C2  UNL     1      18.264  -7.190 -40.733  1.00  0.00     0.181 C 
BRANCH  25  26
HETATM   26  N1  UNL     1      18.466  -7.397 -39.308  1.00  0.00    -0.281 N 
HETATM   27  C1  UNL     1      19.151  -6.900 -38.480  1.00  0.00     0.149 C 
BRANCH  26  28
HETATM   28  O1  UNL     1      17.545  -8.429 -38.857  1.00  0.00    -0.289 OA
ATOM     29  H1  UNL     1      16.882  -8.708 -39.478  1.00  0.00     0.244 HD
ENDBRANCH  26  28
ENDBRANCH  25  26
ENDBRANCH  24  25
ENDBRANCH  21  24
ENDBRANCH  20  21
ENDBRANCH   1  20
TORSDOF 9
ENDMDL
MODEL 3
REMARK VINA RESULT: -5.303917504      2.992      4.342
REMARK  9 active torsions:
REMARK  status: ('A' for Active; 'I' for Inactive)
REMARK    1  A    between atoms: N1_2  and  O1_3 
REMARK    2  A    between atoms: N1_2  and  C2_5 
REMARK    3  A    between atoms: C2_5  and  C3_6 
REMARK    4  A    between atoms: C3_6  and  N2_7 
REMARK    5  A    between atoms: N2_7  and  C4_10 
REMARK    6  A    between atoms: C4_10  and  C5_11 
REMARK    7  A    between atoms: N3_13  and  C7_14 
REMARK    8  A    between atoms: C7_14  and  C9_16 
REMARK    9  A    between atoms: C11_20  and  N5_21 
ROOT
HETATM    1  C5  UNL     1      14.112  -5.154 -38.665  1.00  0.00     0.070 A 
HETATM    2  C6  UNL     1      13.416  -4.735 -37.580  1.00  0.00     0.140 A 
HETATM    3  N3  UNL     1      13.292  -5.749 -36.692  1.00  0.00    -0.277 N 
HETATM    4  N7  UNL     1      13.921  -6.767 -37.255  1.00  0.00    -0.240 N 
ATOM      5  H7  UNL     1      14.002  -7.684 -36.815  1.00  0.00     0.208 HD
HETATM    6  N8  UNL     1      14.424  -6.492 -38.416  1.00  0.00    -0.287 N 
ATOM      7  H8  UNL     1      14.943  -7.125 -39.024  1.00  0.00     0.188 HD
ENDROOT
BRANCH   3   8
HETATM    8  C7  UNL     1      12.662  -5.812 -35.414  1.00  0.00     0.156 C 
HETATM    9  C8  UNL     1      13.708  -6.027 -34.295  1.00  0.00     0.041 C 
BRANCH   8  10
HETATM   10  C9  UNL     1      11.584  -6.798 -35.231  1.00  0.00     0.067 A 
HETATM   11  C10 UNL     1      11.711  -8.087 -34.681  1.00  0.00     0.134 A 
HETATM   12  N4  UNL     1      10.499  -8.677 -34.705  1.00  0.00    -0.200 N 
HETATM   13  C11 UNL     1       9.623  -7.849 -35.240  1.00  0.00     0.676 A 
ATOM     14  H4  UNL     1      10.292  -9.616 -34.363  1.00  0.00     0.183 HD
HETATM   15  N6  UNL     1      10.276  -6.692 -35.566  1.00  0.00    -0.192 N 
ATOM     16  H6  UNL     1       9.845  -5.874 -35.996  1.00  0.00     0.184 HD
BRANCH  13  17
HETATM   17  N5  UNL     1       8.328  -8.063 -35.411  1.00  0.00    -0.234 N 
ATOM     18  H52 UNL     1       7.735  -7.562 -36.073  1.00  0.00     0.174 HD
ATOM     19  H51 UNL     1       7.744  -8.725 -34.901  1.00  0.00     0.174 HD
ENDBRANCH  13  17
ENDBRANCH   8  10
ENDBRANCH   3   8
BRANCH   1  20
HETATM   20  C4  UNL     1      14.526  -4.579 -39.967  1.00  0.00     0.292 C 
BRANCH  20  21
HETATM   21  N2  UNL     1      13.778  -5.312 -40.994  1.00  0.00    -0.068 N 
ATOM     22  H22 UNL     1      13.770  -6.312 -40.790  1.00  0.00     0.277 HD
ATOM     23  H21 UNL     1      14.292  -5.323 -41.875  1.00  0.00     0.277 HD
BRANCH  21  24
HETATM   24  C3  UNL     1      12.449  -4.825 -41.190  1.00  0.00     0.254 C 
BRANCH  24  25
HETATM   25  C2  UNL     1      11.500  -6.024 -41.267  1.00  0.00     0.181 C 
BRANCH  25  26
HETATM   26  N1  UNL     1      11.151  -6.503 -39.940  1.00  0.00    -0.281 N 
HETATM   27  C1  UNL     1      10.332  -6.214 -39.135  1.00  0.00     0.149 C 
BRANCH  26  28
HETATM   28  O1  UNL     1      12.013  -7.630 -39.615  1.00  0.00    -0.289 OA
ATOM     29  H1  UNL     1      12.853  -7.663 -40.057  1.00  0.00     0.244 HD
ENDBRANCH  26  28
ENDBRANCH  25  26
ENDBRANCH  24  25
ENDBRANCH  21  24
ENDBRANCH  20  21
ENDBRANCH   1  20
TORSDOF 9
ENDMDL
MODEL 4
REMARK VINA RESULT: -5.300073569      2.542      7.043
REMARK  9 active torsions:
REMARK  status: ('A' for Active; 'I' for Inactive)
REMARK    1  A    between atoms: N1_2  and  O1_3 
REMARK    2  A    between atoms: N1_2  and  C2_5 
REMARK    3  A    between atoms: C2_5  and  C3_6 
REMARK    4  A    between atoms: C3_6  and  N2_7 
REMARK    5  A    between atoms: N2_7  and  C4_10 
REMARK    6  A    between atoms: C4_10  and  C5_11 
REMARK    7  A    between atoms: N3_13  and  C7_14 
REMARK    8  A    between atoms: C7_14  and  C9_16 
REMARK    9  A    between atoms: C11_20  and  N5_21 
ROOT
HETATM    1  C5  UNL     1      12.509  -7.845 -35.723  1.00  0.00     0.070 A 
HETATM    2  C6  UNL     1      12.726  -7.948 -37.057  1.00  0.00     0.140 A 
HETATM    3  N3  UNL     1      13.413  -6.868 -37.497  1.00  0.00    -0.277 N 
HETATM    4  N7  UNL     1      13.606  -6.129 -36.416  1.00  0.00    -0.240 N 
ATOM      5  H7  UNL     1      14.107  -5.241 -36.430  1.00  0.00     0.208 HD
HETATM    6  N8  UNL     1      13.099  -6.639 -35.339  1.00  0.00    -0.287 N 
ATOM      7  H8  UNL     1      13.125  -6.240 -34.401  1.00  0.00     0.188 HD
ENDROOT
BRANCH   3   8
HETATM    8  C7  UNL     1      13.883  -6.512 -38.796  1.00  0.00     0.156 C 
HETATM    9  C8  UNL     1      13.042  -7.204 -39.894  1.00  0.00     0.041 C 
BRANCH   8  10
HETATM   10  C9  UNL     1      15.306  -6.742 -39.094  1.00  0.00     0.067 A 
HETATM   11  C10 UNL     1      15.892  -6.833 -40.370  1.00  0.00     0.134 A 
HETATM   12  N4  UNL     1      17.212  -7.064 -40.213  1.00  0.00    -0.200 N 
HETATM   13  C11 UNL     1      17.491  -7.131 -38.926  1.00  0.00     0.676 A 
ATOM     14  H4  UNL     1      17.886  -7.170 -40.971  1.00  0.00     0.183 HD
HETATM   15  N6  UNL     1      16.330  -6.934 -38.228  1.00  0.00    -0.192 N 
ATOM     16  H6  UNL     1      16.248  -6.931 -37.212  1.00  0.00     0.184 HD
BRANCH  13  17
HETATM   17  N5  UNL     1      18.681  -7.320 -38.380  1.00  0.00    -0.234 N 
ATOM     18  H52 UNL     1      19.525  -6.802 -38.623  1.00  0.00     0.174 HD
ATOM     19  H51 UNL     1      18.927  -8.012 -37.672  1.00  0.00     0.174 HD
ENDBRANCH  13  17
ENDBRANCH   8  10
ENDBRANCH   3   8
BRANCH   1  20
HETATM   20  C4  UNL     1      11.797  -8.628 -34.684  1.00  0.00     0.292 C 
BRANCH  20  21
HETATM   21  N2  UNL     1      10.582  -7.871 -34.364  1.00  0.00    -0.068 N 
ATOM     22  H22 UNL     1      10.797  -6.883 -34.229  1.00  0.00     0.277 HD
ATOM     23  H21 UNL     1      10.250  -8.102 -33.427  1.00  0.00     0.277 HD
BRANCH  21  24
HETATM   24  C3  UNL     1       9.537  -8.034 -35.325  1.00  0.00     0.254 C 
BRANCH  24  25
HETATM   25  C2  UNL     1       8.940  -6.658 -35.630  1.00  0.00     0.181 C 
BRANCH  25  26
HETATM   26  N1  UNL     1       9.804  -5.896 -36.517  1.00  0.00    -0.281 N 
HETATM   27  C1  UNL     1       9.916  -5.795 -37.692  1.00  0.00     0.149 C 
BRANCH  26  28
HETATM   28  O1  UNL     1      10.665  -5.049 -35.707  1.00  0.00    -0.289 OA
ATOM     29  H1  UNL     1      11.313  -4.533 -36.173  1.00  0.00     0.244 HD
ENDBRANCH  26  28
ENDBRANCH  25  26
ENDBRANCH  24  25
ENDBRANCH  21  24
ENDBRANCH  20  21
ENDBRANCH   1  20
TORSDOF 9
ENDMDL
MODEL 5
REMARK VINA RESULT: -5.250937895      4.137      6.106
REMARK  9 active torsions:
REMARK  status: ('A' for Active; 'I' for Inactive)
REMARK    1  A    between atoms: N1_2  and  O1_3 
REMARK    2  A    between atoms: N1_2  and  C2_5 
REMARK    3  A    between atoms: C2_5  and  C3_6 
REMARK    4  A    between atoms: C3_6  and  N2_7 
REMARK    5  A    between atoms: N2_7  and  C4_10 
REMARK    6  A    between atoms: C4_10  and  C5_11 
REMARK    7  A    between atoms: N3_13  and  C7_14 
REMARK    8  A    between atoms: C7_14  and  C9_16 
REMARK    9  A    between atoms: C11_20  and  N5_21 
ROOT
HETATM    1  C5  UNL     1      13.035  -5.904 -36.065  1.00  0.00     0.070 A 
HETATM    2  C6  UNL     1      12.458  -4.844 -36.681  1.00  0.00     0.140 A 
HETATM    3  N3  UNL     1      12.554  -4.981 -38.024  1.00  0.00    -0.277 N 
HETATM    4  N7  UNL     1      13.188  -6.129 -38.199  1.00  0.00    -0.240 N 
ATOM      5  H7  UNL     1      13.406  -6.510 -39.120  1.00  0.00     0.208 HD
HETATM    6  N8  UNL     1      13.504  -6.724 -37.094  1.00  0.00    -0.287 N 
ATOM      7  H8  UNL     1      13.996  -7.612 -36.994  1.00  0.00     0.188 HD
ENDROOT
BRANCH   3   8
HETATM    8  C7  UNL     1      12.104  -4.151 -39.093  1.00  0.00     0.156 C 
HETATM    9  C8  UNL     1      12.449  -2.668 -38.821  1.00  0.00     0.041 C 
BRANCH   8  10
HETATM   10  C9  UNL     1      10.683  -4.231 -39.468  1.00  0.00     0.067 A 
HETATM   11  C10 UNL     1      10.135  -4.983 -40.523  1.00  0.00     0.134 A 
HETATM   12  N4  UNL     1       8.803  -4.774 -40.543  1.00  0.00    -0.200 N 
HETATM   13  C11 UNL     1       8.480  -3.936 -39.577  1.00  0.00     0.676 A 
ATOM     14  H4  UNL     1       8.149  -5.198 -41.201  1.00  0.00     0.183 HD
HETATM   15  N6  UNL     1       9.625  -3.596 -38.909  1.00  0.00    -0.192 N 
ATOM     16  H6  UNL     1       9.675  -2.961 -38.113  1.00  0.00     0.184 HD
BRANCH  13  17
HETATM   17  N5  UNL     1       7.266  -3.510 -39.267  1.00  0.00    -0.234 N 
ATOM     18  H52 UNL     1       6.744  -3.786 -38.435  1.00  0.00     0.174 HD
ATOM     19  H51 UNL     1       6.680  -2.880 -39.813  1.00  0.00     0.174 HD
ENDBRANCH  13  17
ENDBRANCH   8  10
ENDBRANCH   3   8
BRANCH   1  20
HETATM   20  C4  UNL     1      13.310  -6.321 -34.669  1.00  0.00     0.292 C 
BRANCH  20  21
HETATM   21  N2  UNL     1      12.813  -7.695 -34.547  1.00  0.00    -0.068 N 
ATOM     22  H22 UNL     1      13.452  -8.262 -33.989  1.00  0.00     0.277 HD
ATOM     23  H21 UNL     1      12.884  -8.185 -35.438  1.00  0.00     0.277 HD
BRANCH  21  24
HETATM   24  C3  UNL     1      11.483  -7.777 -34.030  1.00  0.00     0.254 C 
BRANCH  24  25
HETATM   25  C2  UNL     1      10.549  -8.218 -35.160  1.00  0.00     0.181 C 
BRANCH  25  26
HETATM   26  N1  UNL     1       9.542  -7.205 -35.433  1.00  0.00    -0.281 N 
HETATM   27  C1  UNL     1       9.301  -6.490 -36.346  1.00  0.00     0.149 C 
BRANCH  26  28
HETATM   28  O1  UNL     1       8.626  -7.149 -34.304  1.00  0.00    -0.289 OA
ATOM     29  H1  UNL     1       8.963  -6.768 -33.502  1.00  0.00     0.244 HD
ENDBRANCH  26  28
ENDBRANCH  25  26
ENDBRANCH  24  25
ENDBRANCH  21  24
ENDBRANCH  20  21
ENDBRANCH   1  20
TORSDOF 9
ENDMDL
