MODEL 1
REMARK VINA RESULT: -5.793183120      0.000      0.000
REMARK  9 active torsions:
REMARK  status: ('A' for Active; 'I' for Inactive)
REMARK    1  A    between atoms: C1_2  and  C2_4 
REMARK    2  A    between atoms: C2_4  and  C3_5 
REMARK    3  A    between atoms: C2_4  and  C8_12 
REMARK    4  A    between atoms: C8_12  and  O2_13 
REMARK    5  A    between atoms: C8_12  and  S1_15 
REMARK    6  A    between atoms: S1_15  and  C9_16 
REMARK    7  A    between atoms: C9_16  and  C10_17 
REMARK    8  A    between atoms: C10_17  and  N3_18 
REMARK    9  A    between atoms: C10_17  and  C11_22 
ROOT
HETATM    1  C8  UNL     1      12.166  -5.597 -37.292  1.00  0.00     0.196 C 
ENDROOT
BRANCH   1   2
HETATM    2  C2  UNL     1      11.926  -6.797 -38.184  1.00  0.00     0.148 C 
BRANCH   2   3
HETATM    3  C1  UNL     1      13.062  -7.722 -38.210  1.00  0.00     0.243 C 
HETATM    4  N1  UNL     1      14.285  -7.472 -38.849  1.00  0.00    -0.061 NA
HETATM    5  O1  UNL     1      12.950  -8.834 -37.620  1.00  0.00    -0.276 OA
ENDBRANCH   2   3
BRANCH   2   6
HETATM    6  C3  UNL     1      11.561  -6.366 -39.554  1.00  0.00    -0.027 A 
HETATM    7  C4  UNL     1      11.020  -7.226 -40.491  1.00  0.00     0.011 A 
HETATM    8  C5  UNL     1      10.687  -6.793 -41.768  1.00  0.00     0.018 A 
HETATM    9  C6  UNL     1      10.889  -5.479 -42.137  1.00  0.00     0.087 A 
HETATM   10  N2  UNL     1      11.419  -4.651 -41.212  1.00  0.00    -0.375 N 
HETATM   11  C7  UNL     1      11.742  -5.054 -39.985  1.00  0.00     0.095 A 
ATOM     12  H2  UNL     1      11.578  -3.675 -41.464  1.00  0.00     0.164 HD
ENDBRANCH   2   6
ENDBRANCH   1   2
BRANCH   1  13
HETATM   13  O2  UNL     1      13.176  -5.771 -36.383  1.00  0.00    -0.384 OA
ATOM     14  H2  UNL     1      13.298  -5.035 -35.796  1.00  0.00     0.211 HD
ENDBRANCH   1  13
BRANCH   1  15
HETATM   15  S1  UNL     1      10.582  -5.176 -36.480  1.00  0.00    -0.134 SA
BRANCH  15  16
HETATM   16  C9  UNL     1       9.609  -6.674 -36.383  1.00  0.00     0.120 C 
BRANCH  16  17
HETATM   17  C10 UNL     1       9.632  -7.321 -35.025  1.00  0.00     0.292 C 
BRANCH  17  18
HETATM   18  N3  UNL     1       8.535  -8.231 -34.854  1.00  0.00    -0.065 N 
ATOM     19  H33 UNL     1       7.655  -7.733 -34.717  1.00  0.00     0.275 HD
ATOM     20  H32 UNL     1       8.311  -8.712 -35.726  1.00  0.00     0.275 HD
ATOM     21  H31 UNL     1       8.710  -8.893 -34.098  1.00  0.00     0.275 HD
ENDBRANCH  17  18
BRANCH  17  22
HETATM   22  C11 UNL     1      10.896  -7.969 -34.699  1.00  0.00     0.205 C 
HETATM   23  O3  UNL     1      11.202  -9.120 -35.109  1.00  0.00    -0.646 OA
HETATM   24  O4  UNL     1      11.812  -7.299 -33.904  1.00  0.00    -0.646 OA
ENDBRANCH  17  22
ENDBRANCH  16  17
ENDBRANCH  15  16
ENDBRANCH   1  15
TORSDOF 9
ENDMDL
MODEL 2
REMARK VINA RESULT: -5.679351105      0.902      1.171
REMARK  9 active torsions:
REMARK  status: ('A' for Active; 'I' for Inactive)
REMARK    1  A    between atoms: C1_2  and  C2_4 
REMARK    2  A    between atoms: C2_4  and  C3_5 
REMARK    3  A    between atoms: C2_4  and  C8_12 
REMARK    4  A    between atoms: C8_12  and  O2_13 
REMARK    5  A    between atoms: C8_12  and  S1_15 
REMARK    6  A    between atoms: S1_15  and  C9_16 
REMARK    7  A    between atoms: C9_16  and  C10_17 
REMARK    8  A    between atoms: C10_17  and  N3_18 
REMARK    9  A    between atoms: C10_17  and  C11_22 
ROOT
HETATM    1  C8  UNL     1      11.902  -5.402 -37.790  1.00  0.00     0.196 C 
ENDROOT
BRANCH   1   2
HETATM    2  C2  UNL     1      11.670  -6.749 -38.441  1.00  0.00     0.148 C 
BRANCH   2   3
HETATM    3  C1  UNL     1      12.867  -7.593 -38.445  1.00  0.00     0.243 C 
HETATM    4  N1  UNL     1      14.089  -7.249 -39.042  1.00  0.00    -0.061 NA
HETATM    5  O1  UNL     1      12.815  -8.719 -37.874  1.00  0.00    -0.276 OA
ENDBRANCH   2   3
BRANCH   2   6
HETATM    6  C3  UNL     1      11.135  -6.581 -39.813  1.00  0.00    -0.027 A 
HETATM    7  C4  UNL     1      10.471  -5.441 -40.224  1.00  0.00     0.011 A 
HETATM    8  C5  UNL     1       9.981  -5.311 -41.517  1.00  0.00     0.018 A 
HETATM    9  C6  UNL     1      10.147  -6.328 -42.434  1.00  0.00     0.087 A 
HETATM   10  N2  UNL     1      10.797  -7.436 -42.018  1.00  0.00    -0.375 N 
HETATM   11  C7  UNL     1      11.272  -7.572 -40.783  1.00  0.00     0.095 A 
ATOM     12  H2  UNL     1      10.930  -8.201 -42.680  1.00  0.00     0.164 HD
ENDBRANCH   2   6
ENDBRANCH   1   2
BRANCH   1  13
HETATM   13  O2  UNL     1      13.180  -5.218 -37.331  1.00  0.00    -0.384 OA
ATOM     14  H2  UNL     1      13.730  -4.708 -37.914  1.00  0.00     0.211 HD
ENDBRANCH   1  13
BRANCH   1  15
HETATM   15  S1  UNL     1      10.663  -5.201 -36.459  1.00  0.00    -0.134 SA
BRANCH  15  16
HETATM   16  C9  UNL     1       9.689  -6.700 -36.397  1.00  0.00     0.120 C 
BRANCH  16  17
HETATM   17  C10 UNL     1       9.657  -7.343 -35.037  1.00  0.00     0.292 C 
BRANCH  17  18
HETATM   18  N3  UNL     1       8.536  -8.229 -34.897  1.00  0.00    -0.065 N 
ATOM     19  H33 UNL     1       7.674  -7.792 -35.223  1.00  0.00     0.275 HD
ATOM     20  H32 UNL     1       8.586  -9.000 -35.563  1.00  0.00     0.275 HD
ATOM     21  H31 UNL     1       8.443  -8.568 -33.940  1.00  0.00     0.275 HD
ENDBRANCH  17  18
BRANCH  17  22
HETATM   22  C11 UNL     1      10.897  -8.018 -34.673  1.00  0.00     0.205 C 
HETATM   23  O3  UNL     1      11.244  -9.126 -35.160  1.00  0.00    -0.646 OA
HETATM   24  O4  UNL     1      11.742  -7.422 -33.750  1.00  0.00    -0.646 OA
ENDBRANCH  17  22
ENDBRANCH  16  17
ENDBRANCH  15  16
ENDBRANCH   1  15
TORSDOF 9
ENDMDL
MODEL 3
REMARK VINA RESULT: -5.444077487      2.524      3.119
REMARK  9 active torsions:
REMARK  status: ('A' for Active; 'I' for Inactive)
REMARK    1  A    between atoms: C1_2  and  C2_4 
REMARK    2  A    between atoms: C2_4  and  C3_5 
REMARK    3  A    between atoms: C2_4  and  C8_12 
REMARK    4  A    between atoms: C8_12  and  O2_13 
REMARK    5  A    between atoms: C8_12  and  S1_15 
REMARK    6  A    between atoms: S1_15  and  C9_16 
REMARK    7  A    between atoms: C9_16  and  C10_17 
REMARK    8  A    between atoms: C10_17  and  N3_18 
REMARK    9  A    between atoms: C10_17  and  C11_22 
ROOT
HETATM    1  C8  UNL     1       9.885  -5.650 -36.647  1.00  0.00     0.196 C 
ENDROOT
BRANCH   1   2
HETATM    2  C2  UNL     1      10.502  -5.592 -38.028  1.00  0.00     0.148 C 
BRANCH   2   3
HETATM    3  C1  UNL     1      11.774  -4.866 -38.052  1.00  0.00     0.243 C 
HETATM    4  N1  UNL     1      11.912  -3.498 -38.334  1.00  0.00    -0.061 NA
HETATM    5  O1  UNL     1      12.838  -5.501 -37.805  1.00  0.00    -0.276 OA
ENDBRANCH   2   3
BRANCH   2   6
HETATM    6  C3  UNL     1       9.545  -5.018 -39.004  1.00  0.00    -0.027 A 
HETATM    7  C4  UNL     1       9.612  -5.278 -40.360  1.00  0.00     0.011 A 
HETATM    8  C5  UNL     1       8.701  -4.728 -41.251  1.00  0.00     0.018 A 
HETATM    9  C6  UNL     1       7.694  -3.898 -40.801  1.00  0.00     0.087 A 
HETATM   10  N2  UNL     1       7.642  -3.653 -39.475  1.00  0.00    -0.375 N 
HETATM   11  C7  UNL     1       8.509  -4.175 -38.610  1.00  0.00     0.095 A 
ATOM     12  H2  UNL     1       6.906  -3.042 -39.120  1.00  0.00     0.164 HD
ENDBRANCH   2   6
ENDBRANCH   1   2
BRANCH   1  13
HETATM   13  O2  UNL     1      10.538  -4.890 -35.712  1.00  0.00    -0.384 OA
ATOM     14  H2  UNL     1       9.960  -4.461 -35.092  1.00  0.00     0.211 HD
ENDBRANCH   1  13
BRANCH   1  15
HETATM   15  S1  UNL     1       9.787  -7.408 -36.150  1.00  0.00    -0.134 SA
BRANCH  15  16
HETATM   16  C9  UNL     1      10.596  -7.566 -34.561  1.00  0.00     0.120 C 
BRANCH  16  17
HETATM   17  C10 UNL     1      12.073  -7.831 -34.661  1.00  0.00     0.292 C 
BRANCH  17  18
HETATM   18  N3  UNL     1      12.496  -7.965 -36.026  1.00  0.00    -0.065 N 
ATOM     19  H33 UNL     1      13.151  -8.740 -36.139  1.00  0.00     0.275 HD
ATOM     20  H32 UNL     1      11.739  -8.310 -36.618  1.00  0.00     0.275 HD
ATOM     21  H31 UNL     1      12.884  -7.094 -36.387  1.00  0.00     0.275 HD
ENDBRANCH  17  18
BRANCH  17  22
HETATM   22  C11 UNL     1      12.898  -6.856 -33.958  1.00  0.00     0.205 C 
HETATM   23  O3  UNL     1      13.825  -7.182 -33.171  1.00  0.00    -0.646 OA
HETATM   24  O4  UNL     1      12.663  -5.505 -34.159  1.00  0.00    -0.646 OA
ENDBRANCH  17  22
ENDBRANCH  16  17
ENDBRANCH  15  16
ENDBRANCH   1  15
TORSDOF 9
ENDMDL
MODEL 4
REMARK VINA RESULT: -5.248872553      1.843      2.233
REMARK  9 active torsions:
REMARK  status: ('A' for Active; 'I' for Inactive)
REMARK    1  A    between atoms: C1_2  and  C2_4 
REMARK    2  A    between atoms: C2_4  and  C3_5 
REMARK    3  A    between atoms: C2_4  and  C8_12 
REMARK    4  A    between atoms: C8_12  and  O2_13 
REMARK    5  A    between atoms: C8_12  and  S1_15 
REMARK    6  A    between atoms: S1_15  and  C9_16 
REMARK    7  A    between atoms: C9_16  and  C10_17 
REMARK    8  A    between atoms: C10_17  and  N3_18 
REMARK    9  A    between atoms: C10_17  and  C11_22 
ROOT
HETATM    1  C8  UNL     1      11.916  -6.201 -37.982  1.00  0.00     0.196 C 
ENDROOT
BRANCH   1   2
HETATM    2  C2  UNL     1      10.971  -6.405 -39.147  1.00  0.00     0.148 C 
BRANCH   2   3
HETATM    3  C1  UNL     1      11.580  -7.149 -40.251  1.00  0.00     0.243 C 
HETATM    4  N1  UNL     1      12.959  -7.351 -40.418  1.00  0.00    -0.061 NA
HETATM    5  O1  UNL     1      10.826  -7.653 -41.130  1.00  0.00    -0.276 OA
ENDBRANCH   2   3
BRANCH   2   6
HETATM    6  C3  UNL     1      10.431  -5.106 -39.615  1.00  0.00    -0.027 A 
HETATM    7  C4  UNL     1       9.077  -4.848 -39.712  1.00  0.00     0.011 A 
HETATM    8  C5  UNL     1       8.600  -3.621 -40.154  1.00  0.00     0.018 A 
HETATM    9  C6  UNL     1       9.476  -2.618 -40.511  1.00  0.00     0.087 A 
HETATM   10  N2  UNL     1      10.796  -2.884 -40.412  1.00  0.00    -0.375 N 
HETATM   11  C7  UNL     1      11.265  -4.055 -39.989  1.00  0.00     0.095 A 
ATOM     12  H2  UNL     1      11.462  -2.156 -40.672  1.00  0.00     0.164 HD
ENDBRANCH   2   6
ENDBRANCH   1   2
BRANCH   1  13
HETATM   13  O2  UNL     1      12.617  -7.325 -37.630  1.00  0.00    -0.384 OA
ATOM     14  H2  UNL     1      12.854  -7.360 -36.711  1.00  0.00     0.211 HD
ENDBRANCH   1  13
BRANCH   1  15
HETATM   15  S1  UNL     1      10.946  -5.536 -36.581  1.00  0.00    -0.134 SA
BRANCH  15  16
HETATM   16  C9  UNL     1       9.547  -6.623 -36.328  1.00  0.00     0.120 C 
BRANCH  16  17
HETATM   17  C10 UNL     1       9.569  -7.336 -35.004  1.00  0.00     0.292 C 
BRANCH  17  18
HETATM   18  N3  UNL     1       8.508  -8.298 -34.904  1.00  0.00    -0.065 N 
ATOM     19  H33 UNL     1       7.989  -8.372 -35.778  1.00  0.00     0.275 HD
ATOM     20  H32 UNL     1       8.872  -9.250 -34.854  1.00  0.00     0.275 HD
ATOM     21  H31 UNL     1       7.889  -8.095 -34.119  1.00  0.00     0.275 HD
ENDBRANCH  17  18
BRANCH  17  22
HETATM   22  C11 UNL     1      10.853  -7.948 -34.683  1.00  0.00     0.205 C 
HETATM   23  O3  UNL     1      11.564  -7.580 -33.711  1.00  0.00    -0.646 OA
HETATM   24  O4  UNL     1      11.323  -8.983 -35.475  1.00  0.00    -0.646 OA
ENDBRANCH  17  22
ENDBRANCH  16  17
ENDBRANCH  15  16
ENDBRANCH   1  15
TORSDOF 9
ENDMDL
MODEL 5
REMARK VINA RESULT: -5.178531217      2.321      2.650
REMARK  9 active torsions:
REMARK  status: ('A' for Active; 'I' for Inactive)
REMARK    1  A    between atoms: C1_2  and  C2_4 
REMARK    2  A    between atoms: C2_4  and  C3_5 
REMARK    3  A    between atoms: C2_4  and  C8_12 
REMARK    4  A    between atoms: C8_12  and  O2_13 
REMARK    5  A    between atoms: C8_12  and  S1_15 
REMARK    6  A    between atoms: S1_15  and  C9_16 
REMARK    7  A    between atoms: C9_16  and  C10_17 
REMARK    8  A    between atoms: C10_17  and  N3_18 
REMARK    9  A    between atoms: C10_17  and  C11_22 
ROOT
HETATM    1  C8  UNL     1      11.146  -4.476 -37.815  1.00  0.00     0.196 C 
ENDROOT
BRANCH   1   2
HETATM    2  C2  UNL     1      10.527  -5.414 -38.829  1.00  0.00     0.148 C 
BRANCH   2   3
HETATM    3  C1  UNL     1      11.480  -5.860 -39.848  1.00  0.00     0.243 C 
HETATM    4  N1  UNL     1      12.141  -5.015 -40.752  1.00  0.00    -0.061 NA
HETATM    5  O1  UNL     1      11.739  -7.093 -39.936  1.00  0.00    -0.276 OA
ENDBRANCH   2   3
BRANCH   2   6
HETATM    6  C3  UNL     1       9.333  -4.795 -39.454  1.00  0.00    -0.027 A 
HETATM    7  C4  UNL     1       8.982  -5.009 -40.773  1.00  0.00     0.011 A 
HETATM    8  C5  UNL     1       7.857  -4.416 -41.331  1.00  0.00     0.018 A 
HETATM    9  C6  UNL     1       7.053  -3.589 -40.574  1.00  0.00     0.087 A 
HETATM   10  N2  UNL     1       7.409  -3.390 -39.287  1.00  0.00    -0.375 N 
HETATM   11  C7  UNL     1       8.483  -3.952 -38.741  1.00  0.00     0.095 A 
ATOM     12  H2  UNL     1       6.828  -2.781 -38.709  1.00  0.00     0.164 HD
ENDBRANCH   2   6
ENDBRANCH   1   2
BRANCH   1  13
HETATM   13  O2  UNL     1      12.397  -4.034 -38.156  1.00  0.00    -0.384 OA
ATOM     14  H2  UNL     1      12.595  -3.158 -37.846  1.00  0.00     0.211 HD
ENDBRANCH   1  13
BRANCH   1  15
HETATM   15  S1  UNL     1      11.138  -5.320 -36.192  1.00  0.00    -0.134 SA
BRANCH  15  16
HETATM   16  C9  UNL     1       9.766  -6.469 -36.186  1.00  0.00     0.120 C 
BRANCH  16  17
HETATM   17  C10 UNL     1       9.734  -7.364 -34.978  1.00  0.00     0.292 C 
BRANCH  17  18
HETATM   18  N3  UNL     1       8.582  -8.222 -34.986  1.00  0.00    -0.065 N 
ATOM     19  H33 UNL     1       7.734  -7.709 -34.745  1.00  0.00     0.275 HD
ATOM     20  H32 UNL     1       8.334  -8.503 -35.935  1.00  0.00     0.275 HD
ATOM     21  H31 UNL     1       8.713  -9.032 -34.380  1.00  0.00     0.275 HD
ENDBRANCH  17  18
BRANCH  17  22
HETATM   22  C11 UNL     1      10.954  -8.139 -34.783  1.00  0.00     0.205 C 
HETATM   23  O3  UNL     1      11.303  -9.072 -35.553  1.00  0.00    -0.646 OA
HETATM   24  O4  UNL     1      11.774  -7.844 -33.706  1.00  0.00    -0.646 OA
ENDBRANCH  17  22
ENDBRANCH  16  17
ENDBRANCH  15  16
ENDBRANCH   1  15
TORSDOF 9
ENDMDL
