MODEL 1
REMARK VINA RESULT: -8.224644366      0.000      0.000
REMARK  11 active torsions:
REMARK  status: ('A' for Active; 'I' for Inactive)
REMARK    1  A    between atoms: O1_2  and  C2_3 
REMARK    2  A    between atoms: C2_3  and  C3_5 
REMARK    3  A    between atoms: C3_5  and  N1_6 
REMARK       I    between atoms: N1_6  and  C4_8 
REMARK    4  A    between atoms: C4_8  and  C5_10 
REMARK    5  A    between atoms: C5_10  and  C6_11 
REMARK       I    between atoms: C6_11  and  N2_13 
REMARK    6  A    between atoms: N2_13  and  C7_15 
REMARK    7  A    between atoms: C8_20  and  C9_21 
REMARK    8  A    between atoms: C9_21  and  C10_22 
REMARK    9  A    between atoms: C10_22  and  S1_23 
REMARK   10  A    between atoms: S1_23  and  C11_24 
REMARK   11  A    between atoms: C11_24  and  C12_25 
ROOT
HETATM    1  C7  UNL     1      12.322 -12.010  16.265  1.00  0.00     0.700 A 
HETATM    2  N3  UNL     1      11.893 -11.179  15.273  1.00  0.00    -0.130 N 
ATOM      3  H3  UNL     1      12.464 -10.487  14.789  1.00  0.00     0.205 HD
HETATM    4  N4  UNL     1      10.616 -11.421  15.044  1.00  0.00    -0.274 N 
ATOM      5  H4  UNL     1      10.044 -10.941  14.350  1.00  0.00     0.189 HD
HETATM    6  C8  UNL     1      10.181 -12.396  15.861  1.00  0.00     0.113 A 
HETATM    7  N5  UNL     1      11.248 -12.742  16.600  1.00  0.00    -0.178 N 
ATOM      8  H5  UNL     1      11.242 -13.464  17.320  1.00  0.00     0.185 HD
ENDROOT
BRANCH   1   9
HETATM    9  N2  UNL     1      13.527 -12.046  16.747  1.00  0.00    -0.158 N 
HETATM   10  C6  UNL     1      14.374 -13.157  16.485  1.00  0.00     0.244 C 
HETATM   11  O4  UNL     1      14.080 -14.290  17.003  1.00  0.00    -0.272 OA
ATOM     12  H2  UNL     1      13.869 -11.272  17.317  1.00  0.00     0.187 HD
BRANCH  10  13
HETATM   13  C5  UNL     1      15.569 -13.059  15.644  1.00  0.00     0.206 C 
BRANCH  13  14
HETATM   14  C4  UNL     1      15.337 -12.125  14.531  1.00  0.00     0.226 C 
HETATM   15  N1  UNL     1      16.156 -10.971  14.412  1.00  0.00    -0.351 N 
ATOM     16  H1  UNL     1      16.893 -10.804  15.097  1.00  0.00     0.163 HD
HETATM   17  O3  UNL     1      14.424 -12.362  13.711  1.00  0.00    -0.273 OA
BRANCH  15  18
HETATM   18  C3  UNL     1      15.956 -10.016  13.315  1.00  0.00     0.233 C 
BRANCH  18  19
HETATM   19  C2  UNL     1      16.960 -10.309  12.265  1.00  0.00     0.276 C 
HETATM   20  O2  UNL     1      17.434 -11.459  12.094  1.00  0.00    -0.263 OA
BRANCH  19  21
HETATM   21  O1  UNL     1      17.402  -9.288  11.435  1.00  0.00    -0.325 OA
HETATM   22  C1  UNL     1      16.544  -8.194  11.189  1.00  0.00     0.213 C 
ENDBRANCH  19  21
ENDBRANCH  18  19
ENDBRANCH  15  18
ENDBRANCH  13  14
ENDBRANCH  10  13
ENDBRANCH   1   9
BRANCH   6  23
HETATM   23  C9  UNL     1       8.801 -12.944  15.900  1.00  0.00     0.088 C 
BRANCH  23  24
HETATM   24  C10 UNL     1       8.811 -14.199  15.014  1.00  0.00     0.081 C 
BRANCH  24  25
HETATM   25  S1  UNL     1       7.911 -13.886  13.476  1.00  0.00    -0.164 SA
BRANCH  25  26
HETATM   26  C11 UNL     1       9.102 -13.525  12.158  1.00  0.00     0.114 C 
BRANCH  26  27
HETATM   27  C12 UNL     1       9.350 -14.763  11.393  1.00  0.00    -0.030 A 
HETATM   28  C13 UNL     1      10.210 -15.710  11.874  1.00  0.00     0.029 A 
HETATM   29  C14 UNL     1      10.463 -16.891  11.168  1.00  0.00     0.029 A 
HETATM   30 BR1  UNL     1      11.660 -18.207  11.839  1.00  0.00    -0.050 Br
HETATM   31  C15 UNL     1       9.834 -17.087   9.983  1.00  0.00     0.029 A 
HETATM   32 BR2  UNL     1      10.162 -18.701   8.991  1.00  0.00    -0.050 Br
HETATM   33  C16 UNL     1       8.956 -16.158   9.456  1.00  0.00     0.040 A 
HETATM   34  C17 UNL     1       8.727 -14.988  10.188  1.00  0.00     0.019 A 
HETATM   35 BR3  UNL     1       7.533 -13.643   9.548  1.00  0.00    -0.050 Br
ENDBRANCH  26  27
ENDBRANCH  25  26
ENDBRANCH  24  25
ENDBRANCH  23  24
ENDBRANCH   6  23
TORSDOF 11
ENDMDL
MODEL 2
REMARK VINA RESULT: -8.111354424      1.573      2.644
REMARK  11 active torsions:
REMARK  status: ('A' for Active; 'I' for Inactive)
REMARK    1  A    between atoms: O1_2  and  C2_3 
REMARK    2  A    between atoms: C2_3  and  C3_5 
REMARK    3  A    between atoms: C3_5  and  N1_6 
REMARK       I    between atoms: N1_6  and  C4_8 
REMARK    4  A    between atoms: C4_8  and  C5_10 
REMARK    5  A    between atoms: C5_10  and  C6_11 
REMARK       I    between atoms: C6_11  and  N2_13 
REMARK    6  A    between atoms: N2_13  and  C7_15 
REMARK    7  A    between atoms: C8_20  and  C9_21 
REMARK    8  A    between atoms: C9_21  and  C10_22 
REMARK    9  A    between atoms: C10_22  and  S1_23 
REMARK   10  A    between atoms: S1_23  and  C11_24 
REMARK   11  A    between atoms: C11_24  and  C12_25 
ROOT
HETATM    1  C7  UNL     1      12.985 -12.159  16.278  1.00  0.00     0.700 A 
HETATM    2  N3  UNL     1      12.631 -11.229  15.347  1.00  0.00    -0.130 N 
ATOM      3  H3  UNL     1      13.271 -10.607  14.854  1.00  0.00     0.205 HD
HETATM    4  N4  UNL     1      11.320 -11.268  15.190  1.00  0.00    -0.274 N 
ATOM      5  H4  UNL     1      10.789 -10.675  14.552  1.00  0.00     0.189 HD
HETATM    6  C8  UNL     1      10.791 -12.204  15.996  1.00  0.00     0.113 A 
HETATM    7  N5  UNL     1      11.833 -12.738  16.653  1.00  0.00    -0.178 N 
ATOM      8  H5  UNL     1      11.759 -13.484  17.344  1.00  0.00     0.185 HD
ENDROOT
BRANCH   1   9
HETATM    9  N2  UNL     1      14.196 -12.396  16.680  1.00  0.00    -0.158 N 
HETATM   10  C6  UNL     1      14.817 -13.644  16.399  1.00  0.00     0.244 C 
HETATM   11  O4  UNL     1      14.368 -14.697  16.970  1.00  0.00    -0.272 OA
ATOM     12  H2  UNL     1      14.706 -11.683  17.202  1.00  0.00     0.187 HD
BRANCH  10  13
HETATM   13  C5  UNL     1      15.949 -13.773  15.479  1.00  0.00     0.206 C 
BRANCH  13  14
HETATM   14  C4  UNL     1      15.777 -12.876  14.325  1.00  0.00     0.226 C 
HETATM   15  N1  UNL     1      16.764 -11.890  14.058  1.00  0.00    -0.351 N 
ATOM     16  H1  UNL     1      17.578 -11.815  14.668  1.00  0.00     0.163 HD
HETATM   17  O3  UNL     1      14.765 -12.997  13.600  1.00  0.00    -0.273 OA
BRANCH  15  18
HETATM   18  C3  UNL     1      16.626 -10.978  12.917  1.00  0.00     0.233 C 
BRANCH  18  19
HETATM   19  C2  UNL     1      15.798  -9.827  13.349  1.00  0.00     0.276 C 
HETATM   20  O2  UNL     1      15.326  -9.741  14.509  1.00  0.00    -0.263 OA
BRANCH  19  21
HETATM   21  O1  UNL     1      15.527  -8.802  12.453  1.00  0.00    -0.325 OA
HETATM   22  C1  UNL     1      16.455  -8.539  11.422  1.00  0.00     0.213 C 
ENDBRANCH  19  21
ENDBRANCH  18  19
ENDBRANCH  15  18
ENDBRANCH  13  14
ENDBRANCH  10  13
ENDBRANCH   1   9
BRANCH   6  23
HETATM   23  C9  UNL     1       9.348 -12.542  16.102  1.00  0.00     0.088 C 
BRANCH  23  24
HETATM   24  C10 UNL     1       9.256 -13.736  17.065  1.00  0.00     0.081 C 
BRANCH  24  25
HETATM   25  S1  UNL     1       8.841 -15.244  16.155  1.00  0.00    -0.164 SA
BRANCH  25  26
HETATM   26  C11 UNL     1      10.210 -15.655  15.040  1.00  0.00     0.114 C 
BRANCH  26  27
HETATM   27  C12 UNL     1       9.758 -15.465  13.648  1.00  0.00    -0.030 A 
HETATM   28  C13 UNL     1       8.558 -14.865  13.389  1.00  0.00     0.029 A 
HETATM   29  C14 UNL     1       8.106 -14.674  12.079  1.00  0.00     0.029 A 
HETATM   30 BR1  UNL     1       6.436 -13.840  11.720  1.00  0.00    -0.050 Br
HETATM   31  C15 UNL     1       8.887 -15.098  11.054  1.00  0.00     0.029 A 
HETATM   32 BR2  UNL     1       8.292 -14.847   9.242  1.00  0.00    -0.050 Br
HETATM   33  C16 UNL     1      10.109 -15.709  11.267  1.00  0.00     0.040 A 
HETATM   34  C17 UNL     1      10.528 -15.885  12.589  1.00  0.00     0.019 A 
HETATM   35 BR3  UNL     1      12.198 -16.718  12.990  1.00  0.00    -0.050 Br
ENDBRANCH  26  27
ENDBRANCH  25  26
ENDBRANCH  24  25
ENDBRANCH  23  24
ENDBRANCH   6  23
TORSDOF 11
ENDMDL
MODEL 3
REMARK VINA RESULT: -8.109143955      1.500      2.538
REMARK  11 active torsions:
REMARK  status: ('A' for Active; 'I' for Inactive)
REMARK    1  A    between atoms: O1_2  and  C2_3 
REMARK    2  A    between atoms: C2_3  and  C3_5 
REMARK    3  A    between atoms: C3_5  and  N1_6 
REMARK       I    between atoms: N1_6  and  C4_8 
REMARK    4  A    between atoms: C4_8  and  C5_10 
REMARK    5  A    between atoms: C5_10  and  C6_11 
REMARK       I    between atoms: C6_11  and  N2_13 
REMARK    6  A    between atoms: N2_13  and  C7_15 
REMARK    7  A    between atoms: C8_20  and  C9_21 
REMARK    8  A    between atoms: C9_21  and  C10_22 
REMARK    9  A    between atoms: C10_22  and  S1_23 
REMARK   10  A    between atoms: S1_23  and  C11_24 
REMARK   11  A    between atoms: C11_24  and  C12_25 
ROOT
HETATM    1  C7  UNL     1      12.567 -12.278  17.744  1.00  0.00     0.700 A 
HETATM    2  N3  UNL     1      12.175 -11.659  18.893  1.00  0.00    -0.130 N 
ATOM      3  H3  UNL     1      12.769 -11.090  19.495  1.00  0.00     0.205 HD
HETATM    4  N4  UNL     1      10.896 -11.919  19.097  1.00  0.00    -0.274 N 
ATOM      5  H4  UNL     1      10.347 -11.580  19.887  1.00  0.00     0.189 HD
HETATM    6  C8  UNL     1      10.425 -12.699  18.108  1.00  0.00     0.113 A 
HETATM    7  N5  UNL     1      11.470 -12.904  17.289  1.00  0.00    -0.178 N 
ATOM      8  H5  UNL     1      11.434 -13.461  16.436  1.00  0.00     0.185 HD
ENDROOT
BRANCH   1   9
HETATM    9  N2  UNL     1      13.762 -12.237  17.238  1.00  0.00    -0.158 N 
HETATM   10  C6  UNL     1      14.230 -13.295  16.413  1.00  0.00     0.244 C 
HETATM   11  O4  UNL     1      14.441 -14.440  16.942  1.00  0.00    -0.272 OA
ATOM     12  H2  UNL     1      14.368 -11.440  17.434  1.00  0.00     0.187 HD
BRANCH  10  13
HETATM   13  C5  UNL     1      14.481 -13.127  14.980  1.00  0.00     0.206 C 
BRANCH  13  14
HETATM   14  C4  UNL     1      14.864 -11.737  14.686  1.00  0.00     0.226 C 
HETATM   15  N1  UNL     1      16.203 -11.451  14.309  1.00  0.00    -0.351 N 
ATOM     16  H1  UNL     1      16.882 -12.210  14.247  1.00  0.00     0.163 HD
HETATM   17  O3  UNL     1      14.005 -10.833  14.773  1.00  0.00    -0.273 OA
BRANCH  15  18
HETATM   18  C3  UNL     1      16.622 -10.078  14.008  1.00  0.00     0.233 C 
BRANCH  18  19
HETATM   19  C2  UNL     1      16.633  -9.915  12.534  1.00  0.00     0.276 C 
HETATM   20  O2  UNL     1      17.268 -10.694  11.781  1.00  0.00    -0.263 OA
BRANCH  19  21
HETATM   21  O1  UNL     1      15.923  -8.875  11.953  1.00  0.00    -0.325 OA
HETATM   22  C1  UNL     1      16.614  -7.953  11.137  1.00  0.00     0.213 C 
ENDBRANCH  19  21
ENDBRANCH  18  19
ENDBRANCH  15  18
ENDBRANCH  13  14
ENDBRANCH  10  13
ENDBRANCH   1   9
BRANCH   6  23
HETATM   23  C9  UNL     1       9.033 -13.202  17.988  1.00  0.00     0.088 C 
BRANCH  23  24
HETATM   24  C10 UNL     1       8.494 -12.663  16.654  1.00  0.00     0.081 C 
BRANCH  24  25
HETATM   25  S1  UNL     1       8.727 -13.891  15.345  1.00  0.00    -0.164 SA
BRANCH  25  26
HETATM   26  C11 UNL     1       9.965 -13.276  14.173  1.00  0.00     0.114 C 
BRANCH  26  27
HETATM   27  C12 UNL     1       9.895 -14.088  12.942  1.00  0.00    -0.030 A 
HETATM   28  C13 UNL     1       9.005 -13.768  11.956  1.00  0.00     0.029 A 
HETATM   29  C14 UNL     1       8.917 -14.521  10.780  1.00  0.00     0.029 A 
HETATM   30 BR1  UNL     1       7.678 -14.075   9.410  1.00  0.00    -0.050 Br
HETATM   31  C15 UNL     1       9.740 -15.589  10.629  1.00  0.00     0.029 A 
HETATM   32 BR2  UNL     1       9.643 -16.642   9.024  1.00  0.00    -0.050 Br
HETATM   33  C16 UNL     1      10.657 -15.951  11.599  1.00  0.00     0.040 A 
HETATM   34  C17 UNL     1      10.716 -15.176  12.762  1.00  0.00     0.019 A 
HETATM   35 BR3  UNL     1      11.947 -15.591  14.161  1.00  0.00    -0.050 Br
ENDBRANCH  26  27
ENDBRANCH  25  26
ENDBRANCH  24  25
ENDBRANCH  23  24
ENDBRANCH   6  23
TORSDOF 11
ENDMDL
MODEL 4
REMARK VINA RESULT: -8.090208405      1.254      1.486
REMARK  11 active torsions:
REMARK  status: ('A' for Active; 'I' for Inactive)
REMARK    1  A    between atoms: O1_2  and  C2_3 
REMARK    2  A    between atoms: C2_3  and  C3_5 
REMARK    3  A    between atoms: C3_5  and  N1_6 
REMARK       I    between atoms: N1_6  and  C4_8 
REMARK    4  A    between atoms: C4_8  and  C5_10 
REMARK    5  A    between atoms: C5_10  and  C6_11 
REMARK       I    between atoms: C6_11  and  N2_13 
REMARK    6  A    between atoms: N2_13  and  C7_15 
REMARK    7  A    between atoms: C8_20  and  C9_21 
REMARK    8  A    between atoms: C9_21  and  C10_22 
REMARK    9  A    between atoms: C10_22  and  S1_23 
REMARK   10  A    between atoms: S1_23  and  C11_24 
REMARK   11  A    between atoms: C11_24  and  C12_25 
ROOT
HETATM    1  C7  UNL     1      12.206 -12.857  15.853  1.00  0.00     0.700 A 
HETATM    2  N3  UNL     1      12.076 -11.566  15.436  1.00  0.00    -0.130 N 
ATOM      3  H3  UNL     1      12.831 -10.885  15.365  1.00  0.00     0.205 HD
HETATM    4  N4  UNL     1      10.808 -11.346  15.137  1.00  0.00    -0.274 N 
ATOM      5  H4  UNL     1      10.431 -10.461  14.799  1.00  0.00     0.189 HD
HETATM    6  C8  UNL     1      10.089 -12.462  15.346  1.00  0.00     0.113 A 
HETATM    7  N5  UNL     1      10.969 -13.376  15.784  1.00  0.00    -0.178 N 
ATOM      8  H5  UNL     1      10.730 -14.336  16.032  1.00  0.00     0.185 HD
ENDROOT
BRANCH   1   9
HETATM    9  N2  UNL     1      13.316 -13.418  16.226  1.00  0.00    -0.158 N 
HETATM   10  C6  UNL     1      13.658 -14.716  15.758  1.00  0.00     0.244 C 
HETATM   11  O4  UNL     1      12.964 -15.715  16.151  1.00  0.00    -0.272 OA
ATOM     12  H2  UNL     1      13.945 -12.925  16.859  1.00  0.00     0.187 HD
BRANCH  10  13
HETATM   13  C5  UNL     1      14.776 -14.955  14.841  1.00  0.00     0.206 C 
BRANCH  13  14
HETATM   14  C4  UNL     1      15.672 -13.788  14.809  1.00  0.00     0.226 C 
HETATM   15  N1  UNL     1      15.778 -13.027  13.615  1.00  0.00    -0.351 N 
ATOM     16  H1  UNL     1      15.234 -13.297  12.796  1.00  0.00     0.163 HD
HETATM   17  O3  UNL     1      16.323 -13.488  15.833  1.00  0.00    -0.273 OA
BRANCH  15  18
HETATM   18  C3  UNL     1      16.661 -11.857  13.546  1.00  0.00     0.233 C 
BRANCH  18  19
HETATM   19  C2  UNL     1      15.816 -10.641  13.620  1.00  0.00     0.276 C 
HETATM   20  O2  UNL     1      14.892 -10.519  14.462  1.00  0.00    -0.263 OA
BRANCH  19  21
HETATM   21  O1  UNL     1      16.041  -9.595  12.737  1.00  0.00    -0.325 OA
HETATM   22  C1  UNL     1      17.025  -9.750  11.737  1.00  0.00     0.213 C 
ENDBRANCH  19  21
ENDBRANCH  18  19
ENDBRANCH  15  18
ENDBRANCH  13  14
ENDBRANCH  10  13
ENDBRANCH   1   9
BRANCH   6  23
HETATM   23  C9  UNL     1       8.627 -12.605  15.124  1.00  0.00     0.088 C 
BRANCH  23  24
HETATM   24  C10 UNL     1       8.416 -14.014  14.547  1.00  0.00     0.081 C 
BRANCH  24  25
HETATM   25  S1  UNL     1       7.560 -13.918  12.956  1.00  0.00    -0.164 SA
BRANCH  25  26
HETATM   26  C11 UNL     1       8.767 -13.536  11.659  1.00  0.00     0.114 C 
BRANCH  26  27
HETATM   27  C12 UNL     1       9.294 -14.803  11.115  1.00  0.00    -0.030 A 
HETATM   28  C13 UNL     1      10.215 -15.525  11.821  1.00  0.00     0.029 A 
HETATM   29  C14 UNL     1      10.731 -16.729  11.328  1.00  0.00     0.029 A 
HETATM   30 BR1  UNL     1      12.014 -17.731  12.309  1.00  0.00    -0.050 Br
HETATM   31  C15 UNL     1      10.297 -17.177  10.123  1.00  0.00     0.029 A 
HETATM   32 BR2  UNL     1      10.987 -18.828   9.421  1.00  0.00    -0.050 Br
HETATM   33  C16 UNL     1       9.366 -16.481   9.374  1.00  0.00     0.040 A 
HETATM   34  C17 UNL     1       8.873 -15.281   9.897  1.00  0.00     0.019 A 
HETATM   35 BR3  UNL     1       7.585 -14.246   8.942  1.00  0.00    -0.050 Br
ENDBRANCH  26  27
ENDBRANCH  25  26
ENDBRANCH  24  25
ENDBRANCH  23  24
ENDBRANCH   6  23
TORSDOF 11
ENDMDL
MODEL 5
REMARK VINA RESULT: -7.922334293      1.161      1.518
REMARK  11 active torsions:
REMARK  status: ('A' for Active; 'I' for Inactive)
REMARK    1  A    between atoms: O1_2  and  C2_3 
REMARK    2  A    between atoms: C2_3  and  C3_5 
REMARK    3  A    between atoms: C3_5  and  N1_6 
REMARK       I    between atoms: N1_6  and  C4_8 
REMARK    4  A    between atoms: C4_8  and  C5_10 
REMARK    5  A    between atoms: C5_10  and  C6_11 
REMARK       I    between atoms: C6_11  and  N2_13 
REMARK    6  A    between atoms: N2_13  and  C7_15 
REMARK    7  A    between atoms: C8_20  and  C9_21 
REMARK    8  A    between atoms: C9_21  and  C10_22 
REMARK    9  A    between atoms: C10_22  and  S1_23 
REMARK   10  A    between atoms: S1_23  and  C11_24 
REMARK   11  A    between atoms: C11_24  and  C12_25 
ROOT
HETATM    1  C7  UNL     1      12.369 -12.050  16.333  1.00  0.00     0.700 A 
HETATM    2  N3  UNL     1      11.930 -11.244  15.325  1.00  0.00    -0.130 N 
ATOM      3  H3  UNL     1      12.503 -10.588  14.795  1.00  0.00     0.205 HD
HETATM    4  N4  UNL     1      10.638 -11.455  15.149  1.00  0.00    -0.274 N 
ATOM      5  H4  UNL     1      10.056 -10.983  14.457  1.00  0.00     0.189 HD
HETATM    6  C8  UNL     1      10.204 -12.385  16.017  1.00  0.00     0.113 A 
HETATM    7  N5  UNL     1      11.285 -12.735  16.733  1.00  0.00    -0.178 N 
ATOM      8  H5  UNL     1      11.284 -13.429  17.480  1.00  0.00     0.185 HD
ENDROOT
BRANCH   1   9
HETATM    9  N2  UNL     1      13.588 -12.106  16.774  1.00  0.00    -0.158 N 
HETATM   10  C6  UNL     1      14.399 -13.242  16.507  1.00  0.00     0.244 C 
HETATM   11  O4  UNL     1      14.097 -14.356  17.059  1.00  0.00    -0.272 OA
ATOM     12  H2  UNL     1      13.967 -11.328  17.315  1.00  0.00     0.187 HD
BRANCH  10  13
HETATM   13  C5  UNL     1      15.567 -13.190  15.624  1.00  0.00     0.206 C 
BRANCH  13  14
HETATM   14  C4  UNL     1      15.340 -12.232  14.531  1.00  0.00     0.226 C 
HETATM   15  N1  UNL     1      16.155 -11.072  14.445  1.00  0.00    -0.351 N 
ATOM     16  H1  UNL     1      16.885 -10.917  15.140  1.00  0.00     0.163 HD
HETATM   17  O3  UNL     1      14.435 -12.455  13.698  1.00  0.00    -0.273 OA
BRANCH  15  18
HETATM   18  C3  UNL     1      15.959 -10.093  13.369  1.00  0.00     0.233 C 
BRANCH  18  19
HETATM   19  C2  UNL     1      16.915 -10.412  12.282  1.00  0.00     0.276 C 
HETATM   20  O2  UNL     1      17.422 -11.553  12.151  1.00  0.00    -0.263 OA
BRANCH  19  21
HETATM   21  O1  UNL     1      17.272  -9.427  11.371  1.00  0.00    -0.325 OA
HETATM   22  C1  UNL     1      16.487  -8.256  11.297  1.00  0.00     0.213 C 
ENDBRANCH  19  21
ENDBRANCH  18  19
ENDBRANCH  15  18
ENDBRANCH  13  14
ENDBRANCH  10  13
ENDBRANCH   1   9
BRANCH   6  23
HETATM   23  C9  UNL     1       8.811 -12.888  16.125  1.00  0.00     0.088 C 
BRANCH  23  24
HETATM   24  C10 UNL     1       8.337 -13.152  14.687  1.00  0.00     0.081 C 
BRANCH  24  25
HETATM   25  S1  UNL     1       8.993 -14.729  14.092  1.00  0.00    -0.164 SA
BRANCH  25  26
HETATM   26  C11 UNL     1       9.695 -14.490  12.438  1.00  0.00     0.114 C 
BRANCH  26  27
HETATM   27  C12 UNL     1      10.555 -15.646  12.118  1.00  0.00    -0.030 A 
HETATM   28  C13 UNL     1      11.489 -16.079  13.017  1.00  0.00     0.029 A 
HETATM   29  C14 UNL     1      12.318 -17.172  12.738  1.00  0.00     0.029 A 
HETATM   30 BR1  UNL     1      13.617 -17.773  13.989  1.00  0.00    -0.050 Br
HETATM   31  C15 UNL     1      12.180 -17.805  11.546  1.00  0.00     0.029 A 
HETATM   32 BR2  UNL     1      13.304 -19.309  11.136  1.00  0.00    -0.050 Br
HETATM   33  C16 UNL     1      11.249 -17.402  10.606  1.00  0.00     0.040 A 
HETATM   34  C17 UNL     1      10.438 -16.306  10.918  1.00  0.00     0.019 A 
HETATM   35 BR3  UNL     1       9.123 -15.672   9.689  1.00  0.00    -0.050 Br
ENDBRANCH  26  27
ENDBRANCH  25  26
ENDBRANCH  24  25
ENDBRANCH  23  24
ENDBRANCH   6  23
TORSDOF 11
ENDMDL
