MODEL 1
REMARK VINA RESULT: -7.388747310      0.000      0.000
REMARK  8 active torsions:
REMARK  status: ('A' for Active; 'I' for Inactive)
REMARK    1  A    between atoms: C2_2  and  C3_3 
REMARK    2  A    between atoms: C3_3  and  C4_4 
REMARK    3  A    between atoms: C6_9  and  C7_10 
REMARK    4  A    between atoms: C7_10  and  O2_12 
REMARK    5  A    between atoms: C11_17  and  C12_18 
REMARK    6  A    between atoms: C15_26  and  C16_27 
REMARK    7  A    between atoms: C16_27  and  C18_29 
REMARK    8  A    between atoms: C22_35  and  C23_36 
ROOT
HETATM    1  C4  UNL     1      12.974 -13.977  16.468  1.00  0.00     0.179 C 
HETATM    2  C5  UNL     1      14.210 -14.503  15.831  1.00  0.00     0.245 C 
HETATM    3  O1  UNL     1      14.408 -14.031  14.642  1.00  0.00    -0.271 OA
HETATM    4  N1  UNL     1      15.156 -15.395  16.303  1.00  0.00    -0.323 N 
ATOM      5  H1  UNL     1      16.088 -14.985  16.369  1.00  0.00     0.169 HD
HETATM    6  C6  UNL     1      15.122 -16.761  16.719  1.00  0.00     0.091 C 
HETATM    7  C9  UNL     1      15.822 -17.655  15.738  1.00  0.00     0.197 C 
HETATM    8  O3  UNL     1      16.932 -17.124  15.348  1.00  0.00    -0.286 OA
HETATM    9  C10 UNL     1      15.460 -18.920  15.215  1.00  0.00     0.064 C 
HETATM   10  C11 UNL     1      14.591 -19.315  14.313  1.00  0.00    -0.024 C 
HETATM   11  C13 UNL     1      13.697 -18.456  13.503  1.00  0.00     0.291 C 
HETATM   12  F1  UNL     1      14.179 -17.183  13.375  1.00  0.00    -0.234 F 
HETATM   13  C14 UNL     1      12.276 -18.558  13.887  1.00  0.00     0.256 C 
HETATM   14  O4  UNL     1      11.994 -19.205  14.933  1.00  0.00    -0.270 OA
HETATM   15  N2  UNL     1      11.181 -18.000  13.194  1.00  0.00    -0.345 N 
ATOM     16  H2  UNL     1      10.315 -18.538  13.192  1.00  0.00     0.163 HD
HETATM   17  C15 UNL     1      11.168 -16.738  12.486  1.00  0.00     0.180 C 
HETATM   18  C20 UNL     1       9.911 -15.966  12.693  1.00  0.00     0.243 C 
HETATM   19  O5  UNL     1       8.867 -16.344  12.045  1.00  0.00    -0.271 OA
HETATM   20  N3  UNL     1       9.744 -14.850  13.537  1.00  0.00    -0.341 N 
HETATM   21  C21 UNL     1       9.056 -13.656  13.035  1.00  0.00     0.153 C 
HETATM   22  C22 UNL     1      10.197 -14.771  14.933  1.00  0.00     0.182 C 
HETATM   23  C26 UNL     1      10.819 -13.445  15.208  1.00  0.00     0.243 C 
HETATM   24  O6  UNL     1      10.072 -12.398  15.142  1.00  0.00    -0.271 OA
HETATM   25  N4  UNL     1      12.155 -13.199  15.538  1.00  0.00    -0.341 N 
HETATM   26  C27 UNL     1      12.809 -12.047  14.893  1.00  0.00     0.153 C 
ENDROOT
BRANCH   6  27
HETATM   27  C7  UNL     1      13.900 -17.298  17.343  1.00  0.00     0.168 C 
HETATM   28  C8  UNL     1      13.699 -16.659  18.732  1.00  0.00     0.046 C 
BRANCH  27  29
HETATM   29  O2  UNL     1      14.053 -18.649  17.668  1.00  0.00    -0.390 OA
ATOM     30  H2  UNL     1      13.264 -19.139  17.471  1.00  0.00     0.210 HD
ENDBRANCH  27  29
ENDBRANCH   6  27
BRANCH   1  31
HETATM   31  C3  UNL     1      13.326 -12.994  17.587  1.00  0.00     0.035 C 
BRANCH  31  32
HETATM   32  C2  UNL     1      12.311 -12.949  18.663  1.00  0.00    -0.002 C 
HETATM   33  C1  UNL     1      11.854 -11.486  18.791  1.00  0.00     0.005 C 
ENDBRANCH  31  32
ENDBRANCH   1  31
BRANCH  10  34
HETATM   34  C12 UNL     1      14.467 -20.791  14.000  1.00  0.00     0.122 C 
HETATM   35 BR1  UNL     1      15.859 -21.799  14.878  1.00  0.00    -0.092 Br
ENDBRANCH  10  34
BRANCH  22  36
HETATM   36  C23 UNL     1       8.947 -14.893  15.821  1.00  0.00     0.009 C 
HETATM   37  C24 UNL     1       8.606 -16.360  16.034  1.00  0.00     0.012 C 
HETATM   38  C25 UNL     1       9.119 -14.284  17.164  1.00  0.00     0.012 C 
ENDBRANCH  22  36
BRANCH  17  39
HETATM   39  C16 UNL     1      11.423 -17.065  11.029  1.00  0.00     0.013 C 
HETATM   40  C17 UNL     1      11.139 -15.921  10.103  1.00  0.00     0.012 C 
BRANCH  39  41
HETATM   41  C18 UNL     1      10.895 -18.385  10.588  1.00  0.00     0.002 C 
HETATM   42  C19 UNL     1      10.120 -18.312   9.290  1.00  0.00     0.005 C 
ENDBRANCH  39  41
ENDBRANCH  17  39
TORSDOF 8
ENDMDL
MODEL 2
REMARK VINA RESULT: -7.152481196      2.640      6.220
REMARK  8 active torsions:
REMARK  status: ('A' for Active; 'I' for Inactive)
REMARK    1  A    between atoms: C2_2  and  C3_3 
REMARK    2  A    between atoms: C3_3  and  C4_4 
REMARK    3  A    between atoms: C6_9  and  C7_10 
REMARK    4  A    between atoms: C7_10  and  O2_12 
REMARK    5  A    between atoms: C11_17  and  C12_18 
REMARK    6  A    between atoms: C15_26  and  C16_27 
REMARK    7  A    between atoms: C16_27  and  C18_29 
REMARK    8  A    between atoms: C22_35  and  C23_36 
ROOT
HETATM    1  C4  UNL     1      11.251 -19.352  14.230  1.00  0.00     0.179 C 
HETATM    2  C5  UNL     1      11.621 -18.988  15.623  1.00  0.00     0.245 C 
HETATM    3  O1  UNL     1      10.595 -18.782  16.384  1.00  0.00    -0.271 OA
HETATM    4  N1  UNL     1      12.864 -18.840  16.214  1.00  0.00    -0.323 N 
ATOM      5  H1  UNL     1      13.013 -19.490  16.986  1.00  0.00     0.169 HD
HETATM    6  C6  UNL     1      13.983 -17.983  15.987  1.00  0.00     0.091 C 
HETATM    7  C9  UNL     1      14.141 -16.977  17.089  1.00  0.00     0.197 C 
HETATM    8  O3  UNL     1      13.974 -17.532  18.242  1.00  0.00    -0.286 OA
HETATM    9  C10 UNL     1      14.432 -15.592  17.045  1.00  0.00     0.064 C 
HETATM   10  C11 UNL     1      13.727 -14.525  16.744  1.00  0.00    -0.024 C 
HETATM   11  C13 UNL     1      12.295 -14.482  16.366  1.00  0.00     0.291 C 
HETATM   12  F1  UNL     1      11.603 -15.562  16.839  1.00  0.00    -0.234 F 
HETATM   13  C14 UNL     1      12.072 -14.161  14.944  1.00  0.00     0.256 C 
HETATM   14  O4  UNL     1      13.077 -14.126  14.182  1.00  0.00    -0.270 OA
HETATM   15  N2  UNL     1      10.830 -13.881  14.335  1.00  0.00    -0.345 N 
ATOM     16  H2  UNL     1      10.828 -13.187  13.589  1.00  0.00     0.163 HD
HETATM   17  C15 UNL     1       9.558 -14.487  14.668  1.00  0.00     0.180 C 
HETATM   18  C20 UNL     1       8.733 -14.806  13.469  1.00  0.00     0.243 C 
HETATM   19  O5  UNL     1       8.123 -13.834  12.890  1.00  0.00    -0.271 OA
HETATM   20  N3  UNL     1       8.549 -16.080  12.896  1.00  0.00    -0.341 N 
HETATM   21  C21 UNL     1       7.199 -16.530  12.541  1.00  0.00     0.153 C 
HETATM   22  C22 UNL     1       9.626 -17.033  12.593  1.00  0.00     0.182 C 
HETATM   23  C26 UNL     1       9.229 -18.416  12.986  1.00  0.00     0.243 C 
HETATM   24  O6  UNL     1       8.244 -18.965  12.363  1.00  0.00    -0.271 OA
HETATM   25  N4  UNL     1       9.817 -19.205  13.978  1.00  0.00    -0.341 N 
HETATM   26  C27 UNL     1       8.914 -19.968  14.858  1.00  0.00     0.153 C 
ENDROOT
BRANCH   6  27
HETATM   27  C7  UNL     1      14.270 -17.512  14.620  1.00  0.00     0.168 C 
HETATM   28  C8  UNL     1      14.639 -18.711  13.723  1.00  0.00     0.046 C 
BRANCH  27  29
HETATM   29  O2  UNL     1      15.444 -16.755  14.586  1.00  0.00    -0.390 OA
ATOM     30  H2  UNL     1      16.163 -17.257  14.219  1.00  0.00     0.210 HD
ENDBRANCH  27  29
ENDBRANCH   6  27
BRANCH   1  31
HETATM   31  C3  UNL     1      11.538 -20.833  13.971  1.00  0.00     0.035 C 
BRANCH  31  32
HETATM   32  C2  UNL     1      12.017 -21.102  12.597  1.00  0.00    -0.002 C 
HETATM   33  C1  UNL     1      10.881 -21.827  11.857  1.00  0.00     0.005 C 
ENDBRANCH  31  32
ENDBRANCH   1  31
BRANCH  10  34
HETATM   34  C12 UNL     1      14.384 -13.162  16.802  1.00  0.00     0.122 C 
HETATM   35 BR1  UNL     1      13.378 -11.963  17.931  1.00  0.00    -0.092 Br
ENDBRANCH  10  34
BRANCH  22  36
HETATM   36  C23 UNL     1       9.824 -17.022  11.067  1.00  0.00     0.009 C 
HETATM   37  C24 UNL     1      10.294 -15.647  10.619  1.00  0.00     0.012 C 
HETATM   38  C25 UNL     1      10.833 -18.004  10.598  1.00  0.00     0.012 C 
ENDBRANCH  22  36
BRANCH  17  39
HETATM   39  C16 UNL     1       8.867 -13.528  15.617  1.00  0.00     0.013 C 
HETATM   40  C17 UNL     1       9.391 -12.127  15.535  1.00  0.00     0.012 C 
BRANCH  39  41
HETATM   41  C18 UNL     1       8.673 -14.053  16.996  1.00  0.00     0.002 C 
HETATM   42  C19 UNL     1       9.161 -13.104  18.068  1.00  0.00     0.005 C 
ENDBRANCH  39  41
ENDBRANCH  17  39
TORSDOF 8
ENDMDL
MODEL 3
REMARK VINA RESULT: -6.974937810      2.243      3.762
REMARK  8 active torsions:
REMARK  status: ('A' for Active; 'I' for Inactive)
REMARK    1  A    between atoms: C2_2  and  C3_3 
REMARK    2  A    between atoms: C3_3  and  C4_4 
REMARK    3  A    between atoms: C6_9  and  C7_10 
REMARK    4  A    between atoms: C7_10  and  O2_12 
REMARK    5  A    between atoms: C11_17  and  C12_18 
REMARK    6  A    between atoms: C15_26  and  C16_27 
REMARK    7  A    between atoms: C16_27  and  C18_29 
REMARK    8  A    between atoms: C22_35  and  C23_36 
ROOT
HETATM    1  C4  UNL     1      10.245 -14.386  14.201  1.00  0.00     0.179 C 
HETATM    2  C5  UNL     1      11.619 -14.167  13.678  1.00  0.00     0.245 C 
HETATM    3  O1  UNL     1      11.752 -14.515  12.439  1.00  0.00    -0.271 OA
HETATM    4  N1  UNL     1      12.747 -13.660  14.298  1.00  0.00    -0.323 N 
ATOM      5  H1  UNL     1      13.094 -12.810  13.855  1.00  0.00     0.169 HD
HETATM    6  C6  UNL     1      13.537 -14.060  15.420  1.00  0.00     0.091 C 
HETATM    7  C9  UNL     1      14.882 -14.570  14.995  1.00  0.00     0.197 C 
HETATM    8  O3  UNL     1      15.391 -13.811  14.082  1.00  0.00    -0.286 OA
HETATM    9  C10 UNL     1      15.626 -15.693  15.428  1.00  0.00     0.064 C 
HETATM   10  C11 UNL     1      15.536 -16.984  15.206  1.00  0.00    -0.024 C 
HETATM   11  C13 UNL     1      14.555 -17.669  14.332  1.00  0.00     0.291 C 
HETATM   12  F1  UNL     1      14.060 -16.842  13.362  1.00  0.00    -0.234 F 
HETATM   13  C14 UNL     1      13.545 -18.445  15.076  1.00  0.00     0.256 C 
HETATM   14  O4  UNL     1      13.510 -18.317  16.331  1.00  0.00    -0.270 OA
HETATM   15  N2  UNL     1      12.599 -19.333  14.522  1.00  0.00    -0.345 N 
ATOM     16  H2  UNL     1      12.367 -20.161  15.072  1.00  0.00     0.163 HD
HETATM   17  C15 UNL     1      11.925 -19.183  13.250  1.00  0.00     0.180 C 
HETATM   18  C20 UNL     1      10.484 -19.556  13.306  1.00  0.00     0.243 C 
HETATM   19  O5  UNL     1      10.193 -20.808  13.316  1.00  0.00    -0.271 OA
HETATM   20  N3  UNL     1       9.390 -18.668  13.351  1.00  0.00    -0.341 N 
HETATM   21  C21 UNL     1       8.244 -18.881  12.461  1.00  0.00     0.153 C 
HETATM   22  C22 UNL     1       9.278 -17.511  14.249  1.00  0.00     0.182 C 
HETATM   23  C26 UNL     1       8.737 -16.329  13.519  1.00  0.00     0.243 C 
HETATM   24  O6  UNL     1       7.533 -16.395  13.065  1.00  0.00    -0.271 OA
HETATM   25  N4  UNL     1       9.402 -15.127  13.261  1.00  0.00    -0.341 N 
HETATM   26  C27 UNL     1       9.245 -14.542  11.918  1.00  0.00     0.153 C 
ENDROOT
BRANCH   6  27
HETATM   27  C7  UNL     1      12.893 -14.760  16.546  1.00  0.00     0.168 C 
HETATM   28  C8  UNL     1      12.085 -13.754  17.391  1.00  0.00     0.046 C 
BRANCH  27  29
HETATM   29  O2  UNL     1      13.843 -15.210  17.466  1.00  0.00    -0.390 OA
ATOM     30  H2  UNL     1      14.725 -15.092  17.132  1.00  0.00     0.210 HD
ENDBRANCH  27  29
ENDBRANCH   6  27
BRANCH   1  31
HETATM   31  C3  UNL     1       9.526 -13.049  14.390  1.00  0.00     0.035 C 
BRANCH  31  32
HETATM   32  C2  UNL     1       8.276 -13.165  15.175  1.00  0.00    -0.002 C 
HETATM   33  C1  UNL     1       8.603 -12.723  16.611  1.00  0.00     0.005 C 
ENDBRANCH  31  32
ENDBRANCH   1  31
BRANCH  10  34
HETATM   34  C12 UNL     1      16.530 -17.921  15.858  1.00  0.00     0.122 C 
HETATM   35 BR1  UNL     1      17.425 -17.055  17.333  1.00  0.00    -0.092 Br
ENDBRANCH  10  34
BRANCH  22  36
HETATM   36  C23 UNL     1       8.265 -17.885  15.344  1.00  0.00     0.009 C 
HETATM   37  C24 UNL     1       8.785 -19.070  16.144  1.00  0.00     0.012 C 
HETATM   38  C25 UNL     1       8.007 -16.786  16.308  1.00  0.00     0.012 C 
ENDBRANCH  22  36
BRANCH  17  39
HETATM   39  C16 UNL     1      12.708 -20.013  12.253  1.00  0.00     0.013 C 
HETATM   40  C17 UNL     1      13.624 -21.009  12.898  1.00  0.00     0.012 C 
BRANCH  39  41
HETATM   41  C18 UNL     1      13.303 -19.238  11.131  1.00  0.00     0.002 C 
HETATM   42  C19 UNL     1      13.646 -20.094   9.932  1.00  0.00     0.005 C 
ENDBRANCH  39  41
ENDBRANCH  17  39
TORSDOF 8
ENDMDL
MODEL 4
REMARK VINA RESULT: -6.961724246      2.909      7.417
REMARK  8 active torsions:
REMARK  status: ('A' for Active; 'I' for Inactive)
REMARK    1  A    between atoms: C2_2  and  C3_3 
REMARK    2  A    between atoms: C3_3  and  C4_4 
REMARK    3  A    between atoms: C6_9  and  C7_10 
REMARK    4  A    between atoms: C7_10  and  O2_12 
REMARK    5  A    between atoms: C11_17  and  C12_18 
REMARK    6  A    between atoms: C15_26  and  C16_27 
REMARK    7  A    between atoms: C16_27  and  C18_29 
REMARK    8  A    between atoms: C22_35  and  C23_36 
ROOT
HETATM    1  C4  UNL     1      11.608 -18.802  13.091  1.00  0.00     0.179 C 
HETATM    2  C5  UNL     1      11.383 -17.567  12.293  1.00  0.00     0.245 C 
HETATM    3  O1  UNL     1      12.466 -17.112  11.749  1.00  0.00    -0.271 OA
HETATM    4  N1  UNL     1      10.225 -16.852  12.050  1.00  0.00    -0.323 N 
ATOM      5  H1  UNL     1       9.987 -16.811  11.059  1.00  0.00     0.169 HD
HETATM    6  C6  UNL     1       9.287 -16.157  12.873  1.00  0.00     0.091 C 
HETATM    7  C9  UNL     1       9.385 -14.671  12.688  1.00  0.00     0.197 C 
HETATM    8  O3  UNL     1       9.493 -14.372  11.437  1.00  0.00    -0.286 OA
HETATM    9  C10 UNL     1       9.372 -13.617  13.633  1.00  0.00     0.064 C 
HETATM   10  C11 UNL     1      10.258 -13.145  14.480  1.00  0.00    -0.024 C 
HETATM   11  C13 UNL     1      11.650 -13.616  14.665  1.00  0.00     0.291 C 
HETATM   12  F1  UNL     1      12.137 -14.241  13.550  1.00  0.00    -0.234 F 
HETATM   13  C14 UNL     1      11.865 -14.332  15.936  1.00  0.00     0.256 C 
HETATM   14  O4  UNL     1      10.851 -14.614  16.632  1.00  0.00    -0.270 OA
HETATM   15  N2  UNL     1      13.107 -14.742  16.466  1.00  0.00    -0.345 N 
ATOM     16  H2  UNL     1      13.210 -14.706  17.480  1.00  0.00     0.163 HD
HETATM   17  C15 UNL     1      14.249 -15.209  15.708  1.00  0.00     0.180 C 
HETATM   18  C20 UNL     1      14.935 -16.368  16.344  1.00  0.00     0.243 C 
HETATM   19  O5  UNL     1      15.697 -16.129  17.352  1.00  0.00    -0.271 OA
HETATM   20  N3  UNL     1      14.836 -17.718  15.952  1.00  0.00    -0.341 N 
HETATM   21  C21 UNL     1      16.052 -18.526  15.812  1.00  0.00     0.153 C 
HETATM   22  C22 UNL     1      13.579 -18.426  15.674  1.00  0.00     0.182 C 
HETATM   23  C26 UNL     1      13.713 -19.273  14.454  1.00  0.00     0.243 C 
HETATM   24  O6  UNL     1      14.539 -20.261  14.489  1.00  0.00    -0.271 OA
HETATM   25  N4  UNL     1      13.029 -19.116  13.246  1.00  0.00    -0.341 N 
HETATM   26  C27 UNL     1      13.804 -19.280  12.004  1.00  0.00     0.153 C 
ENDROOT
BRANCH   6  27
HETATM   27  C7  UNL     1       9.034 -16.634  14.245  1.00  0.00     0.168 C 
HETATM   28  C8  UNL     1       8.173 -17.913  14.201  1.00  0.00     0.046 C 
BRANCH  27  29
HETATM   29  O2  UNL     1       8.202 -15.751  14.938  1.00  0.00    -0.390 OA
ATOM     30  H2  UNL     1       7.554 -16.222  15.448  1.00  0.00     0.210 HD
ENDBRANCH  27  29
ENDBRANCH   6  27
BRANCH   1  31
HETATM   31  C3  UNL     1      11.022 -20.018  12.369  1.00  0.00     0.035 C 
BRANCH  31  32
HETATM   32  C2  UNL     1      10.255 -20.913  13.265  1.00  0.00    -0.002 C 
HETATM   33  C1  UNL     1      11.157 -22.118  13.577  1.00  0.00     0.005 C 
ENDBRANCH  31  32
ENDBRANCH   1  31
BRANCH  10  34
HETATM   34  C12 UNL     1       9.888 -11.975  15.366  1.00  0.00     0.122 C 
HETATM   35 BR1  UNL     1       8.216 -12.302  16.273  1.00  0.00    -0.092 Br
ENDBRANCH  10  34
BRANCH  22  36
HETATM   36  C23 UNL     1      13.314 -19.362  16.865  1.00  0.00     0.009 C 
HETATM   37  C24 UNL     1      13.124 -18.544  18.132  1.00  0.00     0.012 C 
HETATM   38  C25 UNL     1      12.099 -20.199  16.697  1.00  0.00     0.012 C 
ENDBRANCH  22  36
BRANCH  17  39
HETATM   39  C16 UNL     1      15.160 -14.011  15.531  1.00  0.00     0.013 C 
HETATM   40  C17 UNL     1      14.844 -12.880  16.462  1.00  0.00     0.012 C 
BRANCH  39  41
HETATM   41  C18 UNL     1      15.402 -13.620  14.116  1.00  0.00     0.002 C 
HETATM   42  C19 UNL     1      16.109 -12.289  13.980  1.00  0.00     0.005 C 
ENDBRANCH  39  41
ENDBRANCH  17  39
TORSDOF 8
ENDMDL
MODEL 5
REMARK VINA RESULT: -6.959697229      2.749      5.069
REMARK  8 active torsions:
REMARK  status: ('A' for Active; 'I' for Inactive)
REMARK    1  A    between atoms: C2_2  and  C3_3 
REMARK    2  A    between atoms: C3_3  and  C4_4 
REMARK    3  A    between atoms: C6_9  and  C7_10 
REMARK    4  A    between atoms: C7_10  and  O2_12 
REMARK    5  A    between atoms: C11_17  and  C12_18 
REMARK    6  A    between atoms: C15_26  and  C16_27 
REMARK    7  A    between atoms: C16_27  and  C18_29 
REMARK    8  A    between atoms: C22_35  and  C23_36 
ROOT
HETATM    1  C4  UNL     1      13.576 -17.153  15.892  1.00  0.00     0.179 C 
HETATM    2  C5  UNL     1      12.964 -18.033  14.861  1.00  0.00     0.245 C 
HETATM    3  O1  UNL     1      13.096 -17.572  13.659  1.00  0.00    -0.271 OA
HETATM    4  N1  UNL     1      12.295 -19.237  14.988  1.00  0.00    -0.323 N 
ATOM      5  H1  UNL     1      12.760 -20.001  14.497  1.00  0.00     0.169 HD
HETATM    6  C6  UNL     1      11.100 -19.652  15.652  1.00  0.00     0.091 C 
HETATM    7  C9  UNL     1      10.009 -19.975  14.674  1.00  0.00     0.197 C 
HETATM    8  O3  UNL     1      10.472 -20.663  13.684  1.00  0.00    -0.286 OA
HETATM    9  C10 UNL     1       8.630 -19.656  14.686  1.00  0.00     0.064 C 
HETATM   10  C11 UNL     1       7.949 -18.560  14.438  1.00  0.00    -0.024 C 
HETATM   11  C13 UNL     1       8.496 -17.252  14.008  1.00  0.00     0.291 C 
HETATM   12  F1  UNL     1       9.707 -17.376  13.387  1.00  0.00    -0.234 F 
HETATM   13  C14 UNL     1       8.424 -16.213  15.052  1.00  0.00     0.256 C 
HETATM   14  O4  UNL     1       8.080 -16.567  16.214  1.00  0.00    -0.270 OA
HETATM   15  N2  UNL     1       8.702 -14.840  14.886  1.00  0.00    -0.345 N 
ATOM     16  H2  UNL     1       8.137 -14.186  15.427  1.00  0.00     0.163 HD
HETATM   17  C15 UNL     1       9.714 -14.270  14.022  1.00  0.00     0.180 C 
HETATM   18  C20 UNL     1      10.440 -13.129  14.647  1.00  0.00     0.243 C 
HETATM   19  O5  UNL     1       9.837 -11.994  14.695  1.00  0.00    -0.271 OA
HETATM   20  N3  UNL     1      11.736 -13.164  15.199  1.00  0.00    -0.341 N 
HETATM   21  C21 UNL     1      12.701 -12.114  14.855  1.00  0.00     0.153 C 
HETATM   22  C22 UNL     1      12.227 -14.183  16.136  1.00  0.00     0.182 C 
HETATM   23  C26 UNL     1      13.611 -14.604  15.774  1.00  0.00     0.243 C 
HETATM   24  O6  UNL     1      14.553 -13.730  15.859  1.00  0.00    -0.271 OA
HETATM   25  N4  UNL     1      14.015 -15.871  15.343  1.00  0.00    -0.341 N 
HETATM   26  C27 UNL     1      14.976 -15.930  14.227  1.00  0.00     0.153 C 
ENDROOT
BRANCH   6  27
HETATM   27  C7  UNL     1      10.690 -18.976  16.896  1.00  0.00     0.168 C 
HETATM   28  C8  UNL     1      11.684 -19.315  18.025  1.00  0.00     0.046 C 
BRANCH  27  29
HETATM   29  O2  UNL     1       9.499 -19.513  17.390  1.00  0.00    -0.390 OA
ATOM     30  H2  UNL     1       9.079 -18.913  17.996  1.00  0.00     0.210 HD
ENDBRANCH  27  29
ENDBRANCH   6  27
BRANCH   1  31
HETATM   31  C3  UNL     1      14.851 -17.790  16.450  1.00  0.00     0.035 C 
BRANCH  31  32
HETATM   32  C2  UNL     1      15.303 -17.175  17.718  1.00  0.00    -0.002 C 
HETATM   33  C1  UNL     1      16.786 -16.812  17.539  1.00  0.00     0.005 C 
ENDBRANCH  31  32
ENDBRANCH   1  31
BRANCH  10  34
HETATM   34  C12 UNL     1       6.440 -18.582  14.555  1.00  0.00     0.122 C 
HETATM   35 BR1  UNL     1       5.893 -19.396  16.218  1.00  0.00    -0.092 Br
ENDBRANCH  10  34
BRANCH  22  36
HETATM   36  C23 UNL     1      12.288 -13.528  17.526  1.00  0.00     0.009 C 
HETATM   37  C24 UNL     1      10.894 -13.095  17.954  1.00  0.00     0.012 C 
HETATM   38  C25 UNL     1      12.809 -14.434  18.581  1.00  0.00     0.012 C 
ENDBRANCH  22  36
BRANCH  17  39
HETATM   39  C16 UNL     1       9.007 -13.883  12.738  1.00  0.00     0.013 C 
HETATM   40  C17 UNL     1       7.517 -13.801  12.880  1.00  0.00     0.012 C 
BRANCH  39  41
HETATM   41  C18 UNL     1       9.490 -14.595  11.524  1.00  0.00     0.002 C 
HETATM   42  C19 UNL     1      10.947 -14.994  11.609  1.00  0.00     0.005 C 
ENDBRANCH  39  41
ENDBRANCH  17  39
TORSDOF 8
ENDMDL
