MODEL 1
REMARK VINA RESULT: -6.302113993      0.000      0.000
REMARK  10 active torsions:
REMARK  status: ('A' for Active; 'I' for Inactive)
REMARK    1  A    between atoms: C2_2  and  C3_3 
REMARK    2  A    between atoms: C3_3  and  C4_4 
REMARK    3  A    between atoms: C4_4  and  C5_5 
REMARK    4  A    between atoms: C6_6  and  C7_7 
REMARK    5  A    between atoms: C8_9  and  C9_10 
REMARK    6  A    between atoms: C9_10  and  C10_11 
REMARK    7  A    between atoms: C10_11  and  C11_12 
REMARK    8  A    between atoms: C13_14  and  O2_15 
REMARK    9  A    between atoms: C18_22  and  O4_23 
REMARK   10  A    between atoms: C23_29  and  C24_30 
ROOT
HETATM    1  C7  UNL     1      -5.842  12.811 -25.768  1.00  0.00     0.151 C 
HETATM    2  O1  UNL     1      -6.270  13.900 -25.085  1.00  0.00    -0.374 OA
HETATM    3  C8  UNL     1      -6.394  15.090 -25.726  1.00  0.00     0.151 C 
HETATM    4  C13 UNL     1      -7.764  15.672 -25.313  1.00  0.00     0.154 C 
HETATM    5  C14 UNL     1      -8.824  15.457 -26.318  1.00  0.00     0.113 C 
HETATM    6  C15 UNL     1      -9.903  14.533 -26.001  1.00  0.00     0.135 C 
HETATM    7  O3  UNL     1     -10.598  14.177 -26.972  1.00  0.00    -0.297 OA
HETATM    8  C16 UNL     1     -10.294  13.958 -24.713  1.00  0.00     0.080 C 
HETATM    9  C17 UNL     1     -11.657  14.579 -24.350  1.00  0.00     0.020 C 
HETATM   10  C18 UNL     1     -10.515  12.480 -24.862  1.00  0.00     0.132 C 
HETATM   11  C19 UNL     1      -9.756  11.676 -23.829  1.00  0.00     0.011 C 
HETATM   12  C20 UNL     1     -10.683  10.621 -23.231  1.00  0.00     0.012 C 
HETATM   13  C21 UNL     1      -8.555  10.959 -24.400  1.00  0.00     0.007 C 
HETATM   14  C22 UNL     1      -7.297  11.738 -24.006  1.00  0.00     0.010 C 
HETATM   15  C23 UNL     1      -6.169  11.539 -24.970  1.00  0.00     0.048 C 
ENDROOT
BRANCH  15  16
HETATM   16  C24 UNL     1      -4.905  11.048 -24.249  1.00  0.00     0.143 C 
HETATM   17  C25 UNL     1      -5.035  11.179 -22.780  1.00  0.00     0.066 C 
HETATM   18  C26 UNL     1      -5.347   9.957 -22.032  1.00  0.00    -0.075 C 
HETATM   19  C27 UNL     1      -5.767  10.053 -20.617  1.00  0.00     0.043 C 
HETATM   20  C28 UNL     1      -5.265   8.775 -22.587  1.00  0.00     0.084 C 
HETATM   21  C29 UNL     1      -4.857   8.645 -23.972  1.00  0.00     0.283 C 
HETATM   22  O5  UNL     1      -4.796   7.481 -24.449  1.00  0.00    -0.260 OA
HETATM   23  O6  UNL     1      -4.558   9.758 -24.699  1.00  0.00    -0.312 OA
ENDBRANCH  15  16
BRANCH   1  24
HETATM   24  C6  UNL     1      -6.434  12.607 -27.116  1.00  0.00     0.001 C 
HETATM   25  C5  UNL     1      -6.440  11.432 -27.730  1.00  0.00    -0.028 C 
BRANCH  25  26
HETATM   26  C4  UNL     1      -6.999  11.147 -29.048  1.00  0.00     0.027 C 
BRANCH  26  27
HETATM   27  C3  UNL     1      -8.437  11.630 -29.062  1.00  0.00     0.003 C 
BRANCH  27  28
HETATM   28  C2  UNL     1      -9.395  10.474 -29.269  1.00  0.00    -0.004 C 
HETATM   29  C1  UNL     1      -8.872   9.464 -30.232  1.00  0.00     0.005 C 
ENDBRANCH  27  28
ENDBRANCH  26  27
ENDBRANCH  25  26
ENDBRANCH   1  24
BRANCH   3  30
HETATM   30  C9  UNL     1      -5.368  16.129 -25.311  1.00  0.00     0.034 C 
BRANCH  30  31
HETATM   31  C10 UNL     1      -3.954  15.701 -25.510  1.00  0.00     0.002 C 
BRANCH  31  32
HETATM   32  C11 UNL     1      -3.161  15.755 -24.203  1.00  0.00    -0.004 C 
HETATM   33  C12 UNL     1      -3.232  14.410 -23.540  1.00  0.00     0.005 C 
ENDBRANCH  31  32
ENDBRANCH  30  31
ENDBRANCH   3  30
BRANCH   4  34
HETATM   34  O2  UNL     1      -7.641  17.076 -25.132  1.00  0.00    -0.393 OA
ATOM     35  H2  UNL     1      -7.091  17.247 -24.376  1.00  0.00     0.210 HD
ENDBRANCH   4  34
BRANCH  10  36
HETATM   36  O4  UNL     1     -10.097  12.045 -26.117  1.00  0.00    -0.394 OA
ATOM     37  H4  UNL     1      -9.149  12.018 -26.163  1.00  0.00     0.210 HD
ENDBRANCH  10  36
TORSDOF 10
ENDMDL
MODEL 2
REMARK VINA RESULT: -6.077541248      0.723      1.048
REMARK  10 active torsions:
REMARK  status: ('A' for Active; 'I' for Inactive)
REMARK    1  A    between atoms: C2_2  and  C3_3 
REMARK    2  A    between atoms: C3_3  and  C4_4 
REMARK    3  A    between atoms: C4_4  and  C5_5 
REMARK    4  A    between atoms: C6_6  and  C7_7 
REMARK    5  A    between atoms: C8_9  and  C9_10 
REMARK    6  A    between atoms: C9_10  and  C10_11 
REMARK    7  A    between atoms: C10_11  and  C11_12 
REMARK    8  A    between atoms: C13_14  and  O2_15 
REMARK    9  A    between atoms: C18_22  and  O4_23 
REMARK   10  A    between atoms: C23_29  and  C24_30 
ROOT
HETATM    1  C7  UNL     1      -5.847  12.812 -25.741  1.00  0.00     0.151 C 
HETATM    2  O1  UNL     1      -6.278  13.906 -25.068  1.00  0.00    -0.374 OA
HETATM    3  C8  UNL     1      -6.400  15.092 -25.718  1.00  0.00     0.151 C 
HETATM    4  C13 UNL     1      -7.772  15.676 -25.315  1.00  0.00     0.154 C 
HETATM    5  C14 UNL     1      -8.827  15.453 -26.324  1.00  0.00     0.113 C 
HETATM    6  C15 UNL     1      -9.907  14.531 -26.004  1.00  0.00     0.135 C 
HETATM    7  O3  UNL     1     -10.598  14.168 -26.976  1.00  0.00    -0.297 OA
HETATM    8  C16 UNL     1     -10.304  13.965 -24.714  1.00  0.00     0.080 C 
HETATM    9  C17 UNL     1     -11.668  14.588 -24.361  1.00  0.00     0.020 C 
HETATM   10  C18 UNL     1     -10.524  12.487 -24.853  1.00  0.00     0.132 C 
HETATM   11  C19 UNL     1      -9.768  11.690 -23.812  1.00  0.00     0.011 C 
HETATM   12  C20 UNL     1     -10.698  10.639 -23.209  1.00  0.00     0.012 C 
HETATM   13  C21 UNL     1      -8.565  10.969 -24.372  1.00  0.00     0.007 C 
HETATM   14  C22 UNL     1      -7.309  11.751 -23.978  1.00  0.00     0.010 C 
HETATM   15  C23 UNL     1      -6.177  11.545 -24.935  1.00  0.00     0.048 C 
ENDROOT
BRANCH  15  16
HETATM   16  C24 UNL     1      -4.915  11.061 -24.206  1.00  0.00     0.143 C 
HETATM   17  C25 UNL     1      -5.067  11.167 -22.736  1.00  0.00     0.066 C 
HETATM   18  C26 UNL     1      -5.372   9.931 -22.010  1.00  0.00    -0.075 C 
HETATM   19  C27 UNL     1      -5.811  10.000 -20.600  1.00  0.00     0.043 C 
HETATM   20  C28 UNL     1      -5.267   8.758 -22.582  1.00  0.00     0.084 C 
HETATM   21  C29 UNL     1      -4.840   8.655 -23.963  1.00  0.00     0.283 C 
HETATM   22  O5  UNL     1      -4.758   7.498 -24.457  1.00  0.00    -0.260 OA
HETATM   23  O6  UNL     1      -4.546   9.782 -24.670  1.00  0.00    -0.312 OA
ENDBRANCH  15  16
BRANCH   1  24
HETATM   24  C6  UNL     1      -6.433  12.598 -27.090  1.00  0.00     0.001 C 
HETATM   25  C5  UNL     1      -6.442  11.418 -27.693  1.00  0.00    -0.028 C 
BRANCH  25  26
HETATM   26  C4  UNL     1      -6.995  11.123 -29.011  1.00  0.00     0.027 C 
BRANCH  26  27
HETATM   27  C3  UNL     1      -8.427  11.621 -29.041  1.00  0.00     0.003 C 
BRANCH  27  28
HETATM   28  C2  UNL     1      -9.398  10.471 -29.222  1.00  0.00    -0.004 C 
HETATM   29  C1  UNL     1      -8.900   9.452 -30.190  1.00  0.00     0.005 C 
ENDBRANCH  27  28
ENDBRANCH  26  27
ENDBRANCH  25  26
ENDBRANCH   1  24
BRANCH   3  30
HETATM   30  C9  UNL     1      -5.376  16.134 -25.306  1.00  0.00     0.034 C 
BRANCH  30  31
HETATM   31  C10 UNL     1      -4.324  16.392 -26.331  1.00  0.00     0.002 C 
BRANCH  31  32
HETATM   32  C11 UNL     1      -4.743  15.877 -27.709  1.00  0.00    -0.004 C 
HETATM   33  C12 UNL     1      -3.687  14.938 -28.215  1.00  0.00     0.005 C 
ENDBRANCH  31  32
ENDBRANCH  30  31
ENDBRANCH   3  30
BRANCH   4  34
HETATM   34  O2  UNL     1      -7.649  17.081 -25.144  1.00  0.00    -0.393 OA
ATOM     35  H2  UNL     1      -7.265  17.260 -24.294  1.00  0.00     0.210 HD
ENDBRANCH   4  34
BRANCH  10  36
HETATM   36  O4  UNL     1     -10.099  12.042 -26.103  1.00  0.00    -0.394 OA
ATOM     37  H4  UNL     1      -9.553  12.696 -26.523  1.00  0.00     0.210 HD
ENDBRANCH  10  36
TORSDOF 10
ENDMDL
MODEL 3
REMARK VINA RESULT: -5.800190331      2.274      5.482
REMARK  10 active torsions:
REMARK  status: ('A' for Active; 'I' for Inactive)
REMARK    1  A    between atoms: C2_2  and  C3_3 
REMARK    2  A    between atoms: C3_3  and  C4_4 
REMARK    3  A    between atoms: C4_4  and  C5_5 
REMARK    4  A    between atoms: C6_6  and  C7_7 
REMARK    5  A    between atoms: C8_9  and  C9_10 
REMARK    6  A    between atoms: C9_10  and  C10_11 
REMARK    7  A    between atoms: C10_11  and  C11_12 
REMARK    8  A    between atoms: C13_14  and  O2_15 
REMARK    9  A    between atoms: C18_22  and  O4_23 
REMARK   10  A    between atoms: C23_29  and  C24_30 
ROOT
HETATM    1  C7  UNL     1      -9.673  11.015 -25.166  1.00  0.00     0.151 C 
HETATM    2  O1  UNL     1      -8.944  11.742 -24.286  1.00  0.00    -0.374 OA
HETATM    3  C8  UNL     1      -7.597  11.823 -24.433  1.00  0.00     0.151 C 
HETATM    4  C13 UNL     1      -7.225  13.313 -24.266  1.00  0.00     0.154 C 
HETATM    5  C14 UNL     1      -7.021  14.017 -25.549  1.00  0.00     0.113 C 
HETATM    6  C15 UNL     1      -7.993  15.024 -25.948  1.00  0.00     0.135 C 
HETATM    7  O3  UNL     1      -7.933  15.373 -27.142  1.00  0.00    -0.297 OA
HETATM    8  C16 UNL     1      -9.031  15.688 -25.158  1.00  0.00     0.080 C 
HETATM    9  C17 UNL     1      -8.603  17.161 -25.018  1.00  0.00     0.020 C 
HETATM   10  C18 UNL     1     -10.328  15.681 -25.915  1.00  0.00     0.132 C 
HETATM   11  C19 UNL     1     -11.477  15.150 -25.086  1.00  0.00     0.011 C 
HETATM   12  C20 UNL     1     -12.682  16.075 -25.243  1.00  0.00     0.012 C 
HETATM   13  C21 UNL     1     -11.911  13.761 -25.494  1.00  0.00     0.007 C 
HETATM   14  C22 UNL     1     -11.355  12.765 -24.473  1.00  0.00     0.010 C 
HETATM   15  C23 UNL     1     -11.157  11.397 -25.049  1.00  0.00     0.048 C 
ENDROOT
BRANCH  15  16
HETATM   16  C24 UNL     1     -11.896  10.335 -24.222  1.00  0.00     0.143 C 
HETATM   17  C25 UNL     1     -12.093  10.781 -22.823  1.00  0.00     0.066 C 
HETATM   18  C26 UNL     1     -13.424  11.282 -22.469  1.00  0.00    -0.075 C 
HETATM   19  C27 UNL     1     -13.620  11.998 -21.191  1.00  0.00     0.043 C 
HETATM   20  C28 UNL     1     -14.452  11.112 -23.261  1.00  0.00     0.084 C 
HETATM   21  C29 UNL     1     -14.295  10.414 -24.522  1.00  0.00     0.283 C 
HETATM   22  O5  UNL     1     -15.322  10.282 -25.241  1.00  0.00    -0.260 OA
HETATM   23  O6  UNL     1     -13.073   9.933 -24.885  1.00  0.00    -0.312 OA
ENDBRANCH  15  16
BRANCH   1  24
HETATM   24  C6  UNL     1      -9.325  11.179 -26.602  1.00  0.00     0.001 C 
HETATM   25  C5  UNL     1     -10.215  11.067 -27.577  1.00  0.00    -0.028 C 
BRANCH  25  26
HETATM   26  C4  UNL     1      -9.957  11.214 -29.006  1.00  0.00     0.027 C 
BRANCH  26  27
HETATM   27  C3  UNL     1      -9.478   9.875 -29.536  1.00  0.00     0.003 C 
BRANCH  27  28
HETATM   28  C2  UNL     1     -10.436   9.331 -30.578  1.00  0.00    -0.004 C 
HETATM   29  C1  UNL     1     -11.554   8.552 -29.973  1.00  0.00     0.005 C 
ENDBRANCH  27  28
ENDBRANCH  26  27
ENDBRANCH  25  26
ENDBRANCH   1  24
BRANCH   3  30
HETATM   30  C9  UNL     1      -6.809  11.084 -23.366  1.00  0.00     0.034 C 
BRANCH  30  31
HETATM   31  C10 UNL     1      -5.998   9.947 -23.887  1.00  0.00     0.002 C 
BRANCH  31  32
HETATM   32  C11 UNL     1      -5.086   9.366 -22.806  1.00  0.00    -0.004 C 
HETATM   33  C12 UNL     1      -5.488   9.936 -21.477  1.00  0.00     0.005 C 
ENDBRANCH  31  32
ENDBRANCH  30  31
ENDBRANCH   3  30
BRANCH   4  34
HETATM   34  O2  UNL     1      -6.008  13.412 -23.540  1.00  0.00    -0.393 OA
ATOM     35  H2  UNL     1      -5.504  14.145 -23.873  1.00  0.00     0.210 HD
ENDBRANCH   4  34
BRANCH  10  36
HETATM   36  O4  UNL     1     -10.230  14.880 -27.051  1.00  0.00    -0.394 OA
ATOM     37  H4  UNL     1     -10.701  14.065 -26.927  1.00  0.00     0.210 HD
ENDBRANCH  10  36
TORSDOF 10
ENDMDL
MODEL 4
REMARK VINA RESULT: -5.775467743      1.894      5.694
REMARK  10 active torsions:
REMARK  status: ('A' for Active; 'I' for Inactive)
REMARK    1  A    between atoms: C2_2  and  C3_3 
REMARK    2  A    between atoms: C3_3  and  C4_4 
REMARK    3  A    between atoms: C4_4  and  C5_5 
REMARK    4  A    between atoms: C6_6  and  C7_7 
REMARK    5  A    between atoms: C8_9  and  C9_10 
REMARK    6  A    between atoms: C9_10  and  C10_11 
REMARK    7  A    between atoms: C10_11  and  C11_12 
REMARK    8  A    between atoms: C13_14  and  O2_15 
REMARK    9  A    between atoms: C18_22  and  O4_23 
REMARK   10  A    between atoms: C23_29  and  C24_30 
ROOT
HETATM    1  C7  UNL     1      -8.521  11.592 -24.554  1.00  0.00     0.151 C 
HETATM    2  O1  UNL     1      -7.645  12.128 -23.669  1.00  0.00    -0.374 OA
HETATM    3  C8  UNL     1      -6.380  11.641 -23.595  1.00  0.00     0.151 C 
HETATM    4  C13 UNL     1      -5.438  12.865 -23.570  1.00  0.00     0.154 C 
HETATM    5  C14 UNL     1      -4.833  13.171 -24.882  1.00  0.00     0.113 C 
HETATM    6  C15 UNL     1      -5.251  14.382 -25.572  1.00  0.00     0.135 C 
HETATM    7  O3  UNL     1      -4.933  14.443 -26.774  1.00  0.00    -0.297 OA
HETATM    8  C16 UNL     1      -5.990  15.540 -25.065  1.00  0.00     0.080 C 
HETATM    9  C17 UNL     1      -5.002  16.722 -25.054  1.00  0.00     0.020 C 
HETATM   10  C18 UNL     1      -7.089  15.900 -26.023  1.00  0.00     0.132 C 
HETATM   11  C19 UNL     1      -8.431  16.035 -25.337  1.00  0.00     0.011 C 
HETATM   12  C20 UNL     1      -9.117  17.311 -25.818  1.00  0.00     0.012 C 
HETATM   13  C21 UNL     1      -9.362  14.880 -25.621  1.00  0.00     0.007 C 
HETATM   14  C22 UNL     1      -9.377  13.961 -24.396  1.00  0.00     0.010 C 
HETATM   15  C23 UNL     1      -9.712  12.544 -24.742  1.00  0.00     0.048 C 
ENDROOT
BRANCH  15  16
HETATM   16  C24 UNL     1     -10.905  12.040 -23.916  1.00  0.00     0.143 C 
HETATM   17  C25 UNL     1     -11.907  13.110 -23.704  1.00  0.00     0.066 C 
HETATM   18  C26 UNL     1     -13.102  13.075 -24.552  1.00  0.00    -0.075 C 
HETATM   19  C27 UNL     1     -14.001  14.248 -24.598  1.00  0.00     0.043 C 
HETATM   20  C28 UNL     1     -13.398  12.025 -25.276  1.00  0.00     0.084 C 
HETATM   21  C29 UNL     1     -12.538  10.858 -25.254  1.00  0.00     0.283 C 
HETATM   22  O5  UNL     1     -12.876   9.879 -25.972  1.00  0.00    -0.260 OA
HETATM   23  O6  UNL     1     -11.418  10.853 -24.478  1.00  0.00    -0.312 OA
ENDBRANCH  15  16
BRANCH   1  24
HETATM   24  C6  UNL     1      -7.995  11.326 -25.918  1.00  0.00     0.001 C 
HETATM   25  C5  UNL     1      -8.683  11.590 -27.020  1.00  0.00    -0.028 C 
BRANCH  25  26
HETATM   26  C4  UNL     1      -8.241  11.361 -28.392  1.00  0.00     0.027 C 
BRANCH  26  27
HETATM   27  C3  UNL     1      -9.446  10.932 -29.207  1.00  0.00     0.003 C 
BRANCH  27  28
HETATM   28  C2  UNL     1      -9.163   9.647 -29.958  1.00  0.00    -0.004 C 
HETATM   29  C1  UNL     1     -10.410   8.937 -30.363  1.00  0.00     0.005 C 
ENDBRANCH  27  28
ENDBRANCH  26  27
ENDBRANCH  25  26
ENDBRANCH   1  24
BRANCH   3  30
HETATM   30  C9  UNL     1      -6.083  10.871 -22.321  1.00  0.00     0.034 C 
BRANCH  30  31
HETATM   31  C10 UNL     1      -5.583   9.485 -22.549  1.00  0.00     0.002 C 
BRANCH  31  32
HETATM   32  C11 UNL     1      -5.394   9.194 -24.038  1.00  0.00    -0.004 C 
HETATM   33  C12 UNL     1      -5.243   7.712 -24.224  1.00  0.00     0.005 C 
ENDBRANCH  31  32
ENDBRANCH  30  31
ENDBRANCH   3  30
BRANCH   4  34
HETATM   34  O2  UNL     1      -4.370  12.614 -22.667  1.00  0.00    -0.393 OA
ATOM     35  H2  UNL     1      -3.557  12.552 -23.155  1.00  0.00     0.210 HD
ENDBRANCH   4  34
BRANCH  10  36
HETATM   36  O4  UNL     1      -7.223  14.924 -27.007  1.00  0.00    -0.394 OA
ATOM     37  H4  UNL     1      -6.393  14.774 -27.444  1.00  0.00     0.210 HD
ENDBRANCH  10  36
TORSDOF 10
ENDMDL
MODEL 5
REMARK VINA RESULT: -5.770747820      1.802      2.646
REMARK  10 active torsions:
REMARK  status: ('A' for Active; 'I' for Inactive)
REMARK    1  A    between atoms: C2_2  and  C3_3 
REMARK    2  A    between atoms: C3_3  and  C4_4 
REMARK    3  A    between atoms: C4_4  and  C5_5 
REMARK    4  A    between atoms: C6_6  and  C7_7 
REMARK    5  A    between atoms: C8_9  and  C9_10 
REMARK    6  A    between atoms: C9_10  and  C10_11 
REMARK    7  A    between atoms: C10_11  and  C11_12 
REMARK    8  A    between atoms: C13_14  and  O2_15 
REMARK    9  A    between atoms: C18_22  and  O4_23 
REMARK   10  A    between atoms: C23_29  and  C24_30 
ROOT
HETATM    1  C7  UNL     1      -7.584  12.202 -25.691  1.00  0.00     0.151 C 
HETATM    2  O1  UNL     1      -7.867  13.344 -25.020  1.00  0.00    -0.374 OA
HETATM    3  C8  UNL     1      -7.925  14.523 -25.692  1.00  0.00     0.151 C 
HETATM    4  C13 UNL     1      -9.207  15.240 -25.213  1.00  0.00     0.154 C 
HETATM    5  C14 UNL     1     -10.346  15.094 -26.142  1.00  0.00     0.113 C 
HETATM    6  C15 UNL     1     -11.480  14.283 -25.726  1.00  0.00     0.135 C 
HETATM    7  O3  UNL     1     -12.266  13.966 -26.639  1.00  0.00    -0.297 OA
HETATM    8  C16 UNL     1     -11.836  13.783 -24.398  1.00  0.00     0.080 C 
HETATM    9  C17 UNL     1     -13.110  14.536 -23.971  1.00  0.00     0.020 C 
HETATM   10  C18 UNL     1     -12.198  12.328 -24.482  1.00  0.00     0.132 C 
HETATM   11  C19 UNL     1     -11.448  11.487 -23.473  1.00  0.00     0.011 C 
HETATM   12  C20 UNL     1     -12.425  10.539 -22.782  1.00  0.00     0.012 C 
HETATM   13  C21 UNL     1     -10.357  10.646 -24.094  1.00  0.00     0.007 C 
HETATM   14  C22 UNL     1      -9.011  11.317 -23.806  1.00  0.00     0.010 C 
HETATM   15  C23 UNL     1      -7.971  10.988 -24.831  1.00  0.00     0.048 C 
ENDROOT
BRANCH  15  16
HETATM   16  C24 UNL     1      -6.711  10.404 -24.175  1.00  0.00     0.143 C 
HETATM   17  C25 UNL     1      -5.558  10.426 -25.105  1.00  0.00     0.066 C 
HETATM   18  C26 UNL     1      -4.573  11.494 -24.913  1.00  0.00    -0.075 C 
HETATM   19  C27 UNL     1      -3.560  11.751 -25.958  1.00  0.00     0.043 C 
HETATM   20  C28 UNL     1      -4.567  12.233 -23.833  1.00  0.00     0.084 C 
HETATM   21  C29 UNL     1      -5.547  12.008 -22.788  1.00  0.00     0.283 C 
HETATM   22  O5  UNL     1      -5.489  12.752 -21.773  1.00  0.00    -0.260 OA
HETATM   23  O6  UNL     1      -6.478  11.024 -22.931  1.00  0.00    -0.312 OA
ENDBRANCH  15  16
BRANCH   1  24
HETATM   24  C6  UNL     1      -8.279  12.015 -26.991  1.00  0.00     0.001 C 
HETATM   25  C5  UNL     1      -7.753  11.333 -27.999  1.00  0.00    -0.028 C 
BRANCH  25  26
HETATM   26  C4  UNL     1      -8.367  11.103 -29.303  1.00  0.00     0.027 C 
BRANCH  26  27
HETATM   27  C3  UNL     1      -9.772  10.581 -29.074  1.00  0.00     0.003 C 
BRANCH  27  28
HETATM   28  C2  UNL     1     -10.053   9.377 -29.951  1.00  0.00    -0.004 C 
HETATM   29  C1  UNL     1      -8.880   8.995 -30.788  1.00  0.00     0.005 C 
ENDBRANCH  27  28
ENDBRANCH  26  27
ENDBRANCH  25  26
ENDBRANCH   1  24
BRANCH   3  30
HETATM   30  C9  UNL     1      -6.784  15.474 -25.378  1.00  0.00     0.034 C 
BRANCH  30  31
HETATM   31  C10 UNL     1      -5.638  15.384 -26.327  1.00  0.00     0.002 C 
BRANCH  31  32
HETATM   32  C11 UNL     1      -6.107  15.059 -27.745  1.00  0.00    -0.004 C 
HETATM   33  C12 UNL     1      -5.190  14.024 -28.330  1.00  0.00     0.005 C 
ENDBRANCH  31  32
ENDBRANCH  30  31
ENDBRANCH   3  30
BRANCH   4  34
HETATM   34  O2  UNL     1      -8.946  16.630 -25.088  1.00  0.00    -0.393 OA
ATOM     35  H2  UNL     1      -9.036  17.043 -25.940  1.00  0.00     0.210 HD
ENDBRANCH   4  34
BRANCH  10  36
HETATM   36  O4  UNL     1     -11.904  11.821 -25.746  1.00  0.00    -0.394 OA
ATOM     37  H4  UNL     1     -11.235  11.150 -25.690  1.00  0.00     0.210 HD
ENDBRANCH  10  36
TORSDOF 10
ENDMDL
