MODEL 1
REMARK VINA RESULT: -9.524266842      0.000      0.000
REMARK  7 active torsions:
REMARK  status: ('A' for Active; 'I' for Inactive)
REMARK    1  A    between atoms: C2_2  and  C3_3 
REMARK    2  A    between atoms: C3_3  and  N1_4 
REMARK    3  A    between atoms: N1_4  and  C4_6 
REMARK    4  A    between atoms: N3_10  and  S1_12 
REMARK    5  A    between atoms: S1_12  and  C6_15 
REMARK    6  A    between atoms: C9_19  and  S2_20 
REMARK    7  A    between atoms: C11_25  and  C12_26 
ROOT
HETATM    1  S1  UNL     1      37.896 -26.862  11.435  1.00  0.00     0.279 S 
HETATM    2  O1  UNL     1      37.750 -27.089   9.965  1.00  0.00    -0.200 OA
HETATM    3  O2  UNL     1      39.419 -26.585  11.602  1.00  0.00    -0.200 OA
ENDROOT
BRANCH   1   4
HETATM    4  N3  UNL     1      37.586 -28.211  12.394  1.00  0.00    -0.112 N 
HETATM    5  C5  UNL     1      38.267 -28.470  13.470  1.00  0.00     0.693 A 
HETATM    6  N2  UNL     1      39.257 -27.715  13.913  1.00  0.00    -0.175 N 
HETATM    7  N4  UNL     1      37.945 -29.592  14.190  1.00  0.00    -0.200 N 
HETATM    8  C4  UNL     1      39.999 -27.967  15.055  1.00  0.00     0.135 A 
ATOM      9  H2  UNL     1      39.493 -26.884  13.372  1.00  0.00     0.186 HD
HETATM   10  C15 UNL     1      39.670 -29.093  15.770  1.00  0.00     0.071 A 
HETATM   11  C14 UNL     1      38.628 -29.879  15.294  1.00  0.00     0.129 A 
HETATM   12 BR1  UNL     1      40.536 -29.643  17.356  1.00  0.00    -0.046 Br
ATOM     13  H4  UNL     1      37.187 -30.201  13.881  1.00  0.00     0.183 HD
ATOM     14  H3  UNL     1      36.836 -28.847  12.120  1.00  0.00     0.197 HD
BRANCH   8  15
HETATM   15  N1  UNL     1      40.903 -27.184  15.366  1.00  0.00    -0.375 N 
ATOM     16  H1  UNL     1      41.648 -27.731  15.798  1.00  0.00     0.161 HD
BRANCH  15  17
HETATM   17  C3  UNL     1      41.303 -25.876  15.363  1.00  0.00     0.121 C 
BRANCH  17  18
HETATM   18  C2  UNL     1      40.926 -25.224  16.699  1.00  0.00     0.015 C 
HETATM   19  C1  UNL     1      39.812 -24.194  16.454  1.00  0.00     0.006 C 
ENDBRANCH  17  18
ENDBRANCH  15  17
ENDBRANCH   8  15
ENDBRANCH   1   4
BRANCH   1  20
HETATM   20  C6  UNL     1      37.087 -25.428  11.919  1.00  0.00     0.115 A 
HETATM   21  C7  UNL     1      37.834 -24.417  12.517  1.00  0.00     0.059 A 
HETATM   22 CL1  UNL     1      39.553 -24.663  12.764  1.00  0.00    -0.083 Cl
HETATM   23  C8  UNL     1      37.275 -23.217  12.932  1.00  0.00     0.051 A 
HETATM   24  C9  UNL     1      35.944 -23.015  12.750  1.00  0.00     0.093 A 
HETATM   25  C10 UNL     1      35.189 -23.986  12.171  1.00  0.00     0.042 A 
HETATM   26  C11 UNL     1      35.766 -25.213  11.750  1.00  0.00     0.036 A 
BRANCH  24  27
HETATM   27  S2  UNL     1      35.132 -21.528  13.237  1.00  0.00     0.333 S 
HETATM   28  O3  UNL     1      35.475 -20.471  12.227  1.00  0.00    -0.189 OA
HETATM   29  O4  UNL     1      35.651 -21.159  14.595  1.00  0.00    -0.189 OA
HETATM   30  F1  UNL     1      33.476 -21.771  13.290  1.00  0.00    -0.100 F 
ENDBRANCH  24  27
BRANCH  26  31
HETATM   31  C12 UNL     1      34.885 -26.221  11.223  1.00  0.00     0.157 C 
HETATM   32  C13 UNL     1      34.289 -26.028   9.878  1.00  0.00     0.097 C 
HETATM   33  O5  UNL     1      34.592 -27.248  11.828  1.00  0.00    -0.293 OA
ENDBRANCH  26  31
ENDBRANCH   1  20
TORSDOF 7
ENDMDL
MODEL 2
REMARK VINA RESULT: -9.345142984      5.059      6.856
REMARK  7 active torsions:
REMARK  status: ('A' for Active; 'I' for Inactive)
REMARK    1  A    between atoms: C2_2  and  C3_3 
REMARK    2  A    between atoms: C3_3  and  N1_4 
REMARK    3  A    between atoms: N1_4  and  C4_6 
REMARK    4  A    between atoms: N3_10  and  S1_12 
REMARK    5  A    between atoms: S1_12  and  C6_15 
REMARK    6  A    between atoms: C9_19  and  S2_20 
REMARK    7  A    between atoms: C11_25  and  C12_26 
ROOT
HETATM    1  S1  UNL     1      37.719 -23.549  15.689  1.00  0.00     0.279 S 
HETATM    2  O1  UNL     1      38.064 -24.396  16.871  1.00  0.00    -0.200 OA
HETATM    3  O2  UNL     1      38.964 -22.625  15.539  1.00  0.00    -0.200 OA
ENDROOT
BRANCH   1   4
HETATM    4  N3  UNL     1      36.419 -22.505  15.921  1.00  0.00    -0.112 N 
HETATM    5  C5  UNL     1      36.053 -22.103  17.102  1.00  0.00     0.693 A 
HETATM    6  N2  UNL     1      36.652 -22.468  18.222  1.00  0.00    -0.175 N 
HETATM    7  N4  UNL     1      34.983 -21.251  17.196  1.00  0.00    -0.200 N 
HETATM    8  C4  UNL     1      36.285 -22.056  19.491  1.00  0.00     0.135 A 
ATOM      9  H2  UNL     1      37.447 -23.102  18.145  1.00  0.00     0.186 HD
HETATM   10  C15 UNL     1      35.210 -21.203  19.577  1.00  0.00     0.071 A 
HETATM   11  C14 UNL     1      34.588 -20.827  18.393  1.00  0.00     0.129 A 
HETATM   12 BR1  UNL     1      34.524 -20.508  21.194  1.00  0.00    -0.046 Br
ATOM     13  H4  UNL     1      34.493 -20.946  16.356  1.00  0.00     0.183 HD
ATOM     14  H3  UNL     1      35.901 -22.176  15.106  1.00  0.00     0.197 HD
BRANCH   8  15
HETATM   15  N1  UNL     1      36.926 -22.468  20.464  1.00  0.00    -0.375 N 
ATOM     16  H1  UNL     1      36.307 -23.073  21.006  1.00  0.00     0.161 HD
BRANCH  15  17
HETATM   17  C3  UNL     1      38.134 -22.437  21.104  1.00  0.00     0.121 C 
BRANCH  17  18
HETATM   18  C2  UNL     1      38.204 -21.196  22.002  1.00  0.00     0.015 C 
HETATM   19  C1  UNL     1      38.954 -21.558  23.293  1.00  0.00     0.006 C 
ENDBRANCH  17  18
ENDBRANCH  15  17
ENDBRANCH   8  15
ENDBRANCH   1   4
BRANCH   1  20
HETATM   20  C6  UNL     1      37.642 -24.493  14.257  1.00  0.00     0.115 A 
HETATM   21  C7  UNL     1      38.113 -25.802  14.303  1.00  0.00     0.059 A 
HETATM   22 CL1  UNL     1      38.778 -26.415  15.805  1.00  0.00    -0.083 Cl
HETATM   23  C8  UNL     1      38.083 -26.648  13.204  1.00  0.00     0.051 A 
HETATM   24  C9  UNL     1      37.573 -26.185  12.032  1.00  0.00     0.093 A 
HETATM   25  C10 UNL     1      37.109 -24.910  11.958  1.00  0.00     0.042 A 
HETATM   26  C11 UNL     1      37.144 -24.048  13.086  1.00  0.00     0.036 A 
BRANCH  24  27
HETATM   27  S2  UNL     1      37.484 -27.175  10.576  1.00  0.00     0.333 S 
HETATM   28  O3  UNL     1      36.886 -28.497  10.961  1.00  0.00    -0.189 OA
HETATM   29  O4  UNL     1      38.884 -27.349  10.067  1.00  0.00    -0.189 OA
HETATM   30  F1  UNL     1      36.534 -26.415   9.426  1.00  0.00    -0.100 F 
ENDBRANCH  24  27
BRANCH  26  31
HETATM   31  C12 UNL     1      36.710 -22.688  12.903  1.00  0.00     0.157 C 
HETATM   32  C13 UNL     1      37.662 -21.694  12.349  1.00  0.00     0.097 C 
HETATM   33  O5  UNL     1      35.581 -22.294  13.182  1.00  0.00    -0.293 OA
ENDBRANCH  26  31
ENDBRANCH   1  20
TORSDOF 7
ENDMDL
MODEL 3
REMARK VINA RESULT: -9.232838614      4.808      6.978
REMARK  7 active torsions:
REMARK  status: ('A' for Active; 'I' for Inactive)
REMARK    1  A    between atoms: C2_2  and  C3_3 
REMARK    2  A    between atoms: C3_3  and  N1_4 
REMARK    3  A    between atoms: N1_4  and  C4_6 
REMARK    4  A    between atoms: N3_10  and  S1_12 
REMARK    5  A    between atoms: S1_12  and  C6_15 
REMARK    6  A    between atoms: C9_19  and  S2_20 
REMARK    7  A    between atoms: C11_25  and  C12_26 
ROOT
HETATM    1  S1  UNL     1      36.633 -23.422  15.257  1.00  0.00     0.279 S 
HETATM    2  O1  UNL     1      36.219 -22.068  14.777  1.00  0.00    -0.200 OA
HETATM    3  O2  UNL     1      35.366 -23.936  16.004  1.00  0.00    -0.200 OA
ENDROOT
BRANCH   1   4
HETATM    4  N3  UNL     1      37.856 -23.419  16.413  1.00  0.00    -0.112 N 
HETATM    5  C5  UNL     1      37.669 -22.980  17.623  1.00  0.00     0.693 A 
HETATM    6  N2  UNL     1      36.518 -22.499  18.061  1.00  0.00    -0.175 N 
HETATM    7  N4  UNL     1      38.723 -23.017  18.499  1.00  0.00    -0.200 N 
HETATM    8  C4  UNL     1      36.290 -22.026  19.342  1.00  0.00     0.135 A 
ATOM      9  H2  UNL     1      35.739 -22.474  17.404  1.00  0.00     0.186 HD
HETATM   10  C15 UNL     1      37.352 -22.065  20.213  1.00  0.00     0.071 A 
HETATM   11  C14 UNL     1      38.556 -22.573  19.741  1.00  0.00     0.129 A 
HETATM   12 BR1  UNL     1      37.285 -21.478  22.006  1.00  0.00    -0.046 Br
ATOM     13  H4  UNL     1      39.627 -23.381  18.200  1.00  0.00     0.183 HD
ATOM     14  H3  UNL     1      38.778 -23.774  16.156  1.00  0.00     0.197 HD
BRANCH   8  15
HETATM   15  N1  UNL     1      35.167 -21.600  19.632  1.00  0.00    -0.375 N 
ATOM     16  H1  UNL     1      34.784 -22.209  20.355  1.00  0.00     0.161 HD
BRANCH  15  17
HETATM   17  C3  UNL     1      34.233 -20.636  19.369  1.00  0.00     0.121 C 
BRANCH  17  18
HETATM   18  C2  UNL     1      34.857 -19.251  19.577  1.00  0.00     0.015 C 
HETATM   19  C1  UNL     1      34.168 -18.249  18.637  1.00  0.00     0.006 C 
ENDBRANCH  17  18
ENDBRANCH  15  17
ENDBRANCH   8  15
ENDBRANCH   1   4
BRANCH   1  20
HETATM   20  C6  UNL     1      36.885 -24.491  13.939  1.00  0.00     0.115 A 
HETATM   21  C7  UNL     1      35.922 -24.542  12.935  1.00  0.00     0.059 A 
HETATM   22 CL1  UNL     1      34.494 -23.533  13.074  1.00  0.00    -0.083 Cl
HETATM   23  C8  UNL     1      36.040 -25.364  11.824  1.00  0.00     0.051 A 
HETATM   24  C9  UNL     1      37.139 -26.155  11.705  1.00  0.00     0.093 A 
HETATM   25  C10 UNL     1      38.095 -26.127  12.672  1.00  0.00     0.042 A 
HETATM   26  C11 UNL     1      37.967 -25.285  13.808  1.00  0.00     0.036 A 
BRANCH  24  27
HETATM   27  S2  UNL     1      37.391 -27.234  10.334  1.00  0.00     0.333 S 
HETATM   28  O3  UNL     1      36.779 -28.560  10.680  1.00  0.00    -0.189 OA
HETATM   29  O4  UNL     1      38.872 -27.364  10.135  1.00  0.00    -0.189 OA
HETATM   30  F1  UNL     1      36.671 -26.595   8.964  1.00  0.00    -0.100 F 
ENDBRANCH  24  27
BRANCH  26  31
HETATM   31  C12 UNL     1      38.981 -25.376  14.825  1.00  0.00     0.157 C 
HETATM   32  C13 UNL     1      38.913 -26.478  15.817  1.00  0.00     0.097 C 
HETATM   33  O5  UNL     1      39.914 -24.584  14.924  1.00  0.00    -0.293 OA
ENDBRANCH  26  31
ENDBRANCH   1  20
TORSDOF 7
ENDMDL
MODEL 4
REMARK VINA RESULT: -9.065649409      3.852      5.718
REMARK  7 active torsions:
REMARK  status: ('A' for Active; 'I' for Inactive)
REMARK    1  A    between atoms: C2_2  and  C3_3 
REMARK    2  A    between atoms: C3_3  and  N1_4 
REMARK    3  A    between atoms: N1_4  and  C4_6 
REMARK    4  A    between atoms: N3_10  and  S1_12 
REMARK    5  A    between atoms: S1_12  and  C6_15 
REMARK    6  A    between atoms: C9_19  and  S2_20 
REMARK    7  A    between atoms: C11_25  and  C12_26 
ROOT
HETATM    1  S1  UNL     1      36.545 -22.205  13.145  1.00  0.00     0.279 S 
HETATM    2  O1  UNL     1      37.954 -21.708  13.142  1.00  0.00    -0.200 OA
HETATM    3  O2  UNL     1      35.923 -21.519  11.892  1.00  0.00    -0.200 OA
ENDROOT
BRANCH   1   4
HETATM    4  N3  UNL     1      35.611 -21.679  14.444  1.00  0.00    -0.112 N 
HETATM    5  C5  UNL     1      35.961 -21.884  15.680  1.00  0.00     0.693 A 
HETATM    6  N2  UNL     1      37.065 -22.518  16.036  1.00  0.00    -0.175 N 
HETATM    7  N4  UNL     1      35.139 -21.420  16.673  1.00  0.00    -0.200 N 
HETATM    8  C4  UNL     1      37.462 -22.750  17.341  1.00  0.00     0.135 A 
ATOM      9  H2  UNL     1      37.670 -22.862  15.291  1.00  0.00     0.186 HD
HETATM   10  C15 UNL     1      36.632 -22.282  18.332  1.00  0.00     0.071 A 
HETATM   11  C14 UNL     1      35.474 -21.618  17.945  1.00  0.00     0.129 A 
HETATM   12 BR1  UNL     1      36.959 -22.478  20.181  1.00  0.00    -0.046 Br
ATOM     13  H4  UNL     1      34.278 -20.926  16.440  1.00  0.00     0.183 HD
ATOM     14  H3  UNL     1      34.741 -21.181  14.255  1.00  0.00     0.197 HD
BRANCH   8  15
HETATM   15  N1  UNL     1      38.519 -23.356  17.547  1.00  0.00    -0.375 N 
ATOM     16  H1  UNL     1      38.512 -23.664  18.520  1.00  0.00     0.161 HD
BRANCH  15  17
HETATM   17  C3  UNL     1      39.694 -23.778  16.991  1.00  0.00     0.121 C 
BRANCH  17  18
HETATM   18  C2  UNL     1      39.479 -25.137  16.314  1.00  0.00     0.015 C 
HETATM   19  C1  UNL     1      40.846 -25.718  15.919  1.00  0.00     0.006 C 
ENDBRANCH  17  18
ENDBRANCH  15  17
ENDBRANCH   8  15
ENDBRANCH   1   4
BRANCH   1  20
HETATM   20  C6  UNL     1      36.487 -23.895  12.850  1.00  0.00     0.115 A 
HETATM   21  C7  UNL     1      37.688 -24.596  12.784  1.00  0.00     0.059 A 
HETATM   22 CL1  UNL     1      39.195 -23.721  12.982  1.00  0.00    -0.083 Cl
HETATM   23  C8  UNL     1      37.747 -25.964  12.562  1.00  0.00     0.051 A 
HETATM   24  C9  UNL     1      36.587 -26.654  12.404  1.00  0.00     0.093 A 
HETATM   25  C10 UNL     1      35.399 -25.995  12.461  1.00  0.00     0.042 A 
HETATM   26  C11 UNL     1      35.345 -24.594  12.686  1.00  0.00     0.036 A 
BRANCH  24  27
HETATM   27  S2  UNL     1      36.546 -28.393  12.121  1.00  0.00     0.333 S 
HETATM   28  O3  UNL     1      37.055 -28.640  10.731  1.00  0.00    -0.189 OA
HETATM   29  O4  UNL     1      35.118 -28.834  12.255  1.00  0.00    -0.189 OA
HETATM   30  F1  UNL     1      37.507 -29.178  13.245  1.00  0.00    -0.100 F 
ENDBRANCH  24  27
BRANCH  26  31
HETATM   31  C12 UNL     1      34.055 -23.959  12.651  1.00  0.00     0.157 C 
HETATM   32  C13 UNL     1      33.274 -23.979  11.389  1.00  0.00     0.097 C 
HETATM   33  O5  UNL     1      33.551 -23.393  13.617  1.00  0.00    -0.293 OA
ENDBRANCH  26  31
ENDBRANCH   1  20
TORSDOF 7
ENDMDL
MODEL 5
REMARK VINA RESULT: -8.993194290      5.130      7.042
REMARK  7 active torsions:
REMARK  status: ('A' for Active; 'I' for Inactive)
REMARK    1  A    between atoms: C2_2  and  C3_3 
REMARK    2  A    between atoms: C3_3  and  N1_4 
REMARK    3  A    between atoms: N1_4  and  C4_6 
REMARK    4  A    between atoms: N3_10  and  S1_12 
REMARK    5  A    between atoms: S1_12  and  C6_15 
REMARK    6  A    between atoms: C9_19  and  S2_20 
REMARK    7  A    between atoms: C11_25  and  C12_26 
ROOT
HETATM    1  S1  UNL     1      37.684 -23.865  15.775  1.00  0.00     0.279 S 
HETATM    2  O1  UNL     1      37.920 -24.722  16.976  1.00  0.00    -0.200 OA
HETATM    3  O2  UNL     1      38.976 -22.998  15.698  1.00  0.00    -0.200 OA
ENDROOT
BRANCH   1   4
HETATM    4  N3  UNL     1      36.421 -22.763  15.928  1.00  0.00    -0.112 N 
HETATM    5  C5  UNL     1      36.070 -22.262  17.076  1.00  0.00     0.693 A 
HETATM    6  N2  UNL     1      36.659 -22.564  18.220  1.00  0.00    -0.175 N 
HETATM    7  N4  UNL     1      35.030 -21.371  17.106  1.00  0.00    -0.200 N 
HETATM    8  C4  UNL     1      36.308 -22.047  19.455  1.00  0.00     0.135 A 
ATOM      9  H2  UNL     1      37.432 -23.229  18.191  1.00  0.00     0.186 HD
HETATM   10  C15 UNL     1      35.263 -21.154  19.477  1.00  0.00     0.071 A 
HETATM   11  C14 UNL     1      34.652 -20.846  18.268  1.00  0.00     0.129 A 
HETATM   12 BR1  UNL     1      34.604 -20.318  21.037  1.00  0.00    -0.046 Br
ATOM     13  H4  UNL     1      34.549 -21.112  16.245  1.00  0.00     0.183 HD
ATOM     14  H3  UNL     1      35.912 -22.478  15.091  1.00  0.00     0.197 HD
BRANCH   8  15
HETATM   15  N1  UNL     1      36.936 -22.407  20.457  1.00  0.00    -0.375 N 
ATOM     16  H1  UNL     1      36.308 -22.973  21.027  1.00  0.00     0.161 HD
BRANCH  15  17
HETATM   17  C3  UNL     1      38.139 -22.350  21.105  1.00  0.00     0.121 C 
BRANCH  17  18
HETATM   18  C2  UNL     1      38.157 -21.134  22.039  1.00  0.00     0.015 C 
HETATM   19  C1  UNL     1      38.952 -21.491  23.305  1.00  0.00     0.006 C 
ENDBRANCH  17  18
ENDBRANCH  15  17
ENDBRANCH   8  15
ENDBRANCH   1   4
BRANCH   1  20
HETATM   20  C6  UNL     1      37.650 -24.810  14.343  1.00  0.00     0.115 A 
HETATM   21  C7  UNL     1      36.654 -24.552  13.404  1.00  0.00     0.059 A 
HETATM   22 CL1  UNL     1      35.476 -23.296  13.737  1.00  0.00    -0.083 Cl
HETATM   23  C8  UNL     1      36.549 -25.252  12.211  1.00  0.00     0.051 A 
HETATM   24  C9  UNL     1      37.453 -26.231  11.942  1.00  0.00     0.093 A 
HETATM   25  C10 UNL     1      38.435 -26.506  12.841  1.00  0.00     0.042 A 
HETATM   26  C11 UNL     1      38.536 -25.787  14.062  1.00  0.00     0.036 A 
BRANCH  24  27
HETATM   27  S2  UNL     1      37.414 -27.178  10.456  1.00  0.00     0.333 S 
HETATM   28  O3  UNL     1      36.819 -28.517  10.786  1.00  0.00    -0.189 OA
HETATM   29  O4  UNL     1      38.830 -27.324   9.982  1.00  0.00    -0.189 OA
HETATM   30  F1  UNL     1      36.489 -26.394   9.301  1.00  0.00    -0.100 F 
ENDBRANCH  24  27
BRANCH  26  31
HETATM   31  C12 UNL     1      39.552 -26.194  14.996  1.00  0.00     0.157 C 
HETATM   32  C13 UNL     1      39.312 -27.382  15.852  1.00  0.00     0.097 C 
HETATM   33  O5  UNL     1      40.623 -25.610  15.129  1.00  0.00    -0.293 OA
ENDBRANCH  26  31
ENDBRANCH   1  20
TORSDOF 7
ENDMDL
