MODEL 1
REMARK VINA RESULT: -7.672651978      0.000      0.000
REMARK  10 active torsions:
REMARK  status: ('A' for Active; 'I' for Inactive)
REMARK    1  A    between atoms: C2_2  and  C3_3 
REMARK    2  A    between atoms: C3_3  and  C4_4 
REMARK    3  A    between atoms: C4_4  and  C5_5 
REMARK    4  A    between atoms: C5_5  and  C6_6 
REMARK    5  A    between atoms: C6_6  and  N1_7 
REMARK    6  A    between atoms: C7_8  and  O1_9 
REMARK    7  A    between atoms: C8_11  and  C9_12 
REMARK    8  A    between atoms: C9_12  and  O2_13 
REMARK    9  A    between atoms: C9_12  and  C10_15 
REMARK   10  A    between atoms: C21_29  and  O3_30 
ROOT
HETATM    1  N1  UNL     1     -22.228  24.231 -13.816  1.00  0.00    -0.313 N 
HETATM    2  C7  UNL     1     -21.748  25.115 -12.964  1.00  0.00     0.153 A 
HETATM    3  C8  UNL     1     -20.402  25.438 -13.289  1.00  0.00     0.038 A 
HETATM    4  C18 UNL     1     -20.105  24.699 -14.396  1.00  0.00     0.032 A 
HETATM    5  C19 UNL     1     -19.144  24.417 -15.365  1.00  0.00     0.004 A 
HETATM    6  C20 UNL     1     -17.795  25.002 -15.550  1.00  0.00     0.054 C 
HETATM    7  C21 UNL     1     -19.740  23.505 -16.224  1.00  0.00     0.148 A 
HETATM    8  N3  UNL     1     -20.984  23.254 -15.806  1.00  0.00    -0.322 N 
ATOM      9  H3  UNL     1     -21.635  22.616 -16.264  1.00  0.00     0.169 HD
HETATM   10  C22 UNL     1     -21.254  23.960 -14.695  1.00  0.00     0.123 A 
ENDROOT
BRANCH   3  11
HETATM   11  C9  UNL     1     -19.670  26.467 -12.569  1.00  0.00     0.187 C 
BRANCH  11  12
HETATM   12  O2  UNL     1     -20.028  26.378 -11.170  1.00  0.00    -0.389 OA
ATOM     13  H2  UNL     1     -19.532  27.035 -10.695  1.00  0.00     0.210 HD
ENDBRANCH  11  12
BRANCH  11  14
HETATM   14  C10 UNL     1     -19.785  27.899 -12.976  1.00  0.00     0.220 C 
HETATM   15  C11 UNL     1     -18.400  28.556 -12.995  1.00  0.00     0.042 C 
HETATM   16  C12 UNL     1     -18.027  28.659 -14.412  1.00  0.00     0.018 C 
HETATM   17  C13 UNL     1     -17.607  30.083 -14.712  1.00  0.00     0.011 C 
HETATM   18  C17 UNL     1     -19.262  28.368 -15.212  1.00  0.00     0.191 C 
HETATM   19  C14 UNL     1     -18.787  30.729 -15.396  1.00  0.00    -0.016 C 
HETATM   20  C15 UNL     1     -18.240  31.742 -16.364  1.00  0.00     0.010 C 
HETATM   21  C16 UNL     1     -19.527  29.601 -16.058  1.00  0.00     0.037 C 
HETATM   22  N2  UNL     1     -20.315  28.016 -14.323  1.00  0.00    -0.064 N 
ATOM     23  H22 UNL     1     -20.806  27.173 -14.619  1.00  0.00     0.278 HD
ATOM     24  H21 UNL     1     -21.099  28.665 -14.375  1.00  0.00     0.278 HD
ENDBRANCH  11  14
ENDBRANCH   3  11
BRANCH   2  25
HETATM   25  O1  UNL     1     -22.448  25.661 -11.891  1.00  0.00    -0.345 OA
ATOM     26  H1  UNL     1     -22.374  26.558 -11.588  1.00  0.00     0.219 HD
ENDBRANCH   2  25
BRANCH   1  27
HETATM   27  C6  UNL     1     -23.578  23.627 -13.787  1.00  0.00     0.133 C 
BRANCH  27  28
HETATM   28  C5  UNL     1     -24.526  24.537 -14.511  1.00  0.00     0.020 C 
BRANCH  28  29
HETATM   29  C4  UNL     1     -24.744  24.126 -15.944  1.00  0.00     0.002 C 
BRANCH  29  30
HETATM   30  C3  UNL     1     -24.149  25.023 -16.966  1.00  0.00    -0.000 C 
BRANCH  30  31
HETATM   31  C2  UNL     1     -23.626  26.322 -16.387  1.00  0.00    -0.005 C 
HETATM   32  C1  UNL     1     -22.253  26.639 -16.985  1.00  0.00     0.005 C 
ENDBRANCH  30  31
ENDBRANCH  29  30
ENDBRANCH  28  29
ENDBRANCH  27  28
ENDBRANCH   1  27
BRANCH   7  33
HETATM   33  O3  UNL     1     -19.095  22.963 -17.339  1.00  0.00    -0.346 OA
ATOM     34  H3  UNL     1     -18.925  22.034 -17.446  1.00  0.00     0.219 HD
ENDBRANCH   7  33
TORSDOF 10
ENDMDL
MODEL 2
REMARK VINA RESULT: -7.436535334      1.397      2.443
REMARK  10 active torsions:
REMARK  status: ('A' for Active; 'I' for Inactive)
REMARK    1  A    between atoms: C2_2  and  C3_3 
REMARK    2  A    between atoms: C3_3  and  C4_4 
REMARK    3  A    between atoms: C4_4  and  C5_5 
REMARK    4  A    between atoms: C5_5  and  C6_6 
REMARK    5  A    between atoms: C6_6  and  N1_7 
REMARK    6  A    between atoms: C7_8  and  O1_9 
REMARK    7  A    between atoms: C8_11  and  C9_12 
REMARK    8  A    between atoms: C9_12  and  O2_13 
REMARK    9  A    between atoms: C9_12  and  C10_15 
REMARK   10  A    between atoms: C21_29  and  O3_30 
ROOT
HETATM    1  N1  UNL     1     -22.373  24.850 -14.140  1.00  0.00    -0.313 N 
HETATM    2  C7  UNL     1     -21.852  25.686 -13.263  1.00  0.00     0.153 A 
HETATM    3  C8  UNL     1     -20.453  25.817 -13.473  1.00  0.00     0.038 A 
HETATM    4  C18 UNL     1     -20.165  25.014 -14.537  1.00  0.00     0.032 A 
HETATM    5  C19 UNL     1     -19.171  24.579 -15.412  1.00  0.00     0.004 A 
HETATM    6  C20 UNL     1     -17.745  24.973 -15.486  1.00  0.00     0.054 C 
HETATM    7  C21 UNL     1     -19.810  23.730 -16.306  1.00  0.00     0.148 A 
HETATM    8  N3  UNL     1     -21.107  23.660 -15.996  1.00  0.00    -0.322 N 
ATOM      9  H3  UNL     1     -21.797  23.102 -16.500  1.00  0.00     0.169 HD
HETATM   10  C22 UNL     1     -21.373  24.427 -14.925  1.00  0.00     0.123 A 
ENDROOT
BRANCH   3  11
HETATM   11  C9  UNL     1     -19.652  26.759 -12.707  1.00  0.00     0.187 C 
BRANCH  11  12
HETATM   12  O2  UNL     1     -19.995  26.608 -11.310  1.00  0.00    -0.389 OA
ATOM     13  H2  UNL     1     -19.417  27.167 -10.802  1.00  0.00     0.210 HD
ENDBRANCH  11  12
BRANCH  11  14
HETATM   14  C10 UNL     1     -19.690  28.216 -13.030  1.00  0.00     0.220 C 
HETATM   15  C11 UNL     1     -18.269  28.789 -13.052  1.00  0.00     0.042 C 
HETATM   16  C12 UNL     1     -17.926  28.952 -14.470  1.00  0.00     0.018 C 
HETATM   17  C13 UNL     1     -17.427  30.365 -14.701  1.00  0.00     0.011 C 
HETATM   18  C17 UNL     1     -19.196  28.783 -15.250  1.00  0.00     0.191 C 
HETATM   19  C14 UNL     1     -18.583  31.118 -15.313  1.00  0.00    -0.016 C 
HETATM   20  C15 UNL     1     -18.000  32.152 -16.238  1.00  0.00     0.010 C 
HETATM   21  C16 UNL     1     -19.407  30.077 -16.016  1.00  0.00     0.037 C 
HETATM   22  N2  UNL     1     -20.246  28.442 -14.352  1.00  0.00    -0.064 N 
ATOM     23  H22 UNL     1     -20.794  27.649 -14.681  1.00  0.00     0.278 HD
ATOM     24  H21 UNL     1     -20.990  29.139 -14.344  1.00  0.00     0.278 HD
ENDBRANCH  11  14
ENDBRANCH   3  11
BRANCH   2  25
HETATM   25  O1  UNL     1     -22.562  26.351 -12.267  1.00  0.00    -0.345 OA
ATOM     26  H1  UNL     1     -22.711  27.288 -12.233  1.00  0.00     0.219 HD
ENDBRANCH   2  25
BRANCH   1  27
HETATM   27  C6  UNL     1     -23.790  24.433 -14.222  1.00  0.00     0.133 C 
BRANCH  27  28
HETATM   28  C5  UNL     1     -24.067  23.453 -13.120  1.00  0.00     0.020 C 
BRANCH  28  29
HETATM   29  C4  UNL     1     -24.493  22.105 -13.637  1.00  0.00     0.002 C 
BRANCH  29  30
HETATM   30  C3  UNL     1     -25.176  21.228 -12.654  1.00  0.00    -0.000 C 
BRANCH  30  31
HETATM   31  C2  UNL     1     -25.605  19.897 -13.239  1.00  0.00    -0.005 C 
HETATM   32  C1  UNL     1     -25.405  19.909 -14.756  1.00  0.00     0.005 C 
ENDBRANCH  30  31
ENDBRANCH  29  30
ENDBRANCH  28  29
ENDBRANCH  27  28
ENDBRANCH   1  27
BRANCH   7  33
HETATM   33  O3  UNL     1     -19.151  23.076 -17.350  1.00  0.00    -0.346 OA
ATOM     34  H3  UNL     1     -18.914  22.156 -17.325  1.00  0.00     0.219 HD
ENDBRANCH   7  33
TORSDOF 10
ENDMDL
MODEL 3
REMARK VINA RESULT: -7.292113718      3.455      8.114
REMARK  10 active torsions:
REMARK  status: ('A' for Active; 'I' for Inactive)
REMARK    1  A    between atoms: C2_2  and  C3_3 
REMARK    2  A    between atoms: C3_3  and  C4_4 
REMARK    3  A    between atoms: C4_4  and  C5_5 
REMARK    4  A    between atoms: C5_5  and  C6_6 
REMARK    5  A    between atoms: C6_6  and  N1_7 
REMARK    6  A    between atoms: C7_8  and  O1_9 
REMARK    7  A    between atoms: C8_11  and  C9_12 
REMARK    8  A    between atoms: C9_12  and  O2_13 
REMARK    9  A    between atoms: C9_12  and  C10_15 
REMARK   10  A    between atoms: C21_29  and  O3_30 
ROOT
HETATM    1  N1  UNL     1     -18.064  31.903 -15.335  1.00  0.00    -0.313 N 
HETATM    2  C7  UNL     1     -18.519  31.455 -16.488  1.00  0.00     0.153 A 
HETATM    3  C8  UNL     1     -18.285  30.057 -16.603  1.00  0.00     0.038 A 
HETATM    4  C18 UNL     1     -17.668  29.691 -15.443  1.00  0.00     0.032 A 
HETATM    5  C19 UNL     1     -17.157  28.630 -14.701  1.00  0.00     0.004 A 
HETATM    6  C20 UNL     1     -17.134  27.182 -15.020  1.00  0.00     0.054 C 
HETATM    7  C21 UNL     1     -16.727  29.187 -13.504  1.00  0.00     0.148 A 
HETATM    8  N3  UNL     1     -16.968  30.501 -13.519  1.00  0.00    -0.322 N 
ATOM      9  H3  UNL     1     -16.746  31.143 -12.758  1.00  0.00     0.169 HD
HETATM   10  C22 UNL     1     -17.543  30.857 -14.680  1.00  0.00     0.123 A 
ENDROOT
BRANCH   3  11
HETATM   11  C9  UNL     1     -18.782  29.293 -17.736  1.00  0.00     0.187 C 
BRANCH  11  12
HETATM   12  O2  UNL     1     -18.429  30.002 -18.947  1.00  0.00    -0.389 OA
ATOM     13  H2  UNL     1     -18.020  29.385 -19.542  1.00  0.00     0.210 HD
ENDBRANCH  11  12
BRANCH  11  14
HETATM   14  C10 UNL     1     -20.228  28.932 -17.826  1.00  0.00     0.220 C 
HETATM   15  C11 UNL     1     -20.382  27.466 -18.244  1.00  0.00     0.042 C 
HETATM   16  C12 UNL     1     -20.748  26.739 -17.022  1.00  0.00     0.018 C 
HETATM   17  C13 UNL     1     -21.986  25.907 -17.292  1.00  0.00     0.011 C 
HETATM   18  C17 UNL     1     -21.105  27.767 -15.991  1.00  0.00     0.191 C 
HETATM   19  C14 UNL     1     -23.140  26.674 -16.694  1.00  0.00    -0.016 C 
HETATM   20  C15 UNL     1     -24.150  25.663 -16.223  1.00  0.00     0.010 C 
HETATM   21  C16 UNL     1     -22.541  27.489 -15.583  1.00  0.00     0.037 C 
HETATM   22  N2  UNL     1     -20.878  29.062 -16.534  1.00  0.00    -0.064 N 
ATOM     23  H22 UNL     1     -20.355  29.663 -15.897  1.00  0.00     0.278 HD
ATOM     24  H21 UNL     1     -21.733  29.616 -16.585  1.00  0.00     0.278 HD
ENDBRANCH  11  14
ENDBRANCH   3  11
BRANCH   2  25
HETATM   25  O1  UNL     1     -19.140  32.229 -17.463  1.00  0.00    -0.345 OA
ATOM     26  H1  UNL     1     -19.924  31.984 -17.941  1.00  0.00     0.219 HD
ENDBRANCH   2  25
BRANCH   1  27
HETATM   27  C6  UNL     1     -18.095  33.305 -14.864  1.00  0.00     0.133 C 
BRANCH  27  28
HETATM   28  C5  UNL     1     -16.689  33.827 -14.819  1.00  0.00     0.020 C 
BRANCH  28  29
HETATM   29  C4  UNL     1     -16.433  34.892 -15.852  1.00  0.00     0.002 C 
BRANCH  29  30
HETATM   30  C3  UNL     1     -17.641  35.469 -16.492  1.00  0.00    -0.000 C 
BRANCH  30  31
HETATM   31  C2  UNL     1     -17.623  36.983 -16.544  1.00  0.00    -0.005 C 
HETATM   32  C1  UNL     1     -16.764  37.531 -15.403  1.00  0.00     0.005 C 
ENDBRANCH  30  31
ENDBRANCH  29  30
ENDBRANCH  28  29
ENDBRANCH  27  28
ENDBRANCH   1  27
BRANCH   7  33
HETATM   33  O3  UNL     1     -16.140  28.444 -12.476  1.00  0.00    -0.346 OA
ATOM     34  H3  UNL     1     -15.717  28.838 -11.722  1.00  0.00     0.219 HD
ENDBRANCH   7  33
TORSDOF 10
ENDMDL
MODEL 4
REMARK VINA RESULT: -7.128608009      3.054      7.745
REMARK  10 active torsions:
REMARK  status: ('A' for Active; 'I' for Inactive)
REMARK    1  A    between atoms: C2_2  and  C3_3 
REMARK    2  A    between atoms: C3_3  and  C4_4 
REMARK    3  A    between atoms: C4_4  and  C5_5 
REMARK    4  A    between atoms: C5_5  and  C6_6 
REMARK    5  A    between atoms: C6_6  and  N1_7 
REMARK    6  A    between atoms: C7_8  and  O1_9 
REMARK    7  A    between atoms: C8_11  and  C9_12 
REMARK    8  A    between atoms: C9_12  and  O2_13 
REMARK    9  A    between atoms: C9_12  and  C10_15 
REMARK   10  A    between atoms: C21_29  and  O3_30 
ROOT
HETATM    1  N1  UNL     1     -17.622  30.634 -14.869  1.00  0.00    -0.313 N 
HETATM    2  C7  UNL     1     -17.722  29.394 -14.432  1.00  0.00     0.153 A 
HETATM    3  C8  UNL     1     -18.397  28.586 -15.386  1.00  0.00     0.038 A 
HETATM    4  C18 UNL     1     -18.690  29.415 -16.428  1.00  0.00     0.032 A 
HETATM    5  C19 UNL     1     -19.237  29.503 -17.707  1.00  0.00     0.004 A 
HETATM    6  C20 UNL     1     -19.803  28.434 -18.564  1.00  0.00     0.054 C 
HETATM    7  C21 UNL     1     -19.067  30.825 -18.092  1.00  0.00     0.148 A 
HETATM    8  N3  UNL     1     -18.453  31.494 -17.112  1.00  0.00    -0.322 N 
ATOM      9  H3  UNL     1     -18.211  32.485 -17.145  1.00  0.00     0.169 HD
HETATM   10  C22 UNL     1     -18.200  30.676 -16.076  1.00  0.00     0.123 A 
ENDROOT
BRANCH   3  11
HETATM   11  C9  UNL     1     -18.549  27.151 -15.197  1.00  0.00     0.187 C 
BRANCH  11  12
HETATM   12  O2  UNL     1     -17.630  26.480 -16.090  1.00  0.00    -0.389 OA
ATOM     13  H2  UNL     1     -18.102  25.784 -16.532  1.00  0.00     0.210 HD
ENDBRANCH  11  12
BRANCH  11  14
HETATM   14  C10 UNL     1     -19.887  26.508 -15.356  1.00  0.00     0.220 C 
HETATM   15  C11 UNL     1     -19.811  25.028 -14.967  1.00  0.00     0.042 C 
HETATM   16  C12 UNL     1     -20.432  24.932 -13.640  1.00  0.00     0.018 C 
HETATM   17  C13 UNL     1     -21.486  23.842 -13.663  1.00  0.00     0.011 C 
HETATM   18  C17 UNL     1     -21.129  26.236 -13.387  1.00  0.00     0.191 C 
HETATM   19  C14 UNL     1     -22.813  24.552 -13.784  1.00  0.00    -0.016 C 
HETATM   20  C15 UNL     1     -23.831  23.717 -13.054  1.00  0.00     0.010 C 
HETATM   21  C16 UNL     1     -22.595  25.907 -13.173  1.00  0.00     0.037 C 
HETATM   22  N2  UNL     1     -20.865  27.116 -14.472  1.00  0.00    -0.064 N 
ATOM     23  H22 UNL     1     -20.578  28.043 -14.158  1.00  0.00     0.278 HD
ATOM     24  H21 UNL     1     -21.716  27.388 -14.965  1.00  0.00     0.278 HD
ENDBRANCH  11  14
ENDBRANCH   3  11
BRANCH   2  25
HETATM   25  O1  UNL     1     -17.240  28.930 -13.211  1.00  0.00    -0.345 OA
ATOM     26  H1  UNL     1     -16.607  28.231 -13.101  1.00  0.00     0.219 HD
ENDBRANCH   2  25
BRANCH   1  27
HETATM   27  C6  UNL     1     -17.014  31.773 -14.147  1.00  0.00     0.133 C 
BRANCH  27  28
HETATM   28  C5  UNL     1     -17.725  33.031 -14.548  1.00  0.00     0.020 C 
BRANCH  28  29
HETATM   29  C4  UNL     1     -16.797  34.212 -14.661  1.00  0.00     0.002 C 
BRANCH  29  30
HETATM   30  C3  UNL     1     -16.533  34.691 -16.041  1.00  0.00    -0.000 C 
BRANCH  30  31
HETATM   31  C2  UNL     1     -17.200  36.015 -16.350  1.00  0.00    -0.005 C 
HETATM   32  C1  UNL     1     -16.634  37.107 -15.439  1.00  0.00     0.005 C 
ENDBRANCH  30  31
ENDBRANCH  29  30
ENDBRANCH  28  29
ENDBRANCH  27  28
ENDBRANCH   1  27
BRANCH   7  33
HETATM   33  O3  UNL     1     -19.492  31.328 -19.325  1.00  0.00    -0.346 OA
ATOM     34  H3  UNL     1     -20.160  31.998 -19.415  1.00  0.00     0.219 HD
ENDBRANCH   7  33
TORSDOF 10
ENDMDL
MODEL 5
REMARK VINA RESULT: -7.100426101      3.392      6.812
REMARK  10 active torsions:
REMARK  status: ('A' for Active; 'I' for Inactive)
REMARK    1  A    between atoms: C2_2  and  C3_3 
REMARK    2  A    between atoms: C3_3  and  C4_4 
REMARK    3  A    between atoms: C4_4  and  C5_5 
REMARK    4  A    between atoms: C5_5  and  C6_6 
REMARK    5  A    between atoms: C6_6  and  N1_7 
REMARK    6  A    between atoms: C7_8  and  O1_9 
REMARK    7  A    between atoms: C8_11  and  C9_12 
REMARK    8  A    between atoms: C9_12  and  O2_13 
REMARK    9  A    between atoms: C9_12  and  C10_15 
REMARK   10  A    between atoms: C21_29  and  O3_30 
ROOT
HETATM    1  N1  UNL     1     -19.166  29.847 -17.376  1.00  0.00    -0.313 N 
HETATM    2  C7  UNL     1     -18.983  28.594 -17.010  1.00  0.00     0.153 A 
HETATM    3  C8  UNL     1     -18.244  28.534 -15.797  1.00  0.00     0.038 A 
HETATM    4  C18 UNL     1     -18.001  29.830 -15.452  1.00  0.00     0.032 A 
HETATM    5  C19 UNL     1     -17.450  30.679 -14.494  1.00  0.00     0.004 A 
HETATM    6  C20 UNL     1     -16.802  30.347 -13.203  1.00  0.00     0.054 C 
HETATM    7  C21 UNL     1     -17.709  31.966 -14.946  1.00  0.00     0.148 A 
HETATM    8  N3  UNL     1     -18.377  31.901 -16.101  1.00  0.00    -0.322 N 
ATOM      9  H3  UNL     1     -18.687  32.709 -16.641  1.00  0.00     0.169 HD
HETATM   10  C22 UNL     1     -18.581  30.619 -16.450  1.00  0.00     0.123 A 
ENDROOT
BRANCH   3  11
HETATM   11  C9  UNL     1     -17.994  27.272 -15.119  1.00  0.00     0.187 C 
BRANCH  11  12
HETATM   12  O2  UNL     1     -17.727  26.267 -16.125  1.00  0.00    -0.389 OA
ATOM     13  H2  UNL     1     -17.073  26.612 -16.722  1.00  0.00     0.210 HD
ENDBRANCH  11  12
BRANCH  11  14
HETATM   14  C10 UNL     1     -19.003  26.711 -14.173  1.00  0.00     0.220 C 
HETATM   15  C11 UNL     1     -20.229  27.629 -14.104  1.00  0.00     0.042 C 
HETATM   16  C12 UNL     1     -21.272  26.961 -14.892  1.00  0.00     0.018 C 
HETATM   17  C13 UNL     1     -22.537  26.869 -14.062  1.00  0.00     0.011 C 
HETATM   18  C17 UNL     1     -20.795  25.564 -15.155  1.00  0.00     0.191 C 
HETATM   19  C14 UNL     1     -22.592  25.452 -13.545  1.00  0.00    -0.016 C 
HETATM   20  C15 UNL     1     -24.044  25.075 -13.434  1.00  0.00     0.010 C 
HETATM   21  C16 UNL     1     -21.831  24.634 -14.549  1.00  0.00     0.037 C 
HETATM   22  N2  UNL     1     -19.482  25.419 -14.628  1.00  0.00    -0.064 N 
ATOM     23  H22 UNL     1     -18.844  24.983 -15.294  1.00  0.00     0.278 HD
ATOM     24  H21 UNL     1     -19.434  24.709 -13.897  1.00  0.00     0.278 HD
ENDBRANCH  11  14
ENDBRANCH   3  11
BRANCH   2  25
HETATM   25  O1  UNL     1     -19.443  27.478 -17.705  1.00  0.00    -0.345 OA
ATOM     26  H1  UNL     1     -19.131  27.196 -18.556  1.00  0.00     0.219 HD
ENDBRANCH   2  25
BRANCH   1  27
HETATM   27  C6  UNL     1     -19.859  30.314 -18.596  1.00  0.00     0.133 C 
BRANCH  27  28
HETATM   28  C5  UNL     1     -18.831  30.780 -19.584  1.00  0.00     0.020 C 
BRANCH  28  29
HETATM   29  C4  UNL     1     -18.375  29.681 -20.508  1.00  0.00     0.002 C 
BRANCH  29  30
HETATM   30  C3  UNL     1     -19.429  28.736 -20.950  1.00  0.00    -0.000 C 
BRANCH  30  31
HETATM   31  C2  UNL     1     -18.959  27.777 -22.026  1.00  0.00    -0.005 C 
HETATM   32  C1  UNL     1     -19.953  27.774 -23.189  1.00  0.00     0.005 C 
ENDBRANCH  30  31
ENDBRANCH  29  30
ENDBRANCH  28  29
ENDBRANCH  27  28
ENDBRANCH   1  27
BRANCH   7  33
HETATM   33  O3  UNL     1     -17.309  33.117 -14.262  1.00  0.00    -0.346 OA
ATOM     34  H3  UNL     1     -17.775  33.944 -14.312  1.00  0.00     0.219 HD
ENDBRANCH   7  33
TORSDOF 10
ENDMDL
