MODEL 1
REMARK VINA RESULT: -6.769480283      0.000      0.000
REMARK  4 active torsions:
REMARK  status: ('A' for Active; 'I' for Inactive)
REMARK    1  A    between atoms: N2_5  and  C4_6 
REMARK    2  A    between atoms: C4_6  and  C5_7 
REMARK    3  A    between atoms: C5_7  and  C6_8 
REMARK       I    between atoms: C6_8  and  N3_10 
REMARK    4  A    between atoms: C13_17  and  O2_18 
ROOT
HETATM    1  C6  UNL     1      18.901   3.700  12.025  1.00  0.00     0.221 C 
HETATM    2  O1  UNL     1      19.930   4.447  12.046  1.00  0.00    -0.273 OA
HETATM    3  N3  UNL     1      18.027   3.609  13.129  1.00  0.00    -0.352 N 
HETATM    4  C7  UNL     1      16.875   2.733  13.087  1.00  0.00     0.129 C 
HETATM    5  C8  UNL     1      17.004   1.764  14.271  1.00  0.00     0.058 C 
HETATM    6  C9  UNL     1      16.930   2.598  15.524  1.00  0.00     0.066 C 
HETATM    7  C10 UNL     1      18.121   3.529  15.544  1.00  0.00     0.058 C 
HETATM    8  C11 UNL     1      18.249   4.381  14.317  1.00  0.00     0.129 C 
HETATM    9  C12 UNL     1      17.070   1.712  16.743  1.00  0.00     0.070 C 
HETATM   10  C13 UNL     1      15.872   0.830  16.873  1.00  0.00     0.123 C 
HETATM   11  C14 UNL     1      14.626   1.672  16.836  1.00  0.00     0.058 C 
HETATM   12  C15 UNL     1      14.845   3.097  16.451  1.00  0.00     0.171 C 
HETATM   13  O3  UNL     1      15.779   3.333  15.485  1.00  0.00    -0.380 OA
ENDROOT
BRANCH   1  14
HETATM   14  C5  UNL     1      18.650   2.914  10.762  1.00  0.00     0.133 C 
BRANCH  14  15
HETATM   15  C4  UNL     1      19.916   2.846   9.963  1.00  0.00     0.282 C 
BRANCH  15  16
HETATM   16  N2  UNL     1      19.793   3.387   8.646  1.00  0.00     0.098 N 
HETATM   17  C3  UNL     1      21.116   3.620   8.053  1.00  0.00     0.317 C 
HETATM   18  C2  UNL     1      21.855   4.737   8.715  1.00  0.00     0.092 C 
HETATM   19  N1  UNL     1      21.053   5.813   9.141  1.00  0.00    -0.375 N 
HETATM   20  C1  UNL     1      21.648   6.827   9.897  1.00  0.00     0.154 C 
HETATM   21  C17 UNL     1      19.716   5.863   8.787  1.00  0.00     0.092 C 
HETATM   22  C16 UNL     1      18.988   4.582   8.531  1.00  0.00     0.317 C 
ENDBRANCH  15  16
ENDBRANCH  14  15
ENDBRANCH   1  14
BRANCH  10  23
HETATM   23  O2  UNL     1      16.003   0.101  18.058  1.00  0.00    -0.395 OA
ATOM     24  H2  UNL     1      15.160   0.102  18.494  1.00  0.00     0.210 HD
ENDBRANCH  10  23
TORSDOF 4
ENDMDL
MODEL 2
REMARK VINA RESULT: -6.565725098      2.486      8.044
REMARK  4 active torsions:
REMARK  status: ('A' for Active; 'I' for Inactive)
REMARK    1  A    between atoms: N2_5  and  C4_6 
REMARK    2  A    between atoms: C4_6  and  C5_7 
REMARK    3  A    between atoms: C5_7  and  C6_8 
REMARK       I    between atoms: C6_8  and  N3_10 
REMARK    4  A    between atoms: C13_17  and  O2_18 
ROOT
HETATM    1  C6  UNL     1      17.438   2.554  11.558  1.00  0.00     0.221 C 
HETATM    2  O1  UNL     1      16.427   2.361  10.812  1.00  0.00    -0.273 OA
HETATM    3  N3  UNL     1      18.524   3.354  11.145  1.00  0.00    -0.352 N 
HETATM    4  C7  UNL     1      19.674   3.537  12.007  1.00  0.00     0.129 C 
HETATM    5  C8  UNL     1      20.905   3.064  11.219  1.00  0.00     0.058 C 
HETATM    6  C9  UNL     1      21.040   3.984  10.033  1.00  0.00     0.066 C 
HETATM    7  C10 UNL     1      19.821   3.806   9.156  1.00  0.00     0.058 C 
HETATM    8  C11 UNL     1      18.520   4.012   9.871  1.00  0.00     0.129 C 
HETATM    9  C12 UNL     1      22.227   3.568   9.190  1.00  0.00     0.070 C 
HETATM   10  C13 UNL     1      23.495   3.819   9.938  1.00  0.00     0.123 C 
HETATM   11  C14 UNL     1      23.519   5.246  10.415  1.00  0.00     0.058 C 
HETATM   12  C15 UNL     1      22.230   5.981  10.257  1.00  0.00     0.171 C 
HETATM   13  O3  UNL     1      21.088   5.270  10.488  1.00  0.00    -0.380 OA
ENDROOT
BRANCH   1  14
HETATM   14  C5  UNL     1      17.427   1.888  12.913  1.00  0.00     0.133 C 
BRANCH  14  15
HETATM   15  C4  UNL     1      16.266   2.405  13.707  1.00  0.00     0.282 C 
BRANCH  15  16
HETATM   16  N2  UNL     1      16.643   3.273  14.777  1.00  0.00     0.098 N 
HETATM   17  C3  UNL     1      17.407   2.543  15.796  1.00  0.00     0.317 C 
HETATM   18  C2  UNL     1      16.569   1.563  16.551  1.00  0.00     0.092 C 
HETATM   19  N1  UNL     1      15.244   1.975  16.796  1.00  0.00    -0.375 N 
HETATM   20  C1  UNL     1      14.358   1.057  17.367  1.00  0.00     0.154 C 
HETATM   21  C17 UNL     1      14.856   3.270  16.497  1.00  0.00     0.092 C 
HETATM   22  C16 UNL     1      15.564   4.003  15.404  1.00  0.00     0.317 C 
ENDBRANCH  15  16
ENDBRANCH  14  15
ENDBRANCH   1  14
BRANCH  10  23
HETATM   23  O2  UNL     1      24.561   3.510   9.089  1.00  0.00    -0.395 OA
ATOM     24  H2  UNL     1      24.500   2.587   8.871  1.00  0.00     0.210 HD
ENDBRANCH  10  23
TORSDOF 4
ENDMDL
MODEL 3
REMARK VINA RESULT: -6.549005910      1.100      1.400
REMARK  4 active torsions:
REMARK  status: ('A' for Active; 'I' for Inactive)
REMARK    1  A    between atoms: N2_5  and  C4_6 
REMARK    2  A    between atoms: C4_6  and  C5_7 
REMARK    3  A    between atoms: C5_7  and  C6_8 
REMARK       I    between atoms: C6_8  and  N3_10 
REMARK    4  A    between atoms: C13_17  and  O2_18 
ROOT
HETATM    1  C6  UNL     1      18.405   4.390  12.337  1.00  0.00     0.221 C 
HETATM    2  O1  UNL     1      19.501   5.030  12.412  1.00  0.00    -0.273 OA
HETATM    3  N3  UNL     1      17.642   4.088  13.484  1.00  0.00    -0.352 N 
HETATM    4  C7  UNL     1      16.408   3.337  13.372  1.00  0.00     0.129 C 
HETATM    5  C8  UNL     1      16.557   2.094  14.262  1.00  0.00     0.058 C 
HETATM    6  C9  UNL     1      16.693   2.590  15.679  1.00  0.00     0.066 C 
HETATM    7  C10 UNL     1      17.968   3.397  15.778  1.00  0.00     0.058 C 
HETATM    8  C11 UNL     1      18.057   4.518  14.787  1.00  0.00     0.129 C 
HETATM    9  C12 UNL     1      16.864   1.418  16.621  1.00  0.00     0.070 C 
HETATM   10  C13 UNL     1      15.602   0.622  16.679  1.00  0.00     0.123 C 
HETATM   11  C14 UNL     1      14.450   1.534  16.998  1.00  0.00     0.058 C 
HETATM   12  C15 UNL     1      14.771   2.991  16.945  1.00  0.00     0.171 C 
HETATM   13  O3  UNL     1      15.624   3.394  15.959  1.00  0.00    -0.380 OA
ENDROOT
BRANCH   1  14
HETATM   14  C5  UNL     1      17.951   3.967  10.961  1.00  0.00     0.133 C 
BRANCH  14  15
HETATM   15  C4  UNL     1      18.871   4.556   9.935  1.00  0.00     0.282 C 
BRANCH  15  16
HETATM   16  N2  UNL     1      19.357   3.604   8.986  1.00  0.00     0.098 N 
HETATM   17  C3  UNL     1      20.007   2.476   9.666  1.00  0.00     0.317 C 
HETATM   18  C2  UNL     1      21.294   2.861  10.318  1.00  0.00     0.092 C 
HETATM   19  N1  UNL     1      22.054   3.820   9.620  1.00  0.00    -0.375 N 
HETATM   20  C1  UNL     1      23.197   4.338  10.234  1.00  0.00     0.154 C 
HETATM   21  C17 UNL     1      21.677   4.206   8.345  1.00  0.00     0.092 C 
HETATM   22  C16 UNL     1      20.233   4.128   7.963  1.00  0.00     0.317 C 
ENDBRANCH  15  16
ENDBRANCH  14  15
ENDBRANCH   1  14
BRANCH  10  23
HETATM   23  O2  UNL     1      15.777  -0.389  17.627  1.00  0.00    -0.395 OA
ATOM     24  H2  UNL     1      15.097  -0.293  18.283  1.00  0.00     0.210 HD
ENDBRANCH  10  23
TORSDOF 4
ENDMDL
MODEL 4
REMARK VINA RESULT: -6.315965370      1.312      2.061
REMARK  4 active torsions:
REMARK  status: ('A' for Active; 'I' for Inactive)
REMARK    1  A    between atoms: N2_5  and  C4_6 
REMARK    2  A    between atoms: C4_6  and  C5_7 
REMARK    3  A    between atoms: C5_7  and  C6_8 
REMARK       I    between atoms: C6_8  and  N3_10 
REMARK    4  A    between atoms: C13_17  and  O2_18 
ROOT
HETATM    1  C6  UNL     1      18.900   3.839  12.091  1.00  0.00     0.221 C 
HETATM    2  O1  UNL     1      19.945   4.562  12.140  1.00  0.00    -0.273 OA
HETATM    3  N3  UNL     1      18.033   3.713  13.197  1.00  0.00    -0.352 N 
HETATM    4  C7  UNL     1      16.861   2.865  13.122  1.00  0.00     0.129 C 
HETATM    5  C8  UNL     1      16.979   1.837  14.258  1.00  0.00     0.058 C 
HETATM    6  C9  UNL     1      16.931   2.612  15.550  1.00  0.00     0.066 C 
HETATM    7  C10 UNL     1      18.142   3.516  15.604  1.00  0.00     0.058 C 
HETATM    8  C11 UNL     1      18.279   4.423  14.419  1.00  0.00     0.129 C 
HETATM    9  C12 UNL     1      17.061   1.666  16.724  1.00  0.00     0.070 C 
HETATM   10  C13 UNL     1      15.845   0.804  16.821  1.00  0.00     0.123 C 
HETATM   11  C14 UNL     1      14.617   1.673  16.834  1.00  0.00     0.058 C 
HETATM   12  C15 UNL     1      14.863   3.110  16.515  1.00  0.00     0.171 C 
HETATM   13  O3  UNL     1      15.796   3.372  15.554  1.00  0.00    -0.380 OA
ENDROOT
BRANCH   1  14
HETATM   14  C5  UNL     1      18.624   3.119  10.794  1.00  0.00     0.133 C 
BRANCH  14  15
HETATM   15  C4  UNL     1      18.213   4.116   9.754  1.00  0.00     0.282 C 
BRANCH  15  16
HETATM   16  N2  UNL     1      19.289   4.930   9.283  1.00  0.00     0.098 N 
HETATM   17  C3  UNL     1      18.899   6.346   9.260  1.00  0.00     0.317 C 
HETATM   18  C2  UNL     1      17.879   6.646   8.211  1.00  0.00     0.092 C 
HETATM   19  N1  UNL     1      18.020   5.914   7.016  1.00  0.00    -0.375 N 
HETATM   20  C1  UNL     1      17.022   6.031   6.044  1.00  0.00     0.154 C 
HETATM   21  C17 UNL     1      19.140   5.127   6.815  1.00  0.00     0.092 C 
HETATM   22  C16 UNL     1      19.845   4.556   8.003  1.00  0.00     0.317 C 
ENDBRANCH  15  16
ENDBRANCH  14  15
ENDBRANCH   1  14
BRANCH  10  23
HETATM   23  O2  UNL     1      15.969   0.017  17.969  1.00  0.00    -0.395 OA
ATOM     24  H2  UNL     1      15.399   0.383  18.635  1.00  0.00     0.210 HD
ENDBRANCH  10  23
TORSDOF 4
ENDMDL
MODEL 5
REMARK VINA RESULT: -6.256663237      2.637      7.627
REMARK  4 active torsions:
REMARK  status: ('A' for Active; 'I' for Inactive)
REMARK    1  A    between atoms: N2_5  and  C4_6 
REMARK    2  A    between atoms: C4_6  and  C5_7 
REMARK    3  A    between atoms: C5_7  and  C6_8 
REMARK       I    between atoms: C6_8  and  N3_10 
REMARK    4  A    between atoms: C13_17  and  O2_18 
ROOT
HETATM    1  C6  UNL     1      17.632   1.522  11.572  1.00  0.00     0.221 C 
HETATM    2  O1  UNL     1      17.632   0.328  11.137  1.00  0.00    -0.273 OA
HETATM    3  N3  UNL     1      18.571   2.475  11.125  1.00  0.00    -0.352 N 
HETATM    4  C7  UNL     1      18.563   3.823  11.655  1.00  0.00     0.129 C 
HETATM    5  C8  UNL     1      19.955   4.079  12.253  1.00  0.00     0.058 C 
HETATM    6  C9  UNL     1      20.935   4.016  11.109  1.00  0.00     0.066 C 
HETATM    7  C10 UNL     1      20.914   2.614  10.545  1.00  0.00     0.058 C 
HETATM    8  C11 UNL     1      19.552   2.143  10.133  1.00  0.00     0.129 C 
HETATM    9  C12 UNL     1      22.341   4.241  11.623  1.00  0.00     0.070 C 
HETATM   10  C13 UNL     1      22.491   5.648  12.099  1.00  0.00     0.123 C 
HETATM   11  C14 UNL     1      22.050   6.592  11.013  1.00  0.00     0.058 C 
HETATM   12  C15 UNL     1      21.365   5.941   9.858  1.00  0.00     0.171 C 
HETATM   13  O3  UNL     1      20.532   4.899  10.148  1.00  0.00    -0.380 OA
ENDROOT
BRANCH   1  14
HETATM   14  C5  UNL     1      16.579   1.880  12.592  1.00  0.00     0.133 C 
BRANCH  14  15
HETATM   15  C4  UNL     1      17.049   1.468  13.953  1.00  0.00     0.282 C 
BRANCH  15  16
HETATM   16  N2  UNL     1      17.237   2.564  14.852  1.00  0.00     0.098 N 
HETATM   17  C3  UNL     1      17.660   2.087  16.174  1.00  0.00     0.317 C 
HETATM   18  C2  UNL     1      16.577   1.354  16.895  1.00  0.00     0.092 C 
HETATM   19  N1  UNL     1      15.277   1.855  16.688  1.00  0.00    -0.375 N 
HETATM   20  C1  UNL     1      14.197   1.137  17.210  1.00  0.00     0.154 C 
HETATM   21  C17 UNL     1      15.095   3.046  16.007  1.00  0.00     0.092 C 
HETATM   22  C16 UNL     1      16.112   3.460  14.992  1.00  0.00     0.317 C 
ENDBRANCH  15  16
ENDBRANCH  14  15
ENDBRANCH   1  14
BRANCH  10  23
HETATM   23  O2  UNL     1      23.824   5.833  12.474  1.00  0.00    -0.395 OA
ATOM     24  H2  UNL     1      23.910   5.568  13.382  1.00  0.00     0.210 HD
ENDBRANCH  10  23
TORSDOF 4
ENDMDL
