MODEL 1
REMARK VINA RESULT: -8.321135006      0.000      0.000
REMARK  11 active torsions:
REMARK  status: ('A' for Active; 'I' for Inactive)
REMARK       I    between atoms: C1_2  and  N2_4 
REMARK    1  A    between atoms: N2_4  and  C2_6 
REMARK    2  A    between atoms: C2_6  and  C3_7 
REMARK    3  A    between atoms: C3_7  and  C4_8 
REMARK    4  A    between atoms: C4_8  and  C5_9 
REMARK    5  A    between atoms: C5_9  and  N3_10 
REMARK    6  A    between atoms: C6_11  and  C7_12 
REMARK    7  A    between atoms: C8_13  and  C9_14 
REMARK    8  A    between atoms: C15_21  and  N4_22 
REMARK    9  A    between atoms: N5_25  and  C18_26 
REMARK   10  A    between atoms: C18_26  and  N6_28 
REMARK   11  A    between atoms: N6_28  and  C19_30 
ROOT
HETATM    1  N3  UNL     1      12.590  22.624   5.744  1.00  0.00    -0.320 N 
HETATM    2  C6  UNL     1      11.763  23.641   5.737  1.00  0.00     0.097 A 
HETATM    3  C14 UNL     1      11.229  24.011   4.531  1.00  0.00     0.092 A 
HETATM    4  S1  UNL     1      11.932  22.888   3.460  1.00  0.00    -0.063 SA
HETATM    5  C15 UNL     1      12.862  22.013   4.594  1.00  0.00     0.149 A 
ENDROOT
BRANCH   5   6
HETATM    6  N4  UNL     1      13.701  20.889   4.294  1.00  0.00    -0.358 N 
HETATM    7  C16 UNL     1      14.909  21.095   3.538  1.00  0.00     0.145 C 
HETATM    8  C17 UNL     1      15.668  19.782   3.416  1.00  0.00     0.145 C 
HETATM    9  N5  UNL     1      15.744  19.179   4.730  1.00  0.00    -0.355 N 
HETATM   10  C24 UNL     1      14.551  19.035   5.531  1.00  0.00     0.145 C 
HETATM   11  C25 UNL     1      13.362  19.559   4.753  1.00  0.00     0.145 C 
BRANCH   9  12
HETATM   12  C18 UNL     1      16.976  18.717   5.272  1.00  0.00     0.170 C 
HETATM   13  S2  UNL     1      18.188  19.789   5.450  1.00  0.00    -0.041 SA
BRANCH  12  14
HETATM   14  N6  UNL     1      17.188  17.380   5.657  1.00  0.00    -0.362 N 
ATOM     15  H6  UNL     1      16.395  16.853   6.023  1.00  0.00     0.162 HD
BRANCH  14  16
HETATM   16  C19 UNL     1      18.465  16.711   5.563  1.00  0.00     0.083 C 
HETATM   17  C20 UNL     1      18.517  15.494   6.433  1.00  0.00     0.025 C 
HETATM   18  C21 UNL     1      19.164  14.439   5.596  1.00  0.00     0.002 C 
HETATM   19  C22 UNL     1      18.699  14.734   4.198  1.00  0.00     0.002 C 
HETATM   20  C23 UNL     1      18.747  16.262   4.139  1.00  0.00     0.025 C 
ENDBRANCH  14  16
ENDBRANCH  12  14
ENDBRANCH   9  12
ENDBRANCH   5   6
BRANCH   1  21
HETATM   21  C5  UNL     1      13.230  22.101   6.988  1.00  0.00     0.132 C 
BRANCH  21  22
HETATM   22  C4  UNL     1      14.544  22.739   7.206  1.00  0.00     0.022 C 
BRANCH  22  23
HETATM   23  C3  UNL     1      15.709  21.862   7.520  1.00  0.00     0.021 C 
BRANCH  23  24
HETATM   24  C2  UNL     1      15.660  21.063   8.760  1.00  0.00     0.124 C 
BRANCH  24  25
HETATM   25  N2  UNL     1      16.162  19.735   8.713  1.00  0.00    -0.345 N 
HETATM   26  C1  UNL     1      17.535  19.452   8.922  1.00  0.00     0.328 C 
HETATM   27  N1  UNL     1      18.043  18.138   8.877  1.00  0.00    -0.040 NA
HETATM   28  O1  UNL     1      18.319  20.397   9.152  1.00  0.00    -0.251 OA
ATOM     29  H2  UNL     1      15.519  18.967   8.525  1.00  0.00     0.163 HD
ENDBRANCH  24  25
ENDBRANCH  23  24
ENDBRANCH  22  23
ENDBRANCH  21  22
ENDBRANCH   1  21
BRANCH   2  30
HETATM   30  C7  UNL     1      11.382  24.403   6.942  1.00  0.00    -0.048 C 
HETATM   31  C8  UNL     1      11.057  25.027   7.930  1.00  0.00    -0.095 C 
BRANCH  31  32
HETATM   32  C9  UNL     1      10.658  25.798   9.106  1.00  0.00     0.065 C 
HETATM   33  C10 UNL     1       9.719  26.932   8.748  1.00  0.00     0.017 C 
HETATM   34  C11 UNL     1       8.341  26.354   8.709  1.00  0.00     0.001 C 
HETATM   35  C12 UNL     1       8.492  24.900   9.086  1.00  0.00     0.001 C 
HETATM   36  C13 UNL     1       9.736  24.931   9.962  1.00  0.00     0.017 C 
ENDBRANCH  31  32
ENDBRANCH   2  30
TORSDOF 11
ENDMDL
MODEL 2
REMARK VINA RESULT: -8.203716548      3.881      9.312
REMARK  11 active torsions:
REMARK  status: ('A' for Active; 'I' for Inactive)
REMARK       I    between atoms: C1_2  and  N2_4 
REMARK    1  A    between atoms: N2_4  and  C2_6 
REMARK    2  A    between atoms: C2_6  and  C3_7 
REMARK    3  A    between atoms: C3_7  and  C4_8 
REMARK    4  A    between atoms: C4_8  and  C5_9 
REMARK    5  A    between atoms: C5_9  and  N3_10 
REMARK    6  A    between atoms: C6_11  and  C7_12 
REMARK    7  A    between atoms: C8_13  and  C9_14 
REMARK    8  A    between atoms: C15_21  and  N4_22 
REMARK    9  A    between atoms: N5_25  and  C18_26 
REMARK   10  A    between atoms: C18_26  and  N6_28 
REMARK   11  A    between atoms: N6_28  and  C19_30 
ROOT
HETATM    1  N3  UNL     1      13.036  22.120   5.105  1.00  0.00    -0.320 N 
HETATM    2  C6  UNL     1      14.244  21.708   5.407  1.00  0.00     0.097 A 
HETATM    3  C14 UNL     1      15.015  21.213   4.389  1.00  0.00     0.092 A 
HETATM    4  S1  UNL     1      13.980  21.360   3.043  1.00  0.00    -0.063 SA
HETATM    5  C15 UNL     1      12.631  22.037   3.841  1.00  0.00     0.149 A 
ENDROOT
BRANCH   5   6
HETATM    6  N4  UNL     1      11.394  22.411   3.216  1.00  0.00    -0.358 N 
HETATM    7  C16 UNL     1      10.243  21.559   3.370  1.00  0.00     0.145 C 
HETATM    8  C17 UNL     1       9.039  22.198   2.693  1.00  0.00     0.145 C 
HETATM    9  N5  UNL     1       8.963  23.581   3.116  1.00  0.00    -0.355 N 
HETATM   10  C24 UNL     1      10.132  24.427   3.038  1.00  0.00     0.145 C 
HETATM   11  C25 UNL     1      11.282  23.635   2.453  1.00  0.00     0.145 C 
BRANCH   9  12
HETATM   12  C18 UNL     1       7.757  24.147   3.616  1.00  0.00     0.170 C 
HETATM   13  S2  UNL     1       6.404  23.983   2.726  1.00  0.00    -0.041 SA
BRANCH  12  14
HETATM   14  N6  UNL     1       7.688  24.840   4.839  1.00  0.00    -0.362 N 
ATOM     15  H6  UNL     1       7.822  24.311   5.700  1.00  0.00     0.162 HD
BRANCH  14  16
HETATM   16  C19 UNL     1       7.439  26.259   4.943  1.00  0.00     0.083 C 
HETATM   17  C20 UNL     1       6.122  26.542   5.597  1.00  0.00     0.025 C 
HETATM   18  C21 UNL     1       6.390  27.654   6.559  1.00  0.00     0.002 C 
HETATM   19  C22 UNL     1       7.791  27.400   7.042  1.00  0.00     0.002 C 
HETATM   20  C23 UNL     1       8.512  26.946   5.771  1.00  0.00     0.025 C 
ENDBRANCH  14  16
ENDBRANCH  12  14
ENDBRANCH   9  12
ENDBRANCH   5   6
BRANCH   1  21
HETATM   21  C5  UNL     1      12.095  22.698   6.110  1.00  0.00     0.132 C 
BRANCH  21  22
HETATM   22  C4  UNL     1      12.346  24.142   6.288  1.00  0.00     0.022 C 
BRANCH  22  23
HETATM   23  C3  UNL     1      12.700  24.633   7.652  1.00  0.00     0.021 C 
BRANCH  23  24
HETATM   24  C2  UNL     1      11.649  25.310   8.438  1.00  0.00     0.124 C 
BRANCH  24  25
HETATM   25  N2  UNL     1      10.298  24.954   8.182  1.00  0.00    -0.345 N 
HETATM   26  C1  UNL     1       9.367  24.763   9.234  1.00  0.00     0.328 C 
HETATM   27  N1  UNL     1       8.025  24.409   8.990  1.00  0.00    -0.040 NA
HETATM   28  O1  UNL     1       9.750  24.914  10.414  1.00  0.00    -0.251 OA
ATOM     29  H2  UNL     1       9.990  24.832   7.218  1.00  0.00     0.163 HD
ENDBRANCH  24  25
ENDBRANCH  23  24
ENDBRANCH  22  23
ENDBRANCH  21  22
ENDBRANCH   1  21
BRANCH   2  30
HETATM   30  C7  UNL     1      14.811  21.744   6.769  1.00  0.00    -0.048 C 
HETATM   31  C8  UNL     1      15.287  21.776   7.884  1.00  0.00    -0.095 C 
BRANCH  31  32
HETATM   32  C9  UNL     1      15.873  21.793   9.224  1.00  0.00     0.065 C 
HETATM   33  C10 UNL     1      15.651  20.485   9.955  1.00  0.00     0.017 C 
HETATM   34  C11 UNL     1      16.748  19.562   9.530  1.00  0.00     0.001 C 
HETATM   35  C12 UNL     1      17.618  20.361   8.590  1.00  0.00     0.001 C 
HETATM   36  C13 UNL     1      17.394  21.782   9.087  1.00  0.00     0.017 C 
ENDBRANCH  31  32
ENDBRANCH   2  30
TORSDOF 11
ENDMDL
MODEL 3
REMARK VINA RESULT: -8.021417338      4.276      9.641
REMARK  11 active torsions:
REMARK  status: ('A' for Active; 'I' for Inactive)
REMARK       I    between atoms: C1_2  and  N2_4 
REMARK    1  A    between atoms: N2_4  and  C2_6 
REMARK    2  A    between atoms: C2_6  and  C3_7 
REMARK    3  A    between atoms: C3_7  and  C4_8 
REMARK    4  A    between atoms: C4_8  and  C5_9 
REMARK    5  A    between atoms: C5_9  and  N3_10 
REMARK    6  A    between atoms: C6_11  and  C7_12 
REMARK    7  A    between atoms: C8_13  and  C9_14 
REMARK    8  A    between atoms: C15_21  and  N4_22 
REMARK    9  A    between atoms: N5_25  and  C18_26 
REMARK   10  A    between atoms: C18_26  and  N6_28 
REMARK   11  A    between atoms: N6_28  and  C19_30 
ROOT
HETATM    1  N3  UNL     1      12.997  21.932   5.196  1.00  0.00    -0.320 N 
HETATM    2  C6  UNL     1      14.042  21.226   5.553  1.00  0.00     0.097 A 
HETATM    3  C14 UNL     1      14.446  20.226   4.709  1.00  0.00     0.092 A 
HETATM    4  S1  UNL     1      13.315  20.339   3.441  1.00  0.00    -0.063 SA
HETATM    5  C15 UNL     1      12.393  21.642   4.047  1.00  0.00     0.149 A 
ENDROOT
BRANCH   5   6
HETATM    6  N4  UNL     1      11.258  22.234   3.398  1.00  0.00    -0.358 N 
HETATM    7  C16 UNL     1      10.008  21.518   3.378  1.00  0.00     0.145 C 
HETATM    8  C17 UNL     1       8.939  22.372   2.711  1.00  0.00     0.145 C 
HETATM    9  N5  UNL     1       8.992  23.697   3.291  1.00  0.00    -0.355 N 
HETATM   10  C24 UNL     1      10.253  24.397   3.386  1.00  0.00     0.145 C 
HETATM   11  C25 UNL     1      11.345  23.539   2.782  1.00  0.00     0.145 C 
BRANCH   9  12
HETATM   12  C18 UNL     1       7.825  24.349   3.782  1.00  0.00     0.170 C 
HETATM   13  S2  UNL     1       8.008  25.755   4.580  1.00  0.00    -0.041 SA
BRANCH  12  14
HETATM   14  N6  UNL     1       6.529  23.828   3.607  1.00  0.00    -0.362 N 
ATOM     15  H6  UNL     1       6.266  23.002   4.142  1.00  0.00     0.162 HD
BRANCH  14  16
HETATM   16  C19 UNL     1       5.550  24.400   2.711  1.00  0.00     0.083 C 
HETATM   17  C20 UNL     1       5.761  23.946   1.300  1.00  0.00     0.025 C 
HETATM   18  C21 UNL     1       4.397  23.620   0.784  1.00  0.00     0.002 C 
HETATM   19  C22 UNL     1       3.662  23.084   1.981  1.00  0.00     0.002 C 
HETATM   20  C23 UNL     1       4.140  23.999   3.110  1.00  0.00     0.025 C 
ENDBRANCH  14  16
ENDBRANCH  12  14
ENDBRANCH   9  12
ENDBRANCH   5   6
BRANCH   1  21
HETATM   21  C5  UNL     1      12.458  23.063   6.009  1.00  0.00     0.132 C 
BRANCH  21  22
HETATM   22  C4  UNL     1      11.353  22.604   6.873  1.00  0.00     0.022 C 
BRANCH  22  23
HETATM   23  C3  UNL     1      10.201  23.527   7.093  1.00  0.00     0.021 C 
BRANCH  23  24
HETATM   24  C2  UNL     1      10.341  24.575   8.124  1.00  0.00     0.124 C 
BRANCH  24  25
HETATM   25  N2  UNL     1      10.159  25.925   7.724  1.00  0.00    -0.345 N 
HETATM   26  C1  UNL     1       9.100  26.717   8.235  1.00  0.00     0.328 C 
HETATM   27  N1  UNL     1       8.911  28.057   7.845  1.00  0.00    -0.040 NA
HETATM   28  O1  UNL     1       8.309  26.208   9.059  1.00  0.00    -0.251 OA
ATOM     29  H2  UNL     1      10.807  26.337   7.052  1.00  0.00     0.163 HD
ENDBRANCH  24  25
ENDBRANCH  23  24
ENDBRANCH  22  23
ENDBRANCH  21  22
ENDBRANCH   1  21
BRANCH   2  30
HETATM   30  C7  UNL     1      14.798  21.445   6.802  1.00  0.00    -0.048 C 
HETATM   31  C8  UNL     1      15.421  21.614   7.828  1.00  0.00    -0.095 C 
BRANCH  31  32
HETATM   32  C9  UNL     1      16.156  21.804   9.078  1.00  0.00     0.065 C 
HETATM   33  C10 UNL     1      15.749  20.797  10.133  1.00  0.00     0.017 C 
HETATM   34  C11 UNL     1      16.562  19.565   9.889  1.00  0.00     0.001 C 
HETATM   35  C12 UNL     1      17.462  19.889   8.721  1.00  0.00     0.001 C 
HETATM   36  C13 UNL     1      17.611  21.398   8.850  1.00  0.00     0.017 C 
ENDBRANCH  31  32
ENDBRANCH   2  30
TORSDOF 11
ENDMDL
MODEL 4
REMARK VINA RESULT: -7.993369417      3.868      9.560
REMARK  11 active torsions:
REMARK  status: ('A' for Active; 'I' for Inactive)
REMARK       I    between atoms: C1_2  and  N2_4 
REMARK    1  A    between atoms: N2_4  and  C2_6 
REMARK    2  A    between atoms: C2_6  and  C3_7 
REMARK    3  A    between atoms: C3_7  and  C4_8 
REMARK    4  A    between atoms: C4_8  and  C5_9 
REMARK    5  A    between atoms: C5_9  and  N3_10 
REMARK    6  A    between atoms: C6_11  and  C7_12 
REMARK    7  A    between atoms: C8_13  and  C9_14 
REMARK    8  A    between atoms: C15_21  and  N4_22 
REMARK    9  A    between atoms: N5_25  and  C18_26 
REMARK   10  A    between atoms: C18_26  and  N6_28 
REMARK   11  A    between atoms: N6_28  and  C19_30 
ROOT
HETATM    1  N3  UNL     1       9.732  23.042   3.907  1.00  0.00    -0.320 N 
HETATM    2  C6  UNL     1      10.134  21.873   3.470  1.00  0.00     0.097 A 
HETATM    3  C14 UNL     1       9.288  21.186   2.640  1.00  0.00     0.092 A 
HETATM    4  S1  UNL     1       7.956  22.242   2.520  1.00  0.00    -0.063 SA
HETATM    5  C15 UNL     1       8.540  23.492   3.526  1.00  0.00     0.149 A 
ENDROOT
BRANCH   5   6
HETATM    6  N4  UNL     1       7.849  24.714   3.824  1.00  0.00    -0.358 N 
HETATM    7  C16 UNL     1       6.452  24.664   4.172  1.00  0.00     0.145 C 
HETATM    8  C17 UNL     1       5.961  26.061   4.523  1.00  0.00     0.145 C 
HETATM    9  N5  UNL     1       6.905  26.653   5.447  1.00  0.00    -0.355 N 
HETATM   10  C24 UNL     1       8.318  26.643   5.146  1.00  0.00     0.145 C 
HETATM   11  C25 UNL     1       8.535  25.987   3.799  1.00  0.00     0.145 C 
BRANCH   9  12
HETATM   12  C18 UNL     1       6.483  27.255   6.666  1.00  0.00     0.170 C 
HETATM   13  S2  UNL     1       4.887  27.327   6.976  1.00  0.00    -0.041 SA
BRANCH  12  14
HETATM   14  N6  UNL     1       7.384  27.789   7.606  1.00  0.00    -0.362 N 
ATOM     15  H6  UNL     1       7.752  28.726   7.442  1.00  0.00     0.162 HD
BRANCH  14  16
HETATM   16  C19 UNL     1       7.816  27.085   8.791  1.00  0.00     0.083 C 
HETATM   17  C20 UNL     1       7.707  25.602   8.624  1.00  0.00     0.025 C 
HETATM   18  C21 UNL     1       8.972  25.047   9.192  1.00  0.00     0.002 C 
HETATM   19  C22 UNL     1      10.012  26.084   8.872  1.00  0.00     0.002 C 
HETATM   20  C23 UNL     1       9.267  27.398   9.118  1.00  0.00     0.025 C 
ENDBRANCH  14  16
ENDBRANCH  12  14
ENDBRANCH   9  12
ENDBRANCH   5   6
BRANCH   1  21
HETATM   21  C5  UNL     1      10.558  23.906   4.802  1.00  0.00     0.132 C 
BRANCH  21  22
HETATM   22  C4  UNL     1      10.377  23.518   6.215  1.00  0.00     0.022 C 
BRANCH  22  23
HETATM   23  C3  UNL     1      11.594  23.377   7.068  1.00  0.00     0.021 C 
BRANCH  23  24
HETATM   24  C2  UNL     1      12.913  23.435   6.406  1.00  0.00     0.124 C 
BRANCH  24  25
HETATM   25  N2  UNL     1      14.065  23.513   7.233  1.00  0.00    -0.345 N 
HETATM   26  C1  UNL     1      14.674  22.352   7.772  1.00  0.00     0.328 C 
HETATM   27  N1  UNL     1      15.818  22.420   8.593  1.00  0.00    -0.040 NA
HETATM   28  O1  UNL     1      14.181  21.234   7.510  1.00  0.00    -0.251 OA
ATOM     29  H2  UNL     1      14.465  24.427   7.443  1.00  0.00     0.163 HD
ENDBRANCH  24  25
ENDBRANCH  23  24
ENDBRANCH  22  23
ENDBRANCH  21  22
ENDBRANCH   1  21
BRANCH   2  30
HETATM   30  C7  UNL     1      11.431  21.262   3.820  1.00  0.00    -0.048 C 
HETATM   31  C8  UNL     1      12.497  20.766   4.119  1.00  0.00    -0.095 C 
BRANCH  31  32
HETATM   32  C9  UNL     1      13.793  20.190   4.473  1.00  0.00     0.065 C 
HETATM   33  C10 UNL     1      14.092  18.937   3.675  1.00  0.00     0.017 C 
HETATM   34  C11 UNL     1      14.691  19.384   2.380  1.00  0.00     0.001 C 
HETATM   35  C12 UNL     1      14.770  20.890   2.460  1.00  0.00     0.001 C 
HETATM   36  C13 UNL     1      14.891  21.118   3.960  1.00  0.00     0.017 C 
ENDBRANCH  31  32
ENDBRANCH   2  30
TORSDOF 11
ENDMDL
MODEL 5
REMARK VINA RESULT: -7.955787727      3.888      9.533
REMARK  11 active torsions:
REMARK  status: ('A' for Active; 'I' for Inactive)
REMARK       I    between atoms: C1_2  and  N2_4 
REMARK    1  A    between atoms: N2_4  and  C2_6 
REMARK    2  A    between atoms: C2_6  and  C3_7 
REMARK    3  A    between atoms: C3_7  and  C4_8 
REMARK    4  A    between atoms: C4_8  and  C5_9 
REMARK    5  A    between atoms: C5_9  and  N3_10 
REMARK    6  A    between atoms: C6_11  and  C7_12 
REMARK    7  A    between atoms: C8_13  and  C9_14 
REMARK    8  A    between atoms: C15_21  and  N4_22 
REMARK    9  A    between atoms: N5_25  and  C18_26 
REMARK   10  A    between atoms: C18_26  and  N6_28 
REMARK   11  A    between atoms: N6_28  and  C19_30 
ROOT
HETATM    1  N3  UNL     1      11.988  22.441   5.197  1.00  0.00    -0.320 N 
HETATM    2  C6  UNL     1      12.790  22.806   6.167  1.00  0.00     0.097 A 
HETATM    3  C14 UNL     1      12.698  24.100   6.608  1.00  0.00     0.092 A 
HETATM    4  S1  UNL     1      11.468  24.737   5.617  1.00  0.00    -0.063 SA
HETATM    5  C15 UNL     1      11.138  23.335   4.699  1.00  0.00     0.149 A 
ENDROOT
BRANCH   5   6
HETATM    6  N4  UNL     1      10.150  23.229   3.664  1.00  0.00    -0.358 N 
HETATM    7  C16 UNL     1       9.248  22.106   3.666  1.00  0.00     0.145 C 
HETATM    8  C17 UNL     1       8.247  22.252   2.529  1.00  0.00     0.145 C 
HETATM    9  N5  UNL     1       7.711  23.596   2.567  1.00  0.00    -0.355 N 
HETATM   10  C24 UNL     1       8.605  24.730   2.641  1.00  0.00     0.145 C 
HETATM   11  C25 UNL     1      10.036  24.237   2.633  1.00  0.00     0.145 C 
BRANCH   9  12
HETATM   12  C18 UNL     1       6.311  23.847   2.534  1.00  0.00     0.170 C 
HETATM   13  S2  UNL     1       5.573  23.900   1.084  1.00  0.00    -0.041 SA
BRANCH  12  14
HETATM   14  N6  UNL     1       5.544  24.051   3.696  1.00  0.00    -0.362 N 
ATOM     15  H6  UNL     1       5.984  23.878   4.600  1.00  0.00     0.162 HD
BRANCH  14  16
HETATM   16  C19 UNL     1       4.168  24.493   3.682  1.00  0.00     0.083 C 
HETATM   17  C20 UNL     1       3.258  23.484   4.309  1.00  0.00     0.025 C 
HETATM   18  C21 UNL     1       2.331  24.274   5.175  1.00  0.00     0.002 C 
HETATM   19  C22 UNL     1       3.171  25.415   5.677  1.00  0.00     0.002 C 
HETATM   20  C23 UNL     1       4.000  25.794   4.449  1.00  0.00     0.025 C 
ENDBRANCH  14  16
ENDBRANCH  12  14
ENDBRANCH   9  12
ENDBRANCH   5   6
BRANCH   1  21
HETATM   21  C5  UNL     1      11.967  21.058   4.632  1.00  0.00     0.132 C 
BRANCH  21  22
HETATM   22  C4  UNL     1      13.065  20.875   3.661  1.00  0.00     0.022 C 
BRANCH  22  23
HETATM   23  C3  UNL     1      13.883  19.630   3.751  1.00  0.00     0.021 C 
BRANCH  23  24
HETATM   24  C2  UNL     1      15.348  19.773   3.864  1.00  0.00     0.124 C 
BRANCH  24  25
HETATM   25  N2  UNL     1      16.159  18.943   3.044  1.00  0.00    -0.345 N 
HETATM   26  C1  UNL     1      17.499  18.634   3.391  1.00  0.00     0.328 C 
HETATM   27  N1  UNL     1      18.310  17.812   2.584  1.00  0.00    -0.040 NA
HETATM   28  O1  UNL     1      17.973  19.107   4.446  1.00  0.00    -0.251 OA
ATOM     29  H2  UNL     1      15.768  18.559   2.184  1.00  0.00     0.163 HD
ENDBRANCH  24  25
ENDBRANCH  23  24
ENDBRANCH  22  23
ENDBRANCH  21  22
ENDBRANCH   1  21
BRANCH   2  30
HETATM   30  C7  UNL     1      13.778  21.912   6.802  1.00  0.00    -0.048 C 
HETATM   31  C8  UNL     1      14.598  21.181   7.316  1.00  0.00    -0.095 C 
BRANCH  31  32
HETATM   32  C9  UNL     1      15.585  20.284   7.916  1.00  0.00     0.065 C 
HETATM   33  C10 UNL     1      16.996  20.812   7.760  1.00  0.00     0.017 C 
HETATM   34  C11 UNL     1      17.229  21.761   8.893  1.00  0.00     0.001 C 
HETATM   35  C12 UNL     1      15.963  21.739   9.716  1.00  0.00     0.001 C 
HETATM   36  C13 UNL     1      15.431  20.341   9.433  1.00  0.00     0.017 C 
ENDBRANCH  31  32
ENDBRANCH   2  30
TORSDOF 11
ENDMDL
