MODEL 1
REMARK VINA RESULT: -9.443207494      0.000      0.000
REMARK  10 active torsions:
REMARK  status: ('A' for Active; 'I' for Inactive)
REMARK    1  A    between atoms: C4_4  and  S1_5 
REMARK    2  A    between atoms: S1_5  and  N1_8 
REMARK    3  A    between atoms: N1_8  and  C6_10 
REMARK    4  A    between atoms: C6_10  and  N2_11 
REMARK    5  A    between atoms: C11_16  and  C12_17 
REMARK    6  A    between atoms: C15_22  and  N4_23 
REMARK    7  A    between atoms: N4_23  and  C16_25 
REMARK    8  A    between atoms: C16_25  and  C17_26 
REMARK    9  A    between atoms: C17_26  and  N5_27 
REMARK   10  A    between atoms: N5_27  and  C18_29 
ROOT
HETATM    1  C12 UNL     1      13.473  22.544   8.070  1.00  0.00     0.117 A 
HETATM    2  N3  UNL     1      13.226  21.900   9.266  1.00  0.00    -0.351 N 
ATOM      3  H3  UNL     1      12.259  21.861   9.588  1.00  0.00     0.166 HD
HETATM    4  C13 UNL     1      14.148  21.329  10.024  1.00  0.00     0.093 A 
HETATM    5  C14 UNL     1      15.478  21.365   9.610  1.00  0.00     0.065 A 
HETATM    6  C15 UNL     1      15.761  21.995   8.428  1.00  0.00     0.103 A 
HETATM    7  N7  UNL     1      14.744  22.562   7.699  1.00  0.00    -0.328 N 
ATOM      8  H7  UNL     1      14.981  23.024   6.821  1.00  0.00     0.169 HD
ENDROOT
BRANCH   6   9
HETATM    9  N4  UNL     1      16.972  22.056   8.000  1.00  0.00    -0.375 N 
ATOM     10  H4  UNL     1      17.352  22.976   7.776  1.00  0.00     0.161 HD
BRANCH   9  11
HETATM   11  C16 UNL     1      17.819  20.924   7.819  1.00  0.00     0.141 C 
BRANCH  11  12
HETATM   12  C17 UNL     1      17.162  19.765   7.098  1.00  0.00     0.139 C 
BRANCH  12  13
HETATM   13  N5  UNL     1      17.414  19.850   5.674  1.00  0.00    -0.388 N 
ATOM     14  H5  UNL     1      18.377  19.829   5.338  1.00  0.00     0.159 HD
BRANCH  13  15
HETATM   15  C18 UNL     1      16.453  19.953   4.819  1.00  0.00     0.042 A 
HETATM   16  C19 UNL     1      15.407  20.840   4.962  1.00  0.00     0.047 A 
HETATM   17  C20 UNL     1      14.409  20.892   3.997  1.00  0.00     0.090 A 
HETATM   18  N6  UNL     1      14.407  20.108   2.907  1.00  0.00    -0.365 N 
HETATM   19  C21 UNL     1      15.421  19.239   2.754  1.00  0.00     0.046 A 
ATOM     20  H6  UNL     1      13.659  20.171   2.216  1.00  0.00     0.165 HD
HETATM   21  C22 UNL     1      15.433  18.429   1.641  1.00  0.00     0.054 A 
HETATM   22  C26 UNL     1      16.452  19.148   3.699  1.00  0.00     0.017 A 
HETATM   23  C23 UNL     1      16.471  17.538   1.484  1.00  0.00     0.036 A 
HETATM   24 CL1  UNL     1      16.491  16.508   0.072  1.00  0.00    -0.084 Cl
HETATM   25  C24 UNL     1      17.492  17.446   2.417  1.00  0.00     0.025 A 
HETATM   26  C25 UNL     1      17.482  18.257   3.531  1.00  0.00     0.018 A 
ENDBRANCH  13  15
ENDBRANCH  12  13
ENDBRANCH  11  12
ENDBRANCH   9  11
ENDBRANCH   6   9
BRANCH   1  27
HETATM   27  C11 UNL     1      12.342  23.176   7.404  1.00  0.00     0.014 A 
HETATM   28  C2  UNL     1      11.411  22.588   6.613  1.00  0.00    -0.047 A 
HETATM   29  C1  UNL     1      11.525  21.196   6.181  1.00  0.00     0.049 C 
HETATM   30  C3  UNL     1      10.316  23.305   6.104  1.00  0.00     0.032 A 
HETATM   31  C4  UNL     1      10.138  24.629   6.380  1.00  0.00     0.075 A 
HETATM   32  C9  UNL     1      11.084  25.225   7.180  1.00  0.00     0.026 A 
HETATM   33  C10 UNL     1      12.145  24.548   7.681  1.00  0.00     0.017 A 
BRANCH  31  34
HETATM   34  S1  UNL     1       8.788  25.559   5.766  1.00  0.00     0.248 S 
HETATM   35  O1  UNL     1       9.359  26.911   5.332  1.00  0.00    -0.205 OA
HETATM   36  O2  UNL     1       7.818  25.884   6.854  1.00  0.00    -0.205 OA
BRANCH  34  37
HETATM   37  N1  UNL     1       8.058  24.839   4.408  1.00  0.00    -0.172 NA
HETATM   38  C5  UNL     1       6.717  25.400   4.274  1.00  0.00     0.136 C 
BRANCH  37  39
HETATM   39  C6  UNL     1       8.743  25.013   3.168  1.00  0.00     0.163 C 
BRANCH  39  40
HETATM   40  N2  UNL     1       9.325  23.890   2.568  1.00  0.00    -0.389 N 
HETATM   41  C7  UNL     1       8.776  22.610   2.832  1.00  0.00     0.149 C 
HETATM   42  C8  UNL     1      10.726  23.877   2.402  1.00  0.00     0.149 C 
ENDBRANCH  39  40
ENDBRANCH  37  39
ENDBRANCH  34  37
ENDBRANCH  31  34
ENDBRANCH   1  27
TORSDOF 10
ENDMDL
MODEL 2
REMARK VINA RESULT: -9.434601675      1.431      2.252
REMARK  10 active torsions:
REMARK  status: ('A' for Active; 'I' for Inactive)
REMARK    1  A    between atoms: C4_4  and  S1_5 
REMARK    2  A    between atoms: S1_5  and  N1_8 
REMARK    3  A    between atoms: N1_8  and  C6_10 
REMARK    4  A    between atoms: C6_10  and  N2_11 
REMARK    5  A    between atoms: C11_16  and  C12_17 
REMARK    6  A    between atoms: C15_22  and  N4_23 
REMARK    7  A    between atoms: N4_23  and  C16_25 
REMARK    8  A    between atoms: C16_25  and  C17_26 
REMARK    9  A    between atoms: C17_26  and  N5_27 
REMARK   10  A    between atoms: N5_27  and  C18_29 
ROOT
HETATM    1  C12 UNL     1      13.684  22.314   7.871  1.00  0.00     0.117 A 
HETATM    2  N3  UNL     1      13.302  21.824   9.103  1.00  0.00    -0.351 N 
ATOM      3  H3  UNL     1      12.304  21.796   9.310  1.00  0.00     0.166 HD
HETATM    4  C13 UNL     1      14.134  21.387  10.036  1.00  0.00     0.093 A 
HETATM    5  C14 UNL     1      15.503  21.413   9.783  1.00  0.00     0.065 A 
HETATM    6  C15 UNL     1      15.919  21.892   8.569  1.00  0.00     0.103 A 
HETATM    7  N7  UNL     1      14.990  22.325   7.655  1.00  0.00    -0.328 N 
ATOM      8  H7  UNL     1      15.326  22.676   6.758  1.00  0.00     0.169 HD
ENDROOT
BRANCH   6   9
HETATM    9  N4  UNL     1      17.173  21.937   8.285  1.00  0.00    -0.375 N 
ATOM     10  H4  UNL     1      17.650  22.833   8.378  1.00  0.00     0.161 HD
BRANCH   9  11
HETATM   11  C16 UNL     1      17.939  20.815   7.850  1.00  0.00     0.141 C 
BRANCH  11  12
HETATM   12  C17 UNL     1      17.140  19.772   7.098  1.00  0.00     0.139 C 
BRANCH  12  13
HETATM   13  N5  UNL     1      17.427  19.845   5.679  1.00  0.00    -0.388 N 
ATOM     14  H5  UNL     1      18.397  19.803   5.366  1.00  0.00     0.159 HD
BRANCH  13  15
HETATM   15  C18 UNL     1      16.488  19.961   4.802  1.00  0.00     0.042 A 
HETATM   16  C19 UNL     1      15.462  20.876   4.912  1.00  0.00     0.047 A 
HETATM   17  C20 UNL     1      14.487  20.942   3.924  1.00  0.00     0.090 A 
HETATM   18  N6  UNL     1      14.489  20.146   2.844  1.00  0.00    -0.365 N 
HETATM   19  C21 UNL     1      15.484  19.249   2.723  1.00  0.00     0.046 A 
ATOM     20  H6  UNL     1      13.758  20.219   2.136  1.00  0.00     0.165 HD
HETATM   21  C22 UNL     1      15.499  18.426   1.619  1.00  0.00     0.054 A 
HETATM   22  C26 UNL     1      16.491  19.144   3.692  1.00  0.00     0.017 A 
HETATM   23  C23 UNL     1      16.518  17.508   1.496  1.00  0.00     0.036 A 
HETATM   24 CL1  UNL     1      16.542  16.461   0.096  1.00  0.00    -0.084 Cl
HETATM   25  C24 UNL     1      17.515  17.401   2.452  1.00  0.00     0.025 A 
HETATM   26  C25 UNL     1      17.501  18.225   3.557  1.00  0.00     0.018 A 
ENDBRANCH  13  15
ENDBRANCH  12  13
ENDBRANCH  11  12
ENDBRANCH   9  11
ENDBRANCH   6   9
BRANCH   1  27
HETATM   27  C11 UNL     1      12.633  22.817   6.996  1.00  0.00     0.014 A 
HETATM   28  C2  UNL     1      11.760  22.095   6.250  1.00  0.00    -0.047 A 
HETATM   29  C1  UNL     1      11.875  20.645   6.103  1.00  0.00     0.049 C 
HETATM   30  C3  UNL     1      10.733  22.711   5.515  1.00  0.00     0.032 A 
HETATM   31  C4  UNL     1      10.566  24.065   5.516  1.00  0.00     0.075 A 
HETATM   32  C9  UNL     1      11.454  24.795   6.271  1.00  0.00     0.026 A 
HETATM   33  C10 UNL     1      12.449  24.218   6.987  1.00  0.00     0.017 A 
BRANCH  31  34
HETATM   34  S1  UNL     1       9.301  24.872   4.615  1.00  0.00     0.248 S 
HETATM   35  O1  UNL     1       8.089  23.938   4.645  1.00  0.00    -0.205 OA
HETATM   36  O2  UNL     1       9.659  24.989   3.170  1.00  0.00    -0.205 OA
BRANCH  34  37
HETATM   37  N1  UNL     1       8.839  26.352   5.315  1.00  0.00    -0.172 NA
HETATM   38  C5  UNL     1       8.068  27.093   4.322  1.00  0.00     0.136 C 
BRANCH  37  39
HETATM   39  C6  UNL     1       8.060  26.259   6.508  1.00  0.00     0.163 C 
BRANCH  39  40
HETATM   40  N2  UNL     1       8.707  26.435   7.738  1.00  0.00    -0.389 N 
HETATM   41  C7  UNL     1       8.567  25.439   8.736  1.00  0.00     0.149 C 
HETATM   42  C8  UNL     1       8.795  27.744   8.259  1.00  0.00     0.149 C 
ENDBRANCH  39  40
ENDBRANCH  37  39
ENDBRANCH  34  37
ENDBRANCH  31  34
ENDBRANCH   1  27
TORSDOF 10
ENDMDL
MODEL 3
REMARK VINA RESULT: -9.361904312      2.436      3.741
REMARK  10 active torsions:
REMARK  status: ('A' for Active; 'I' for Inactive)
REMARK    1  A    between atoms: C4_4  and  S1_5 
REMARK    2  A    between atoms: S1_5  and  N1_8 
REMARK    3  A    between atoms: N1_8  and  C6_10 
REMARK    4  A    between atoms: C6_10  and  N2_11 
REMARK    5  A    between atoms: C11_16  and  C12_17 
REMARK    6  A    between atoms: C15_22  and  N4_23 
REMARK    7  A    between atoms: N4_23  and  C16_25 
REMARK    8  A    between atoms: C16_25  and  C17_26 
REMARK    9  A    between atoms: C17_26  and  N5_27 
REMARK   10  A    between atoms: N5_27  and  C18_29 
ROOT
HETATM    1  C12 UNL     1      15.246  21.953   7.543  1.00  0.00     0.117 A 
HETATM    2  N3  UNL     1      15.928  22.591   8.558  1.00  0.00    -0.351 N 
ATOM      3  H3  UNL     1      15.549  23.476   8.897  1.00  0.00     0.166 HD
HETATM    4  C13 UNL     1      17.036  22.143   9.126  1.00  0.00     0.093 A 
HETATM    5  C14 UNL     1      17.578  20.937   8.686  1.00  0.00     0.065 A 
HETATM    6  C15 UNL     1      16.927  20.275   7.679  1.00  0.00     0.103 A 
HETATM    7  N7  UNL     1      15.780  20.810   7.144  1.00  0.00    -0.328 N 
ATOM      8  H7  UNL     1      15.314  20.295   6.397  1.00  0.00     0.169 HD
ENDROOT
BRANCH   6   9
HETATM    9  N4  UNL     1      17.385  19.158   7.236  1.00  0.00    -0.375 N 
ATOM     10  H4  UNL     1      17.191  18.315   7.776  1.00  0.00     0.161 HD
BRANCH   9  11
HETATM   11  C16 UNL     1      18.147  19.020   6.038  1.00  0.00     0.141 C 
BRANCH  11  12
HETATM   12  C17 UNL     1      18.176  17.613   5.479  1.00  0.00     0.139 C 
BRANCH  12  13
HETATM   13  N5  UNL     1      16.893  17.278   4.894  1.00  0.00    -0.388 N 
ATOM     14  H5  UNL     1      16.266  16.651   5.398  1.00  0.00     0.159 HD
BRANCH  13  15
HETATM   15  C18 UNL     1      16.524  17.752   3.751  1.00  0.00     0.042 A 
HETATM   16  C19 UNL     1      17.193  17.492   2.575  1.00  0.00     0.047 A 
HETATM   17  C20 UNL     1      16.732  18.039   1.383  1.00  0.00     0.090 A 
HETATM   18  N6  UNL     1      15.646  18.824   1.313  1.00  0.00    -0.365 N 
HETATM   19  C21 UNL     1      14.983  19.086   2.453  1.00  0.00     0.046 A 
ATOM     20  H6  UNL     1      15.333  19.210   0.423  1.00  0.00     0.165 HD
HETATM   21  C22 UNL     1      13.867  19.890   2.397  1.00  0.00     0.054 A 
HETATM   22  C26 UNL     1      15.408  18.558   3.680  1.00  0.00     0.017 A 
HETATM   23  C23 UNL     1      13.188  20.158   3.565  1.00  0.00     0.036 A 
HETATM   24 CL1  UNL     1      11.769  21.178   3.499  1.00  0.00    -0.084 Cl
HETATM   25  C24 UNL     1      13.605  19.638   4.780  1.00  0.00     0.025 A 
HETATM   26  C25 UNL     1      14.723  18.833   4.837  1.00  0.00     0.018 A 
ENDBRANCH  13  15
ENDBRANCH  12  13
ENDBRANCH  11  12
ENDBRANCH   9  11
ENDBRANCH   6   9
BRANCH   1  27
HETATM   27  C11 UNL     1      14.080  22.631   6.990  1.00  0.00     0.014 A 
HETATM   28  C2  UNL     1      13.937  23.152   5.746  1.00  0.00    -0.047 A 
HETATM   29  C1  UNL     1      15.053  23.240   4.806  1.00  0.00     0.049 C 
HETATM   30  C3  UNL     1      12.720  23.704   5.314  1.00  0.00     0.032 A 
HETATM   31  C4  UNL     1      11.624  23.744   6.125  1.00  0.00     0.075 A 
HETATM   32  C9  UNL     1      11.772  23.217   7.387  1.00  0.00     0.026 A 
HETATM   33  C10 UNL     1      12.938  22.680   7.820  1.00  0.00     0.017 A 
BRANCH  31  34
HETATM   34  S1  UNL     1      10.090  24.422   5.626  1.00  0.00     0.248 S 
HETATM   35  O1  UNL     1       9.039  23.337   5.872  1.00  0.00    -0.205 OA
HETATM   36  O2  UNL     1      10.059  24.657   4.151  1.00  0.00    -0.205 OA
BRANCH  34  37
HETATM   37  N1  UNL     1       9.651  25.792   6.534  1.00  0.00    -0.172 NA
HETATM   38  C5  UNL     1       8.764  26.607   5.710  1.00  0.00     0.136 C 
BRANCH  37  39
HETATM   39  C6  UNL     1       8.995  25.531   7.775  1.00  0.00     0.163 C 
BRANCH  39  40
HETATM   40  N2  UNL     1       9.407  26.246   8.906  1.00  0.00    -0.389 N 
HETATM   41  C7  UNL     1       8.737  27.450   9.238  1.00  0.00     0.149 C 
HETATM   42  C8  UNL     1      10.784  26.267   9.213  1.00  0.00     0.149 C 
ENDBRANCH  39  40
ENDBRANCH  37  39
ENDBRANCH  34  37
ENDBRANCH  31  34
ENDBRANCH   1  27
TORSDOF 10
ENDMDL
MODEL 4
REMARK VINA RESULT: -9.337484250      1.508      2.419
REMARK  10 active torsions:
REMARK  status: ('A' for Active; 'I' for Inactive)
REMARK    1  A    between atoms: C4_4  and  S1_5 
REMARK    2  A    between atoms: S1_5  and  N1_8 
REMARK    3  A    between atoms: N1_8  and  C6_10 
REMARK    4  A    between atoms: C6_10  and  N2_11 
REMARK    5  A    between atoms: C11_16  and  C12_17 
REMARK    6  A    between atoms: C15_22  and  N4_23 
REMARK    7  A    between atoms: N4_23  and  C16_25 
REMARK    8  A    between atoms: C16_25  and  C17_26 
REMARK    9  A    between atoms: C17_26  and  N5_27 
REMARK   10  A    between atoms: N5_27  and  C18_29 
ROOT
HETATM    1  C12 UNL     1      13.455  22.258   7.657  1.00  0.00     0.117 A 
HETATM    2  N3  UNL     1      13.057  21.866   8.919  1.00  0.00    -0.351 N 
ATOM      3  H3  UNL     1      12.056  21.839   9.109  1.00  0.00     0.166 HD
HETATM    4  C13 UNL     1      13.876  21.523   9.900  1.00  0.00     0.093 A 
HETATM    5  C14 UNL     1      15.250  21.550   9.672  1.00  0.00     0.065 A 
HETATM    6  C15 UNL     1      15.683  21.933   8.430  1.00  0.00     0.103 A 
HETATM    7  N7  UNL     1      14.765  22.273   7.466  1.00  0.00    -0.328 N 
ATOM      8  H7  UNL     1      15.114  22.554   6.549  1.00  0.00     0.169 HD
ENDROOT
BRANCH   6   9
HETATM    9  N4  UNL     1      16.941  21.975   8.167  1.00  0.00    -0.375 N 
ATOM     10  H4  UNL     1      17.399  22.886   8.175  1.00  0.00     0.161 HD
BRANCH   9  11
HETATM   11  C16 UNL     1      17.737  20.832   7.864  1.00  0.00     0.141 C 
BRANCH  11  12
HETATM   12  C17 UNL     1      17.014  19.763   7.073  1.00  0.00     0.139 C 
BRANCH  12  13
HETATM   13  N5  UNL     1      17.349  19.863   5.666  1.00  0.00    -0.388 N 
ATOM     14  H5  UNL     1      18.330  19.841   5.387  1.00  0.00     0.159 HD
BRANCH  13  15
HETATM   15  C18 UNL     1      16.439  19.981   4.758  1.00  0.00     0.042 A 
HETATM   16  C19 UNL     1      15.423  20.910   4.825  1.00  0.00     0.047 A 
HETATM   17  C20 UNL     1      14.481  20.976   3.805  1.00  0.00     0.090 A 
HETATM   18  N6  UNL     1      14.506  20.166   2.736  1.00  0.00    -0.365 N 
HETATM   19  C21 UNL     1      15.492  19.255   2.658  1.00  0.00     0.046 A 
ATOM     20  H6  UNL     1      13.799  20.240   2.004  1.00  0.00     0.165 HD
HETATM   21  C22 UNL     1      15.531  18.418   1.566  1.00  0.00     0.054 A 
HETATM   22  C26 UNL     1      16.466  19.149   3.659  1.00  0.00     0.017 A 
HETATM   23  C23 UNL     1      16.541  17.484   1.486  1.00  0.00     0.036 A 
HETATM   24 CL1  UNL     1      16.595  16.419   0.101  1.00  0.00    -0.084 Cl
HETATM   25  C24 UNL     1      17.506  17.377   2.475  1.00  0.00     0.025 A 
HETATM   26  C25 UNL     1      17.468  18.215   3.568  1.00  0.00     0.018 A 
ENDBRANCH  13  15
ENDBRANCH  12  13
ENDBRANCH  11  12
ENDBRANCH   9  11
ENDBRANCH   6   9
BRANCH   1  27
HETATM   27  C11 UNL     1      12.414  22.668   6.724  1.00  0.00     0.014 A 
HETATM   28  C2  UNL     1      11.899  23.911   6.551  1.00  0.00    -0.047 A 
HETATM   29  C1  UNL     1      12.234  25.023   7.439  1.00  0.00     0.049 C 
HETATM   30  C3  UNL     1      10.955  24.185   5.547  1.00  0.00     0.032 A 
HETATM   31  C4  UNL     1      10.510  23.213   4.700  1.00  0.00     0.075 A 
HETATM   32  C9  UNL     1      11.032  21.953   4.878  1.00  0.00     0.026 A 
HETATM   33  C10 UNL     1      11.944  21.671   5.840  1.00  0.00     0.017 A 
BRANCH  31  34
HETATM   34  S1  UNL     1       9.336  23.511   3.437  1.00  0.00     0.248 S 
HETATM   35  O1  UNL     1       8.180  22.540   3.686  1.00  0.00    -0.205 OA
HETATM   36  O2  UNL     1       9.876  23.129   2.097  1.00  0.00    -0.205 OA
BRANCH  34  37
HETATM   37  N1  UNL     1       8.711  25.093   3.482  1.00  0.00    -0.172 NA
HETATM   38  C5  UNL     1       8.473  25.518   2.106  1.00  0.00     0.136 C 
BRANCH  37  39
HETATM   39  C6  UNL     1       7.500  25.261   4.219  1.00  0.00     0.163 C 
BRANCH  39  40
HETATM   40  N2  UNL     1       7.358  26.409   5.009  1.00  0.00    -0.389 N 
HETATM   41  C7  UNL     1       8.417  26.781   5.875  1.00  0.00     0.149 C 
HETATM   42  C8  UNL     1       6.079  26.704   5.527  1.00  0.00     0.149 C 
ENDBRANCH  39  40
ENDBRANCH  37  39
ENDBRANCH  34  37
ENDBRANCH  31  34
ENDBRANCH   1  27
TORSDOF 10
ENDMDL
MODEL 5
REMARK VINA RESULT: -9.193784783      2.040      3.131
REMARK  10 active torsions:
REMARK  status: ('A' for Active; 'I' for Inactive)
REMARK    1  A    between atoms: C4_4  and  S1_5 
REMARK    2  A    between atoms: S1_5  and  N1_8 
REMARK    3  A    between atoms: N1_8  and  C6_10 
REMARK    4  A    between atoms: C6_10  and  N2_11 
REMARK    5  A    between atoms: C11_16  and  C12_17 
REMARK    6  A    between atoms: C15_22  and  N4_23 
REMARK    7  A    between atoms: N4_23  and  C16_25 
REMARK    8  A    between atoms: C16_25  and  C17_26 
REMARK    9  A    between atoms: C17_26  and  N5_27 
REMARK   10  A    between atoms: N5_27  and  C18_29 
ROOT
HETATM    1  C12 UNL     1      15.409  21.808   7.678  1.00  0.00     0.117 A 
HETATM    2  N3  UNL     1      16.256  22.450   8.558  1.00  0.00    -0.351 N 
ATOM      3  H3  UNL     1      15.965  23.362   8.911  1.00  0.00     0.166 HD
HETATM    4  C13 UNL     1      17.416  21.973   8.979  1.00  0.00     0.093 A 
HETATM    5  C14 UNL     1      17.841  20.730   8.516  1.00  0.00     0.065 A 
HETATM    6  C15 UNL     1      17.026  20.062   7.641  1.00  0.00     0.103 A 
HETATM    7  N7  UNL     1      15.836  20.629   7.254  1.00  0.00    -0.328 N 
ATOM      8  H7  UNL     1      15.246  20.110   6.603  1.00  0.00     0.169 HD
ENDROOT
BRANCH   6   9
HETATM    9  N4  UNL     1      17.371  18.911   7.182  1.00  0.00    -0.375 N 
ATOM     10  H4  UNL     1      17.046  18.083   7.680  1.00  0.00     0.161 HD
BRANCH   9  11
HETATM   11  C16 UNL     1      18.180  18.717   6.024  1.00  0.00     0.141 C 
BRANCH  11  12
HETATM   12  C17 UNL     1      18.164  17.302   5.485  1.00  0.00     0.139 C 
BRANCH  12  13
HETATM   13  N5  UNL     1      16.892  17.020   4.850  1.00  0.00    -0.388 N 
ATOM     14  H5  UNL     1      16.229  16.404   5.319  1.00  0.00     0.159 HD
BRANCH  13  15
HETATM   15  C18 UNL     1      16.578  17.528   3.705  1.00  0.00     0.042 A 
HETATM   16  C19 UNL     1      17.254  17.237   2.540  1.00  0.00     0.047 A 
HETATM   17  C20 UNL     1      16.854  17.824   1.345  1.00  0.00     0.090 A 
HETATM   18  N6  UNL     1      15.823  18.679   1.262  1.00  0.00    -0.365 N 
HETATM   19  C21 UNL     1      15.154  18.972   2.391  1.00  0.00     0.046 A 
ATOM     20  H6  UNL     1      15.554  19.093   0.370  1.00  0.00     0.165 HD
HETATM   21  C22 UNL     1      14.094  19.847   2.322  1.00  0.00     0.054 A 
HETATM   22  C26 UNL     1      15.518  18.406   3.621  1.00  0.00     0.017 A 
HETATM   23  C23 UNL     1      13.410  20.147   3.479  1.00  0.00     0.036 A 
HETATM   24 CL1  UNL     1      12.061  21.257   3.395  1.00  0.00    -0.084 Cl
HETATM   25  C24 UNL     1      13.766  19.589   4.696  1.00  0.00     0.025 A 
HETATM   26  C25 UNL     1      14.828  18.713   4.766  1.00  0.00     0.018 A 
ENDBRANCH  13  15
ENDBRANCH  12  13
ENDBRANCH  11  12
ENDBRANCH   9  11
ENDBRANCH   6   9
BRANCH   1  27
HETATM   27  C11 UNL     1      14.203  22.518   7.271  1.00  0.00     0.014 A 
HETATM   28  C2  UNL     1      13.935  23.069   6.062  1.00  0.00    -0.047 A 
HETATM   29  C1  UNL     1      14.943  23.160   5.007  1.00  0.00     0.049 C 
HETATM   30  C3  UNL     1      12.688  23.651   5.777  1.00  0.00     0.032 A 
HETATM   31  C4  UNL     1      11.689  23.690   6.704  1.00  0.00     0.075 A 
HETATM   32  C9  UNL     1      11.964  23.132   7.931  1.00  0.00     0.026 A 
HETATM   33  C10 UNL     1      13.159  22.566   8.222  1.00  0.00     0.017 A 
BRANCH  31  34
HETATM   34  S1  UNL     1      10.122  24.404   6.390  1.00  0.00     0.248 S 
HETATM   35  O1  UNL     1      10.251  25.891   6.728  1.00  0.00    -0.205 OA
HETATM   36  O2  UNL     1       9.092  23.883   7.338  1.00  0.00    -0.205 OA
BRANCH  34  37
HETATM   37  N1  UNL     1       9.658  24.276   4.758  1.00  0.00    -0.172 NA
HETATM   38  C5  UNL     1       9.463  22.861   4.460  1.00  0.00     0.136 C 
BRANCH  37  39
HETATM   39  C6  UNL     1       8.470  24.979   4.394  1.00  0.00     0.163 C 
BRANCH  39  40
HETATM   40  N2  UNL     1       7.869  24.675   3.165  1.00  0.00    -0.389 N 
HETATM   41  C7  UNL     1       8.351  25.306   1.991  1.00  0.00     0.149 C 
HETATM   42  C8  UNL     1       6.477  24.442   3.147  1.00  0.00     0.149 C 
ENDBRANCH  39  40
ENDBRANCH  37  39
ENDBRANCH  34  37
ENDBRANCH  31  34
ENDBRANCH   1  27
TORSDOF 10
ENDMDL
