MODEL 1
REMARK VINA RESULT: -8.796716864      0.000      0.000
REMARK  4 active torsions:
REMARK  status: ('A' for Active; 'I' for Inactive)
REMARK    1  A    between atoms: C5_5  and  C6_6 
REMARK    2  A    between atoms: C7_7  and  C8_8 
REMARK    3  A    between atoms: C11_18  and  N3_19 
REMARK    4  A    between atoms: N3_19  and  C12_21 
ROOT
HETATM    1  C1  UNL     1      -3.044  -6.159  21.892  1.00  0.00     0.050 C 
HETATM    2  C2  UNL     1      -4.361  -6.051  21.169  1.00  0.00    -0.035 A 
HETATM    3  C3  UNL     1      -5.216  -7.131  21.168  1.00  0.00     0.026 A 
HETATM    4  C4  UNL     1      -6.420  -7.041  20.511  1.00  0.00     0.029 A 
HETATM    5  C5  UNL     1      -7.461  -7.918  20.332  1.00  0.00     0.114 A 
HETATM    6  N1  UNL     1      -8.392  -7.257  19.583  1.00  0.00    -0.291 N 
ATOM      7  H1  UNL     1      -9.286  -7.640  19.277  1.00  0.00     0.188 HD
HETATM    8  N2  UNL     1      -7.943  -6.034  19.316  1.00  0.00    -0.299 N 
ATOM      9  H2  UNL     1      -8.444  -5.331  18.772  1.00  0.00     0.187 HD
HETATM   10  C9  UNL     1      -6.736  -5.865  19.868  1.00  0.00     0.063 A 
HETATM   11  C10 UNL     1      -5.871  -4.778  19.872  1.00  0.00     0.061 A 
HETATM   12  C11 UNL     1      -4.660  -4.849  20.526  1.00  0.00     0.036 A 
ENDROOT
BRANCH  12  13
HETATM   13  N3  UNL     1      -3.755  -3.770  20.558  1.00  0.00    -0.385 N 
ATOM     14  H3  UNL     1      -3.011  -3.767  19.859  1.00  0.00     0.160 HD
BRANCH  13  15
HETATM   15  C12 UNL     1      -3.783  -2.681  21.479  1.00  0.00     0.081 C 
HETATM   16  C13 UNL     1      -2.437  -2.314  22.057  1.00  0.00     0.025 C 
HETATM   17  C14 UNL     1      -2.395  -2.442  23.560  1.00  0.00     0.002 C 
HETATM   18  C15 UNL     1      -3.439  -1.526  24.160  1.00  0.00     0.000 C 
HETATM   19  C16 UNL     1      -4.787  -1.802  23.581  1.00  0.00     0.002 C 
HETATM   20  C17 UNL     1      -4.707  -2.953  22.635  1.00  0.00     0.025 C 
ENDBRANCH  13  15
ENDBRANCH  12  13
BRANCH   5  21
HETATM   21  C6  UNL     1      -7.523  -9.256  20.844  1.00  0.00    -0.038 C 
HETATM   22  C7  UNL     1      -7.567 -10.381  21.295  1.00  0.00     0.015 C 
BRANCH  22  23
HETATM   23  C8  UNL     1      -7.632 -11.743  21.840  1.00  0.00     0.459 C 
HETATM   24  F1  UNL     1      -8.685 -11.807  22.759  1.00  0.00    -0.159 F 
HETATM   25  F2  UNL     1      -6.469 -12.060  22.544  1.00  0.00    -0.159 F 
HETATM   26  F3  UNL     1      -7.772 -12.679  20.852  1.00  0.00    -0.159 F 
ENDBRANCH  22  23
ENDBRANCH   5  21
TORSDOF 4
ENDMDL
MODEL 2
REMARK VINA RESULT: -8.184139178      0.560      1.049
REMARK  4 active torsions:
REMARK  status: ('A' for Active; 'I' for Inactive)
REMARK    1  A    between atoms: C5_5  and  C6_6 
REMARK    2  A    between atoms: C7_7  and  C8_8 
REMARK    3  A    between atoms: C11_18  and  N3_19 
REMARK    4  A    between atoms: N3_19  and  C12_21 
ROOT
HETATM    1  C1  UNL     1      -3.062  -6.220  21.966  1.00  0.00     0.050 C 
HETATM    2  C2  UNL     1      -4.382  -6.108  21.248  1.00  0.00    -0.035 A 
HETATM    3  C3  UNL     1      -5.234  -7.190  21.238  1.00  0.00     0.026 A 
HETATM    4  C4  UNL     1      -6.440  -7.096  20.585  1.00  0.00     0.029 A 
HETATM    5  C5  UNL     1      -7.480  -7.974  20.399  1.00  0.00     0.114 A 
HETATM    6  N1  UNL     1      -8.414  -7.308  19.660  1.00  0.00    -0.291 N 
ATOM      7  H1  UNL     1      -9.308  -7.689  19.352  1.00  0.00     0.188 HD
HETATM    8  N2  UNL     1      -7.969  -6.080  19.405  1.00  0.00    -0.299 N 
ATOM      9  H2  UNL     1      -8.473  -5.373  18.870  1.00  0.00     0.187 HD
HETATM   10  C9  UNL     1      -6.761  -5.914  19.956  1.00  0.00     0.063 A 
HETATM   11  C10 UNL     1      -5.899  -4.825  19.969  1.00  0.00     0.061 A 
HETATM   12  C11 UNL     1      -4.686  -4.900  20.618  1.00  0.00     0.036 A 
ENDROOT
BRANCH  12  13
HETATM   13  N3  UNL     1      -3.783  -3.819  20.659  1.00  0.00    -0.385 N 
ATOM     14  H3  UNL     1      -3.066  -3.785  19.933  1.00  0.00     0.160 HD
BRANCH  13  15
HETATM   15  C12 UNL     1      -3.780  -2.767  21.623  1.00  0.00     0.081 C 
HETATM   16  C13 UNL     1      -3.218  -3.154  22.971  1.00  0.00     0.025 C 
HETATM   17  C14 UNL     1      -4.219  -2.993  24.087  1.00  0.00     0.002 C 
HETATM   18  C15 UNL     1      -4.656  -1.546  24.150  1.00  0.00     0.000 C 
HETATM   19  C16 UNL     1      -5.169  -1.087  22.825  1.00  0.00     0.002 C 
HETATM   20  C17 UNL     1      -5.163  -2.222  21.857  1.00  0.00     0.025 C 
ENDBRANCH  13  15
ENDBRANCH  12  13
BRANCH   5  21
HETATM   21  C6  UNL     1      -7.537  -9.318  20.897  1.00  0.00    -0.038 C 
HETATM   22  C7  UNL     1      -7.580 -10.461  21.299  1.00  0.00     0.015 C 
BRANCH  22  23
HETATM   23  C8  UNL     1      -7.623 -11.843  21.795  1.00  0.00     0.459 C 
HETATM   24  F1  UNL     1      -6.417 -12.121  22.448  1.00  0.00    -0.159 F 
HETATM   25  F2  UNL     1      -7.725 -12.753  20.741  1.00  0.00    -0.159 F 
HETATM   26  F3  UNL     1      -8.697 -12.055  22.615  1.00  0.00    -0.159 F 
ENDBRANCH  22  23
ENDBRANCH   5  21
TORSDOF 4
ENDMDL
MODEL 3
REMARK VINA RESULT: -8.149620484      1.172      1.832
REMARK  4 active torsions:
REMARK  status: ('A' for Active; 'I' for Inactive)
REMARK    1  A    between atoms: C5_5  and  C6_6 
REMARK    2  A    between atoms: C7_7  and  C8_8 
REMARK    3  A    between atoms: C11_18  and  N3_19 
REMARK    4  A    between atoms: N3_19  and  C12_21 
ROOT
HETATM    1  C1  UNL     1      -4.013  -5.419  23.099  1.00  0.00     0.050 C 
HETATM    2  C2  UNL     1      -5.071  -5.451  22.029  1.00  0.00    -0.035 A 
HETATM    3  C3  UNL     1      -5.732  -6.633  21.774  1.00  0.00     0.026 A 
HETATM    4  C4  UNL     1      -6.700  -6.671  20.799  1.00  0.00     0.029 A 
HETATM    5  C5  UNL     1      -7.515  -7.669  20.321  1.00  0.00     0.114 A 
HETATM    6  N1  UNL     1      -8.277  -7.101  19.341  1.00  0.00    -0.291 N 
ATOM      7  H1  UNL     1      -8.985  -7.583  18.787  1.00  0.00     0.188 HD
HETATM    8  N2  UNL     1      -7.946  -5.818  19.223  1.00  0.00    -0.299 N 
ATOM      9  H2  UNL     1      -8.364  -5.162  18.562  1.00  0.00     0.187 HD
HETATM   10  C9  UNL     1      -6.981  -5.518  20.100  1.00  0.00     0.063 A 
HETATM   11  C10 UNL     1      -6.313  -4.329  20.361  1.00  0.00     0.061 A 
HETATM   12  C11 UNL     1      -5.340  -4.271  21.335  1.00  0.00     0.036 A 
ENDROOT
BRANCH  12  13
HETATM   13  N3  UNL     1      -4.640  -3.085  21.633  1.00  0.00    -0.385 N 
ATOM     14  H3  UNL     1      -5.100  -2.417  22.251  1.00  0.00     0.160 HD
BRANCH  13  15
HETATM   15  C12 UNL     1      -3.344  -2.734  21.149  1.00  0.00     0.081 C 
HETATM   16  C13 UNL     1      -2.784  -3.682  20.115  1.00  0.00     0.025 C 
HETATM   17  C14 UNL     1      -1.488  -4.319  20.551  1.00  0.00     0.002 C 
HETATM   18  C15 UNL     1      -0.467  -3.232  20.806  1.00  0.00     0.000 C 
HETATM   19  C16 UNL     1      -0.990  -2.228  21.780  1.00  0.00     0.002 C 
HETATM   20  C17 UNL     1      -2.338  -2.644  22.264  1.00  0.00     0.025 C 
ENDBRANCH  13  15
ENDBRANCH  12  13
BRANCH   5  21
HETATM   21  C6  UNL     1      -7.533  -9.025  20.785  1.00  0.00    -0.038 C 
HETATM   22  C7  UNL     1      -7.547 -10.166  21.197  1.00  0.00     0.015 C 
BRANCH  22  23
HETATM   23  C8  UNL     1      -7.575 -11.548  21.690  1.00  0.00     0.459 C 
HETATM   24  F1  UNL     1      -8.616 -11.672  22.617  1.00  0.00    -0.159 F 
HETATM   25  F2  UNL     1      -6.397 -11.865  22.370  1.00  0.00    -0.159 F 
HETATM   26  F3  UNL     1      -7.705 -12.450  20.669  1.00  0.00    -0.159 F 
ENDBRANCH  22  23
ENDBRANCH   5  21
TORSDOF 4
ENDMDL
MODEL 4
REMARK VINA RESULT: -7.888032104      1.515      2.155
REMARK  4 active torsions:
REMARK  status: ('A' for Active; 'I' for Inactive)
REMARK    1  A    between atoms: C5_5  and  C6_6 
REMARK    2  A    between atoms: C7_7  and  C8_8 
REMARK    3  A    between atoms: C11_18  and  N3_19 
REMARK    4  A    between atoms: N3_19  and  C12_21 
ROOT
HETATM    1  C1  UNL     1      -3.194  -6.284  22.333  1.00  0.00     0.050 C 
HETATM    2  C2  UNL     1      -4.459  -6.165  21.524  1.00  0.00    -0.035 A 
HETATM    3  C3  UNL     1      -5.297  -7.254  21.425  1.00  0.00     0.026 A 
HETATM    4  C4  UNL     1      -6.453  -7.154  20.689  1.00  0.00     0.029 A 
HETATM    5  C5  UNL     1      -7.468  -8.036  20.406  1.00  0.00     0.114 A 
HETATM    6  N1  UNL     1      -8.353  -7.359  19.618  1.00  0.00    -0.291 N 
ATOM      7  H1  UNL     1      -9.219  -7.740  19.237  1.00  0.00     0.188 HD
HETATM    8  N2  UNL     1      -7.904  -6.121  19.427  1.00  0.00    -0.299 N 
ATOM      9  H2  UNL     1      -8.376  -5.405  18.875  1.00  0.00     0.187 HD
HETATM   10  C9  UNL     1      -6.741  -5.959  20.068  1.00  0.00     0.063 A 
HETATM   11  C10 UNL     1      -5.893  -4.863  20.171  1.00  0.00     0.061 A 
HETATM   12  C11 UNL     1      -4.730  -4.945  20.904  1.00  0.00     0.036 A 
ENDROOT
BRANCH  12  13
HETATM   13  N3  UNL     1      -3.843  -3.857  21.037  1.00  0.00    -0.385 N 
ATOM     14  H3  UNL     1      -4.129  -3.098  21.657  1.00  0.00     0.160 HD
BRANCH  13  15
HETATM   15  C12 UNL     1      -2.582  -3.721  20.384  1.00  0.00     0.081 C 
HETATM   16  C13 UNL     1      -1.491  -3.130  21.245  1.00  0.00     0.025 C 
HETATM   17  C14 UNL     1      -0.936  -1.846  20.681  1.00  0.00     0.002 C 
HETATM   18  C15 UNL     1      -0.365  -2.119  19.306  1.00  0.00     0.000 C 
HETATM   19  C16 UNL     1      -1.385  -2.760  18.424  1.00  0.00     0.002 C 
HETATM   20  C17 UNL     1      -2.685  -2.870  19.147  1.00  0.00     0.025 C 
ENDBRANCH  13  15
ENDBRANCH  12  13
BRANCH   5  21
HETATM   21  C6  UNL     1      -7.546  -9.392  20.865  1.00  0.00    -0.038 C 
HETATM   22  C7  UNL     1      -7.613 -10.532  21.274  1.00  0.00     0.015 C 
BRANCH  22  23
HETATM   23  C8  UNL     1      -7.705 -11.914  21.761  1.00  0.00     0.459 C 
HETATM   24  F1  UNL     1      -8.794 -12.009  22.634  1.00  0.00    -0.159 F 
HETATM   25  F2  UNL     1      -6.572 -12.265  22.498  1.00  0.00    -0.159 F 
HETATM   26  F3  UNL     1      -7.808 -12.810  20.732  1.00  0.00    -0.159 F 
ENDBRANCH  22  23
ENDBRANCH   5  21
TORSDOF 4
ENDMDL
MODEL 5
REMARK VINA RESULT: -7.560538031      1.403      2.380
REMARK  4 active torsions:
REMARK  status: ('A' for Active; 'I' for Inactive)
REMARK    1  A    between atoms: C5_5  and  C6_6 
REMARK    2  A    between atoms: C7_7  and  C8_8 
REMARK    3  A    between atoms: C11_18  and  N3_19 
REMARK    4  A    between atoms: N3_19  and  C12_21 
ROOT
HETATM    1  C1  UNL     1      -3.536  -5.588  22.687  1.00  0.00     0.050 C 
HETATM    2  C2  UNL     1      -4.760  -5.521  21.812  1.00  0.00    -0.035 A 
HETATM    3  C3  UNL     1      -5.505  -6.662  21.612  1.00  0.00     0.026 A 
HETATM    4  C4  UNL     1      -6.623  -6.609  20.815  1.00  0.00     0.029 A 
HETATM    5  C5  UNL     1      -7.550  -7.548  20.431  1.00  0.00     0.114 A 
HETATM    6  N1  UNL     1      -8.440  -6.898  19.625  1.00  0.00    -0.291 N 
ATOM      7  H1  UNL     1      -9.251  -7.322  19.176  1.00  0.00     0.188 HD
HETATM    8  N2  UNL     1      -8.077  -5.622  19.519  1.00  0.00    -0.299 N 
ATOM      9  H2  UNL     1      -8.570  -4.915  18.975  1.00  0.00     0.187 HD
HETATM   10  C9  UNL     1      -6.966  -5.408  20.235  1.00  0.00     0.063 A 
HETATM   11  C10 UNL     1      -6.212  -4.260  20.439  1.00  0.00     0.061 A 
HETATM   12  C11 UNL     1      -5.088  -4.293  21.236  1.00  0.00     0.036 A 
ENDROOT
BRANCH  12  13
HETATM   13  N3  UNL     1      -4.296  -3.151  21.472  1.00  0.00    -0.385 N 
ATOM     14  H3  UNL     1      -4.399  -2.694  22.379  1.00  0.00     0.160 HD
BRANCH  13  15
HETATM   15  C12 UNL     1      -3.363  -2.577  20.558  1.00  0.00     0.081 C 
HETATM   16  C13 UNL     1      -3.338  -3.228  19.196  1.00  0.00     0.025 C 
HETATM   17  C14 UNL     1      -1.988  -3.805  18.851  1.00  0.00     0.002 C 
HETATM   18  C15 UNL     1      -0.960  -2.694  18.869  1.00  0.00     0.000 C 
HETATM   19  C16 UNL     1      -0.979  -1.971  20.176  1.00  0.00     0.002 C 
HETATM   20  C17 UNL     1      -1.959  -2.615  21.097  1.00  0.00     0.025 C 
ENDBRANCH  13  15
ENDBRANCH  12  13
BRANCH   5  21
HETATM   21  C6  UNL     1      -7.550  -8.928  20.820  1.00  0.00    -0.038 C 
HETATM   22  C7  UNL     1      -7.532 -10.092  21.159  1.00  0.00     0.015 C 
BRANCH  22  23
HETATM   23  C8  UNL     1      -7.521 -11.500  21.575  1.00  0.00     0.459 C 
HETATM   24  F1  UNL     1      -7.639 -12.304  20.436  1.00  0.00    -0.159 F 
HETATM   25  F2  UNL     1      -8.619 -11.795  22.386  1.00  0.00    -0.159 F 
HETATM   26  F3  UNL     1      -6.397 -11.810  22.292  1.00  0.00    -0.159 F 
ENDBRANCH  22  23
ENDBRANCH   5  21
TORSDOF 4
ENDMDL
