MODEL 1
REMARK VINA RESULT: -8.897130882      0.000      0.000
REMARK  7 active torsions:
REMARK  status: ('A' for Active; 'I' for Inactive)
REMARK    1  A    between atoms: C2_2  and  C4_4 
REMARK    2  A    between atoms: C10_10  and  O1_11 
REMARK    3  A    between atoms: O1_11  and  C11_12 
REMARK    4  A    between atoms: C11_12  and  C12_13 
REMARK    5  A    between atoms: C20_26  and  C21_27 
REMARK    6  A    between atoms: C22_28  and  C23_29 
REMARK    7  A    between atoms: C23_29  and  O3_30 
ROOT
HETATM    1  C12 UNL     1      15.208  10.666  -1.309  1.00  0.00    -0.019 A 
HETATM    2  C13 UNL     1      13.883  10.938  -1.059  1.00  0.00     0.013 A 
HETATM    3  C14 UNL     1      12.946  10.670  -2.034  1.00  0.00     0.041 A 
HETATM    4  C15 UNL     1      13.378  10.138  -3.220  1.00  0.00     0.113 A 
HETATM    5  C16 UNL     1      12.474   9.822  -4.304  1.00  0.00     0.117 C 
HETATM    6  N1  UNL     1      11.760   9.584  -5.180  1.00  0.00    -0.190 NA
HETATM    7  N2  UNL     1      14.679   9.881  -3.442  1.00  0.00    -0.357 N 
ATOM      8  H2  UNL     1      14.964   9.485  -4.339  1.00  0.00     0.166 HD
HETATM    9  C17 UNL     1      15.606  10.132  -2.514  1.00  0.00     0.098 A 
ENDROOT
BRANCH   1  10
HETATM   10  C11 UNL     1      16.256  10.933  -0.301  1.00  0.00     0.208 C 
BRANCH  10  11
HETATM   11  O1  UNL     1      16.527   9.845   0.504  1.00  0.00    -0.377 OA
BRANCH  11  12
HETATM   12  C10 UNL     1      16.157  10.185   1.804  1.00  0.00     0.184 C 
HETATM   13  C9  UNL     1      17.453  10.549   2.551  1.00  0.00     0.257 C 
HETATM   14  C8  UNL     1      16.907  10.665   3.971  1.00  0.00     0.079 C 
HETATM   15  N3  UNL     1      18.390   9.485   2.691  1.00  0.00     0.102 N 
HETATM   16  C7  UNL     1      16.832   9.208   4.225  1.00  0.00     0.098 C 
HETATM   17  C6  UNL     1      16.016   8.877   5.323  1.00  0.00     0.041 C 
HETATM   18  O2  UNL     1      16.410   8.385   3.159  1.00  0.00    -0.369 OA
HETATM   19  C20 UNL     1      18.313   8.969   4.090  1.00  0.00     0.280 C 
HETATM   20  C5  UNL     1      14.568   9.160   4.889  1.00  0.00     0.010 C 
HETATM   21  C4  UNL     1      14.354   9.388   3.443  1.00  0.00     0.021 C 
HETATM   22  C18 UNL     1      15.426   9.061   2.500  1.00  0.00     0.158 C 
HETATM   23  C19 UNL     1      19.717   9.999   2.458  1.00  0.00     0.311 C 
BRANCH  21  24
HETATM   24  C2  UNL     1      13.108   8.575   3.045  1.00  0.00    -0.016 C 
HETATM   25  C1  UNL     1      13.486   7.543   2.006  1.00  0.00     0.010 C 
HETATM   26  C3  UNL     1      12.007   9.417   2.530  1.00  0.00     0.010 C 
ENDBRANCH  21  24
BRANCH  19  27
HETATM   27  C21 UNL     1      18.655   7.548   4.123  1.00  0.00     0.010 C 
HETATM   28  C22 UNL     1      19.787   7.092   4.604  1.00  0.00    -0.003 C 
BRANCH  28  29
HETATM   29  C23 UNL     1      20.871   7.913   5.174  1.00  0.00     0.191 C 
BRANCH  29  30
HETATM   30  O3  UNL     1      20.668   8.105   6.557  1.00  0.00    -0.397 OA
ATOM     31  H3  UNL     1      20.833   9.011   6.793  1.00  0.00     0.209 HD
ENDBRANCH  29  30
ENDBRANCH  28  29
ENDBRANCH  19  27
ENDBRANCH  11  12
ENDBRANCH  10  11
ENDBRANCH   1  10
TORSDOF 7
ENDMDL
MODEL 2
REMARK VINA RESULT: -8.813949891      1.578      2.128
REMARK  7 active torsions:
REMARK  status: ('A' for Active; 'I' for Inactive)
REMARK    1  A    between atoms: C2_2  and  C4_4 
REMARK    2  A    between atoms: C10_10  and  O1_11 
REMARK    3  A    between atoms: O1_11  and  C11_12 
REMARK    4  A    between atoms: C11_12  and  C12_13 
REMARK    5  A    between atoms: C20_26  and  C21_27 
REMARK    6  A    between atoms: C22_28  and  C23_29 
REMARK    7  A    between atoms: C23_29  and  O3_30 
ROOT
HETATM    1  C12 UNL     1      15.227  10.177  -2.454  1.00  0.00    -0.019 A 
HETATM    2  C13 UNL     1      15.333   9.747  -3.757  1.00  0.00     0.013 A 
HETATM    3  C14 UNL     1      14.190   9.617  -4.517  1.00  0.00     0.041 A 
HETATM    4  C15 UNL     1      12.988   9.925  -3.938  1.00  0.00     0.113 A 
HETATM    5  C16 UNL     1      11.734   9.821  -4.651  1.00  0.00     0.117 C 
HETATM    6  N1  UNL     1      10.727   9.723  -5.209  1.00  0.00    -0.190 NA
HETATM    7  N2  UNL     1      12.909  10.344  -2.663  1.00  0.00    -0.357 N 
ATOM      8  H2  UNL     1      11.995  10.564  -2.265  1.00  0.00     0.166 HD
HETATM    9  C17 UNL     1      14.001  10.477  -1.905  1.00  0.00     0.098 A 
ENDROOT
BRANCH   1  10
HETATM   10  C11 UNL     1      16.419  10.336  -1.593  1.00  0.00     0.208 C 
BRANCH  10  11
HETATM   11  O1  UNL     1      16.324   9.650  -0.400  1.00  0.00    -0.377 OA
BRANCH  11  12
HETATM   12  C10 UNL     1      16.223  10.595   0.619  1.00  0.00     0.184 C 
HETATM   13  C9  UNL     1      17.620  11.218   0.784  1.00  0.00     0.257 C 
HETATM   14  C8  UNL     1      17.390  12.035   2.052  1.00  0.00     0.079 C 
HETATM   15  N3  UNL     1      18.639  10.317   1.205  1.00  0.00     0.102 N 
HETATM   16  C7  UNL     1      17.477  10.891   2.988  1.00  0.00     0.098 C 
HETATM   17  C6  UNL     1      16.945  11.173   4.260  1.00  0.00     0.041 C 
HETATM   18  O2  UNL     1      16.893   9.673   2.578  1.00  0.00    -0.369 OA
HETATM   19  C20 UNL     1      18.906  10.550   2.656  1.00  0.00     0.280 C 
HETATM   20  C5  UNL     1      15.421  11.273   4.082  1.00  0.00     0.010 C 
HETATM   21  C4  UNL     1      14.881  10.778   2.797  1.00  0.00     0.021 C 
HETATM   22  C18 UNL     1      15.742   9.986   1.915  1.00  0.00     0.158 C 
HETATM   23  C19 UNL     1      19.843  10.592   0.462  1.00  0.00     0.311 C 
BRANCH  21  24
HETATM   24  C2  UNL     1      13.640   9.931   3.133  1.00  0.00    -0.016 C 
HETATM   25  C1  UNL     1      13.894   9.138   4.396  1.00  0.00     0.010 C 
HETATM   26  C3  UNL     1      13.252   9.013   2.041  1.00  0.00     0.010 C 
ENDBRANCH  21  24
BRANCH  19  27
HETATM   27  C21 UNL     1      19.348   9.311   3.294  1.00  0.00     0.010 C 
HETATM   28  C22 UNL     1      20.551   9.148   3.789  1.00  0.00    -0.003 C 
BRANCH  28  29
HETATM   29  C23 UNL     1      21.627  10.156   3.784  1.00  0.00     0.191 C 
BRANCH  29  30
HETATM   30  O3  UNL     1      22.609   9.822   2.828  1.00  0.00    -0.397 OA
ATOM     31  H3  UNL     1      23.056  10.604   2.525  1.00  0.00     0.209 HD
ENDBRANCH  29  30
ENDBRANCH  28  29
ENDBRANCH  19  27
ENDBRANCH  11  12
ENDBRANCH  10  11
ENDBRANCH   1  10
TORSDOF 7
ENDMDL
MODEL 3
REMARK VINA RESULT: -8.632274970      1.714      4.023
REMARK  7 active torsions:
REMARK  status: ('A' for Active; 'I' for Inactive)
REMARK    1  A    between atoms: C2_2  and  C4_4 
REMARK    2  A    between atoms: C10_10  and  O1_11 
REMARK    3  A    between atoms: O1_11  and  C11_12 
REMARK    4  A    between atoms: C11_12  and  C12_13 
REMARK    5  A    between atoms: C20_26  and  C21_27 
REMARK    6  A    between atoms: C22_28  and  C23_29 
REMARK    7  A    between atoms: C23_29  and  O3_30 
ROOT
HETATM    1  C12 UNL     1      14.875  10.664  -1.557  1.00  0.00    -0.019 A 
HETATM    2  C13 UNL     1      15.321   9.947  -2.643  1.00  0.00     0.013 A 
HETATM    3  C14 UNL     1      14.436   9.634  -3.653  1.00  0.00     0.041 A 
HETATM    4  C15 UNL     1      13.139  10.056  -3.532  1.00  0.00     0.113 A 
HETATM    5  C16 UNL     1      12.135   9.779  -4.536  1.00  0.00     0.117 C 
HETATM    6  N1  UNL     1      11.325   9.546  -5.326  1.00  0.00    -0.190 NA
HETATM    7  N2  UNL     1      12.725  10.757  -2.461  1.00  0.00    -0.357 N 
ATOM      8  H2  UNL     1      11.751  11.054  -2.405  1.00  0.00     0.166 HD
HETATM    9  C17 UNL     1      13.563  11.071  -1.469  1.00  0.00     0.098 A 
ENDROOT
BRANCH   1  10
HETATM   10  C11 UNL     1      15.779  11.028  -0.445  1.00  0.00     0.208 C 
BRANCH  10  11
HETATM   11  O1  UNL     1      15.250  10.753   0.799  1.00  0.00    -0.377 OA
BRANCH  11  12
HETATM   12  C10 UNL     1      16.118   9.869   1.436  1.00  0.00     0.184 C 
HETATM   13  C9  UNL     1      15.245   8.930   2.288  1.00  0.00     0.257 C 
HETATM   14  C8  UNL     1      16.335   8.203   3.069  1.00  0.00     0.079 C 
HETATM   15  N3  UNL     1      14.517   9.564   3.335  1.00  0.00     0.102 N 
HETATM   16  C7  UNL     1      16.592   9.301   4.030  1.00  0.00     0.098 C 
HETATM   17  C6  UNL     1      17.815   9.165   4.713  1.00  0.00     0.041 C 
HETATM   18  O2  UNL     1      16.566  10.620   3.527  1.00  0.00    -0.369 OA
HETATM   19  C20 UNL     1      15.210   9.286   4.628  1.00  0.00     0.280 C 
HETATM   20  C5  UNL     1      18.923   9.432   3.681  1.00  0.00     0.010 C 
HETATM   21  C4  UNL     1      18.489  10.032   2.399  1.00  0.00     0.021 C 
HETATM   22  C18 UNL     1      17.137  10.586   2.289  1.00  0.00     0.158 C 
HETATM   23  C19 UNL     1      13.191   9.002   3.389  1.00  0.00     0.311 C 
BRANCH  21  24
HETATM   24  C2  UNL     1      19.490  11.155   2.073  1.00  0.00    -0.016 C 
HETATM   25  C1  UNL     1      19.332  11.572   0.628  1.00  0.00     0.010 C 
HETATM   26  C3  UNL     1      20.895  10.769   2.327  1.00  0.00     0.010 C 
ENDBRANCH  21  24
BRANCH  19  27
HETATM   27  C21 UNL     1      14.994  10.388   5.564  1.00  0.00     0.010 C 
HETATM   28  C22 UNL     1      14.936  10.225   6.864  1.00  0.00    -0.003 C 
BRANCH  28  29
HETATM   29  C23 UNL     1      15.073   8.942   7.577  1.00  0.00     0.191 C 
BRANCH  29  30
HETATM   30  O3  UNL     1      16.418   8.725   7.945  1.00  0.00    -0.397 OA
ATOM     31  H3  UNL     1      16.777   7.986   7.468  1.00  0.00     0.209 HD
ENDBRANCH  29  30
ENDBRANCH  28  29
ENDBRANCH  19  27
ENDBRANCH  11  12
ENDBRANCH  10  11
ENDBRANCH   1  10
TORSDOF 7
ENDMDL
MODEL 4
REMARK VINA RESULT: -8.558879025      1.650      4.009
REMARK  7 active torsions:
REMARK  status: ('A' for Active; 'I' for Inactive)
REMARK    1  A    between atoms: C2_2  and  C4_4 
REMARK    2  A    between atoms: C10_10  and  O1_11 
REMARK    3  A    between atoms: O1_11  and  C11_12 
REMARK    4  A    between atoms: C11_12  and  C12_13 
REMARK    5  A    between atoms: C20_26  and  C21_27 
REMARK    6  A    between atoms: C22_28  and  C23_29 
REMARK    7  A    between atoms: C23_29  and  O3_30 
ROOT
HETATM    1  C12 UNL     1      15.138  10.627  -1.367  1.00  0.00    -0.019 A 
HETATM    2  C13 UNL     1      13.819  10.938  -1.131  1.00  0.00     0.013 A 
HETATM    3  C14 UNL     1      12.882  10.682  -2.109  1.00  0.00     0.041 A 
HETATM    4  C15 UNL     1      13.308  10.123  -3.285  1.00  0.00     0.113 A 
HETATM    5  C16 UNL     1      12.405   9.817  -4.372  1.00  0.00     0.117 C 
HETATM    6  N1  UNL     1      11.690   9.587  -5.250  1.00  0.00    -0.190 NA
HETATM    7  N2  UNL     1      14.604   9.827  -3.493  1.00  0.00    -0.357 N 
ATOM      8  H2  UNL     1      14.884   9.412  -4.382  1.00  0.00     0.166 HD
HETATM    9  C17 UNL     1      15.531  10.066  -2.562  1.00  0.00     0.098 A 
ENDROOT
BRANCH   1  10
HETATM   10  C11 UNL     1      16.186  10.878  -0.354  1.00  0.00     0.208 C 
BRANCH  10  11
HETATM   11  O1  UNL     1      15.700  10.907   0.937  1.00  0.00    -0.377 OA
BRANCH  11  12
HETATM   12  C10 UNL     1      16.363   9.914   1.656  1.00  0.00     0.184 C 
HETATM   13  C9  UNL     1      15.276   9.058   2.330  1.00  0.00     0.257 C 
HETATM   14  C8  UNL     1      16.153   8.193   3.231  1.00  0.00     0.079 C 
HETATM   15  N3  UNL     1      14.472   9.742   3.286  1.00  0.00     0.102 N 
HETATM   16  C7  UNL     1      16.379   9.230   4.264  1.00  0.00     0.098 C 
HETATM   17  C6  UNL     1      17.464   8.940   5.112  1.00  0.00     0.041 C 
HETATM   18  O2  UNL     1      16.570  10.556   3.820  1.00  0.00    -0.369 OA
HETATM   19  C20 UNL     1      14.930   9.355   4.653  1.00  0.00     0.280 C 
HETATM   20  C5  UNL     1      18.736   9.108   4.265  1.00  0.00     0.010 C 
HETATM   21  C4  UNL     1      18.566   9.785   2.961  1.00  0.00     0.021 C 
HETATM   22  C18 UNL     1      17.313  10.491   2.678  1.00  0.00     0.158 C 
HETATM   23  C19 UNL     1      13.100   9.331   3.121  1.00  0.00     0.311 C 
BRANCH  21  24
HETATM   24  C2  UNL     1      19.720  10.797   2.832  1.00  0.00    -0.016 C 
HETATM   25  C1  UNL     1      19.729  11.381   1.437  1.00  0.00     0.010 C 
HETATM   26  C3  UNL     1      21.042  10.208   3.132  1.00  0.00     0.010 C 
ENDBRANCH  21  24
BRANCH  19  27
HETATM   27  C21 UNL     1      14.695  10.449   5.594  1.00  0.00     0.010 C 
HETATM   28  C22 UNL     1      14.565  10.270   6.886  1.00  0.00    -0.003 C 
BRANCH  28  29
HETATM   29  C23 UNL     1      14.629   8.974   7.585  1.00  0.00     0.191 C 
BRANCH  29  30
HETATM   30  O3  UNL     1      15.771   8.917   8.412  1.00  0.00    -0.397 OA
ATOM     31  H3  UNL     1      15.658   8.258   9.087  1.00  0.00     0.209 HD
ENDBRANCH  29  30
ENDBRANCH  28  29
ENDBRANCH  19  27
ENDBRANCH  11  12
ENDBRANCH  10  11
ENDBRANCH   1  10
TORSDOF 7
ENDMDL
MODEL 5
REMARK VINA RESULT: -8.541004460      1.376      1.695
REMARK  7 active torsions:
REMARK  status: ('A' for Active; 'I' for Inactive)
REMARK    1  A    between atoms: C2_2  and  C4_4 
REMARK    2  A    between atoms: C10_10  and  O1_11 
REMARK    3  A    between atoms: O1_11  and  C11_12 
REMARK    4  A    between atoms: C11_12  and  C12_13 
REMARK    5  A    between atoms: C20_26  and  C21_27 
REMARK    6  A    between atoms: C22_28  and  C23_29 
REMARK    7  A    between atoms: C23_29  and  O3_30 
ROOT
HETATM    1  C12 UNL     1      14.718  10.354  -0.259  1.00  0.00    -0.019 A 
HETATM    2  C13 UNL     1      13.486  10.681  -0.777  1.00  0.00     0.013 A 
HETATM    3  C14 UNL     1      13.304  10.665  -2.143  1.00  0.00     0.041 A 
HETATM    4  C15 UNL     1      14.368  10.319  -2.935  1.00  0.00     0.113 A 
HETATM    5  C16 UNL     1      14.279  10.273  -4.377  1.00  0.00     0.117 C 
HETATM    6  N1  UNL     1      14.220  10.251  -5.531  1.00  0.00    -0.190 NA
HETATM    7  N2  UNL     1      15.563  10.003  -2.406  1.00  0.00    -0.357 N 
ATOM      8  H2  UNL     1      16.332   9.751  -3.027  1.00  0.00     0.166 HD
HETATM    9  C17 UNL     1      15.765  10.012  -1.085  1.00  0.00     0.098 A 
ENDROOT
BRANCH   1  10
HETATM   10  C11 UNL     1      14.970  10.354   1.198  1.00  0.00     0.208 C 
BRANCH  10  11
HETATM   11  O1  UNL     1      16.255   9.974   1.529  1.00  0.00    -0.377 OA
BRANCH  11  12
HETATM   12  C10 UNL     1      16.457  10.303   2.868  1.00  0.00     0.184 C 
HETATM   13  C9  UNL     1      17.979  10.321   3.093  1.00  0.00     0.257 C 
HETATM   14  C8  UNL     1      18.012  10.464   4.612  1.00  0.00     0.079 C 
HETATM   15  N3  UNL     1      18.633   9.070   2.909  1.00  0.00     0.102 N 
HETATM   16  C7  UNL     1      17.698   9.046   4.905  1.00  0.00     0.098 C 
HETATM   17  C6  UNL     1      17.269   8.835   6.229  1.00  0.00     0.041 C 
HETATM   18  O2  UNL     1      16.749   8.408   4.077  1.00  0.00    -0.369 OA
HETATM   19  C20 UNL     1      18.938   8.494   4.253  1.00  0.00     0.280 C 
HETATM   20  C5  UNL     1      15.868   9.459   6.337  1.00  0.00     0.010 C 
HETATM   21  C4  UNL     1      15.216   9.822   5.059  1.00  0.00     0.021 C 
HETATM   22  C18 UNL     1      15.780   9.327   3.801  1.00  0.00     0.158 C 
HETATM   23  C19 UNL     1      19.872   9.289   2.206  1.00  0.00     0.311 C 
BRANCH  21  24
HETATM   24  C2  UNL     1      13.758   9.333   5.151  1.00  0.00    -0.016 C 
HETATM   25  C1  UNL     1      13.614   8.383   6.319  1.00  0.00     0.010 C 
HETATM   26  C3  UNL     1      13.291   8.673   3.913  1.00  0.00     0.010 C 
ENDBRANCH  21  24
BRANCH  19  27
HETATM   27  C21 UNL     1      18.933   7.033   4.189  1.00  0.00     0.010 C 
HETATM   28  C22 UNL     1      19.976   6.297   4.491  1.00  0.00    -0.003 C 
BRANCH  28  29
HETATM   29  C23 UNL     1      21.289   6.805   4.930  1.00  0.00     0.191 C 
BRANCH  29  30
HETATM   30  O3  UNL     1      22.248   5.771   4.906  1.00  0.00    -0.397 OA
ATOM     31  H3  UNL     1      22.632   5.695   4.040  1.00  0.00     0.209 HD
ENDBRANCH  29  30
ENDBRANCH  28  29
ENDBRANCH  19  27
ENDBRANCH  11  12
ENDBRANCH  10  11
ENDBRANCH   1  10
TORSDOF 7
ENDMDL
