MODEL 1
REMARK VINA RESULT: -4.365786264      0.000      0.000
REMARK  3 active torsions:
REMARK  status: ('A' for Active; 'I' for Inactive)
REMARK    1  A    between atoms: C3_3  and  O1_5 
REMARK    2  A    between atoms: C3_3  and  C5_7 
REMARK    3  A    between atoms: C6_8  and  C7_9 
ROOT
HETATM    1  C1  UNL     1       7.315  -3.533   0.423  1.00  0.00     0.016 C 
HETATM    2  C2  UNL     1       8.214  -4.300   0.173  1.00  0.00    -0.066 C 
HETATM    3  C3  UNL     1       9.327  -5.221  -0.130  1.00  0.00     0.181 C 
HETATM    4  C4  UNL     1       8.729  -6.378  -0.893  1.00  0.00     0.075 C 
ENDROOT
BRANCH   3   5
HETATM    5  O1  UNL     1       9.922  -5.709   1.026  1.00  0.00    -0.367 OA
ATOM      6  H1  UNL     1      10.662  -6.274   0.832  1.00  0.00     0.212 HD
ENDBRANCH   3   5
BRANCH   3   7
HETATM    7  C5  UNL     1      10.300  -4.575  -1.023  1.00  0.00    -0.053 C 
HETATM    8  C6  UNL     1      11.085  -4.033  -1.756  1.00  0.00    -0.067 C 
BRANCH   8   9
HETATM    9  C7  UNL     1      12.020  -3.368  -2.663  1.00  0.00     0.257 A 
HETATM   10  N1  UNL     1      11.957  -1.945  -2.716  1.00  0.00    -0.335 N 
HETATM   11  C8  UNL     1      13.115  -2.582  -2.046  1.00  0.00     0.254 A 
ATOM     12  H1  UNL     1      11.468  -1.098  -3.007  1.00  0.00     0.164 HD
HETATM   13  O2  UNL     1      14.186  -2.420  -1.435  1.00  0.00    -0.270 OA
ENDBRANCH   8   9
ENDBRANCH   3   7
TORSDOF 3
ENDMDL
MODEL 2
REMARK VINA RESULT: -4.338189879      1.296      1.931
REMARK  3 active torsions:
REMARK  status: ('A' for Active; 'I' for Inactive)
REMARK    1  A    between atoms: C3_3  and  O1_5 
REMARK    2  A    between atoms: C3_3  and  C5_7 
REMARK    3  A    between atoms: C6_8  and  C7_9 
ROOT
HETATM    1  C1  UNL     1       7.748  -7.648  -1.473  1.00  0.00     0.016 C 
HETATM    2  C2  UNL     1       8.261  -6.728  -0.883  1.00  0.00    -0.066 C 
HETATM    3  C3  UNL     1       8.883  -5.590  -0.179  1.00  0.00     0.181 C 
HETATM    4  C4  UNL     1       9.817  -6.181   0.850  1.00  0.00     0.075 C 
ENDROOT
BRANCH   3   5
HETATM    5  O1  UNL     1       7.938  -4.808   0.475  1.00  0.00    -0.367 OA
ATOM      6  H1  UNL     1       7.101  -5.253   0.547  1.00  0.00     0.212 HD
ENDBRANCH   3   5
BRANCH   3   7
HETATM    7  C5  UNL     1       9.708  -4.802  -1.105  1.00  0.00    -0.053 C 
HETATM    8  C6  UNL     1      10.382  -4.169  -1.876  1.00  0.00    -0.067 C 
BRANCH   8   9
HETATM    9  C7  UNL     1      11.210  -3.420  -2.820  1.00  0.00     0.257 A 
HETATM   10  N1  UNL     1      11.434  -2.044  -2.523  1.00  0.00    -0.335 N 
HETATM   11  C8  UNL     1      12.553  -3.001  -2.355  1.00  0.00     0.254 A 
ATOM     12  H1  UNL     1      11.080  -1.089  -2.467  1.00  0.00     0.164 HD
HETATM   13  O2  UNL     1      13.743  -3.169  -2.034  1.00  0.00    -0.270 OA
ENDBRANCH   8   9
ENDBRANCH   3   7
TORSDOF 3
ENDMDL
MODEL 3
REMARK VINA RESULT: -4.273265084      3.739      5.521
REMARK  3 active torsions:
REMARK  status: ('A' for Active; 'I' for Inactive)
REMARK    1  A    between atoms: C3_3  and  O1_5 
REMARK    2  A    between atoms: C3_3  and  C5_7 
REMARK    3  A    between atoms: C6_8  and  C7_9 
ROOT
HETATM    1  C1  UNL     1      11.402  -4.325  -1.007  1.00  0.00     0.016 C 
HETATM    2  C2  UNL     1      10.338  -4.772  -0.650  1.00  0.00    -0.066 C 
HETATM    3  C3  UNL     1       9.045  -5.338  -0.220  1.00  0.00     0.181 C 
HETATM    4  C4  UNL     1       8.078  -4.182  -0.136  1.00  0.00     0.075 C 
ENDROOT
BRANCH   3   5
HETATM    5  O1  UNL     1       9.133  -5.936   1.032  1.00  0.00    -0.367 OA
ATOM      6  H1  UNL     1       8.486  -6.623   1.142  1.00  0.00     0.212 HD
ENDBRANCH   3   5
BRANCH   3   7
HETATM    7  C5  UNL     1       8.524  -6.261  -1.238  1.00  0.00    -0.053 C 
HETATM    8  C6  UNL     1       8.100  -7.031  -2.060  1.00  0.00    -0.067 C 
BRANCH   8   9
HETATM    9  C7  UNL     1       7.601  -7.981  -3.053  1.00  0.00     0.257 A 
HETATM   10  N1  UNL     1       6.232  -8.364  -2.942  1.00  0.00    -0.335 N 
HETATM   11  C8  UNL     1       6.634  -7.470  -4.052  1.00  0.00     0.254 A 
ATOM     12  H1  UNL     1       5.502  -8.881  -2.451  1.00  0.00     0.164 HD
HETATM   13  O2  UNL     1       6.276  -6.823  -5.052  1.00  0.00    -0.270 OA
ENDBRANCH   8   9
ENDBRANCH   3   7
TORSDOF 3
ENDMDL
MODEL 4
REMARK VINA RESULT: -4.239996880      2.924      3.503
REMARK  3 active torsions:
REMARK  status: ('A' for Active; 'I' for Inactive)
REMARK    1  A    between atoms: C3_3  and  O1_5 
REMARK    2  A    between atoms: C3_3  and  C5_7 
REMARK    3  A    between atoms: C6_8  and  C7_9 
ROOT
HETATM    1  C1  UNL     1       8.249  -6.842  -1.838  1.00  0.00     0.016 C 
HETATM    2  C2  UNL     1       8.574  -5.735  -1.483  1.00  0.00    -0.066 C 
HETATM    3  C3  UNL     1       8.992  -4.384  -1.059  1.00  0.00     0.181 C 
HETATM    4  C4  UNL     1       8.086  -3.996   0.085  1.00  0.00     0.075 C 
ENDROOT
BRANCH   3   5
HETATM    5  O1  UNL     1       8.843  -3.453  -2.080  1.00  0.00    -0.367 OA
ATOM      6  H1  UNL     1       9.680  -3.202  -2.453  1.00  0.00     0.212 HD
ENDBRANCH   3   5
BRANCH   3   7
HETATM    7  C5  UNL     1      10.363  -4.412  -0.531  1.00  0.00    -0.053 C 
HETATM    8  C6  UNL     1      11.481  -4.423  -0.086  1.00  0.00    -0.067 C 
BRANCH   8   9
HETATM    9  C7  UNL     1      12.839  -4.413   0.458  1.00  0.00     0.257 A 
HETATM   10  N1  UNL     1      12.961  -4.510   1.875  1.00  0.00    -0.335 N 
HETATM   11  C8  UNL     1      13.340  -5.677   1.046  1.00  0.00     0.254 A 
ATOM     12  H1  UNL     1      12.859  -4.083   2.796  1.00  0.00     0.164 HD
HETATM   13  O2  UNL     1      13.769  -6.845   1.021  1.00  0.00    -0.270 OA
ENDBRANCH   8   9
ENDBRANCH   3   7
TORSDOF 3
ENDMDL
MODEL 5
REMARK VINA RESULT: -4.237753073      3.372      4.969
REMARK  3 active torsions:
REMARK  status: ('A' for Active; 'I' for Inactive)
REMARK    1  A    between atoms: C3_3  and  O1_5 
REMARK    2  A    between atoms: C3_3  and  C5_7 
REMARK    3  A    between atoms: C6_8  and  C7_9 
ROOT
HETATM    1  C1  UNL     1       5.436  -9.221  -1.290  1.00  0.00     0.016 C 
HETATM    2  C2  UNL     1       6.250  -8.769  -2.060  1.00  0.00    -0.066 C 
HETATM    3  C3  UNL     1       7.259  -8.215  -2.984  1.00  0.00     0.181 C 
HETATM    4  C4  UNL     1       6.503  -7.710  -4.190  1.00  0.00     0.075 C 
ENDROOT
BRANCH   3   5
HETATM    5  O1  UNL     1       8.164  -9.184  -3.400  1.00  0.00    -0.367 OA
ATOM      6  H1  UNL     1       8.840  -9.337  -2.750  1.00  0.00     0.212 HD
ENDBRANCH   3   5
BRANCH   3   7
HETATM    7  C5  UNL     1       7.927  -7.055  -2.379  1.00  0.00    -0.053 C 
HETATM    8  C6  UNL     1       8.464  -6.106  -1.870  1.00  0.00    -0.067 C 
BRANCH   8   9
HETATM    9  C7  UNL     1       9.094  -4.943  -1.245  1.00  0.00     0.257 A 
HETATM   10  N1  UNL     1       8.784  -3.670  -1.806  1.00  0.00    -0.335 N 
HETATM   11  C8  UNL     1       8.213  -4.024  -0.486  1.00  0.00     0.254 A 
ATOM     12  H1  UNL     1       8.884  -2.998  -2.568  1.00  0.00     0.164 HD
HETATM   13  O2  UNL     1       7.500  -3.673   0.471  1.00  0.00    -0.270 OA
ENDBRANCH   8   9
ENDBRANCH   3   7
TORSDOF 3
ENDMDL
