MODEL 1
REMARK VINA RESULT: -3.942730013      0.000      0.000
REMARK  0 active torsions:
REMARK  status: ('A' for Active; 'I' for Inactive)
ROOT
HETATM    1  S1  UNL     1       8.329 -34.979 -33.959  1.00  0.00    -0.085 SA
HETATM    2  C1  UNL     1       9.123 -35.146 -35.112  1.00  0.00     0.038 C 
HETATM    3  C2  UNL     1       8.503 -35.813 -36.307  1.00  0.00     0.217 C 
HETATM    4 CL1  UNL     1       7.379 -34.571 -36.968  1.00  0.00    -0.097 Cl
HETATM    5  N1  UNL     1       9.467 -36.215 -37.256  1.00  0.00    -0.388 N 
ATOM      6  H1  UNL     1       9.210 -36.775 -38.069  1.00  0.00     0.156 HD
HETATM    7  C3  UNL     1      10.795 -35.812 -37.036  1.00  0.00     0.142 C 
HETATM    8  C4  UNL     1      11.319 -35.958 -35.654  1.00  0.00     0.056 C 
HETATM    9  C5  UNL     1      10.531 -34.716 -35.246  1.00  0.00     0.095 C 
HETATM   10  S2  UNL     1      10.873 -34.012 -36.879  1.00  0.00    -0.134 SA
ENDROOT
TORSDOF 0
ENDMDL
MODEL 2
REMARK VINA RESULT: -3.925130991      7.745      8.448
REMARK  0 active torsions:
REMARK  status: ('A' for Active; 'I' for Inactive)
ROOT
HETATM    1  S1  UNL     1       4.082 -27.113 -33.633  1.00  0.00    -0.085 SA
HETATM    2  C1  UNL     1       4.885 -28.221 -33.295  1.00  0.00     0.038 C 
HETATM    3  C2  UNL     1       5.135 -28.495 -31.839  1.00  0.00     0.217 C 
HETATM    4 CL1  UNL     1       3.566 -29.144 -31.239  1.00  0.00    -0.097 Cl
HETATM    5  N1  UNL     1       6.197 -29.404 -31.640  1.00  0.00    -0.388 N 
ATOM      6  H1  UNL     1       6.554 -29.605 -30.706  1.00  0.00     0.156 HD
HETATM    7  C3  UNL     1       6.740 -30.020 -32.780  1.00  0.00     0.142 C 
HETATM    8  C4  UNL     1       7.003 -29.146 -33.952  1.00  0.00     0.056 C 
HETATM    9  C5  UNL     1       5.509 -29.148 -34.263  1.00  0.00     0.095 C 
HETATM   10  S2  UNL     1       5.435 -30.868 -33.702  1.00  0.00    -0.134 SA
ENDROOT
TORSDOF 0
ENDMDL
MODEL 3
REMARK VINA RESULT: -3.800805537      1.981      3.242
REMARK  0 active torsions:
REMARK  status: ('A' for Active; 'I' for Inactive)
ROOT
HETATM    1  S1  UNL     1      10.909 -33.275 -36.855  1.00  0.00    -0.085 SA
HETATM    2  C1  UNL     1       9.973 -34.073 -36.167  1.00  0.00     0.038 C 
HETATM    3  C2  UNL     1      10.042 -35.563 -36.351  1.00  0.00     0.217 C 
HETATM    4 CL1  UNL     1      11.504 -36.052 -35.421  1.00  0.00    -0.097 Cl
HETATM    5  N1  UNL     1       8.877 -36.214 -35.891  1.00  0.00    -0.388 N 
ATOM      6  H1  UNL     1       8.731 -37.211 -36.045  1.00  0.00     0.156 HD
HETATM    7  C3  UNL     1       7.928 -35.432 -35.210  1.00  0.00     0.142 C 
HETATM    8  C4  UNL     1       7.597 -34.112 -35.805  1.00  0.00     0.056 C 
HETATM    9  C5  UNL     1       8.916 -33.562 -35.268  1.00  0.00     0.095 C 
HETATM   10  S2  UNL     1       8.708 -34.606 -33.803  1.00  0.00    -0.134 SA
ENDROOT
TORSDOF 0
ENDMDL
MODEL 4
REMARK VINA RESULT: -3.789912035      1.804      1.962
REMARK  0 active torsions:
REMARK  status: ('A' for Active; 'I' for Inactive)
ROOT
HETATM    1  S1  UNL     1       8.406 -32.801 -35.707  1.00  0.00    -0.085 SA
HETATM    2  C1  UNL     1       9.090 -33.952 -36.146  1.00  0.00     0.038 C 
HETATM    3  C2  UNL     1       9.059 -35.171 -35.268  1.00  0.00     0.217 C 
HETATM    4 CL1  UNL     1       7.382 -35.803 -35.454  1.00  0.00    -0.097 Cl
HETATM    5  N1  UNL     1      10.030 -36.125 -35.642  1.00  0.00    -0.388 N 
ATOM      6  H1  UNL     1      10.202 -36.956 -35.077  1.00  0.00     0.156 HD
HETATM    7  C3  UNL     1      10.749 -35.883 -36.825  1.00  0.00     0.142 C 
HETATM    8  C4  UNL     1      11.255 -34.503 -37.031  1.00  0.00     0.056 C 
HETATM    9  C5  UNL     1       9.845 -34.064 -37.413  1.00  0.00     0.095 C 
HETATM   10  S2  UNL     1       9.603 -35.671 -38.208  1.00  0.00    -0.134 SA
ENDROOT
TORSDOF 0
ENDMDL
MODEL 5
REMARK VINA RESULT: -3.777839819      5.676      6.545
REMARK  0 active torsions:
REMARK  status: ('A' for Active; 'I' for Inactive)
ROOT
HETATM    1  S1  UNL     1       8.293 -29.834 -34.258  1.00  0.00    -0.085 SA
HETATM    2  C1  UNL     1       7.614 -30.617 -33.302  1.00  0.00     0.038 C 
HETATM    3  C2  UNL     1       6.621 -29.933 -32.406  1.00  0.00     0.217 C 
HETATM    4 CL1  UNL     1       5.216 -29.599 -33.482  1.00  0.00    -0.097 Cl
HETATM    5  N1  UNL     1       6.262 -30.731 -31.298  1.00  0.00    -0.388 N 
ATOM      6  H1  UNL     1       5.680 -30.363 -30.545  1.00  0.00     0.156 HD
HETATM    7  C3  UNL     1       6.740 -32.052 -31.274  1.00  0.00     0.142 C 
HETATM    8  C4  UNL     1       8.166 -32.256 -31.634  1.00  0.00     0.056 C 
HETATM    9  C5  UNL     1       7.800 -32.070 -33.104  1.00  0.00     0.095 C 
HETATM   10  S2  UNL     1       6.233 -32.917 -32.779  1.00  0.00    -0.134 SA
ENDROOT
TORSDOF 0
ENDMDL
