MODEL 1
REMARK VINA RESULT: -5.070146221      0.000      0.000
REMARK  1 active torsions:
REMARK  status: ('A' for Active; 'I' for Inactive)
REMARK    1  A    between atoms: C2_2  and  C3_3 
ROOT
HETATM    1  C3  UNL     1       3.971 -28.205 -33.287  1.00  0.00     0.161 C 
HETATM    2  C4  UNL     1       4.074 -26.799 -33.647  1.00  0.00     0.062 C 
HETATM    3  N1  UNL     1       4.143 -25.666 -33.951  1.00  0.00    -0.197 NA
ENDROOT
BRANCH   1   4
HETATM    4  C2  UNL     1       4.829 -29.005 -34.273  1.00  0.00     0.070 C 
HETATM    5  C1  UNL     1       4.423 -28.578 -35.692  1.00  0.00     0.047 C 
HETATM    6  C5  UNL     1       6.243 -28.568 -34.080  1.00  0.00     0.040 C 
HETATM    7  C6  UNL     1       6.855 -29.152 -32.837  1.00  0.00     0.021 C 
HETATM    8  C7  UNL     1       6.189 -30.384 -32.347  1.00  0.00     0.077 C 
HETATM    9  S1  UNL     1       7.328 -31.820 -32.433  1.00  0.00    -0.159 SA
HETATM   10  C9  UNL     1       5.317 -31.078 -33.328  1.00  0.00     0.145 C 
HETATM   11  C8  UNL     1       6.420 -31.909 -34.000  1.00  0.00     0.107 C 
HETATM   12  O1  UNL     1       4.592 -30.327 -34.165  1.00  0.00    -0.372 OA
ENDBRANCH   1   4
TORSDOF 1
ENDMDL
MODEL 2
REMARK VINA RESULT: -5.053734719      1.489      2.172
REMARK  1 active torsions:
REMARK  status: ('A' for Active; 'I' for Inactive)
REMARK    1  A    between atoms: C2_2  and  C3_3 
ROOT
HETATM    1  C3  UNL     1       5.365 -27.962 -33.319  1.00  0.00     0.161 C 
HETATM    2  C4  UNL     1       4.240 -27.358 -34.017  1.00  0.00     0.062 C 
HETATM    3  N1  UNL     1       3.326 -26.862 -34.564  1.00  0.00    -0.197 NA
ENDROOT
BRANCH   1   4
HETATM    4  C2  UNL     1       4.853 -29.212 -32.596  1.00  0.00     0.070 C 
HETATM    5  C1  UNL     1       3.602 -28.806 -31.801  1.00  0.00     0.047 C 
HETATM    6  C5  UNL     1       4.402 -30.172 -33.645  1.00  0.00     0.040 C 
HETATM    7  C6  UNL     1       5.557 -30.854 -34.327  1.00  0.00     0.021 C 
HETATM    8  C7  UNL     1       6.814 -30.860 -33.540  1.00  0.00     0.077 C 
HETATM    9  S1  UNL     1       7.300 -32.574 -33.100  1.00  0.00    -0.159 SA
HETATM   10  C9  UNL     1       6.670 -30.580 -32.089  1.00  0.00     0.145 C 
HETATM   11  C8  UNL     1       6.358 -32.020 -31.654  1.00  0.00     0.107 C 
HETATM   12  O1  UNL     1       5.762 -29.672 -31.714  1.00  0.00    -0.372 OA
ENDBRANCH   1   4
TORSDOF 1
ENDMDL
MODEL 3
REMARK VINA RESULT: -4.930997203      1.584      2.353
REMARK  1 active torsions:
REMARK  status: ('A' for Active; 'I' for Inactive)
REMARK    1  A    between atoms: C2_2  and  C3_3 
ROOT
HETATM    1  C3  UNL     1       3.911 -27.823 -34.438  1.00  0.00     0.161 C 
HETATM    2  C4  UNL     1       4.083 -26.442 -34.011  1.00  0.00     0.062 C 
HETATM    3  N1  UNL     1       4.238 -25.326 -33.676  1.00  0.00    -0.197 NA
ENDROOT
BRANCH   1   4
HETATM    4  C2  UNL     1       4.615 -28.719 -33.414  1.00  0.00     0.070 C 
HETATM    5  C1  UNL     1       4.008 -28.412 -32.036  1.00  0.00     0.047 C 
HETATM    6  C5  UNL     1       4.251 -30.128 -33.740  1.00  0.00     0.040 C 
HETATM    7  C6  UNL     1       5.000 -30.648 -34.937  1.00  0.00     0.021 C 
HETATM    8  C7  UNL     1       6.258 -29.921 -35.233  1.00  0.00     0.077 C 
HETATM    9  S1  UNL     1       7.710 -31.027 -35.040  1.00  0.00    -0.159 SA
HETATM   10  C9  UNL     1       6.802 -29.094 -34.127  1.00  0.00     0.145 C 
HETATM   11  C8  UNL     1       7.582 -30.215 -33.424  1.00  0.00     0.107 C 
HETATM   12  O1  UNL     1       5.932 -28.441 -33.347  1.00  0.00    -0.372 OA
ENDBRANCH   1   4
TORSDOF 1
ENDMDL
MODEL 4
REMARK VINA RESULT: -4.928931665      2.609      3.485
REMARK  1 active torsions:
REMARK  status: ('A' for Active; 'I' for Inactive)
REMARK    1  A    between atoms: C2_2  and  C3_3 
ROOT
HETATM    1  C3  UNL     1       6.225 -29.094 -32.446  1.00  0.00     0.161 C 
HETATM    2  C4  UNL     1       5.064 -29.064 -31.567  1.00  0.00     0.062 C 
HETATM    3  N1  UNL     1       4.139 -29.042 -30.843  1.00  0.00    -0.197 NA
ENDROOT
BRANCH   1   4
HETATM    4  C2  UNL     1       6.541 -30.561 -32.753  1.00  0.00     0.070 C 
HETATM    5  C1  UNL     1       6.600 -31.313 -31.414  1.00  0.00     0.047 C 
HETATM    6  C5  UNL     1       5.377 -31.113 -33.505  1.00  0.00     0.040 C 
HETATM    7  C6  UNL     1       5.358 -30.658 -34.939  1.00  0.00     0.021 C 
HETATM    8  C7  UNL     1       6.675 -30.218 -35.459  1.00  0.00     0.077 C 
HETATM    9  S1  UNL     1       7.243 -31.319 -36.813  1.00  0.00    -0.159 SA
HETATM   10  C9  UNL     1       7.857 -30.655 -34.674  1.00  0.00     0.145 C 
HETATM   11  C8  UNL     1       8.023 -32.030 -35.339  1.00  0.00     0.107 C 
HETATM   12  O1  UNL     1       7.747 -30.687 -33.340  1.00  0.00    -0.372 OA
ENDBRANCH   1   4
TORSDOF 1
ENDMDL
MODEL 5
REMARK VINA RESULT: -4.852784958      4.541      6.218
REMARK  1 active torsions:
REMARK  status: ('A' for Active; 'I' for Inactive)
REMARK    1  A    between atoms: C2_2  and  C3_3 
ROOT
HETATM    1  C3  UNL     1       7.337 -32.264 -35.657  1.00  0.00     0.161 C 
HETATM    2  C4  UNL     1       7.755 -31.167 -34.797  1.00  0.00     0.062 C 
HETATM    3  N1  UNL     1       8.109 -30.280 -34.112  1.00  0.00    -0.197 NA
ENDROOT
BRANCH   1   4
HETATM    4  C2  UNL     1       7.848 -33.567 -35.035  1.00  0.00     0.070 C 
HETATM    5  C1  UNL     1       7.150 -33.737 -33.676  1.00  0.00     0.047 C 
HETATM    6  C5  UNL     1       7.377 -34.684 -35.903  1.00  0.00     0.040 C 
HETATM    7  C6  UNL     1       8.179 -34.797 -37.171  1.00  0.00     0.021 C 
HETATM    8  C7  UNL     1       9.526 -34.181 -37.100  1.00  0.00     0.077 C 
HETATM    9  S1  UNL     1      10.835 -35.453 -37.287  1.00  0.00    -0.159 SA
HETATM   10  C9  UNL     1      10.044 -33.918 -35.734  1.00  0.00     0.145 C 
HETATM   11  C8  UNL     1      10.638 -35.314 -35.490  1.00  0.00     0.107 C 
HETATM   12  O1  UNL     1       9.175 -33.509 -34.802  1.00  0.00    -0.372 OA
ENDBRANCH   1   4
TORSDOF 1
ENDMDL
