MODEL 1
REMARK VINA RESULT: -6.473074460      0.000      0.000
REMARK  1 active torsions:
REMARK  status: ('A' for Active; 'I' for Inactive)
REMARK    1  A    between atoms: C4_4  and  C5_5 
ROOT
HETATM    1  C1  UNL     1       4.207 -28.153 -36.801  1.00  0.00     0.000 C 
HETATM    2  C2  UNL     1       3.555 -27.137 -35.940  1.00  0.00     0.000 C 
HETATM    3  C3  UNL     1       3.707 -27.292 -34.480  1.00  0.00     0.007 C 
HETATM    4  C4  UNL     1       4.879 -28.013 -33.972  1.00  0.00     0.018 C 
HETATM    5  C8  UNL     1       5.686 -28.748 -35.015  1.00  0.00     0.007 C 
HETATM    6  C9  UNL     1       4.664 -29.350 -35.977  1.00  0.00     0.000 C 
ENDROOT
BRANCH   4   7
HETATM    7  C5  UNL     1       4.547 -28.993 -32.838  1.00  0.00     0.169 C 
HETATM    8  C6  UNL     1       5.618 -30.035 -32.701  1.00  0.00     0.065 C 
HETATM    9  C7  UNL     1       5.793 -30.524 -31.288  1.00  0.00     0.215 C 
HETATM   10  O1  UNL     1       5.101 -29.766 -30.363  1.00  0.00    -0.211 OA
HETATM   11  O2  UNL     1       5.161 -28.518 -30.726  1.00  0.00    -0.067 OA
HETATM   12  O3  UNL     1       4.256 -28.339 -31.667  1.00  0.00    -0.205 OA
ENDBRANCH   4   7
TORSDOF 1
ENDMDL
MODEL 2
REMARK VINA RESULT: -6.104052810      1.494      2.017
REMARK  1 active torsions:
REMARK  status: ('A' for Active; 'I' for Inactive)
REMARK    1  A    between atoms: C4_4  and  C5_5 
ROOT
HETATM    1  C1  UNL     1       3.670 -27.174 -34.952  1.00  0.00     0.000 C 
HETATM    2  C2  UNL     1       3.553 -26.975 -33.487  1.00  0.00     0.000 C 
HETATM    3  C3  UNL     1       4.269 -27.929 -32.619  1.00  0.00     0.007 C 
HETATM    4  C4  UNL     1       5.450 -28.613 -33.154  1.00  0.00     0.018 C 
HETATM    5  C8  UNL     1       5.665 -28.457 -34.641  1.00  0.00     0.007 C 
HETATM    6  C9  UNL     1       4.275 -28.535 -35.268  1.00  0.00     0.000 C 
ENDROOT
BRANCH   4   7
HETATM    7  C5  UNL     1       5.496 -30.108 -32.814  1.00  0.00     0.169 C 
HETATM    8  C6  UNL     1       6.687 -30.766 -33.446  1.00  0.00     0.065 C 
HETATM    9  C7  UNL     1       7.226 -31.919 -32.642  1.00  0.00     0.215 C 
HETATM   10  O1  UNL     1       6.669 -32.006 -31.380  1.00  0.00    -0.211 OA
HETATM   11  O2  UNL     1       6.499 -30.800 -30.922  1.00  0.00    -0.067 OA
HETATM   12  O3  UNL     1       5.394 -30.327 -31.462  1.00  0.00    -0.205 OA
ENDBRANCH   4   7
TORSDOF 1
ENDMDL
MODEL 3
REMARK VINA RESULT: -6.067800105      2.197      3.102
REMARK  1 active torsions:
REMARK  status: ('A' for Active; 'I' for Inactive)
REMARK    1  A    between atoms: C4_4  and  C5_5 
ROOT
HETATM    1  C1  UNL     1       3.175 -26.793 -32.972  1.00  0.00     0.000 C 
HETATM    2  C2  UNL     1       3.783 -27.165 -34.272  1.00  0.00     0.000 C 
HETATM    3  C3  UNL     1       4.752 -28.279 -34.267  1.00  0.00     0.007 C 
HETATM    4  C4  UNL     1       4.652 -29.289 -33.210  1.00  0.00     0.018 C 
HETATM    5  C8  UNL     1       3.715 -28.945 -32.076  1.00  0.00     0.007 C 
HETATM    6  C9  UNL     1       3.915 -27.454 -31.816  1.00  0.00     0.000 C 
ENDROOT
BRANCH   4   7
HETATM    7  C5  UNL     1       6.010 -29.683 -32.612  1.00  0.00     0.169 C 
HETATM    8  C6  UNL     1       5.844 -30.727 -31.547  1.00  0.00     0.065 C 
HETATM    9  C7  UNL     1       7.018 -31.664 -31.446  1.00  0.00     0.215 C 
HETATM   10  O1  UNL     1       7.912 -31.527 -32.491  1.00  0.00    -0.211 OA
HETATM   11  O2  UNL     1       7.238 -31.301 -33.581  1.00  0.00    -0.067 OA
HETATM   12  O3  UNL     1       6.917 -30.023 -33.585  1.00  0.00    -0.205 OA
ENDBRANCH   4   7
TORSDOF 1
ENDMDL
MODEL 4
REMARK VINA RESULT: -5.979514144      2.383      2.952
REMARK  1 active torsions:
REMARK  status: ('A' for Active; 'I' for Inactive)
REMARK    1  A    between atoms: C4_4  and  C5_5 
ROOT
HETATM    1  C1  UNL     1       5.201 -30.258 -37.032  1.00  0.00     0.000 C 
HETATM    2  C2  UNL     1       4.748 -29.007 -37.687  1.00  0.00     0.000 C 
HETATM    3  C3  UNL     1       4.261 -27.925 -36.809  1.00  0.00     0.007 C 
HETATM    4  C4  UNL     1       4.750 -27.871 -35.428  1.00  0.00     0.018 C 
HETATM    5  C8  UNL     1       5.516 -29.089 -34.967  1.00  0.00     0.007 C 
HETATM    6  C9  UNL     1       4.782 -30.287 -35.568  1.00  0.00     0.000 C 
ENDROOT
BRANCH   4   7
HETATM    7  C5  UNL     1       3.648 -27.576 -34.402  1.00  0.00     0.169 C 
HETATM    8  C6  UNL     1       4.038 -28.071 -33.040  1.00  0.00     0.065 C 
HETATM    9  C7  UNL     1       3.466 -27.241 -31.921  1.00  0.00     0.215 C 
HETATM   10  O1  UNL     1       2.887 -26.066 -32.359  1.00  0.00    -0.211 OA
HETATM   11  O2  UNL     1       3.604 -25.594 -33.337  1.00  0.00    -0.067 OA
HETATM   12  O3  UNL     1       3.268 -26.258 -34.425  1.00  0.00    -0.205 OA
ENDBRANCH   4   7
TORSDOF 1
ENDMDL
MODEL 5
REMARK VINA RESULT: -5.944009176      2.649      4.065
REMARK  1 active torsions:
REMARK  status: ('A' for Active; 'I' for Inactive)
REMARK    1  A    between atoms: C4_4  and  C5_5 
ROOT
HETATM    1  C1  UNL     1       7.274 -31.264 -33.146  1.00  0.00     0.000 C 
HETATM    2  C2  UNL     1       7.743 -30.100 -33.936  1.00  0.00     0.000 C 
HETATM    3  C3  UNL     1       6.866 -28.914 -33.974  1.00  0.00     0.007 C 
HETATM    4  C4  UNL     1       5.938 -28.694 -32.861  1.00  0.00     0.018 C 
HETATM    5  C8  UNL     1       5.796 -29.851 -31.902  1.00  0.00     0.007 C 
HETATM    6  C9  UNL     1       5.806 -31.108 -32.770  1.00  0.00     0.000 C 
ENDROOT
BRANCH   4   7
HETATM    7  C5  UNL     1       4.535 -28.265 -33.312  1.00  0.00     0.169 C 
HETATM    8  C6  UNL     1       3.791 -27.603 -32.190  1.00  0.00     0.065 C 
HETATM    9  C7  UNL     1       2.821 -26.551 -32.660  1.00  0.00     0.215 C 
HETATM   10  O1  UNL     1       2.965 -26.241 -33.999  1.00  0.00    -0.211 OA
HETATM   11  O2  UNL     1       4.233 -26.262 -34.292  1.00  0.00    -0.067 OA
HETATM   12  O3  UNL     1       4.575 -27.522 -34.466  1.00  0.00    -0.205 OA
ENDBRANCH   4   7
TORSDOF 1
ENDMDL
