MODEL 1
REMARK VINA RESULT: -6.180943023      0.000      0.000
REMARK  3 active torsions:
REMARK  status: ('A' for Active; 'I' for Inactive)
REMARK    1  A    between atoms: N1_1  and  N2_4 
REMARK    2  A    between atoms: N2_4  and  C1_6 
REMARK    3  A    between atoms: C1_6  and  N3_7 
ROOT
HETATM    1  C1  UNL     1      67.785  -8.575   3.873  1.00  0.00     0.138 C 
HETATM    2  C3  UNL     1      67.188  -9.327   2.799  1.00  0.00     0.093 A 
HETATM    3  C4  UNL     1      67.019  -8.764   1.550  1.00  0.00     0.113 A 
HETATM    4  N6  UNL     1      66.464  -9.459   0.546  1.00  0.00    -0.318 N 
ATOM      5  H6  UNL     1      66.351  -9.023  -0.369  1.00  0.00     0.170 HD
HETATM    6  C5  UNL     1      66.056 -10.729   0.738  1.00  0.00     0.327 A 
HETATM    7  O1  UNL     1      65.535 -11.360  -0.233  1.00  0.00    -0.247 OA
HETATM    8  N7  UNL     1      66.216 -11.284   1.952  1.00  0.00    -0.275 N 
ATOM      9  H7  UNL     1      65.906 -12.246   2.094  1.00  0.00     0.173 HD
HETATM   10  C6  UNL     1      66.768 -10.625   2.988  1.00  0.00     0.264 A 
HETATM   11  O2  UNL     1      66.898 -11.198   4.124  1.00  0.00    -0.267 OA
ENDROOT
BRANCH   1  12
HETATM   12  N2  UNL     1      67.790  -9.086   5.069  1.00  0.00    -0.291 N 
ATOM     13  H2  UNL     1      68.547  -9.720   5.322  1.00  0.00     0.188 HD
BRANCH  12  14
HETATM   14  N1  UNL     1      66.808  -8.806   6.023  1.00  0.00    -0.344 N 
ATOM     15  H12 UNL     1      65.915  -8.447   5.686  1.00  0.00     0.176 HD
ATOM     16  H11 UNL     1      66.948  -8.944   7.024  1.00  0.00     0.176 HD
ENDBRANCH  12  14
ENDBRANCH   1  12
BRANCH   1  17
HETATM   17  N3  UNL     1      68.377  -7.304   3.727  1.00  0.00    -0.317 N 
HETATM   18  C2  UNL     1      67.787  -6.195   3.970  1.00  0.00     0.202 C 
HETATM   19  N4  UNL     1      68.432  -4.950   3.805  1.00  0.00    -0.066 NA
HETATM   20  N5  UNL     1      66.445  -6.224   4.418  1.00  0.00    -0.066 NA
ATOM     21  H3  UNL     1      69.344  -7.265   3.404  1.00  0.00     0.169 HD
ENDBRANCH   1  17
TORSDOF 3
ENDMDL
MODEL 2
REMARK VINA RESULT: -5.811718778      1.762      2.846
REMARK  3 active torsions:
REMARK  status: ('A' for Active; 'I' for Inactive)
REMARK    1  A    between atoms: N1_1  and  N2_4 
REMARK    2  A    between atoms: N2_4  and  C1_6 
REMARK    3  A    between atoms: C1_6  and  N3_7 
ROOT
HETATM    1  C1  UNL     1      65.922  -7.800   3.693  1.00  0.00     0.138 C 
HETATM    2  C3  UNL     1      65.843  -8.733   2.598  1.00  0.00     0.093 A 
HETATM    3  C4  UNL     1      66.527  -9.931   2.639  1.00  0.00     0.113 A 
HETATM    4  N6  UNL     1      66.456 -10.804   1.623  1.00  0.00    -0.318 N 
ATOM      5  H6  UNL     1      66.970 -11.683   1.674  1.00  0.00     0.170 HD
HETATM    6  C5  UNL     1      65.712 -10.526   0.534  1.00  0.00     0.327 A 
HETATM    7  O1  UNL     1      65.666 -11.373  -0.411  1.00  0.00    -0.247 OA
HETATM    8  N7  UNL     1      65.042  -9.361   0.487  1.00  0.00    -0.275 N 
ATOM      9  H7  UNL     1      64.480  -9.154  -0.339  1.00  0.00     0.173 HD
HETATM   10  C6  UNL     1      65.083  -8.455   1.483  1.00  0.00     0.264 A 
HETATM   11  O2  UNL     1      64.428  -7.361   1.389  1.00  0.00    -0.267 OA
ENDROOT
BRANCH   1  12
HETATM   12  N2  UNL     1      65.386  -6.623   3.555  1.00  0.00    -0.291 N 
ATOM     13  H2  UNL     1      64.420  -6.491   3.855  1.00  0.00     0.188 HD
BRANCH  12  14
HETATM   14  N1  UNL     1      66.070  -5.530   3.015  1.00  0.00    -0.344 N 
ATOM     15  H12 UNL     1      66.983  -5.306   3.412  1.00  0.00     0.176 HD
ATOM     16  H11 UNL     1      65.700  -4.960   2.256  1.00  0.00     0.176 HD
ENDBRANCH  12  14
ENDBRANCH   1  12
BRANCH   1  17
HETATM   17  N3  UNL     1      66.547  -8.067   4.928  1.00  0.00    -0.317 N 
HETATM   18  C2  UNL     1      67.688  -7.608   5.280  1.00  0.00     0.202 C 
HETATM   19  N4  UNL     1      68.265  -7.911   6.533  1.00  0.00    -0.066 NA
HETATM   20  N5  UNL     1      68.389  -6.770   4.381  1.00  0.00    -0.066 NA
ATOM     21  H3  UNL     1      66.055  -8.670   5.588  1.00  0.00     0.169 HD
ENDBRANCH   1  17
TORSDOF 3
ENDMDL
MODEL 3
REMARK VINA RESULT: -5.592491653      2.085      2.933
REMARK  3 active torsions:
REMARK  status: ('A' for Active; 'I' for Inactive)
REMARK    1  A    between atoms: N1_1  and  N2_4 
REMARK    2  A    between atoms: N2_4  and  C1_6 
REMARK    3  A    between atoms: C1_6  and  N3_7 
ROOT
HETATM    1  C1  UNL     1      66.025  -8.530   3.652  1.00  0.00     0.138 C 
HETATM    2  C3  UNL     1      65.928  -9.139   2.350  1.00  0.00     0.093 A 
HETATM    3  C4  UNL     1      66.442 -10.398   2.117  1.00  0.00     0.113 A 
HETATM    4  N6  UNL     1      66.354 -10.970   0.907  1.00  0.00    -0.318 N 
ATOM      5  H6  UNL     1      66.741 -11.902   0.758  1.00  0.00     0.170 HD
HETATM    6  C5  UNL     1      65.759 -10.321  -0.114  1.00  0.00     0.327 A 
HETATM    7  O1  UNL     1      65.692 -10.890  -1.247  1.00  0.00    -0.247 OA
HETATM    8  N7  UNL     1      65.256  -9.093   0.105  1.00  0.00    -0.275 N 
ATOM      9  H7  UNL     1      64.806  -8.606  -0.670  1.00  0.00     0.173 HD
HETATM   10  C6  UNL     1      65.321  -8.481   1.302  1.00  0.00     0.264 A 
HETATM   11  O2  UNL     1      64.827  -7.312   1.458  1.00  0.00    -0.267 OA
ENDROOT
BRANCH   1  12
HETATM   12  N2  UNL     1      65.664  -7.289   3.793  1.00  0.00    -0.291 N 
ATOM     13  H2  UNL     1      66.140  -6.579   3.236  1.00  0.00     0.188 HD
BRANCH  12  14
HETATM   14  N1  UNL     1      64.656  -6.881   4.671  1.00  0.00    -0.344 N 
ATOM     15  H12 UNL     1      63.923  -7.557   4.890  1.00  0.00     0.176 HD
ATOM     16  H11 UNL     1      64.624  -5.953   5.091  1.00  0.00     0.176 HD
ENDBRANCH  12  14
ENDBRANCH   1  12
BRANCH   1  17
HETATM   17  N3  UNL     1      66.490  -9.188   4.809  1.00  0.00    -0.317 N 
HETATM   18  C2  UNL     1      67.404  -8.738   5.582  1.00  0.00     0.202 C 
HETATM   19  N4  UNL     1      67.829  -9.442   6.730  1.00  0.00    -0.066 NA
HETATM   20  N5  UNL     1      68.005  -7.495   5.273  1.00  0.00    -0.066 NA
ATOM     21  H3  UNL     1      66.067 -10.085   5.046  1.00  0.00     0.169 HD
ENDBRANCH   1  17
TORSDOF 3
ENDMDL
MODEL 4
REMARK VINA RESULT: -5.589438926      0.792      1.164
REMARK  3 active torsions:
REMARK  status: ('A' for Active; 'I' for Inactive)
REMARK    1  A    between atoms: N1_1  and  N2_4 
REMARK    2  A    between atoms: N2_4  and  C1_6 
REMARK    3  A    between atoms: C1_6  and  N3_7 
ROOT
HETATM    1  C1  UNL     1      66.499  -8.290   3.868  1.00  0.00     0.138 C 
HETATM    2  C3  UNL     1      66.243  -9.133   2.728  1.00  0.00     0.093 A 
HETATM    3  C4  UNL     1      65.856  -8.590   1.520  1.00  0.00     0.113 A 
HETATM    4  N6  UNL     1      65.617  -9.371   0.455  1.00  0.00    -0.318 N 
ATOM      5  H6  UNL     1      65.333  -8.948  -0.429  1.00  0.00     0.170 HD
HETATM    6  C5  UNL     1      65.749 -10.710   0.545  1.00  0.00     0.327 A 
HETATM    7  O1  UNL     1      65.515 -11.419  -0.481  1.00  0.00    -0.247 OA
HETATM    8  N7  UNL     1      66.125 -11.246   1.719  1.00  0.00    -0.275 N 
ATOM      9  H7  UNL     1      66.224 -12.259   1.784  1.00  0.00     0.173 HD
HETATM   10  C6  UNL     1      66.376 -10.502   2.813  1.00  0.00     0.264 A 
HETATM   11  O2  UNL     1      66.731 -11.060   3.907  1.00  0.00    -0.267 OA
ENDROOT
BRANCH   1  12
HETATM   12  N2  UNL     1      66.715  -8.845   5.024  1.00  0.00    -0.291 N 
ATOM     13  H2  UNL     1      65.921  -9.236   5.531  1.00  0.00     0.188 HD
BRANCH  12  14
HETATM   14  N1  UNL     1      67.983  -8.933   5.604  1.00  0.00    -0.344 N 
ATOM     15  H12 UNL     1      68.789  -8.793   4.995  1.00  0.00     0.176 HD
ATOM     16  H11 UNL     1      68.131  -9.129   6.594  1.00  0.00     0.176 HD
ENDBRANCH  12  14
ENDBRANCH   1  12
BRANCH   1  17
HETATM   17  N3  UNL     1      66.535  -6.881   3.828  1.00  0.00    -0.317 N 
HETATM   18  C2  UNL     1      67.557  -6.189   3.489  1.00  0.00     0.202 C 
HETATM   19  N4  UNL     1      67.533  -4.777   3.468  1.00  0.00    -0.066 NA
HETATM   20  N5  UNL     1      68.744  -6.866   3.124  1.00  0.00    -0.066 NA
ATOM     21  H3  UNL     1      65.687  -6.378   4.088  1.00  0.00     0.169 HD
ENDBRANCH   1  17
TORSDOF 3
ENDMDL
MODEL 5
REMARK VINA RESULT: -5.437776705      2.449      4.681
REMARK  3 active torsions:
REMARK  status: ('A' for Active; 'I' for Inactive)
REMARK    1  A    between atoms: N1_1  and  N2_4 
REMARK    2  A    between atoms: N2_4  and  C1_6 
REMARK    3  A    between atoms: C1_6  and  N3_7 
ROOT
HETATM    1  C1  UNL     1      66.773  -9.615   3.674  1.00  0.00     0.138 C 
HETATM    2  C3  UNL     1      67.292  -8.273   3.754  1.00  0.00     0.093 A 
HETATM    3  C4  UNL     1      68.015  -7.733   2.710  1.00  0.00     0.113 A 
HETATM    4  N6  UNL     1      68.501  -6.484   2.777  1.00  0.00    -0.318 N 
ATOM      5  H6  UNL     1      69.032  -6.104   1.994  1.00  0.00     0.170 HD
HETATM    6  C5  UNL     1      68.291  -5.727   3.874  1.00  0.00     0.327 A 
HETATM    7  O1  UNL     1      68.764  -4.549   3.906  1.00  0.00    -0.247 OA
HETATM    8  N7  UNL     1      67.588  -6.247   4.895  1.00  0.00    -0.275 N 
ATOM      9  H7  UNL     1      67.431  -5.672   5.722  1.00  0.00     0.173 HD
HETATM   10  C6  UNL     1      67.081  -7.495   4.870  1.00  0.00     0.264 A 
HETATM   11  O2  UNL     1      66.419  -7.943   5.868  1.00  0.00    -0.267 OA
ENDROOT
BRANCH   1  12
HETATM   12  N2  UNL     1      66.227 -10.140   4.732  1.00  0.00    -0.291 N 
ATOM     13  H2  UNL     1      65.221 -10.030   4.864  1.00  0.00     0.188 HD
BRANCH  12  14
HETATM   14  N1  UNL     1      66.952 -10.846   5.695  1.00  0.00    -0.344 N 
ATOM     15  H12 UNL     1      67.717 -10.356   6.159  1.00  0.00     0.176 HD
ATOM     16  H11 UNL     1      66.749 -11.813   5.947  1.00  0.00     0.176 HD
ENDBRANCH  12  14
ENDBRANCH   1  12
BRANCH   1  17
HETATM   17  N3  UNL     1      66.810 -10.420   2.518  1.00  0.00    -0.317 N 
HETATM   18  C2  UNL     1      65.917 -10.417   1.602  1.00  0.00     0.202 C 
HETATM   19  N4  UNL     1      66.008 -11.248   0.463  1.00  0.00    -0.066 NA
HETATM   20  N5  UNL     1      64.806  -9.552   1.738  1.00  0.00    -0.066 NA
ATOM     21  H3  UNL     1      67.604 -11.049   2.404  1.00  0.00     0.169 HD
ENDBRANCH   1  17
TORSDOF 3
ENDMDL
