MODEL 1
REMARK VINA RESULT: -9.063876547      0.000      0.000
REMARK  8 active torsions:
REMARK  status: ('A' for Active; 'I' for Inactive)
REMARK    1  A    between atoms: C2_2  and  C3_3 
REMARK    2  A    between atoms: C3_3  and  S1_4 
REMARK    3  A    between atoms: S1_4  and  N1_7 
REMARK    4  A    between atoms: N1_7  and  C4_9 
REMARK    5  A    between atoms: C7_16  and  C8_17 
REMARK    6  A    between atoms: C8_17  and  N3_18 
REMARK       I    between atoms: N3_18  and  C9_19 
REMARK    7  A    between atoms: C9_19  and  O5_21 
REMARK    8  A    between atoms: O5_21  and  C10_22 
ROOT
HETATM    1  C4  UNL     1      15.369   9.976  -1.184  1.00  0.00     0.161 A 
HETATM    2  N2  UNL     1      16.098  10.828  -0.440  1.00  0.00    -0.337 N 
ATOM      3  H2  UNL     1      16.703  11.517  -0.887  1.00  0.00     0.168 HD
HETATM    4  C5  UNL     1      16.022  10.762   0.857  1.00  0.00     0.052 A 
HETATM    5  C6  UNL     1      15.200   9.826   1.411  1.00  0.00     0.136 A 
HETATM    6  S2  UNL     1      14.549   9.063   0.036  1.00  0.00    -0.027 SA
HETATM    7  O3  UNL     1      15.041   9.659   2.824  1.00  0.00    -0.330 OA
HETATM    8  C7  UNL     1      16.090  10.163   3.623  1.00  0.00     0.182 C 
HETATM    9  C18 UNL     1      16.211  11.635   3.175  1.00  0.00     0.045 C 
HETATM   10  C19 UNL     1      16.782  11.666   1.812  1.00  0.00     0.063 C 
ENDROOT
BRANCH   8  11
HETATM   11  C8  UNL     1      15.900  10.157   5.089  1.00  0.00     0.194 C 
BRANCH  11  12
HETATM   12  N3  UNL     1      14.952   9.468   5.675  1.00  0.00    -0.360 NA
HETATM   13  C9  UNL     1      13.966   8.665   6.285  1.00  0.00     0.444 C 
HETATM   14  O4  UNL     1      13.952   7.379   6.281  1.00  0.00    -0.221 OA
BRANCH  13  15
HETATM   15  O5  UNL     1      12.883   9.146   6.975  1.00  0.00    -0.254 OA
BRANCH  15  16
HETATM   16  C10 UNL     1      12.908   9.729   8.269  1.00  0.00     0.059 C 
HETATM   17  C11 UNL     1      13.529  11.063   8.370  1.00  0.00     0.065 C 
HETATM   18  C12 UNL     1      13.248  11.711   9.711  1.00  0.00     0.006 C 
HETATM   19  C13 UNL     1      14.073  11.185  10.834  1.00  0.00     0.001 C 
HETATM   20  C14 UNL     1      15.455  10.893  10.341  1.00  0.00     0.004 C 
HETATM   21  C15 UNL     1      15.660   9.520   9.824  1.00  0.00     0.027 C 
HETATM   22  C16 UNL     1      14.543   8.558   9.912  1.00  0.00    -0.024 C 
HETATM   23  C17 UNL     1      13.254   8.720   9.316  1.00  0.00     0.029 C 
ENDBRANCH  15  16
ENDBRANCH  13  15
ENDBRANCH  11  12
ENDBRANCH   8  11
BRANCH   1  24
HETATM   24  N1  UNL     1      15.403   9.889  -2.421  1.00  0.00    -0.264 N 
ATOM     25  H1  UNL     1      16.330  10.183  -2.727  1.00  0.00     0.180 HD
BRANCH  24  26
HETATM   26  S1  UNL     1      14.546   9.489  -3.744  1.00  0.00     0.232 S 
HETATM   27  O1  UNL     1      14.413   7.977  -3.878  1.00  0.00    -0.206 OA
HETATM   28  O2  UNL     1      15.083   9.992  -5.065  1.00  0.00    -0.206 OA
BRANCH  26  29
HETATM   29  C3  UNL     1      12.843  10.092  -3.684  1.00  0.00     0.163 C 
BRANCH  29  30
HETATM   30  C2  UNL     1      12.135   9.700  -4.961  1.00  0.00     0.012 C 
HETATM   31  C1  UNL     1      10.642   9.696  -4.849  1.00  0.00     0.006 C 
ENDBRANCH  29  30
ENDBRANCH  26  29
ENDBRANCH  24  26
ENDBRANCH   1  24
TORSDOF 8
ENDMDL
MODEL 2
REMARK VINA RESULT: -8.815850804      1.409      2.057
REMARK  8 active torsions:
REMARK  status: ('A' for Active; 'I' for Inactive)
REMARK    1  A    between atoms: C2_2  and  C3_3 
REMARK    2  A    between atoms: C3_3  and  S1_4 
REMARK    3  A    between atoms: S1_4  and  N1_7 
REMARK    4  A    between atoms: N1_7  and  C4_9 
REMARK    5  A    between atoms: C7_16  and  C8_17 
REMARK    6  A    between atoms: C8_17  and  N3_18 
REMARK       I    between atoms: N3_18  and  C9_19 
REMARK    7  A    between atoms: C9_19  and  O5_21 
REMARK    8  A    between atoms: O5_21  and  C10_22 
ROOT
HETATM    1  C4  UNL     1      15.429  10.198  -1.611  1.00  0.00     0.161 A 
HETATM    2  N2  UNL     1      14.427  10.275  -0.714  1.00  0.00    -0.337 N 
ATOM      3  H2  UNL     1      13.455  10.238  -1.020  1.00  0.00     0.168 HD
HETATM    4  C5  UNL     1      14.715  10.397   0.549  1.00  0.00     0.052 A 
HETATM    5  C6  UNL     1      16.029  10.441   0.913  1.00  0.00     0.136 A 
HETATM    6  S2  UNL     1      16.821  10.300  -0.588  1.00  0.00    -0.027 SA
HETATM    7  O3  UNL     1      16.462  10.579   2.270  1.00  0.00    -0.330 OA
HETATM    8  C7  UNL     1      15.517  11.128   3.163  1.00  0.00     0.182 C 
HETATM    9  C18 UNL     1      14.282  10.219   2.989  1.00  0.00     0.045 C 
HETATM   10  C19 UNL     1      13.686  10.486   1.662  1.00  0.00     0.063 C 
ENDROOT
BRANCH   8  11
HETATM   11  C8  UNL     1      15.861  11.143   4.602  1.00  0.00     0.194 C 
BRANCH  11  12
HETATM   12  N3  UNL     1      16.123  10.052   5.276  1.00  0.00    -0.360 NA
HETATM   13  C9  UNL     1      16.476   8.898   6.005  1.00  0.00     0.444 C 
HETATM   14  O4  UNL     1      17.666   8.601   6.393  1.00  0.00    -0.221 OA
BRANCH  13  15
HETATM   15  O5  UNL     1      15.593   7.928   6.410  1.00  0.00    -0.254 OA
BRANCH  15  16
HETATM   16  C10 UNL     1      14.624   8.056   7.438  1.00  0.00     0.059 C 
HETATM   17  C11 UNL     1      13.385   8.771   7.079  1.00  0.00     0.065 C 
HETATM   18  C12 UNL     1      12.314   8.601   8.139  1.00  0.00     0.006 C 
HETATM   19  C13 UNL     1      12.509   9.443   9.351  1.00  0.00     0.001 C 
HETATM   20  C14 UNL     1      13.056  10.776   8.950  1.00  0.00     0.004 C 
HETATM   21  C15 UNL     1      14.535  10.861   8.908  1.00  0.00     0.027 C 
HETATM   22  C16 UNL     1      15.322   9.687   9.335  1.00  0.00    -0.024 C 
HETATM   23  C17 UNL     1      15.260   8.384   8.750  1.00  0.00     0.029 C 
ENDBRANCH  15  16
ENDBRANCH  13  15
ENDBRANCH  11  12
ENDBRANCH   8  11
BRANCH   1  24
HETATM   24  N1  UNL     1      15.290  10.150  -2.842  1.00  0.00    -0.264 N 
ATOM     25  H1  UNL     1      16.087  10.628  -3.263  1.00  0.00     0.180 HD
BRANCH  24  26
HETATM   26  S1  UNL     1      14.335   9.621  -4.047  1.00  0.00     0.232 S 
HETATM   27  O1  UNL     1      14.361   8.100  -4.143  1.00  0.00    -0.206 OA
HETATM   28  O2  UNL     1      14.652  10.145  -5.430  1.00  0.00    -0.206 OA
BRANCH  26  29
HETATM   29  C3  UNL     1      12.594  10.031  -3.791  1.00  0.00     0.163 C 
BRANCH  29  30
HETATM   30  C2  UNL     1      11.778   9.453  -4.926  1.00  0.00     0.012 C 
HETATM   31  C1  UNL     1      10.342   9.873  -4.915  1.00  0.00     0.006 C 
ENDBRANCH  29  30
ENDBRANCH  26  29
ENDBRANCH  24  26
ENDBRANCH   1  24
TORSDOF 8
ENDMDL
MODEL 3
REMARK VINA RESULT: -8.675764066      5.215      7.393
REMARK  8 active torsions:
REMARK  status: ('A' for Active; 'I' for Inactive)
REMARK    1  A    between atoms: C2_2  and  C3_3 
REMARK    2  A    between atoms: C3_3  and  S1_4 
REMARK    3  A    between atoms: S1_4  and  N1_7 
REMARK    4  A    between atoms: N1_7  and  C4_9 
REMARK    5  A    between atoms: C7_16  and  C8_17 
REMARK    6  A    between atoms: C8_17  and  N3_18 
REMARK       I    between atoms: N3_18  and  C9_19 
REMARK    7  A    between atoms: C9_19  and  O5_21 
REMARK    8  A    between atoms: O5_21  and  C10_22 
ROOT
HETATM    1  C4  UNL     1      21.559   7.816   2.304  1.00  0.00     0.161 A 
HETATM    2  N2  UNL     1      21.185   8.520   1.218  1.00  0.00    -0.337 N 
ATOM      3  H2  UNL     1      21.652   8.374   0.323  1.00  0.00     0.168 HD
HETATM    4  C5  UNL     1      20.223   9.388   1.325  1.00  0.00     0.052 A 
HETATM    5  C6  UNL     1      19.627   9.549   2.541  1.00  0.00     0.136 A 
HETATM    6  S2  UNL     1      20.476   8.431   3.505  1.00  0.00    -0.027 SA
HETATM    7  O3  UNL     1      18.564  10.477   2.777  1.00  0.00    -0.330 OA
HETATM    8  C7  UNL     1      18.459  11.539   1.852  1.00  0.00     0.182 C 
HETATM    9  C18 UNL     1      18.376  10.823   0.487  1.00  0.00     0.045 C 
HETATM   10  C19 UNL     1      19.700  10.239   0.181  1.00  0.00     0.063 C 
ENDROOT
BRANCH   8  11
HETATM   11  C8  UNL     1      17.285  12.431   1.961  1.00  0.00     0.194 C 
BRANCH  11  12
HETATM   12  N3  UNL     1      16.282  12.182   2.765  1.00  0.00    -0.360 NA
HETATM   13  C9  UNL     1      15.156  11.931   3.576  1.00  0.00     0.444 C 
HETATM   14  O4  UNL     1      13.932  12.052   3.202  1.00  0.00    -0.221 OA
BRANCH  13  15
HETATM   15  O5  UNL     1      15.211  11.513   4.882  1.00  0.00    -0.254 OA
BRANCH  15  16
HETATM   16  C10 UNL     1      14.767  10.260   5.378  1.00  0.00     0.059 C 
HETATM   17  C11 UNL     1      14.174  10.269   6.729  1.00  0.00     0.065 C 
HETATM   18  C12 UNL     1      13.479   8.959   7.042  1.00  0.00     0.006 C 
HETATM   19  C13 UNL     1      14.399   7.844   7.399  1.00  0.00     0.001 C 
HETATM   20  C14 UNL     1      15.539   8.378   8.207  1.00  0.00     0.004 C 
HETATM   21  C15 UNL     1      16.714   8.818   7.420  1.00  0.00     0.027 C 
HETATM   22  C16 UNL     1      16.698   8.622   5.956  1.00  0.00    -0.024 C 
HETATM   23  C17 UNL     1      15.735   9.170   5.052  1.00  0.00     0.029 C 
ENDBRANCH  15  16
ENDBRANCH  13  15
ENDBRANCH  11  12
ENDBRANCH   8  11
BRANCH   1  24
HETATM   24  N1  UNL     1      22.502   7.013   2.352  1.00  0.00    -0.264 N 
ATOM     25  H1  UNL     1      22.691   6.698   1.401  1.00  0.00     0.180 HD
BRANCH  24  26
HETATM   26  S1  UNL     1      23.555   6.267   3.341  1.00  0.00     0.232 S 
HETATM   27  O1  UNL     1      24.146   7.242   4.353  1.00  0.00    -0.206 OA
HETATM   28  O2  UNL     1      24.725   5.578   2.674  1.00  0.00    -0.206 OA
BRANCH  26  29
HETATM   29  C3  UNL     1      22.781   4.980   4.347  1.00  0.00     0.163 C 
BRANCH  29  30
HETATM   30  C2  UNL     1      21.712   4.291   3.529  1.00  0.00     0.012 C 
HETATM   31  C1  UNL     1      20.323   4.506   4.044  1.00  0.00     0.006 C 
ENDBRANCH  29  30
ENDBRANCH  26  29
ENDBRANCH  24  26
ENDBRANCH   1  24
TORSDOF 8
ENDMDL
MODEL 4
REMARK VINA RESULT: -8.600325573      6.560     10.587
REMARK  8 active torsions:
REMARK  status: ('A' for Active; 'I' for Inactive)
REMARK    1  A    between atoms: C2_2  and  C3_3 
REMARK    2  A    between atoms: C3_3  and  S1_4 
REMARK    3  A    between atoms: S1_4  and  N1_7 
REMARK    4  A    between atoms: N1_7  and  C4_9 
REMARK    5  A    between atoms: C7_16  and  C8_17 
REMARK    6  A    between atoms: C8_17  and  N3_18 
REMARK       I    between atoms: N3_18  and  C9_19 
REMARK    7  A    between atoms: C9_19  and  O5_21 
REMARK    8  A    between atoms: O5_21  and  C10_22 
ROOT
HETATM    1  C4  UNL     1      22.855   7.616   4.410  1.00  0.00     0.161 A 
HETATM    2  N2  UNL     1      23.148   7.655   3.097  1.00  0.00    -0.337 N 
ATOM      3  H2  UNL     1      23.946   7.136   2.730  1.00  0.00     0.168 HD
HETATM    4  C5  UNL     1      22.401   8.364   2.302  1.00  0.00     0.052 A 
HETATM    5  C6  UNL     1      21.345   9.041   2.837  1.00  0.00     0.136 A 
HETATM    6  S2  UNL     1      21.456   8.631   4.486  1.00  0.00    -0.027 SA
HETATM    7  O3  UNL     1      20.461   9.855   2.060  1.00  0.00    -0.330 OA
HETATM    8  C7  UNL     1      20.972  10.311   0.825  1.00  0.00     0.182 C 
HETATM    9  C18 UNL     1      21.415   9.013   0.116  1.00  0.00     0.045 C 
HETATM   10  C19 UNL     1      22.614   8.489   0.803  1.00  0.00     0.063 C 
ENDROOT
BRANCH   8  11
HETATM   11  C8  UNL     1      20.044  11.020  -0.081  1.00  0.00     0.194 C 
BRANCH  11  12
HETATM   12  N3  UNL     1      18.984  11.657   0.350  1.00  0.00    -0.360 NA
HETATM   13  C9  UNL     1      17.888  12.396   0.841  1.00  0.00     0.444 C 
HETATM   14  O4  UNL     1      17.969  13.520   1.460  1.00  0.00    -0.221 OA
BRANCH  13  15
HETATM   15  O5  UNL     1      16.574  12.020   0.719  1.00  0.00    -0.254 OA
BRANCH  15  16
HETATM   16  C10 UNL     1      16.099  10.816   0.137  1.00  0.00     0.059 C 
HETATM   17  C11 UNL     1      16.328  10.659  -1.312  1.00  0.00     0.065 C 
HETATM   18  C12 UNL     1      16.052   9.241  -1.770  1.00  0.00     0.006 C 
HETATM   19  C13 UNL     1      14.606   8.910  -1.912  1.00  0.00     0.001 C 
HETATM   20  C14 UNL     1      13.873  10.100  -2.446  1.00  0.00     0.004 C 
HETATM   21  C15 UNL     1      13.347  11.027  -1.418  1.00  0.00     0.027 C 
HETATM   22  C16 UNL     1      13.509  10.669   0.006  1.00  0.00    -0.024 C 
HETATM   23  C17 UNL     1      14.754  10.445   0.672  1.00  0.00     0.029 C 
ENDBRANCH  15  16
ENDBRANCH  13  15
ENDBRANCH  11  12
ENDBRANCH   8  11
BRANCH   1  24
HETATM   24  N1  UNL     1      23.524   7.038   5.280  1.00  0.00    -0.264 N 
ATOM     25  H1  UNL     1      23.346   7.504   6.170  1.00  0.00     0.180 HD
BRANCH  24  26
HETATM   26  S1  UNL     1      24.572   5.825   5.556  1.00  0.00     0.232 S 
HETATM   27  O1  UNL     1      24.962   5.759   7.028  1.00  0.00    -0.206 OA
HETATM   28  O2  UNL     1      25.864   5.868   4.770  1.00  0.00    -0.206 OA
BRANCH  26  29
HETATM   29  C3  UNL     1      23.872   4.199   5.196  1.00  0.00     0.163 C 
BRANCH  29  30
HETATM   30  C2  UNL     1      22.600   4.374   4.398  1.00  0.00     0.012 C 
HETATM   31  C1  UNL     1      21.669   3.205   4.477  1.00  0.00     0.006 C 
ENDBRANCH  29  30
ENDBRANCH  26  29
ENDBRANCH  24  26
ENDBRANCH   1  24
TORSDOF 8
ENDMDL
MODEL 5
REMARK VINA RESULT: -8.585494805      5.773      7.567
REMARK  8 active torsions:
REMARK  status: ('A' for Active; 'I' for Inactive)
REMARK    1  A    between atoms: C2_2  and  C3_3 
REMARK    2  A    between atoms: C3_3  and  S1_4 
REMARK    3  A    between atoms: S1_4  and  N1_7 
REMARK    4  A    between atoms: N1_7  and  C4_9 
REMARK    5  A    between atoms: C7_16  and  C8_17 
REMARK    6  A    between atoms: C8_17  and  N3_18 
REMARK       I    between atoms: N3_18  and  C9_19 
REMARK    7  A    between atoms: C9_19  and  O5_21 
REMARK    8  A    between atoms: O5_21  and  C10_22 
ROOT
HETATM    1  C4  UNL     1      16.412  10.995   0.600  1.00  0.00     0.161 A 
HETATM    2  N2  UNL     1      17.431  10.231   0.164  1.00  0.00    -0.337 N 
ATOM      3  H2  UNL     1      17.276   9.522  -0.553  1.00  0.00     0.168 HD
HETATM    4  C5  UNL     1      18.617  10.409   0.668  1.00  0.00     0.052 A 
HETATM    5  C6  UNL     1      18.778  11.368   1.623  1.00  0.00     0.136 A 
HETATM    6  S2  UNL     1      17.203  11.998   1.767  1.00  0.00    -0.027 SA
HETATM    7  O3  UNL     1      20.034  11.647   2.251  1.00  0.00    -0.330 OA
HETATM    8  C7  UNL     1      20.989  10.609   2.199  1.00  0.00     0.182 C 
HETATM    9  C18 UNL     1      21.098  10.292   0.693  1.00  0.00     0.045 C 
HETATM   10  C19 UNL     1      19.852   9.623   0.262  1.00  0.00     0.063 C 
ENDROOT
BRANCH   8  11
HETATM   11  C8  UNL     1      22.352  10.905   2.693  1.00  0.00     0.194 C 
BRANCH  11  12
HETATM   12  N3  UNL     1      22.828  10.395   3.801  1.00  0.00    -0.360 NA
HETATM   13  C9  UNL     1      23.399   9.888   4.986  1.00  0.00     0.444 C 
HETATM   14  O4  UNL     1      24.537  10.242   5.471  1.00  0.00    -0.221 OA
BRANCH  13  15
HETATM   15  O5  UNL     1      22.815   8.947   5.796  1.00  0.00    -0.254 OA
BRANCH  15  16
HETATM   16  C10 UNL     1      22.594   7.584   5.470  1.00  0.00     0.059 C 
HETATM   17  C11 UNL     1      23.746   6.855   4.906  1.00  0.00     0.065 C 
HETATM   18  C12 UNL     1      23.497   5.361   4.866  1.00  0.00     0.006 C 
HETATM   19  C13 UNL     1      22.608   4.914   3.758  1.00  0.00     0.001 C 
HETATM   20  C14 UNL     1      22.890   5.729   2.535  1.00  0.00     0.004 C 
HETATM   21  C15 UNL     1      22.084   6.965   2.405  1.00  0.00     0.027 C 
HETATM   22  C16 UNL     1      21.042   7.240   3.415  1.00  0.00    -0.024 C 
HETATM   23  C17 UNL     1      21.263   7.387   4.820  1.00  0.00     0.029 C 
ENDBRANCH  15  16
ENDBRANCH  13  15
ENDBRANCH  11  12
ENDBRANCH   8  11
BRANCH   1  24
HETATM   24  N1  UNL     1      15.227  10.881   0.253  1.00  0.00    -0.264 N 
ATOM     25  H1  UNL     1      14.652  10.909   1.095  1.00  0.00     0.180 HD
BRANCH  24  26
HETATM   26  S1  UNL     1      14.232  10.704  -1.021  1.00  0.00     0.232 S 
HETATM   27  O1  UNL     1      13.713  12.053  -1.506  1.00  0.00    -0.206 OA
HETATM   28  O2  UNL     1      13.017   9.829  -0.804  1.00  0.00    -0.206 OA
BRANCH  26  29
HETATM   29  C3  UNL     1      15.058   9.990  -2.461  1.00  0.00     0.163 C 
BRANCH  29  30
HETATM   30  C2  UNL     1      14.107  10.011  -3.637  1.00  0.00     0.012 C 
HETATM   31  C1  UNL     1      14.732  10.481  -4.913  1.00  0.00     0.006 C 
ENDBRANCH  29  30
ENDBRANCH  26  29
ENDBRANCH  24  26
ENDBRANCH   1  24
TORSDOF 8
ENDMDL
