MODEL 1
REMARK VINA RESULT: -9.146520233      0.000      0.000
REMARK  3 active torsions:
REMARK  status: ('A' for Active; 'I' for Inactive)
REMARK    1  A    between atoms: C3_10  and  C4_11 
REMARK       I    between atoms: C4_11  and  N5_13 
REMARK    2  A    between atoms: N5_13  and  C5_15 
REMARK    3  A    between atoms: C6_18  and  N7_19 
ROOT
HETATM    1  C5  UNL     1      19.377  -5.419  88.915  1.00  0.00     0.148 A 
HETATM    2  N6  UNL     1      18.693  -5.327  90.069  1.00  0.00    -0.173 N 
ATOM      3  H6  UNL     1      19.044  -5.823  90.888  1.00  0.00     0.186 HD
HETATM    4  C6  UNL     1      17.564  -4.604  90.185  1.00  0.00     0.700 A 
HETATM    5  N8  UNL     1      17.075  -3.938  89.120  1.00  0.00    -0.064 N 
HETATM    6  N9  UNL     1      16.018  -3.177  88.958  1.00  0.00    -0.228 N 
ATOM      7  H9  UNL     1      15.328  -2.941  89.673  1.00  0.00     0.193 HD
HETATM    8  C7  UNL     1      16.010  -2.764  87.681  1.00  0.00     0.341 A 
HETATM    9  O2  UNL     1      15.149  -2.010  87.128  1.00  0.00    -0.245 OA
HETATM   10  N10 UNL     1      17.065  -3.264  87.023  1.00  0.00    -0.290 N 
ATOM     11  H10 UNL     1      17.315  -3.121  86.044  1.00  0.00     0.172 HD
HETATM   12  C8  UNL     1      17.727  -4.003  87.950  1.00  0.00     0.174 A 
HETATM   13  C9  UNL     1      18.898  -4.749  87.819  1.00  0.00     0.135 A 
HETATM   14  C10 UNL     1      19.585  -4.810  86.557  1.00  0.00     0.107 C 
HETATM   15  N11 UNL     1      20.159  -4.862  85.541  1.00  0.00    -0.191 NA
ENDROOT
BRANCH   1  16
HETATM   16  N5  UNL     1      20.473  -6.124  88.814  1.00  0.00    -0.305 N 
HETATM   17  C4  UNL     1      20.437  -7.540  88.709  1.00  0.00     0.291 C 
HETATM   18  O1  UNL     1      20.113  -8.199  89.733  1.00  0.00    -0.264 OA
ATOM     19  H5  UNL     1      21.374  -5.646  88.811  1.00  0.00     0.170 HD
BRANCH  17  20
HETATM   20  C3  UNL     1      20.771  -8.168  87.443  1.00  0.00     0.180 A 
HETATM   21  N4  UNL     1      20.041  -8.126  86.318  1.00  0.00    -0.320 N 
HETATM   22  C2  UNL     1      20.632  -8.813  85.323  1.00  0.00     0.169 A 
ATOM     23  H4  UNL     1      19.151  -7.637  86.229  1.00  0.00     0.169 HD
HETATM   24  N3  UNL     1      20.566  -9.213  84.041  1.00  0.00    -0.268 N 
HETATM   25  C12 UNL     1      21.802  -9.318  85.849  1.00  0.00     0.173 A 
HETATM   26  N2  UNL     1      21.629  -9.937  83.743  1.00  0.00    -0.238 N 
ATOM     27  H3  UNL     1      19.808  -8.989  83.396  1.00  0.00     0.190 HD
HETATM   28  N1  UNL     1      22.364  -9.995  84.832  1.00  0.00    -0.263 N 
ATOM     29  H2  UNL     1      21.839 -10.367  82.842  1.00  0.00     0.208 HD
HETATM   30  C1  UNL     1      23.633 -10.698  84.949  1.00  0.00     0.181 C 
HETATM   31  N12 UNL     1      21.857  -8.912  87.130  1.00  0.00    -0.315 N 
HETATM   32  C11 UNL     1      22.921  -9.217  88.059  1.00  0.00     0.159 C 
ENDBRANCH  17  20
ENDBRANCH   1  16
BRANCH   4  33
HETATM   33  N7  UNL     1      16.963  -4.562  91.320  1.00  0.00    -0.233 N 
ATOM     34  H72 UNL     1      16.241  -3.864  91.503  1.00  0.00     0.174 HD
ATOM     35  H71 UNL     1      17.215  -5.238  92.040  1.00  0.00     0.174 HD
ENDBRANCH   4  33
TORSDOF 3
ENDMDL
MODEL 2
REMARK VINA RESULT: -8.420822000      2.359      7.400
REMARK  3 active torsions:
REMARK  status: ('A' for Active; 'I' for Inactive)
REMARK    1  A    between atoms: C3_10  and  C4_11 
REMARK       I    between atoms: C4_11  and  N5_13 
REMARK    2  A    between atoms: N5_13  and  C5_15 
REMARK    3  A    between atoms: C6_18  and  N7_19 
ROOT
HETATM    1  C5  UNL     1      21.779  -8.355  87.015  1.00  0.00     0.148 A 
HETATM    2  N6  UNL     1      22.880  -8.670  87.720  1.00  0.00    -0.173 N 
ATOM      3  H6  UNL     1      22.816  -8.707  88.737  1.00  0.00     0.186 HD
HETATM    4  C6  UNL     1      24.062  -8.940  87.135  1.00  0.00     0.700 A 
HETATM    5  N8  UNL     1      24.177  -8.899  85.793  1.00  0.00    -0.064 N 
HETATM    6  N9  UNL     1      25.187  -9.113  84.983  1.00  0.00    -0.228 N 
ATOM      7  H9  UNL     1      26.137  -9.367  85.255  1.00  0.00     0.193 HD
HETATM    8  C7  UNL     1      24.742  -8.937  83.729  1.00  0.00     0.341 A 
HETATM    9  O2  UNL     1      25.415  -9.052  82.657  1.00  0.00    -0.245 OA
HETATM   10  N10 UNL     1      23.443  -8.608  83.737  1.00  0.00    -0.290 N 
ATOM     11  H10 UNL     1      22.843  -8.414  82.935  1.00  0.00     0.172 HD
HETATM   12  C8  UNL     1      23.103  -8.590  85.052  1.00  0.00     0.174 A 
HETATM   13  C9  UNL     1      21.874  -8.308  85.647  1.00  0.00     0.135 A 
HETATM   14  C10 UNL     1      20.731  -7.977  84.838  1.00  0.00     0.107 C 
HETATM   15  N11 UNL     1      19.793  -7.715  84.194  1.00  0.00    -0.191 NA
ENDROOT
BRANCH   1  16
HETATM   16  N5  UNL     1      20.636  -8.095  87.593  1.00  0.00    -0.305 N 
HETATM   17  C4  UNL     1      20.459  -6.940  88.400  1.00  0.00     0.291 C 
HETATM   18  O1  UNL     1      21.029  -6.913  89.523  1.00  0.00    -0.264 OA
ATOM     19  H5  UNL     1      19.854  -8.737  87.462  1.00  0.00     0.170 HD
BRANCH  17  20
HETATM   20  C3  UNL     1      19.640  -5.847  87.908  1.00  0.00     0.180 A 
HETATM   21  N4  UNL     1      19.736  -5.261  86.705  1.00  0.00    -0.320 N 
HETATM   22  C2  UNL     1      18.828  -4.278  86.564  1.00  0.00     0.169 A 
ATOM     23  H4  UNL     1      20.412  -5.525  85.989  1.00  0.00     0.169 HD
HETATM   24  N3  UNL     1      18.322  -3.323  85.764  1.00  0.00    -0.268 N 
HETATM   25  C12 UNL     1      18.117  -4.241  87.745  1.00  0.00     0.173 A 
HETATM   26  N2  UNL     1      17.338  -2.696  86.383  1.00  0.00    -0.238 N 
ATOM     27  H3  UNL     1      18.650  -3.114  84.821  1.00  0.00     0.190 HD
HETATM   28  N1  UNL     1      17.222  -3.252  87.569  1.00  0.00    -0.263 N 
ATOM     29  H2  UNL     1      16.777  -1.929  86.012  1.00  0.00     0.208 HD
HETATM   30  C1  UNL     1      16.254  -2.865  88.584  1.00  0.00     0.181 C 
HETATM   31  N12 UNL     1      18.631  -5.199  88.536  1.00  0.00    -0.315 N 
HETATM   32  C11 UNL     1      18.181  -5.510  89.874  1.00  0.00     0.159 C 
ENDBRANCH  17  20
ENDBRANCH   1  16
BRANCH   4  33
HETATM   33  N7  UNL     1      25.072  -9.234  87.874  1.00  0.00    -0.233 N 
ATOM     34  H72 UNL     1      24.948  -9.466  88.859  1.00  0.00     0.174 HD
ATOM     35  H71 UNL     1      26.004  -9.234  87.461  1.00  0.00     0.174 HD
ENDBRANCH   4  33
TORSDOF 3
ENDMDL
MODEL 3
REMARK VINA RESULT: -8.191750862      2.134      7.792
REMARK  3 active torsions:
REMARK  status: ('A' for Active; 'I' for Inactive)
REMARK    1  A    between atoms: C3_10  and  C4_11 
REMARK       I    between atoms: C4_11  and  N5_13 
REMARK    2  A    between atoms: N5_13  and  C5_15 
REMARK    3  A    between atoms: C6_18  and  N7_19 
ROOT
HETATM    1  C5  UNL     1      21.295  -7.495  85.936  1.00  0.00     0.148 A 
HETATM    2  N6  UNL     1      21.188  -7.868  84.649  1.00  0.00    -0.173 N 
ATOM      3  H6  UNL     1      21.008  -7.153  83.945  1.00  0.00     0.186 HD
HETATM    4  C6  UNL     1      21.310  -9.149  84.254  1.00  0.00     0.700 A 
HETATM    5  N8  UNL     1      21.548 -10.117  85.162  1.00  0.00    -0.064 N 
HETATM    6  N9  UNL     1      21.707 -11.415  85.053  1.00  0.00    -0.228 N 
ATOM      7  H9  UNL     1      21.674 -11.958  84.189  1.00  0.00     0.193 HD
HETATM    8  C7  UNL     1      21.922 -11.899  86.286  1.00  0.00     0.341 A 
HETATM    9  O2  UNL     1      22.122 -13.113  86.606  1.00  0.00    -0.245 OA
HETATM   10  N10 UNL     1      21.900 -10.907  87.187  1.00  0.00    -0.290 N 
ATOM     11  H10 UNL     1      22.032 -10.978  88.196  1.00  0.00     0.172 HD
HETATM   12  C8  UNL     1      21.663  -9.788  86.456  1.00  0.00     0.174 A 
HETATM   13  C9  UNL     1      21.537  -8.464  86.877  1.00  0.00     0.135 A 
HETATM   14  C10 UNL     1      21.662  -8.126  88.270  1.00  0.00     0.107 C 
HETATM   15  N11 UNL     1      21.769  -7.836  89.396  1.00  0.00    -0.191 NA
ENDROOT
BRANCH   1  16
HETATM   16  N5  UNL     1      21.175  -6.248  86.309  1.00  0.00    -0.305 N 
HETATM   17  C4  UNL     1      19.963  -5.531  86.118  1.00  0.00     0.291 C 
HETATM   18  O1  UNL     1      19.650  -5.206  84.942  1.00  0.00    -0.264 OA
ATOM     19  H5  UNL     1      21.968  -5.780  86.746  1.00  0.00     0.170 HD
BRANCH  17  20
HETATM   20  C3  UNL     1      19.142  -5.203  87.269  1.00  0.00     0.180 A 
HETATM   21  N4  UNL     1      19.105  -5.868  88.435  1.00  0.00    -0.320 N 
HETATM   22  C2  UNL     1      18.237  -5.304  89.295  1.00  0.00     0.169 A 
ATOM     23  H4  UNL     1      19.664  -6.695  88.642  1.00  0.00     0.169 HD
HETATM   24  N3  UNL     1      17.678  -5.348  90.516  1.00  0.00    -0.268 N 
HETATM   25  C12 UNL     1      17.693  -4.222  88.635  1.00  0.00     0.173 A 
HETATM   26  N2  UNL     1      16.819  -4.354  90.652  1.00  0.00    -0.238 N 
ATOM     27  H3  UNL     1      17.887  -6.044  91.232  1.00  0.00     0.190 HD
HETATM   28  N1  UNL     1      16.834  -3.685  89.520  1.00  0.00    -0.263 N 
ATOM     29  H2  UNL     1      16.254  -4.146  91.475  1.00  0.00     0.208 HD
HETATM   30  C1  UNL     1      16.031  -2.506  89.233  1.00  0.00     0.181 C 
HETATM   31  N12 UNL     1      18.259  -4.188  87.415  1.00  0.00    -0.315 N 
HETATM   32  C11 UNL     1      17.977  -3.210  86.389  1.00  0.00     0.159 C 
ENDBRANCH  17  20
ENDBRANCH   1  16
BRANCH   4  33
HETATM   33  N7  UNL     1      21.196  -9.432  83.006  1.00  0.00    -0.233 N 
ATOM     34  H72 UNL     1      21.763  -8.951  82.308  1.00  0.00     0.174 HD
ATOM     35  H71 UNL     1      20.529 -10.148  82.718  1.00  0.00     0.174 HD
ENDBRANCH   4  33
TORSDOF 3
ENDMDL
MODEL 4
REMARK VINA RESULT: -8.171250716      2.545      3.711
REMARK  3 active torsions:
REMARK  status: ('A' for Active; 'I' for Inactive)
REMARK    1  A    between atoms: C3_10  and  C4_11 
REMARK       I    between atoms: C4_11  and  N5_13 
REMARK    2  A    between atoms: N5_13  and  C5_15 
REMARK    3  A    between atoms: C6_18  and  N7_19 
ROOT
HETATM    1  C5  UNL     1      20.972  -6.850  87.236  1.00  0.00     0.148 A 
HETATM    2  N6  UNL     1      21.157  -7.469  88.414  1.00  0.00    -0.173 N 
ATOM      3  H6  UNL     1      21.887  -8.178  88.487  1.00  0.00     0.186 HD
HETATM    4  C6  UNL     1      20.416  -7.190  89.503  1.00  0.00     0.700 A 
HETATM    5  N8  UNL     1      19.444  -6.259  89.438  1.00  0.00    -0.064 N 
HETATM    6  N9  UNL     1      18.593  -5.801  90.327  1.00  0.00    -0.228 N 
ATOM      7  H9  UNL     1      18.517  -6.099  91.300  1.00  0.00     0.193 HD
HETATM    8  C7  UNL     1      17.841  -4.868  89.722  1.00  0.00     0.341 A 
HETATM    9  O2  UNL     1      16.902  -4.189  90.243  1.00  0.00    -0.245 OA
HETATM   10  N10 UNL     1      18.212  -4.729  88.442  1.00  0.00    -0.290 N 
ATOM     11  H10 UNL     1      17.818  -4.098  87.743  1.00  0.00     0.172 HD
HETATM   12  C8  UNL     1      19.227  -5.617  88.281  1.00  0.00     0.174 A 
HETATM   13  C9  UNL     1      19.988  -5.899  87.147  1.00  0.00     0.135 A 
HETATM   14  C10 UNL     1      19.742  -5.202  85.913  1.00  0.00     0.107 C 
HETATM   15  N11 UNL     1      19.560  -4.639  84.906  1.00  0.00    -0.191 NA
ENDROOT
BRANCH   1  16
HETATM   16  N5  UNL     1      21.697  -7.130  86.185  1.00  0.00    -0.305 N 
HETATM   17  C4  UNL     1      21.583  -8.378  85.515  1.00  0.00     0.291 C 
HETATM   18  O1  UNL     1      22.035  -9.400  86.095  1.00  0.00    -0.264 OA
ATOM     19  H5  UNL     1      22.360  -6.436  85.837  1.00  0.00     0.170 HD
BRANCH  17  20
HETATM   20  C3  UNL     1      20.957  -8.429  84.206  1.00  0.00     0.180 A 
HETATM   21  N4  UNL     1      19.712  -8.848  83.937  1.00  0.00    -0.320 N 
HETATM   22  C2  UNL     1      19.441  -8.768  82.621  1.00  0.00     0.169 A 
ATOM     23  H4  UNL     1      19.054  -9.185  84.639  1.00  0.00     0.169 HD
HETATM   24  N3  UNL     1      18.536  -8.967  81.647  1.00  0.00    -0.268 N 
HETATM   25  C12 UNL     1      20.580  -8.270  82.025  1.00  0.00     0.173 A 
HETATM   26  N2  UNL     1      19.050  -8.620  80.481  1.00  0.00    -0.238 N 
ATOM     27  H3  UNL     1      17.594  -9.331  81.787  1.00  0.00     0.190 HD
HETATM   28  N1  UNL     1      20.275  -8.204  80.716  1.00  0.00    -0.263 N 
ATOM     29  H2  UNL     1      18.586  -8.666  79.573  1.00  0.00     0.208 HD
HETATM   30  C1  UNL     1      21.207  -7.726  79.706  1.00  0.00     0.181 C 
HETATM   31  N12 UNL     1      21.477  -8.076  83.008  1.00  0.00    -0.315 N 
HETATM   32  C11 UNL     1      22.816  -7.562  82.829  1.00  0.00     0.159 C 
ENDBRANCH  17  20
ENDBRANCH   1  16
BRANCH   4  33
HETATM   33  N7  UNL     1      20.650  -7.822  90.597  1.00  0.00    -0.233 N 
ATOM     34  H72 UNL     1      21.512  -8.354  90.719  1.00  0.00     0.174 HD
ATOM     35  H71 UNL     1      19.960  -7.786  91.348  1.00  0.00     0.174 HD
ENDBRANCH   4  33
TORSDOF 3
ENDMDL
MODEL 5
REMARK VINA RESULT: -8.121895270      1.624      1.687
REMARK  3 active torsions:
REMARK  status: ('A' for Active; 'I' for Inactive)
REMARK    1  A    between atoms: C3_10  and  C4_11 
REMARK       I    between atoms: C4_11  and  N5_13 
REMARK    2  A    between atoms: N5_13  and  C5_15 
REMARK    3  A    between atoms: C6_18  and  N7_19 
ROOT
HETATM    1  C5  UNL     1      19.288  -5.060  87.913  1.00  0.00     0.148 A 
HETATM    2  N6  UNL     1      19.143  -5.341  89.220  1.00  0.00    -0.173 N 
ATOM      3  H6  UNL     1      19.789  -6.001  89.654  1.00  0.00     0.186 HD
HETATM    4  C6  UNL     1      18.180  -4.786  89.977  1.00  0.00     0.700 A 
HETATM    5  N8  UNL     1      17.311  -3.911  89.433  1.00  0.00    -0.064 N 
HETATM    6  N9  UNL     1      16.300  -3.238  89.930  1.00  0.00    -0.228 N 
ATOM      7  H9  UNL     1      15.972  -3.267  90.897  1.00  0.00     0.193 HD
HETATM    8  C7  UNL     1      15.776  -2.505  88.936  1.00  0.00     0.341 A 
HETATM    9  O2  UNL     1      14.781  -1.717  89.011  1.00  0.00    -0.245 OA
HETATM   10  N10 UNL     1      16.453  -2.710  87.798  1.00  0.00    -0.290 N 
ATOM     11  H10 UNL     1      16.280  -2.290  86.885  1.00  0.00     0.172 HD
HETATM   12  C8  UNL     1      17.420  -3.602  88.132  1.00  0.00     0.174 A 
HETATM   13  C9  UNL     1      18.415  -4.172  87.338  1.00  0.00     0.135 A 
HETATM   14  C10 UNL     1      18.519  -3.831  85.944  1.00  0.00     0.107 C 
HETATM   15  N11 UNL     1      18.621  -3.557  84.814  1.00  0.00    -0.191 NA
ENDROOT
BRANCH   1  16
HETATM   16  N5  UNL     1      20.228  -5.605  87.187  1.00  0.00    -0.305 N 
HETATM   17  C4  UNL     1      21.141  -6.543  87.738  1.00  0.00     0.291 C 
HETATM   18  O1  UNL     1      22.014  -6.113  88.538  1.00  0.00    -0.264 OA
ATOM     19  H5  UNL     1      20.306  -5.352  86.202  1.00  0.00     0.170 HD
BRANCH  17  20
HETATM   20  C3  UNL     1      21.038  -7.941  87.365  1.00  0.00     0.180 A 
HETATM   21  N4  UNL     1      19.905  -8.652  87.253  1.00  0.00    -0.320 N 
HETATM   22  C2  UNL     1      20.156  -9.923  86.890  1.00  0.00     0.169 A 
ATOM     23  H4  UNL     1      18.972  -8.277  87.422  1.00  0.00     0.169 HD
HETATM   24  N3  UNL     1      19.642 -11.130  86.598  1.00  0.00    -0.268 N 
HETATM   25  C12 UNL     1      21.526 -10.022  86.765  1.00  0.00     0.173 A 
HETATM   26  N2  UNL     1      20.615 -11.972  86.300  1.00  0.00    -0.238 N 
ATOM     27  H3  UNL     1      18.648 -11.361  86.606  1.00  0.00     0.190 HD
HETATM   28  N1  UNL     1      21.741 -11.300  86.403  1.00  0.00    -0.263 N 
ATOM     29  H2  UNL     1      20.513 -12.953  86.040  1.00  0.00     0.208 HD
HETATM   30  C1  UNL     1      23.068 -11.845  86.161  1.00  0.00     0.181 C 
HETATM   31  N12 UNL     1      22.029  -8.810  87.060  1.00  0.00    -0.315 N 
HETATM   32  C11 UNL     1      23.433  -8.463  87.054  1.00  0.00     0.159 C 
ENDBRANCH  17  20
ENDBRANCH   1  16
BRANCH   4  33
HETATM   33  N7  UNL     1      18.102  -5.102  91.221  1.00  0.00    -0.233 N 
ATOM     34  H72 UNL     1      18.071  -4.382  91.942  1.00  0.00     0.174 HD
ATOM     35  H71 UNL     1      18.070  -6.088  91.480  1.00  0.00     0.174 HD
ENDBRANCH   4  33
TORSDOF 3
ENDMDL
