MODEL 1
REMARK VINA RESULT: -7.257733177      0.000      0.000
REMARK  19 active torsions:
REMARK  status: ('A' for Active; 'I' for Inactive)
REMARK    1  A    between atoms: N2_6  and  N3_7 
REMARK    2  A    between atoms: N3_7  and  C3_9 
REMARK    3  A    between atoms: C3_9  and  C4_10 
REMARK    4  A    between atoms: C4_10  and  O2_11 
REMARK    5  A    between atoms: C4_10  and  C5_13 
REMARK    6  A    between atoms: C5_13  and  O3_14 
REMARK    7  A    between atoms: C5_13  and  C6_16 
REMARK    8  A    between atoms: C6_16  and  C7_17 
REMARK    9  A    between atoms: C6_16  and  O7_27 
REMARK   10  A    between atoms: C7_17  and  C8_18 
REMARK   11  A    between atoms: C8_18  and  O4_19 
REMARK   12  A    between atoms: C8_18  and  C9_21 
REMARK   13  A    between atoms: C9_21  and  O5_22 
REMARK   14  A    between atoms: C9_21  and  C10_24 
REMARK   15  A    between atoms: C10_24  and  O6_25 
REMARK   16  A    between atoms: O7_27  and  C11_28 
REMARK   17  A    between atoms: C11_28  and  N4_29 
REMARK   18  A    between atoms: C14_35  and  C15_36 
REMARK   19  A    between atoms: C18_39  and  C19_40 
ROOT
HETATM    1  C3  UNL     1     -37.448  -1.218 -12.515  1.00  0.00     0.142 C 
ENDROOT
BRANCH   1   2
HETATM    2  N3  UNL     1     -37.838  -2.520 -12.851  1.00  0.00    -0.304 N 
ATOM      3  H3  UNL     1     -38.238  -3.143 -12.150  1.00  0.00     0.186 HD
BRANCH   2   4
HETATM    4  N2  UNL     1     -37.665  -2.950 -14.180  1.00  0.00    -0.260 N 
HETATM    5  C2  UNL     1     -38.942  -3.459 -14.681  1.00  0.00     0.207 C 
HETATM    6  N1  UNL     1     -39.113  -4.093 -15.765  1.00  0.00    -0.303 N 
HETATM    7  C1  UNL     1     -37.973  -4.339 -16.569  1.00  0.00     0.323 C 
ATOM      8  H1  UNL     1     -40.039  -4.416 -16.048  1.00  0.00     0.171 HD
HETATM    9  O1  UNL     1     -38.065  -4.966 -17.667  1.00  0.00    -0.247 OA
HETATM   10  N8  UNL     1     -36.719  -3.889 -16.152  1.00  0.00    -0.316 N 
HETATM   11  C14 UNL     1     -36.590  -2.896 -15.054  1.00  0.00     0.244 C 
ATOM     12  H8  UNL     1     -35.880  -4.248 -16.607  1.00  0.00     0.166 HD
BRANCH  11  13
HETATM   13  C15 UNL     1     -35.201  -2.935 -14.608  1.00  0.00    -0.014 A 
HETATM   14  C16 UNL     1     -34.843  -3.912 -13.700  1.00  0.00     0.012 A 
HETATM   15  C17 UNL     1     -33.589  -3.980 -13.124  1.00  0.00     0.014 A 
HETATM   16  C18 UNL     1     -32.630  -3.065 -13.428  1.00  0.00    -0.009 A 
HETATM   17  C24 UNL     1     -32.954  -2.080 -14.333  1.00  0.00     0.014 A 
HETATM   18  C25 UNL     1     -34.236  -2.026 -14.916  1.00  0.00     0.012 A 
BRANCH  16  19
HETATM   19  C19 UNL     1     -31.288  -3.090 -12.799  1.00  0.00     0.042 A 
HETATM   20  C20 UNL     1     -30.497  -4.212 -12.762  1.00  0.00     0.030 A 
HETATM   21  C21 UNL     1     -29.254  -4.180 -12.158  1.00  0.00     0.004 A 
HETATM   22  C22 UNL     1     -28.764  -3.028 -11.574  1.00  0.00     0.017 A 
HETATM   23  C23 UNL     1     -29.589  -1.927 -11.637  1.00  0.00     0.088 A 
HETATM   24  N7  UNL     1     -30.797  -1.960 -12.227  1.00  0.00    -0.365 N 
ATOM     25  H7  UNL     1     -31.362  -1.110 -12.244  1.00  0.00     0.165 HD
ENDBRANCH  16  19
ENDBRANCH  11  13
ENDBRANCH   2   4
ENDBRANCH   1   2
BRANCH   1  26
HETATM   26  C4  UNL     1     -36.497  -1.078 -11.356  1.00  0.00     0.091 C 
BRANCH  26  27
HETATM   27  O2  UNL     1     -35.240  -0.764 -11.822  1.00  0.00    -0.361 OA
ATOM     28  H2  UNL     1     -34.586  -1.248 -11.331  1.00  0.00     0.217 HD
ENDBRANCH  26  27
BRANCH  26  29
HETATM   29  C5  UNL     1     -36.667  -1.797 -10.116  1.00  0.00     0.205 C 
BRANCH  29  30
HETATM   30  O3  UNL     1     -38.021  -2.302 -10.045  1.00  0.00    -0.386 OA
ATOM     31  H3  UNL     1     -38.099  -3.058 -10.615  1.00  0.00     0.210 HD
ENDBRANCH  29  30
BRANCH  29  32
HETATM   32  C6  UNL     1     -36.586  -1.023  -8.795  1.00  0.00     0.167 C 
BRANCH  32  33
HETATM   33  C7  UNL     1     -36.594  -1.970  -7.634  1.00  0.00     0.070 C 
BRANCH  33  34
HETATM   34  C8  UNL     1     -35.497  -1.681  -6.647  1.00  0.00     0.151 C 
BRANCH  34  35
HETATM   35  O4  UNL     1     -34.406  -1.072  -7.211  1.00  0.00    -0.393 OA
ATOM     36  H4  UNL     1     -34.115  -1.487  -8.014  1.00  0.00     0.210 HD
ENDBRANCH  34  35
BRANCH  34  37
HETATM   37  C9  UNL     1     -35.130  -2.829  -5.776  1.00  0.00     0.170 C 
BRANCH  37  38
HETATM   38  O5  UNL     1     -35.719  -2.597  -4.503  1.00  0.00    -0.391 OA
ATOM     39  H5  UNL     1     -35.334  -3.219  -3.896  1.00  0.00     0.210 HD
ENDBRANCH  37  38
BRANCH  37  40
HETATM   40  C10 UNL     1     -33.653  -2.952  -5.572  1.00  0.00     0.198 C 
BRANCH  40  41
HETATM   41  O6  UNL     1     -33.146  -2.146  -4.568  1.00  0.00    -0.398 OA
ATOM     42  H6  UNL     1     -33.333  -2.453  -3.689  1.00  0.00     0.209 HD
ENDBRANCH  40  41
ENDBRANCH  37  40
ENDBRANCH  34  37
ENDBRANCH  33  34
ENDBRANCH  32  33
BRANCH  32  43
HETATM   43  O7  UNL     1     -37.442   0.014  -8.721  1.00  0.00    -0.337 OA
BRANCH  43  44
HETATM   44  C11 UNL     1     -36.952   1.270  -8.491  1.00  0.00     0.248 C 
BRANCH  44  45
HETATM   45  N4  UNL     1     -35.930   1.707  -9.407  1.00  0.00    -0.239 N 
HETATM   46  C12 UNL     1     -36.070   2.549 -10.441  1.00  0.00     0.134 A 
HETATM   47  C13 UNL     1     -34.834   2.712 -11.042  1.00  0.00     0.123 A 
HETATM   48  N5  UNL     1     -33.985   1.946 -10.328  1.00  0.00    -0.293 N 
HETATM   49  N6  UNL     1     -34.658   1.342  -9.344  1.00  0.00    -0.015 NA
ATOM     50  H5  UNL     1     -32.986   1.844 -10.510  1.00  0.00     0.183 HD
ENDBRANCH  44  45
ENDBRANCH  43  44
ENDBRANCH  32  43
ENDBRANCH  29  32
ENDBRANCH  26  29
ENDBRANCH   1  26
TORSDOF 19
ENDMDL
MODEL 2
REMARK VINA RESULT: -7.230943530      1.639      2.122
REMARK  19 active torsions:
REMARK  status: ('A' for Active; 'I' for Inactive)
REMARK    1  A    between atoms: N2_6  and  N3_7 
REMARK    2  A    between atoms: N3_7  and  C3_9 
REMARK    3  A    between atoms: C3_9  and  C4_10 
REMARK    4  A    between atoms: C4_10  and  O2_11 
REMARK    5  A    between atoms: C4_10  and  C5_13 
REMARK    6  A    between atoms: C5_13  and  O3_14 
REMARK    7  A    between atoms: C5_13  and  C6_16 
REMARK    8  A    between atoms: C6_16  and  C7_17 
REMARK    9  A    between atoms: C6_16  and  O7_27 
REMARK   10  A    between atoms: C7_17  and  C8_18 
REMARK   11  A    between atoms: C8_18  and  O4_19 
REMARK   12  A    between atoms: C8_18  and  C9_21 
REMARK   13  A    between atoms: C9_21  and  O5_22 
REMARK   14  A    between atoms: C9_21  and  C10_24 
REMARK   15  A    between atoms: C10_24  and  O6_25 
REMARK   16  A    between atoms: O7_27  and  C11_28 
REMARK   17  A    between atoms: C11_28  and  N4_29 
REMARK   18  A    between atoms: C14_35  and  C15_36 
REMARK   19  A    between atoms: C18_39  and  C19_40 
ROOT
HETATM    1  C3  UNL     1     -36.737  -0.435 -12.588  1.00  0.00     0.142 C 
ENDROOT
BRANCH   1   2
HETATM    2  N3  UNL     1     -37.288  -0.673 -13.853  1.00  0.00    -0.304 N 
ATOM      3  H3  UNL     1     -37.561   0.102 -14.457  1.00  0.00     0.186 HD
BRANCH   2   4
HETATM    4  N2  UNL     1     -37.457  -2.006 -14.271  1.00  0.00    -0.260 N 
HETATM    5  C2  UNL     1     -38.883  -2.333 -14.239  1.00  0.00     0.207 C 
HETATM    6  N1  UNL     1     -39.382  -3.491 -14.372  1.00  0.00    -0.303 N 
HETATM    7  C1  UNL     1     -38.487  -4.572 -14.566  1.00  0.00     0.323 C 
ATOM      8  H1  UNL     1     -40.391  -3.639 -14.341  1.00  0.00     0.171 HD
HETATM    9  O1  UNL     1     -38.911  -5.759 -14.708  1.00  0.00    -0.247 OA
HETATM   10  N8  UNL     1     -37.111  -4.338 -14.600  1.00  0.00    -0.316 N 
HETATM   11  C14 UNL     1     -36.574  -2.961 -14.752  1.00  0.00     0.244 C 
ATOM     12  H8  UNL     1     -36.466  -5.123 -14.519  1.00  0.00     0.166 HD
BRANCH  11  13
HETATM   13  C15 UNL     1     -35.168  -3.009 -14.365  1.00  0.00    -0.014 A 
HETATM   14  C16 UNL     1     -34.799  -3.915 -13.390  1.00  0.00     0.012 A 
HETATM   15  C17 UNL     1     -33.523  -3.976 -12.865  1.00  0.00     0.014 A 
HETATM   16  C18 UNL     1     -32.551  -3.125 -13.291  1.00  0.00    -0.009 A 
HETATM   17  C24 UNL     1     -32.886  -2.213 -14.265  1.00  0.00     0.014 A 
HETATM   18  C25 UNL     1     -34.191  -2.165 -14.794  1.00  0.00     0.012 A 
BRANCH  16  19
HETATM   19  C19 UNL     1     -31.182  -3.142 -12.721  1.00  0.00     0.042 A 
HETATM   20  C20 UNL     1     -30.512  -2.005 -12.343  1.00  0.00     0.030 A 
HETATM   21  C21 UNL     1     -29.234  -2.079 -11.820  1.00  0.00     0.004 A 
HETATM   22  C22 UNL     1     -28.588  -3.290 -11.661  1.00  0.00     0.017 A 
HETATM   23  C23 UNL     1     -29.298  -4.404 -12.050  1.00  0.00     0.088 A 
HETATM   24  N7  UNL     1     -30.542  -4.330 -12.557  1.00  0.00    -0.365 N 
ATOM     25  H7  UNL     1     -31.019  -5.191 -12.826  1.00  0.00     0.165 HD
ENDBRANCH  16  19
ENDBRANCH  11  13
ENDBRANCH   2   4
ENDBRANCH   1   2
BRANCH   1  26
HETATM   26  C4  UNL     1     -37.499  -0.977 -11.408  1.00  0.00     0.091 C 
BRANCH  26  27
HETATM   27  O2  UNL     1     -38.640  -0.234 -11.211  1.00  0.00    -0.361 OA
ATOM     28  H2  UNL     1     -38.996  -0.415 -10.349  1.00  0.00     0.217 HD
ENDBRANCH  26  27
BRANCH  26  29
HETATM   29  C5  UNL     1     -36.854  -1.647 -10.303  1.00  0.00     0.205 C 
BRANCH  29  30
HETATM   30  O3  UNL     1     -37.787  -2.578  -9.707  1.00  0.00    -0.386 OA
ATOM     31  H3  UNL     1     -37.879  -3.332 -10.277  1.00  0.00     0.210 HD
ENDBRANCH  29  30
BRANCH  29  32
HETATM   32  C6  UNL     1     -36.451  -0.826  -9.074  1.00  0.00     0.167 C 
BRANCH  32  33
HETATM   33  C7  UNL     1     -36.050  -1.732  -7.949  1.00  0.00     0.070 C 
BRANCH  33  34
HETATM   34  C8  UNL     1     -35.142  -1.056  -6.960  1.00  0.00     0.151 C 
BRANCH  34  35
HETATM   35  O4  UNL     1     -34.008  -0.538  -7.529  1.00  0.00    -0.393 OA
ATOM     36  H4  UNL     1     -34.159   0.271  -8.005  1.00  0.00     0.210 HD
ENDBRANCH  34  35
BRANCH  34  37
HETATM   37  C9  UNL     1     -34.861  -1.850  -5.734  1.00  0.00     0.170 C 
BRANCH  37  38
HETATM   38  O5  UNL     1     -34.765  -0.933  -4.651  1.00  0.00    -0.391 OA
ATOM     39  H5  UNL     1     -34.456  -0.108  -5.007  1.00  0.00     0.210 HD
ENDBRANCH  37  38
BRANCH  37  40
HETATM   40  C10 UNL     1     -33.565  -2.593  -5.811  1.00  0.00     0.198 C 
BRANCH  40  41
HETATM   41  O6  UNL     1     -33.692  -3.928  -6.153  1.00  0.00    -0.398 OA
ATOM     42  H6  UNL     1     -32.867  -4.371  -6.310  1.00  0.00     0.209 HD
ENDBRANCH  40  41
ENDBRANCH  37  40
ENDBRANCH  34  37
ENDBRANCH  33  34
ENDBRANCH  32  33
BRANCH  32  43
HETATM   43  O7  UNL     1     -37.323   0.152  -8.765  1.00  0.00    -0.337 OA
BRANCH  43  44
HETATM   44  C11 UNL     1     -36.897   1.453  -8.765  1.00  0.00     0.248 C 
BRANCH  44  45
HETATM   45  N4  UNL     1     -37.107   2.166  -7.531  1.00  0.00    -0.239 N 
HETATM   46  C12 UNL     1     -36.861   3.461  -7.289  1.00  0.00     0.134 A 
HETATM   47  C13 UNL     1     -37.226   3.738  -5.984  1.00  0.00     0.123 A 
HETATM   48  N5  UNL     1     -37.687   2.573  -5.485  1.00  0.00    -0.293 N 
HETATM   49  N6  UNL     1     -37.608   1.630  -6.429  1.00  0.00    -0.015 NA
ATOM     50  H5  UNL     1     -38.040   2.434  -4.538  1.00  0.00     0.183 HD
ENDBRANCH  44  45
ENDBRANCH  43  44
ENDBRANCH  32  43
ENDBRANCH  29  32
ENDBRANCH  26  29
ENDBRANCH   1  26
TORSDOF 19
ENDMDL
MODEL 3
REMARK VINA RESULT: -7.211498199      2.642      4.602
REMARK  19 active torsions:
REMARK  status: ('A' for Active; 'I' for Inactive)
REMARK    1  A    between atoms: N2_6  and  N3_7 
REMARK    2  A    between atoms: N3_7  and  C3_9 
REMARK    3  A    between atoms: C3_9  and  C4_10 
REMARK    4  A    between atoms: C4_10  and  O2_11 
REMARK    5  A    between atoms: C4_10  and  C5_13 
REMARK    6  A    between atoms: C5_13  and  O3_14 
REMARK    7  A    between atoms: C5_13  and  C6_16 
REMARK    8  A    between atoms: C6_16  and  C7_17 
REMARK    9  A    between atoms: C6_16  and  O7_27 
REMARK   10  A    between atoms: C7_17  and  C8_18 
REMARK   11  A    between atoms: C8_18  and  O4_19 
REMARK   12  A    between atoms: C8_18  and  C9_21 
REMARK   13  A    between atoms: C9_21  and  O5_22 
REMARK   14  A    between atoms: C9_21  and  C10_24 
REMARK   15  A    between atoms: C10_24  and  O6_25 
REMARK   16  A    between atoms: O7_27  and  C11_28 
REMARK   17  A    between atoms: C11_28  and  N4_29 
REMARK   18  A    between atoms: C14_35  and  C15_36 
REMARK   19  A    between atoms: C18_39  and  C19_40 
ROOT
HETATM    1  C3  UNL     1     -35.342   0.571 -10.453  1.00  0.00     0.142 C 
ENDROOT
BRANCH   1   2
HETATM    2  N3  UNL     1     -35.641  -0.790 -10.589  1.00  0.00    -0.304 N 
ATOM      3  H3  UNL     1     -35.576  -1.421  -9.790  1.00  0.00     0.186 HD
BRANCH   2   4
HETATM    4  N2  UNL     1     -36.034  -1.268 -11.853  1.00  0.00    -0.260 N 
HETATM    5  C2  UNL     1     -37.443  -1.658 -11.791  1.00  0.00     0.207 C 
HETATM    6  N1  UNL     1     -38.075  -2.299 -12.685  1.00  0.00    -0.303 N 
HETATM    7  C1  UNL     1     -37.361  -2.678 -13.848  1.00  0.00     0.323 C 
ATOM      8  H1  UNL     1     -39.061  -2.533 -12.570  1.00  0.00     0.171 HD
HETATM    9  O1  UNL     1     -37.924  -3.321 -14.785  1.00  0.00    -0.247 OA
HETATM   10  N8  UNL     1     -36.010  -2.348 -13.974  1.00  0.00    -0.316 N 
HETATM   11  C14 UNL     1     -35.383  -1.345 -13.074  1.00  0.00     0.244 C 
ATOM     12  H8  UNL     1     -35.447  -2.800 -14.693  1.00  0.00     0.166 HD
BRANCH  11  13
HETATM   13  C15 UNL     1     -33.938  -1.513 -13.195  1.00  0.00    -0.014 A 
HETATM   14  C16 UNL     1     -33.439  -2.800 -13.215  1.00  0.00     0.012 A 
HETATM   15  C17 UNL     1     -32.086  -3.082 -13.215  1.00  0.00     0.014 A 
HETATM   16  C18 UNL     1     -31.165  -2.082 -13.190  1.00  0.00    -0.009 A 
HETATM   17  C24 UNL     1     -31.630  -0.787 -13.173  1.00  0.00     0.014 A 
HETATM   18  C25 UNL     1     -33.013  -0.515 -13.177  1.00  0.00     0.012 A 
BRANCH  16  19
HETATM   19  C19 UNL     1     -29.708  -2.353 -13.153  1.00  0.00     0.042 A 
HETATM   20  C20 UNL     1     -29.043  -2.733 -12.012  1.00  0.00     0.030 A 
HETATM   21  C21 UNL     1     -27.681  -2.969 -12.034  1.00  0.00     0.004 A 
HETATM   22  C22 UNL     1     -26.943  -2.833 -13.194  1.00  0.00     0.017 A 
HETATM   23  C23 UNL     1     -27.650  -2.454 -14.313  1.00  0.00     0.088 A 
HETATM   24  N7  UNL     1     -28.975  -2.226 -14.290  1.00  0.00    -0.365 N 
ATOM     25  H7  UNL     1     -29.444  -1.950 -15.153  1.00  0.00     0.165 HD
ENDBRANCH  16  19
ENDBRANCH  11  13
ENDBRANCH   2   4
ENDBRANCH   1   2
BRANCH   1  26
HETATM   26  C4  UNL     1     -35.214   1.096  -9.049  1.00  0.00     0.091 C 
BRANCH  26  27
HETATM   27  O2  UNL     1     -34.268   0.367  -8.364  1.00  0.00    -0.361 OA
ATOM     28  H2  UNL     1     -33.907   0.891  -7.659  1.00  0.00     0.217 HD
ENDBRANCH  26  27
BRANCH  26  29
HETATM   29  C5  UNL     1     -36.307   1.728  -8.348  1.00  0.00     0.205 C 
BRANCH  29  30
HETATM   30  O3  UNL     1     -35.886   2.041  -7.000  1.00  0.00    -0.386 OA
ATOM     31  H3  UNL     1     -36.415   1.543  -6.388  1.00  0.00     0.210 HD
ENDBRANCH  29  30
BRANCH  29  32
HETATM   32  C6  UNL     1     -37.574   0.913  -8.065  1.00  0.00     0.167 C 
BRANCH  32  33
HETATM   33  C7  UNL     1     -38.260   1.426  -6.836  1.00  0.00     0.070 C 
BRANCH  33  34
HETATM   34  C8  UNL     1     -39.533   2.162  -7.150  1.00  0.00     0.151 C 
BRANCH  34  35
HETATM   35  O4  UNL     1     -40.248   1.597  -8.175  1.00  0.00    -0.393 OA
ATOM     36  H4  UNL     1     -41.189   1.638  -8.046  1.00  0.00     0.210 HD
ENDBRANCH  34  35
BRANCH  34  37
HETATM   37  C9  UNL     1     -39.377   3.633  -7.299  1.00  0.00     0.170 C 
BRANCH  37  38
HETATM   38  O5  UNL     1     -38.237   4.015  -6.539  1.00  0.00    -0.391 OA
ATOM     39  H5  UNL     1     -37.825   4.740  -6.994  1.00  0.00     0.210 HD
ENDBRANCH  37  38
BRANCH  37  40
HETATM   40  C10 UNL     1     -40.548   4.396  -6.766  1.00  0.00     0.198 C 
BRANCH  40  41
HETATM   41  O6  UNL     1     -41.778   3.836  -7.064  1.00  0.00    -0.398 OA
ATOM     42  H6  UNL     1     -42.199   4.203  -7.833  1.00  0.00     0.209 HD
ENDBRANCH  40  41
ENDBRANCH  37  40
ENDBRANCH  34  37
ENDBRANCH  33  34
ENDBRANCH  32  33
BRANCH  32  43
HETATM   43  O7  UNL     1     -37.388  -0.419  -8.129  1.00  0.00    -0.337 OA
BRANCH  43  44
HETATM   44  C11 UNL     1     -37.387  -1.151  -6.973  1.00  0.00     0.248 C 
BRANCH  44  45
HETATM   45  N4  UNL     1     -36.096  -1.627  -6.550  1.00  0.00    -0.239 N 
HETATM   46  C12 UNL     1     -35.623  -1.691  -5.298  1.00  0.00     0.134 A 
HETATM   47  C13 UNL     1     -34.350  -2.232  -5.338  1.00  0.00     0.123 A 
HETATM   48  N5  UNL     1     -34.106  -2.477  -6.642  1.00  0.00    -0.293 N 
HETATM   49  N6  UNL     1     -35.168  -2.106  -7.365  1.00  0.00    -0.015 NA
ATOM     50  H5  UNL     1     -33.248  -2.882  -7.017  1.00  0.00     0.183 HD
ENDBRANCH  44  45
ENDBRANCH  43  44
ENDBRANCH  32  43
ENDBRANCH  29  32
ENDBRANCH  26  29
ENDBRANCH   1  26
TORSDOF 19
ENDMDL
MODEL 4
REMARK VINA RESULT: -7.133410598      2.201      3.007
REMARK  19 active torsions:
REMARK  status: ('A' for Active; 'I' for Inactive)
REMARK    1  A    between atoms: N2_6  and  N3_7 
REMARK    2  A    between atoms: N3_7  and  C3_9 
REMARK    3  A    between atoms: C3_9  and  C4_10 
REMARK    4  A    between atoms: C4_10  and  O2_11 
REMARK    5  A    between atoms: C4_10  and  C5_13 
REMARK    6  A    between atoms: C5_13  and  O3_14 
REMARK    7  A    between atoms: C5_13  and  C6_16 
REMARK    8  A    between atoms: C6_16  and  C7_17 
REMARK    9  A    between atoms: C6_16  and  O7_27 
REMARK   10  A    between atoms: C7_17  and  C8_18 
REMARK   11  A    between atoms: C8_18  and  O4_19 
REMARK   12  A    between atoms: C8_18  and  C9_21 
REMARK   13  A    between atoms: C9_21  and  O5_22 
REMARK   14  A    between atoms: C9_21  and  C10_24 
REMARK   15  A    between atoms: C10_24  and  O6_25 
REMARK   16  A    between atoms: O7_27  and  C11_28 
REMARK   17  A    between atoms: C11_28  and  N4_29 
REMARK   18  A    between atoms: C14_35  and  C15_36 
REMARK   19  A    between atoms: C18_39  and  C19_40 
ROOT
HETATM    1  C3  UNL     1     -35.670   0.400 -10.351  1.00  0.00     0.142 C 
ENDROOT
BRANCH   1   2
HETATM    2  N3  UNL     1     -35.624  -0.978 -10.600  1.00  0.00    -0.304 N 
ATOM      3  H3  UNL     1     -35.372  -1.634  -9.861  1.00  0.00     0.186 HD
BRANCH   2   4
HETATM    4  N2  UNL     1     -35.935  -1.436 -11.894  1.00  0.00    -0.260 N 
HETATM    5  C2  UNL     1     -37.370  -1.712 -11.964  1.00  0.00     0.207 C 
HETATM    6  N1  UNL     1     -37.965  -2.309 -12.910  1.00  0.00    -0.303 N 
HETATM    7  C1  UNL     1     -37.179  -2.757 -14.000  1.00  0.00     0.323 C 
ATOM      8  H1  UNL     1     -38.973  -2.463 -12.888  1.00  0.00     0.171 HD
HETATM    9  O1  UNL     1     -37.702  -3.362 -14.984  1.00  0.00    -0.247 OA
HETATM   10  N8  UNL     1     -35.800  -2.537 -14.000  1.00  0.00    -0.316 N 
HETATM   11  C14 UNL     1     -35.181  -1.579 -13.048  1.00  0.00     0.244 C 
ATOM     12  H8  UNL     1     -35.210  -3.041 -14.661  1.00  0.00     0.166 HD
BRANCH  11  13
HETATM   13  C15 UNL     1     -33.749  -1.862 -13.032  1.00  0.00    -0.014 A 
HETATM   14  C16 UNL     1     -32.882  -0.791 -12.955  1.00  0.00     0.012 A 
HETATM   15  C17 UNL     1     -31.510  -0.926 -13.043  1.00  0.00     0.014 A 
HETATM   16  C18 UNL     1     -30.938  -2.148 -13.217  1.00  0.00    -0.009 A 
HETATM   17  C24 UNL     1     -31.776  -3.237 -13.294  1.00  0.00     0.014 A 
HETATM   18  C25 UNL     1     -33.174  -3.084 -13.199  1.00  0.00     0.012 A 
BRANCH  16  19
HETATM   19  C19 UNL     1     -29.472  -2.321 -13.352  1.00  0.00     0.042 A 
HETATM   20  C20 UNL     1     -28.671  -2.762 -12.327  1.00  0.00     0.030 A 
HETATM   21  C21 UNL     1     -27.307  -2.901 -12.507  1.00  0.00     0.004 A 
HETATM   22  C22 UNL     1     -26.704  -2.605 -13.714  1.00  0.00     0.017 A 
HETATM   23  C23 UNL     1     -27.545  -2.171 -14.713  1.00  0.00     0.088 A 
HETATM   24  N7  UNL     1     -28.872  -2.037 -14.537  1.00  0.00    -0.365 N 
ATOM     25  H7  UNL     1     -29.444  -1.712 -15.317  1.00  0.00     0.165 HD
ENDBRANCH  16  19
ENDBRANCH  11  13
ENDBRANCH   2   4
ENDBRANCH   1   2
BRANCH   1  26
HETATM   26  C4  UNL     1     -36.023   0.819  -8.949  1.00  0.00     0.091 C 
BRANCH  26  27
HETATM   27  O2  UNL     1     -34.914   1.347  -8.329  1.00  0.00    -0.361 OA
ATOM     28  H2  UNL     1     -34.866   1.031  -7.434  1.00  0.00     0.217 HD
ENDBRANCH  26  27
BRANCH  26  29
HETATM   29  C5  UNL     1     -37.064   0.177  -8.181  1.00  0.00     0.205 C 
BRANCH  29  30
HETATM   30  O3  UNL     1     -38.326   0.824  -8.465  1.00  0.00    -0.386 OA
ATOM     31  H3  UNL     1     -38.947   0.171  -8.766  1.00  0.00     0.210 HD
ENDBRANCH  29  30
BRANCH  29  32
HETATM   32  C6  UNL     1     -37.029   0.286  -6.653  1.00  0.00     0.167 C 
BRANCH  32  33
HETATM   33  C7  UNL     1     -36.956  -1.077  -6.034  1.00  0.00     0.070 C 
BRANCH  33  34
HETATM   34  C8  UNL     1     -35.797  -1.220  -5.088  1.00  0.00     0.151 C 
BRANCH  34  35
HETATM   35  O4  UNL     1     -35.215  -0.023  -4.758  1.00  0.00    -0.393 OA
ATOM     36  H4  UNL     1     -34.275  -0.082  -4.633  1.00  0.00     0.210 HD
ENDBRANCH  34  35
BRANCH  34  37
HETATM   37  C9  UNL     1     -34.803  -2.255  -5.478  1.00  0.00     0.170 C 
BRANCH  37  38
HETATM   38  O5  UNL     1     -33.701  -2.139  -4.587  1.00  0.00    -0.391 OA
ATOM     39  H5  UNL     1     -32.941  -1.905  -5.107  1.00  0.00     0.210 HD
ENDBRANCH  37  38
BRANCH  37  40
HETATM   40  C10 UNL     1     -34.280  -2.062  -6.867  1.00  0.00     0.198 C 
BRANCH  40  41
HETATM   41  O6  UNL     1     -33.589  -0.878  -7.057  1.00  0.00    -0.398 OA
ATOM     42  H6  UNL     1     -32.651  -0.947  -6.926  1.00  0.00     0.209 HD
ENDBRANCH  40  41
ENDBRANCH  37  40
ENDBRANCH  34  37
ENDBRANCH  33  34
ENDBRANCH  32  33
BRANCH  32  43
HETATM   43  O7  UNL     1     -37.958   1.118  -6.147  1.00  0.00    -0.337 OA
BRANCH  43  44
HETATM   44  C11 UNL     1     -37.559   2.283  -5.550  1.00  0.00     0.248 C 
BRANCH  44  45
HETATM   45  N4  UNL     1     -36.918   3.231  -6.424  1.00  0.00    -0.239 N 
HETATM   46  C12 UNL     1     -37.499   4.005  -7.352  1.00  0.00     0.134 A 
HETATM   47  C13 UNL     1     -36.522   4.782  -7.947  1.00  0.00     0.123 A 
HETATM   48  N5  UNL     1     -35.369   4.437  -7.339  1.00  0.00    -0.293 N 
HETATM   49  N6  UNL     1     -35.620   3.497  -6.422  1.00  0.00    -0.015 NA
ATOM     50  H5  UNL     1     -34.450   4.830  -7.546  1.00  0.00     0.183 HD
ENDBRANCH  44  45
ENDBRANCH  43  44
ENDBRANCH  32  43
ENDBRANCH  29  32
ENDBRANCH  26  29
ENDBRANCH   1  26
TORSDOF 19
ENDMDL
MODEL 5
REMARK VINA RESULT: -7.124014040      1.961      2.659
REMARK  19 active torsions:
REMARK  status: ('A' for Active; 'I' for Inactive)
REMARK    1  A    between atoms: N2_6  and  N3_7 
REMARK    2  A    between atoms: N3_7  and  C3_9 
REMARK    3  A    between atoms: C3_9  and  C4_10 
REMARK    4  A    between atoms: C4_10  and  O2_11 
REMARK    5  A    between atoms: C4_10  and  C5_13 
REMARK    6  A    between atoms: C5_13  and  O3_14 
REMARK    7  A    between atoms: C5_13  and  C6_16 
REMARK    8  A    between atoms: C6_16  and  C7_17 
REMARK    9  A    between atoms: C6_16  and  O7_27 
REMARK   10  A    between atoms: C7_17  and  C8_18 
REMARK   11  A    between atoms: C8_18  and  O4_19 
REMARK   12  A    between atoms: C8_18  and  C9_21 
REMARK   13  A    between atoms: C9_21  and  O5_22 
REMARK   14  A    between atoms: C9_21  and  C10_24 
REMARK   15  A    between atoms: C10_24  and  O6_25 
REMARK   16  A    between atoms: O7_27  and  C11_28 
REMARK   17  A    between atoms: C11_28  and  N4_29 
REMARK   18  A    between atoms: C14_35  and  C15_36 
REMARK   19  A    between atoms: C18_39  and  C19_40 
ROOT
HETATM    1  C3  UNL     1     -37.120  -0.096 -11.582  1.00  0.00     0.142 C 
ENDROOT
BRANCH   1   2
HETATM    2  N3  UNL     1     -36.852  -1.461 -11.742  1.00  0.00    -0.304 N 
ATOM      3  H3  UNL     1     -36.661  -2.054 -10.934  1.00  0.00     0.186 HD
BRANCH   2   4
HETATM    4  N2  UNL     1     -36.851  -1.997 -13.043  1.00  0.00    -0.260 N 
HETATM    5  C2  UNL     1     -38.225  -2.340 -13.412  1.00  0.00     0.207 C 
HETATM    6  N1  UNL     1     -38.575  -3.010 -14.429  1.00  0.00    -0.303 N 
HETATM    7  C1  UNL     1     -37.551  -3.476 -15.291  1.00  0.00     0.323 C 
ATOM      8  H1  UNL     1     -39.557  -3.207 -14.621  1.00  0.00     0.171 HD
HETATM    9  O1  UNL     1     -37.822  -4.152 -16.329  1.00  0.00    -0.247 OA
HETATM   10  N8  UNL     1     -36.215  -3.194 -15.000  1.00  0.00    -0.316 N 
HETATM   11  C14 UNL     1     -35.855  -2.163 -13.992  1.00  0.00     0.244 C 
ATOM     12  H8  UNL     1     -35.477  -3.703 -15.484  1.00  0.00     0.166 HD
BRANCH  11  13
HETATM   13  C15 UNL     1     -34.454  -2.381 -13.644  1.00  0.00    -0.014 A 
HETATM   14  C16 UNL     1     -33.644  -1.270 -13.512  1.00  0.00     0.012 A 
HETATM   15  C17 UNL     1     -32.282  -1.355 -13.294  1.00  0.00     0.014 A 
HETATM   16  C18 UNL     1     -31.664  -2.563 -13.203  1.00  0.00    -0.009 A 
HETATM   17  C24 UNL     1     -32.444  -3.689 -13.327  1.00  0.00     0.014 A 
HETATM   18  C25 UNL     1     -33.833  -3.587 -13.545  1.00  0.00     0.012 A 
BRANCH  16  19
HETATM   19  C19 UNL     1     -30.199  -2.686 -13.007  1.00  0.00     0.042 A 
HETATM   20  C20 UNL     1     -29.625  -2.956 -11.789  1.00  0.00     0.030 A 
HETATM   21  C21 UNL     1     -28.251  -3.056 -11.662  1.00  0.00     0.004 A 
HETATM   22  C22 UNL     1     -27.412  -2.889 -12.747  1.00  0.00     0.017 A 
HETATM   23  C23 UNL     1     -28.031  -2.624 -13.948  1.00  0.00     0.088 A 
HETATM   24  N7  UNL     1     -29.367  -2.528 -14.069  1.00  0.00    -0.365 N 
ATOM     25  H7  UNL     1     -29.768  -2.331 -14.987  1.00  0.00     0.165 HD
ENDBRANCH  16  19
ENDBRANCH  11  13
ENDBRANCH   2   4
ENDBRANCH   1   2
BRANCH   1  26
HETATM   26  C4  UNL     1     -37.473   0.362 -10.192  1.00  0.00     0.091 C 
BRANCH  26  27
HETATM   27  O2  UNL     1     -38.674   1.034 -10.215  1.00  0.00    -0.361 OA
ATOM     28  H2  UNL     1     -38.836   1.373 -11.087  1.00  0.00     0.217 HD
ENDBRANCH  26  27
BRANCH  26  29
HETATM   29  C5  UNL     1     -36.475   0.667  -9.194  1.00  0.00     0.205 C 
BRANCH  29  30
HETATM   30  O3  UNL     1     -35.191   0.177  -9.646  1.00  0.00    -0.386 OA
ATOM     31  H3  UNL     1     -35.257  -0.065 -10.562  1.00  0.00     0.210 HD
ENDBRANCH  29  30
BRANCH  29  32
HETATM   32  C6  UNL     1     -36.568  -0.011  -7.824  1.00  0.00     0.167 C 
BRANCH  32  33
HETATM   33  C7  UNL     1     -35.845  -1.324  -7.841  1.00  0.00     0.070 C 
BRANCH  33  34
HETATM   34  C8  UNL     1     -34.838  -1.443  -6.731  1.00  0.00     0.151 C 
BRANCH  34  35
HETATM   35  O4  UNL     1     -33.596  -0.974  -7.072  1.00  0.00    -0.393 OA
ATOM     36  H4  UNL     1     -33.544  -0.659  -7.967  1.00  0.00     0.210 HD
ENDBRANCH  34  35
BRANCH  34  37
HETATM   37  C9  UNL     1     -34.791  -2.778  -6.078  1.00  0.00     0.170 C 
BRANCH  37  38
HETATM   38  O5  UNL     1     -35.812  -2.800  -5.088  1.00  0.00    -0.391 OA
ATOM     39  H5  UNL     1     -35.456  -2.393  -4.307  1.00  0.00     0.210 HD
ENDBRANCH  37  38
BRANCH  37  40
HETATM   40  C10 UNL     1     -33.489  -3.038  -5.387  1.00  0.00     0.198 C 
BRANCH  40  41
HETATM   41  O6  UNL     1     -33.157  -2.102  -4.424  1.00  0.00    -0.398 OA
ATOM     42  H6  UNL     1     -32.446  -1.522  -4.671  1.00  0.00     0.209 HD
ENDBRANCH  40  41
ENDBRANCH  37  40
ENDBRANCH  34  37
ENDBRANCH  33  34
ENDBRANCH  32  33
BRANCH  32  43
HETATM   43  O7  UNL     1     -37.811  -0.025  -7.308  1.00  0.00    -0.337 OA
BRANCH  43  44
HETATM   44  C11 UNL     1     -38.219   1.014  -6.516  1.00  0.00     0.248 C 
BRANCH  44  45
HETATM   45  N4  UNL     1     -39.026   2.007  -7.176  1.00  0.00    -0.239 N 
HETATM   46  C12 UNL     1     -38.780   3.321  -7.275  1.00  0.00     0.134 A 
HETATM   47  C13 UNL     1     -39.797   3.902  -8.010  1.00  0.00     0.123 A 
HETATM   48  N5  UNL     1     -40.631   2.892  -8.331  1.00  0.00    -0.293 N 
HETATM   49  N6  UNL     1     -40.155   1.752  -7.820  1.00  0.00    -0.015 NA
ATOM     50  H5  UNL     1     -41.488   2.983  -8.876  1.00  0.00     0.183 HD
ENDBRANCH  44  45
ENDBRANCH  43  44
ENDBRANCH  32  43
ENDBRANCH  29  32
ENDBRANCH  26  29
ENDBRANCH   1  26
TORSDOF 19
ENDMDL
