MODEL 1
REMARK VINA RESULT: -7.413912497      0.000      0.000
REMARK  15 active torsions:
REMARK  status: ('A' for Active; 'I' for Inactive)
REMARK    1  A    between atoms: N1_1  and  C1_4 
REMARK    2  A    between atoms: C2_7  and  C3_8 
REMARK    3  A    between atoms: C3_8  and  O1_9 
REMARK    4  A    between atoms: C3_8  and  C12_28 
REMARK    5  A    between atoms: O1_9  and  C4_10 
REMARK    6  A    between atoms: C4_10  and  C5_12 
REMARK    7  A    between atoms: C5_12  and  O3_13 
REMARK    8  A    between atoms: C5_12  and  C6_15 
REMARK    9  A    between atoms: C6_15  and  N3_16 
REMARK   10  A    between atoms: C9_19  and  C10_20 
REMARK   11  A    between atoms: N9_36  and  N10_37 
REMARK   12  A    between atoms: C16_40  and  C17_41 
REMARK   13  A    between atoms: C17_41  and  O6_42 
REMARK   14  A    between atoms: C18_44  and  O7_45 
REMARK   15  A    between atoms: C19_47  and  N11_48 
ROOT
HETATM    1  C3  UNL     1     -14.169  19.571   6.761  1.00  0.00     0.235 C 
ENDROOT
BRANCH   1   2
HETATM    2  C2  UNL     1     -13.409  19.284   7.998  1.00  0.00     0.073 C 
HETATM    3  N2  UNL     1     -12.732  20.342   8.552  1.00  0.00    -0.192 N 
HETATM    4  C1  UNL     1     -11.817  20.309   9.529  1.00  0.00     0.677 C 
ATOM      5  H2  UNL     1     -12.953  21.263   8.174  1.00  0.00     0.184 HD
HETATM    6  N12 UNL     1     -11.176  19.273  10.084  1.00  0.00    -0.175 N 
HETATM    7  C19 UNL     1     -11.387  17.946   9.860  1.00  0.00     0.148 C 
ATOM      8  H12 UNL     1     -10.443  19.506  10.755  1.00  0.00     0.186 HD
HETATM    9  C18 UNL     1     -12.452  17.364   9.186  1.00  0.00     0.120 C 
HETATM   10  C16 UNL     1     -13.472  17.992   8.456  1.00  0.00     0.028 C 
BRANCH   4  11
HETATM   11  N1  UNL     1     -11.509  21.462  10.006  1.00  0.00    -0.234 N 
ATOM     12  H12 UNL     1     -10.909  22.032   9.409  1.00  0.00     0.174 HD
ATOM     13  H11 UNL     1     -11.906  21.658  10.925  1.00  0.00     0.174 HD
ENDBRANCH   4  11
BRANCH   7  14
HETATM   14  N11 UNL     1     -10.535  17.109  10.301  1.00  0.00    -0.383 N 
ATOM     15 2H11 UNL     1     -10.590  16.142   9.984  1.00  0.00     0.157 HD
ATOM     16 1H11 UNL     1      -9.860  17.509  10.952  1.00  0.00     0.157 HD
ENDBRANCH   7  14
BRANCH   9  17
HETATM   17  O7  UNL     1     -12.546  15.997   9.222  1.00  0.00    -0.356 OA
ATOM     18  H7  UNL     1     -11.708  15.549   9.254  1.00  0.00     0.218 HD
ENDBRANCH   9  17
BRANCH  10  19
HETATM   19  C17 UNL     1     -14.680  17.235   8.158  1.00  0.00     0.207 C 
BRANCH  19  20
HETATM   20  O6  UNL     1     -14.303  16.273   7.174  1.00  0.00    -0.396 OA
ATOM     21  H6  UNL     1     -13.363  16.168   7.262  1.00  0.00     0.209 HD
ENDBRANCH  19  20
ENDBRANCH  10  19
ENDBRANCH   1   2
BRANCH   1  22
HETATM   22  O1  UNL     1     -14.918  20.773   7.064  1.00  0.00    -0.301 OA
BRANCH  22  23
HETATM   23  C4  UNL     1     -16.122  20.746   7.740  1.00  0.00     0.290 C 
HETATM   24  O2  UNL     1     -17.080  20.167   7.195  1.00  0.00    -0.262 OA
BRANCH  23  25
HETATM   25  C5  UNL     1     -16.181  21.407   9.066  1.00  0.00     0.235 C 
BRANCH  25  26
HETATM   26  O3  UNL     1     -17.107  20.648   9.820  1.00  0.00    -0.384 OA
ATOM     27  H3  UNL     1     -16.926  20.863  10.727  1.00  0.00     0.210 HD
ENDBRANCH  25  26
BRANCH  25  28
HETATM   28  C6  UNL     1     -16.693  22.837   8.979  1.00  0.00     0.169 C 
BRANCH  28  29
HETATM   29  N3  UNL     1     -15.671  23.802   9.385  1.00  0.00    -0.363 N 
HETATM   30  C7  UNL     1     -15.650  25.124   9.174  1.00  0.00     0.091 A 
HETATM   31  C8  UNL     1     -14.519  25.694   9.710  1.00  0.00     0.034 A 
HETATM   32  C9  UNL     1     -13.806  24.674  10.279  1.00  0.00     0.027 A 
HETATM   33  C11 UNL     1     -14.528  23.523  10.070  1.00  0.00     0.106 A 
BRANCH  32  34
HETATM   34  C10 UNL     1     -12.515  24.784  10.983  1.00  0.00     0.142 C 
HETATM   35  N4  UNL     1     -11.869  25.859  11.185  1.00  0.00    -0.270 N 
HETATM   36  N5  UNL     1     -10.676  25.570  11.892  1.00  0.00    -0.007 NA
ATOM     37  H4  UNL     1     -12.164  26.788  10.885  1.00  0.00     0.185 HD
HETATM   38  N6  UNL     1     -10.479  24.181  11.760  1.00  0.00    -0.007 NA
HETATM   39  N7  UNL     1     -11.772  23.725  11.552  1.00  0.00    -0.270 N 
ATOM     40  H7  UNL     1     -12.124  22.793  11.771  1.00  0.00     0.185 HD
ENDBRANCH  32  34
ENDBRANCH  28  29
ENDBRANCH  25  28
ENDBRANCH  23  25
ENDBRANCH  22  23
ENDBRANCH   1  22
BRANCH   1  41
HETATM   41  C12 UNL     1     -13.286  19.979   5.641  1.00  0.00     0.079 A 
HETATM   42  C13 UNL     1     -12.723  21.233   5.662  1.00  0.00     0.104 A 
HETATM   43  C14 UNL     1     -11.891  21.597   4.600  1.00  0.00     0.251 A 
HETATM   44  O4  UNL     1     -11.358  22.734   4.583  1.00  0.00    -0.268 OA
HETATM   45  N8  UNL     1     -11.630  20.771   3.575  1.00  0.00    -0.274 N 
HETATM   46  C15 UNL     1     -12.202  19.547   3.593  1.00  0.00     0.348 A 
ATOM     47  H8  UNL     1     -11.020  21.057   2.809  1.00  0.00     0.173 HD
HETATM   48  O5  UNL     1     -11.958  18.784   2.641  1.00  0.00    -0.245 OA
HETATM   49  N9  UNL     1     -13.012  19.170   4.611  1.00  0.00    -0.213 N 
BRANCH  49  50
HETATM   50  N10 UNL     1     -13.563  17.911   4.561  1.00  0.00    -0.334 N 
ATOM     51 2H10 UNL     1     -13.026  17.141   4.960  1.00  0.00     0.177 HD
ATOM     52 1H10 UNL     1     -14.478  17.772   4.133  1.00  0.00     0.177 HD
ENDBRANCH  49  50
ENDBRANCH   1  41
TORSDOF 15
ENDMDL
MODEL 2
REMARK VINA RESULT: -7.198568055      2.948      7.945
REMARK  15 active torsions:
REMARK  status: ('A' for Active; 'I' for Inactive)
REMARK    1  A    between atoms: N1_1  and  C1_4 
REMARK    2  A    between atoms: C2_7  and  C3_8 
REMARK    3  A    between atoms: C3_8  and  O1_9 
REMARK    4  A    between atoms: C3_8  and  C12_28 
REMARK    5  A    between atoms: O1_9  and  C4_10 
REMARK    6  A    between atoms: C4_10  and  C5_12 
REMARK    7  A    between atoms: C5_12  and  O3_13 
REMARK    8  A    between atoms: C5_12  and  C6_15 
REMARK    9  A    between atoms: C6_15  and  N3_16 
REMARK   10  A    between atoms: C9_19  and  C10_20 
REMARK   11  A    between atoms: N9_36  and  N10_37 
REMARK   12  A    between atoms: C16_40  and  C17_41 
REMARK   13  A    between atoms: C17_41  and  O6_42 
REMARK   14  A    between atoms: C18_44  and  O7_45 
REMARK   15  A    between atoms: C19_47  and  N11_48 
ROOT
HETATM    1  C3  UNL     1     -16.598  22.295   9.288  1.00  0.00     0.235 C 
ENDROOT
BRANCH   1   2
HETATM    2  C2  UNL     1     -15.822  23.533   9.056  1.00  0.00     0.073 C 
HETATM    3  N2  UNL     1     -14.871  23.837   9.998  1.00  0.00    -0.192 N 
HETATM    4  C1  UNL     1     -14.192  24.982  10.137  1.00  0.00     0.677 C 
ATOM      5  H2  UNL     1     -14.656  23.103  10.672  1.00  0.00     0.184 HD
HETATM    6  N12 UNL     1     -14.374  26.177   9.560  1.00  0.00    -0.175 N 
HETATM    7  C19 UNL     1     -15.255  26.498   8.572  1.00  0.00     0.148 C 
ATOM      8  H12 UNL     1     -13.782  26.935   9.900  1.00  0.00     0.186 HD
HETATM    9  C18 UNL     1     -15.999  25.625   7.790  1.00  0.00     0.120 C 
HETATM   10  C16 UNL     1     -16.137  24.235   7.920  1.00  0.00     0.028 C 
BRANCH   4  11
HETATM   11  N1  UNL     1     -13.207  24.919  10.961  1.00  0.00    -0.234 N 
ATOM     12  H12 UNL     1     -13.454  24.645  11.912  1.00  0.00     0.174 HD
ATOM     13  H11 UNL     1     -12.301  25.151  10.554  1.00  0.00     0.174 HD
ENDBRANCH   4  11
BRANCH   7  14
HETATM   14  N11 UNL     1     -15.450  27.727   8.304  1.00  0.00    -0.383 N 
ATOM     15 2H11 UNL     1     -15.365  28.411   9.055  1.00  0.00     0.157 HD
ATOM     16 1H11 UNL     1     -15.682  27.907   7.327  1.00  0.00     0.157 HD
ENDBRANCH   7  14
BRANCH   9  17
HETATM   17  O7  UNL     1     -16.701  26.165   6.742  1.00  0.00    -0.356 OA
ATOM     18  H7  UNL     1     -16.506  25.773   5.899  1.00  0.00     0.218 HD
ENDBRANCH   9  17
BRANCH  10  19
HETATM   19  C17 UNL     1     -16.646  23.479   6.784  1.00  0.00     0.207 C 
BRANCH  19  20
HETATM   20  O6  UNL     1     -15.508  23.176   5.978  1.00  0.00    -0.396 OA
ATOM     21  H6  UNL     1     -15.447  22.228   5.962  1.00  0.00     0.209 HD
ENDBRANCH  19  20
ENDBRANCH  10  19
ENDBRANCH   1   2
BRANCH   1  22
HETATM   22  O1  UNL     1     -15.601  21.294   9.609  1.00  0.00    -0.301 OA
BRANCH  22  23
HETATM   23  C4  UNL     1     -15.055  20.460   8.653  1.00  0.00     0.290 C 
HETATM   24  O2  UNL     1     -14.417  20.985   7.721  1.00  0.00    -0.262 OA
BRANCH  23  25
HETATM   25  C5  UNL     1     -15.268  19.001   8.811  1.00  0.00     0.235 C 
BRANCH  25  26
HETATM   26  O3  UNL     1     -15.166  18.758  10.201  1.00  0.00    -0.384 OA
ATOM     27  H3  UNL     1     -14.446  19.303  10.497  1.00  0.00     0.210 HD
ENDBRANCH  25  26
BRANCH  25  28
HETATM   28  C6  UNL     1     -14.203  18.178   8.102  1.00  0.00     0.169 C 
BRANCH  28  29
HETATM   29  N3  UNL     1     -12.989  18.057   8.909  1.00  0.00    -0.363 N 
HETATM   30  C7  UNL     1     -11.980  18.930   9.021  1.00  0.00     0.091 A 
HETATM   31  C8  UNL     1     -11.013  18.462   9.880  1.00  0.00     0.034 A 
HETATM   32  C9  UNL     1     -11.446  17.241  10.320  1.00  0.00     0.027 A 
HETATM   33  C11 UNL     1     -12.658  17.011   9.714  1.00  0.00     0.106 A 
BRANCH  32  34
HETATM   34  C10 UNL     1     -10.752  16.344  11.261  1.00  0.00     0.142 C 
HETATM   35  N4  UNL     1      -9.496  16.289  11.445  1.00  0.00    -0.270 N 
HETATM   36  N5  UNL     1      -9.202  15.308  12.425  1.00  0.00    -0.007 NA
ATOM     37  H4  UNL     1      -8.805  16.862  10.961  1.00  0.00     0.185 HD
HETATM   38  N6  UNL     1     -10.362  14.515  12.534  1.00  0.00    -0.007 NA
HETATM   39  N7  UNL     1     -11.352  15.393  12.119  1.00  0.00    -0.270 N 
ATOM     40  H7  UNL     1     -12.336  15.360  12.385  1.00  0.00     0.185 HD
ENDBRANCH  32  34
ENDBRANCH  28  29
ENDBRANCH  25  28
ENDBRANCH  23  25
ENDBRANCH  22  23
ENDBRANCH   1  22
BRANCH   1  41
HETATM   41  C12 UNL     1     -17.427  22.373  10.516  1.00  0.00     0.079 A 
HETATM   42  C13 UNL     1     -17.412  23.534  11.254  1.00  0.00     0.104 A 
HETATM   43  C14 UNL     1     -18.201  23.590  12.405  1.00  0.00     0.251 A 
HETATM   44  O4  UNL     1     -18.215  24.632  13.105  1.00  0.00    -0.268 OA
HETATM   45  N8  UNL     1     -18.962  22.559  12.807  1.00  0.00    -0.274 N 
HETATM   46  C15 UNL     1     -18.948  21.438  12.054  1.00  0.00     0.348 A 
ATOM     47  H8  UNL     1     -19.531  22.620  13.652  1.00  0.00     0.173 HD
HETATM   48  O5  UNL     1     -19.654  20.484  12.429  1.00  0.00    -0.245 OA
HETATM   49  N9  UNL     1     -18.191  21.358  10.933  1.00  0.00    -0.213 N 
BRANCH  49  50
HETATM   50  N10 UNL     1     -18.224  20.184  10.218  1.00  0.00    -0.334 N 
ATOM     51 2H10 UNL     1     -18.522  19.339  10.704  1.00  0.00     0.177 HD
ATOM     52 1H10 UNL     1     -17.955  20.179   9.234  1.00  0.00     0.177 HD
ENDBRANCH  49  50
ENDBRANCH   1  41
TORSDOF 15
ENDMDL
MODEL 3
REMARK VINA RESULT: -7.064861343      2.321      6.101
REMARK  15 active torsions:
REMARK  status: ('A' for Active; 'I' for Inactive)
REMARK    1  A    between atoms: N1_1  and  C1_4 
REMARK    2  A    between atoms: C2_7  and  C3_8 
REMARK    3  A    between atoms: C3_8  and  O1_9 
REMARK    4  A    between atoms: C3_8  and  C12_28 
REMARK    5  A    between atoms: O1_9  and  C4_10 
REMARK    6  A    between atoms: C4_10  and  C5_12 
REMARK    7  A    between atoms: C5_12  and  O3_13 
REMARK    8  A    between atoms: C5_12  and  C6_15 
REMARK    9  A    between atoms: C6_15  and  N3_16 
REMARK   10  A    between atoms: C9_19  and  C10_20 
REMARK   11  A    between atoms: N9_36  and  N10_37 
REMARK   12  A    between atoms: C16_40  and  C17_41 
REMARK   13  A    between atoms: C17_41  and  O6_42 
REMARK   14  A    between atoms: C18_44  and  O7_45 
REMARK   15  A    between atoms: C19_47  and  N11_48 
ROOT
HETATM    1  C3  UNL     1     -14.179  20.966   8.008  1.00  0.00     0.235 C 
ENDROOT
BRANCH   1   2
HETATM    2  C2  UNL     1     -14.516  22.028   8.981  1.00  0.00     0.073 C 
HETATM    3  N2  UNL     1     -15.820  22.456   8.984  1.00  0.00    -0.192 N 
HETATM    4  C1  UNL     1     -16.330  23.528   9.602  1.00  0.00     0.677 C 
ATOM      5  H2  UNL     1     -16.479  21.888   8.451  1.00  0.00     0.184 HD
HETATM    6  N12 UNL     1     -15.720  24.559  10.199  1.00  0.00    -0.175 N 
HETATM    7  C19 UNL     1     -14.387  24.718  10.429  1.00  0.00     0.148 C 
ATOM      8  H12 UNL     1     -16.326  25.315  10.520  1.00  0.00     0.186 HD
HETATM    9  C18 UNL     1     -13.390  23.760  10.303  1.00  0.00     0.120 C 
HETATM   10  C16 UNL     1     -13.485  22.463   9.777  1.00  0.00     0.028 C 
BRANCH   4  11
HETATM   11  N1  UNL     1     -17.615  23.568   9.621  1.00  0.00    -0.234 N 
ATOM     12  H12 UNL     1     -18.077  22.658   9.622  1.00  0.00     0.174 HD
ATOM     13  H11 UNL     1     -18.007  24.509   9.633  1.00  0.00     0.174 HD
ENDBRANCH   4  11
BRANCH   7  14
HETATM   14  N11 UNL     1     -13.963  25.859  10.802  1.00  0.00    -0.383 N 
ATOM     15 2H11 UNL     1     -13.573  25.954  11.740  1.00  0.00     0.157 HD
ATOM     16 1H11 UNL     1     -14.064  26.589  10.097  1.00  0.00     0.157 HD
ENDBRANCH   7  14
BRANCH   9  17
HETATM   17  O7  UNL     1     -12.136  24.097  10.745  1.00  0.00    -0.356 OA
ATOM     18  H7  UNL     1     -11.472  23.441  10.571  1.00  0.00     0.218 HD
ENDBRANCH   9  17
BRANCH  10  19
HETATM   19  C17 UNL     1     -12.430  21.509  10.086  1.00  0.00     0.207 C 
BRANCH  19  20
HETATM   20  O6  UNL     1     -11.299  21.917   9.317  1.00  0.00    -0.396 OA
ATOM     21  H6  UNL     1     -11.259  22.862   9.399  1.00  0.00     0.209 HD
ENDBRANCH  19  20
ENDBRANCH  10  19
ENDBRANCH   1   2
BRANCH   1  22
HETATM   22  O1  UNL     1     -15.417  20.241   7.815  1.00  0.00    -0.301 OA
BRANCH  22  23
HETATM   23  C4  UNL     1     -15.944  19.405   8.780  1.00  0.00     0.290 C 
HETATM   24  O2  UNL     1     -17.111  19.618   9.159  1.00  0.00    -0.262 OA
BRANCH  23  25
HETATM   25  C5  UNL     1     -15.078  18.315   9.292  1.00  0.00     0.235 C 
BRANCH  25  26
HETATM   26  O3  UNL     1     -14.562  18.795  10.519  1.00  0.00    -0.384 OA
ATOM     27  H3  UNL     1     -13.808  18.247  10.703  1.00  0.00     0.210 HD
ENDBRANCH  25  26
BRANCH  25  28
HETATM   28  C6  UNL     1     -13.909  18.018   8.365  1.00  0.00     0.169 C 
BRANCH  28  29
HETATM   29  N3  UNL     1     -12.673  17.788   9.113  1.00  0.00    -0.363 N 
HETATM   30  C7  UNL     1     -11.529  18.481   9.055  1.00  0.00     0.091 A 
HETATM   31  C8  UNL     1     -10.589  17.960   9.913  1.00  0.00     0.034 A 
HETATM   32  C9  UNL     1     -11.181  16.893  10.532  1.00  0.00     0.027 A 
HETATM   33  C11 UNL     1     -12.457  16.804  10.028  1.00  0.00     0.106 A 
BRANCH  32  34
HETATM   34  C10 UNL     1     -10.574  16.009  11.543  1.00  0.00     0.142 C 
HETATM   35  N4  UNL     1      -9.348  15.997  11.877  1.00  0.00    -0.270 N 
HETATM   36  N5  UNL     1      -9.139  15.015  12.877  1.00  0.00    -0.007 NA
ATOM     37  H4  UNL     1      -8.625  16.601  11.486  1.00  0.00     0.185 HD
HETATM   38  N6  UNL     1     -10.273  14.179  12.837  1.00  0.00    -0.007 NA
HETATM   39  N7  UNL     1     -11.237  15.027  12.313  1.00  0.00    -0.270 N 
ATOM     40  H7  UNL     1     -12.245  14.954  12.457  1.00  0.00     0.185 HD
ENDBRANCH  32  34
ENDBRANCH  28  29
ENDBRANCH  25  28
ENDBRANCH  23  25
ENDBRANCH  22  23
ENDBRANCH   1  22
BRANCH   1  41
HETATM   41  C12 UNL     1     -13.877  21.512   6.662  1.00  0.00     0.079 A 
HETATM   42  C13 UNL     1     -14.830  22.273   6.025  1.00  0.00     0.104 A 
HETATM   43  C14 UNL     1     -14.526  22.781   4.760  1.00  0.00     0.251 A 
HETATM   44  O4  UNL     1     -15.369  23.480   4.147  1.00  0.00    -0.268 OA
HETATM   45  N8  UNL     1     -13.350  22.552   4.156  1.00  0.00    -0.274 N 
HETATM   46  C15 UNL     1     -12.441  21.800   4.815  1.00  0.00     0.348 A 
ATOM     47  H8  UNL     1     -13.148  22.932   3.231  1.00  0.00     0.173 HD
HETATM   48  O5  UNL     1     -11.352  21.590   4.253  1.00  0.00    -0.245 OA
HETATM   49  N9  UNL     1     -12.711  21.296   6.043  1.00  0.00    -0.213 N 
BRANCH  49  50
HETATM   50  N10 UNL     1     -11.740  20.537   6.653  1.00  0.00    -0.334 N 
ATOM     51 2H10 UNL     1     -12.013  19.971   7.456  1.00  0.00     0.177 HD
ATOM     52 1H10 UNL     1     -10.783  20.555   6.301  1.00  0.00     0.177 HD
ENDBRANCH  49  50
ENDBRANCH   1  41
TORSDOF 15
ENDMDL
MODEL 4
REMARK VINA RESULT: -6.947013128      2.395      4.178
REMARK  15 active torsions:
REMARK  status: ('A' for Active; 'I' for Inactive)
REMARK    1  A    between atoms: N1_1  and  C1_4 
REMARK    2  A    between atoms: C2_7  and  C3_8 
REMARK    3  A    between atoms: C3_8  and  O1_9 
REMARK    4  A    between atoms: C3_8  and  C12_28 
REMARK    5  A    between atoms: O1_9  and  C4_10 
REMARK    6  A    between atoms: C4_10  and  C5_12 
REMARK    7  A    between atoms: C5_12  and  O3_13 
REMARK    8  A    between atoms: C5_12  and  C6_15 
REMARK    9  A    between atoms: C6_15  and  N3_16 
REMARK   10  A    between atoms: C9_19  and  C10_20 
REMARK   11  A    between atoms: N9_36  and  N10_37 
REMARK   12  A    between atoms: C16_40  and  C17_41 
REMARK   13  A    between atoms: C17_41  and  O6_42 
REMARK   14  A    between atoms: C18_44  and  O7_45 
REMARK   15  A    between atoms: C19_47  and  N11_48 
ROOT
HETATM    1  C3  UNL     1     -15.507  18.982   6.671  1.00  0.00     0.235 C 
ENDROOT
BRANCH   1   2
HETATM    2  C2  UNL     1     -15.694  17.640   6.076  1.00  0.00     0.073 C 
HETATM    3  N2  UNL     1     -15.434  16.572   6.896  1.00  0.00    -0.192 N 
HETATM    4  C1  UNL     1     -15.322  15.282   6.554  1.00  0.00     0.677 C 
ATOM      5  H2  UNL     1     -15.311  16.785   7.886  1.00  0.00     0.184 HD
HETATM    6  N12 UNL     1     -15.233  14.708   5.348  1.00  0.00    -0.175 N 
HETATM    7  C19 UNL     1     -15.350  15.308   4.129  1.00  0.00     0.148 C 
ATOM      8  H12 UNL     1     -15.057  13.704   5.340  1.00  0.00     0.186 HD
HETATM    9  C18 UNL     1     -15.808  16.591   3.863  1.00  0.00     0.120 C 
HETATM   10  C16 UNL     1     -16.115  17.617   4.769  1.00  0.00     0.028 C 
BRANCH   4  11
HETATM   11  N1  UNL     1     -15.296  14.469   7.549  1.00  0.00    -0.234 N 
ATOM     12  H12 UNL     1     -15.280  13.480   7.300  1.00  0.00     0.174 HD
ATOM     13  H11 UNL     1     -15.295  14.921   8.463  1.00  0.00     0.174 HD
ENDBRANCH   4  11
BRANCH   7  14
HETATM   14  N11 UNL     1     -15.012  14.653   3.092  1.00  0.00    -0.383 N 
ATOM     15 2H11 UNL     1     -15.740  14.343   2.449  1.00  0.00     0.157 HD
ATOM     16 1H11 UNL     1     -14.007  14.500   3.008  1.00  0.00     0.157 HD
ENDBRANCH   7  14
BRANCH   9  17
HETATM   17  O7  UNL     1     -15.997  16.929   2.547  1.00  0.00    -0.356 OA
ATOM     18  H7  UNL     1     -15.367  16.542   1.951  1.00  0.00     0.218 HD
ENDBRANCH   9  17
BRANCH  10  19
HETATM   19  C17 UNL     1     -16.929  18.732   4.307  1.00  0.00     0.207 C 
BRANCH  19  20
HETATM   20  O6  UNL     1     -16.096  19.481   3.423  1.00  0.00    -0.396 OA
ATOM     21  H6  UNL     1     -16.644  19.707   2.681  1.00  0.00     0.209 HD
ENDBRANCH  19  20
ENDBRANCH  10  19
ENDBRANCH   1   2
BRANCH   1  22
HETATM   22  O1  UNL     1     -16.015  18.856   8.021  1.00  0.00    -0.301 OA
BRANCH  22  23
HETATM   23  C4  UNL     1     -16.921  19.749   8.558  1.00  0.00     0.290 C 
HETATM   24  O2  UNL     1     -18.132  19.536   8.361  1.00  0.00    -0.262 OA
BRANCH  23  25
HETATM   25  C5  UNL     1     -16.383  20.895   9.330  1.00  0.00     0.235 C 
BRANCH  25  26
HETATM   26  O3  UNL     1     -17.306  21.103  10.381  1.00  0.00    -0.384 OA
ATOM     27  H3  UNL     1     -17.228  22.023  10.604  1.00  0.00     0.210 HD
ENDBRANCH  25  26
BRANCH  25  28
HETATM   28  C6  UNL     1     -16.307  22.170   8.502  1.00  0.00     0.169 C 
BRANCH  28  29
HETATM   29  N3  UNL     1     -15.470  23.182   9.145  1.00  0.00    -0.363 N 
HETATM   30  C7  UNL     1     -15.736  24.482   9.326  1.00  0.00     0.091 A 
HETATM   31  C8  UNL     1     -14.702  25.113   9.976  1.00  0.00     0.034 A 
HETATM   32  C9  UNL     1     -13.751  24.157  10.208  1.00  0.00     0.027 A 
HETATM   33  C11 UNL     1     -14.241  22.981   9.691  1.00  0.00     0.106 A 
BRANCH  32  34
HETATM   34  C10 UNL     1     -12.453  24.346  10.881  1.00  0.00     0.142 C 
HETATM   35  N4  UNL     1     -11.678  23.419  11.272  1.00  0.00    -0.270 N 
HETATM   36  N5  UNL     1     -10.527  23.985  11.874  1.00  0.00    -0.007 NA
ATOM     37  H4  UNL     1     -11.856  22.420  11.167  1.00  0.00     0.185 HD
HETATM   38  N6  UNL     1     -10.860  25.326  12.153  1.00  0.00    -0.007 NA
HETATM   39  N7  UNL     1     -11.845  25.579  11.211  1.00  0.00    -0.270 N 
ATOM     40  H7  UNL     1     -12.088  26.492  10.825  1.00  0.00     0.185 HD
ENDBRANCH  32  34
ENDBRANCH  28  29
ENDBRANCH  25  28
ENDBRANCH  23  25
ENDBRANCH  22  23
ENDBRANCH   1  22
BRANCH   1  41
HETATM   41  C12 UNL     1     -14.074  19.315   6.864  1.00  0.00     0.079 A 
HETATM   42  C13 UNL     1     -13.380  18.704   7.881  1.00  0.00     0.104 A 
HETATM   43  C14 UNL     1     -12.032  19.028   8.045  1.00  0.00     0.251 A 
HETATM   44  O4  UNL     1     -11.365  18.490   8.962  1.00  0.00    -0.268 OA
HETATM   45  N8  UNL     1     -11.402  19.907   7.250  1.00  0.00    -0.274 N 
HETATM   46  C15 UNL     1     -12.119  20.486   6.261  1.00  0.00     0.348 A 
ATOM     47  H8  UNL     1     -10.416  20.131   7.386  1.00  0.00     0.173 HD
HETATM   48  O5  UNL     1     -11.532  21.300   5.527  1.00  0.00    -0.245 OA
HETATM   49  N9  UNL     1     -13.428  20.188   6.082  1.00  0.00    -0.213 N 
BRANCH  49  50
HETATM   50  N10 UNL     1     -14.096  20.818   5.058  1.00  0.00    -0.334 N 
ATOM     51 2H10 UNL     1     -15.068  21.082   5.215  1.00  0.00     0.177 HD
ATOM     52 1H10 UNL     1     -13.617  21.005   4.177  1.00  0.00     0.177 HD
ENDBRANCH  49  50
ENDBRANCH   1  41
TORSDOF 15
ENDMDL
MODEL 5
REMARK VINA RESULT: -6.884176997      3.363      4.416
REMARK  15 active torsions:
REMARK  status: ('A' for Active; 'I' for Inactive)
REMARK    1  A    between atoms: N1_1  and  C1_4 
REMARK    2  A    between atoms: C2_7  and  C3_8 
REMARK    3  A    between atoms: C3_8  and  O1_9 
REMARK    4  A    between atoms: C3_8  and  C12_28 
REMARK    5  A    between atoms: O1_9  and  C4_10 
REMARK    6  A    between atoms: C4_10  and  C5_12 
REMARK    7  A    between atoms: C5_12  and  O3_13 
REMARK    8  A    between atoms: C5_12  and  C6_15 
REMARK    9  A    between atoms: C6_15  and  N3_16 
REMARK   10  A    between atoms: C9_19  and  C10_20 
REMARK   11  A    between atoms: N9_36  and  N10_37 
REMARK   12  A    between atoms: C16_40  and  C17_41 
REMARK   13  A    between atoms: C17_41  and  O6_42 
REMARK   14  A    between atoms: C18_44  and  O7_45 
REMARK   15  A    between atoms: C19_47  and  N11_48 
ROOT
HETATM    1  C3  UNL     1     -14.456  19.268   6.945  1.00  0.00     0.235 C 
ENDROOT
BRANCH   1   2
HETATM    2  C2  UNL     1     -13.646  19.119   8.174  1.00  0.00     0.073 C 
HETATM    3  N2  UNL     1     -13.113  20.273   8.691  1.00  0.00    -0.192 N 
HETATM    4  C1  UNL     1     -12.188  20.391   9.652  1.00  0.00     0.677 C 
ATOM      5  H2  UNL     1     -13.464  21.146   8.297  1.00  0.00     0.184 HD
HETATM    6  N12 UNL     1     -11.402  19.467  10.219  1.00  0.00    -0.175 N 
HETATM    7  C19 UNL     1     -11.431  18.118  10.028  1.00  0.00     0.148 C 
ATOM      8  H12 UNL     1     -10.698  19.815  10.871  1.00  0.00     0.186 HD
HETATM    9  C18 UNL     1     -12.415  17.379   9.387  1.00  0.00     0.120 C 
HETATM   10  C16 UNL     1     -13.523  17.842   8.661  1.00  0.00     0.028 C 
BRANCH   4  11
HETATM   11  N1  UNL     1     -12.034  21.587  10.098  1.00  0.00    -0.234 N 
ATOM     12  H12 UNL     1     -12.608  22.296   9.642  1.00  0.00     0.174 HD
ATOM     13  H11 UNL     1     -11.355  21.671  10.854  1.00  0.00     0.174 HD
ENDBRANCH   4  11
BRANCH   7  14
HETATM   14  N11 UNL     1     -10.465  17.418  10.472  1.00  0.00    -0.383 N 
ATOM     15 2H11 UNL     1     -10.307  16.493  10.073  1.00  0.00     0.157 HD
ATOM     16 1H11 UNL     1      -9.930  17.872  11.212  1.00  0.00     0.157 HD
ENDBRANCH   7  14
BRANCH   9  17
HETATM   17  O7  UNL     1     -12.318  16.013   9.455  1.00  0.00    -0.356 OA
ATOM     18  H7  UNL     1     -11.518  15.660   9.085  1.00  0.00     0.218 HD
ENDBRANCH   9  17
BRANCH  10  19
HETATM   19  C17 UNL     1     -14.619  16.919   8.403  1.00  0.00     0.207 C 
BRANCH  19  20
HETATM   20  O6  UNL     1     -14.075  15.893   7.573  1.00  0.00    -0.396 OA
ATOM     21  H6  UNL     1     -14.406  15.075   7.923  1.00  0.00     0.209 HD
ENDBRANCH  19  20
ENDBRANCH  10  19
ENDBRANCH   1   2
BRANCH   1  22
HETATM   22  O1  UNL     1     -14.974  20.619   7.011  1.00  0.00    -0.301 OA
BRANCH  22  23
HETATM   23  C4  UNL     1     -16.327  20.893   7.044  1.00  0.00     0.290 C 
HETATM   24  O2  UNL     1     -16.916  21.042   5.957  1.00  0.00    -0.262 OA
BRANCH  23  25
HETATM   25  C5  UNL     1     -16.976  20.988   8.374  1.00  0.00     0.235 C 
BRANCH  25  26
HETATM   26  O3  UNL     1     -15.936  21.324   9.273  1.00  0.00    -0.384 OA
ATOM     27  H3  UNL     1     -15.188  20.812   8.991  1.00  0.00     0.210 HD
ENDBRANCH  25  26
BRANCH  25  28
HETATM   28  C6  UNL     1     -17.585  19.667   8.820  1.00  0.00     0.169 C 
BRANCH  28  29
HETATM   29  N3  UNL     1     -18.102  19.745  10.186  1.00  0.00    -0.363 N 
HETATM   30  C7  UNL     1     -19.046  20.563  10.668  1.00  0.00     0.091 A 
HETATM   31  C8  UNL     1     -19.263  20.335  12.006  1.00  0.00     0.034 A 
HETATM   32  C9  UNL     1     -18.411  19.327  12.370  1.00  0.00     0.027 A 
HETATM   33  C11 UNL     1     -17.708  18.979  11.240  1.00  0.00     0.106 A 
BRANCH  32  34
HETATM   34  C10 UNL     1     -18.271  18.727  13.708  1.00  0.00     0.142 C 
HETATM   35  N4  UNL     1     -19.058  17.873  14.225  1.00  0.00    -0.270 N 
HETATM   36  N5  UNL     1     -18.602  17.531  15.522  1.00  0.00    -0.007 NA
ATOM     37  H4  UNL     1     -19.890  17.492  13.774  1.00  0.00     0.185 HD
HETATM   38  N6  UNL     1     -17.688  18.540  15.886  1.00  0.00    -0.007 NA
HETATM   39  N7  UNL     1     -17.250  18.991  14.650  1.00  0.00    -0.270 N 
ATOM     40  H7  UNL     1     -16.352  19.435  14.454  1.00  0.00     0.185 HD
ENDBRANCH  32  34
ENDBRANCH  28  29
ENDBRANCH  25  28
ENDBRANCH  23  25
ENDBRANCH  22  23
ENDBRANCH   1  22
BRANCH   1  41
HETATM   41  C12 UNL     1     -13.621  19.270   5.718  1.00  0.00     0.079 A 
HETATM   42  C13 UNL     1     -12.730  20.299   5.523  1.00  0.00     0.104 A 
HETATM   43  C14 UNL     1     -11.950  20.282   4.364  1.00  0.00     0.251 A 
HETATM   44  O4  UNL     1     -11.125  21.203   4.151  1.00  0.00    -0.268 OA
HETATM   45  N8  UNL     1     -12.045  19.305   3.449  1.00  0.00    -0.274 N 
HETATM   46  C15 UNL     1     -12.932  18.312   3.678  1.00  0.00     0.348 A 
ATOM     47  H8  UNL     1     -11.466  19.311   2.608  1.00  0.00     0.173 HD
HETATM   48  O5  UNL     1     -13.017  17.409   2.827  1.00  0.00    -0.245 OA
HETATM   49  N9  UNL     1     -13.699  18.306   4.794  1.00  0.00    -0.213 N 
BRANCH  49  50
HETATM   50  N10 UNL     1     -14.583  17.266   4.960  1.00  0.00    -0.334 N 
ATOM     51 2H10 UNL     1     -15.580  17.475   4.908  1.00  0.00     0.177 HD
ATOM     52 1H10 UNL     1     -14.234  16.323   5.131  1.00  0.00     0.177 HD
ENDBRANCH  49  50
ENDBRANCH   1  41
TORSDOF 15
ENDMDL
