MODEL 1
REMARK VINA RESULT: -5.946913039      0.000      0.000
REMARK  17 active torsions:
REMARK  status: ('A' for Active; 'I' for Inactive)
REMARK    1  A    between atoms: N1_1  and  C1_5 
REMARK    2  A    between atoms: C3_7  and  N2_8 
REMARK    3  A    between atoms: C4_12  and  O1_13 
REMARK    4  A    between atoms: O1_13  and  C5_14 
REMARK    5  A    between atoms: C7_16  and  O2_17 
REMARK    6  A    between atoms: C8_19  and  O3_20 
REMARK    7  A    between atoms: C9_22  and  N3_23 
REMARK    8  A    between atoms: C10_30  and  O4_31 
REMARK    9  A    between atoms: O4_31  and  C11_32 
REMARK   10  A    between atoms: C11_32  and  C12_33 
REMARK   11  A    between atoms: C13_37  and  O5_38 
REMARK   12  A    between atoms: O5_38  and  C14_39 
REMARK   13  A    between atoms: C16_42  and  C17_43 
REMARK   14  A    between atoms: C17_43  and  O6_44 
REMARK   15  A    between atoms: C18_49  and  O7_50 
REMARK   16  A    between atoms: C19_52  and  O8_53 
REMARK   17  A    between atoms: C20_55  and  O9_56 
ROOT
HETATM    1  C1  UNL     1     -15.752  19.822   7.306  1.00  0.00     0.241 C 
HETATM    2  C2  UNL     1     -15.128  20.448   8.537  1.00  0.00     0.074 C 
HETATM    3  C3  UNL     1     -14.061  21.409   8.057  1.00  0.00     0.241 C 
HETATM    4  C4  UNL     1     -12.858  20.542   7.666  1.00  0.00     0.355 C 
HETATM    5  N4  UNL     1     -13.371  19.402   6.954  1.00  0.00    -0.018 N 
ATOM      6  H41 UNL     1     -13.446  18.596   7.575  1.00  0.00     0.283 HD
ATOM      7  H42 UNL     1     -12.676  19.048   6.295  1.00  0.00     0.283 HD
HETATM    8  C10 UNL     1     -14.622  19.646   6.287  1.00  0.00     0.354 C 
ENDROOT
BRANCH   8   9
HETATM    9  O4  UNL     1     -14.902  18.651   5.383  1.00  0.00    -0.355 OA
BRANCH   9  10
HETATM   10  C11 UNL     1     -14.099  17.551   5.579  1.00  0.00     0.206 C 
BRANCH  10  11
HETATM   11  C12 UNL     1     -14.869  16.251   5.514  1.00  0.00     0.243 C 
HETATM   12  N5  UNL     1     -16.099  16.441   4.736  1.00  0.00    -0.037 N 
HETATM   13  C13 UNL     1     -16.679  15.115   4.485  1.00  0.00     0.355 C 
ATOM     14  H52 UNL     1     -16.754  17.083   5.181  1.00  0.00     0.281 HD
ATOM     15  H51 UNL     1     -15.947  16.975   3.879  1.00  0.00     0.281 HD
HETATM   16  C18 UNL     1     -16.999  14.511   5.814  1.00  0.00     0.205 C 
HETATM   17  C19 UNL     1     -15.778  14.317   6.675  1.00  0.00     0.182 C 
HETATM   18  C20 UNL     1     -15.169  15.710   6.881  1.00  0.00     0.182 C 
BRANCH  13  19
HETATM   19  O5  UNL     1     -15.782  14.408   3.728  1.00  0.00    -0.323 OA
BRANCH  19  20
HETATM   20  C14 UNL     1     -15.642  14.899   2.434  1.00  0.00     0.333 C 
HETATM   21  C15 UNL     1     -16.117  13.801   1.490  1.00  0.00     0.137 C 
HETATM   22  S1  UNL     1     -14.569  12.807   1.419  1.00  0.00    -0.130 SA
HETATM   23  C16 UNL     1     -13.480  14.043   2.235  1.00  0.00     0.273 C 
HETATM   24  N6  UNL     1     -14.296  15.230   2.090  1.00  0.00    -0.033 N 
ATOM     25  H62 UNL     1     -14.221  15.647   1.162  1.00  0.00     0.281 HD
ATOM     26  H61 UNL     1     -13.938  16.020   2.628  1.00  0.00     0.281 HD
BRANCH  23  27
HETATM   27  C17 UNL     1     -12.272  14.204   1.353  1.00  0.00     0.208 C 
BRANCH  27  28
HETATM   28  O6  UNL     1     -11.110  13.830   2.034  1.00  0.00    -0.398 OA
ATOM     29  H6  UNL     1     -10.695  13.090   1.607  1.00  0.00     0.209 HD
ENDBRANCH  27  28
ENDBRANCH  23  27
ENDBRANCH  19  20
ENDBRANCH  13  19
BRANCH  16  30
HETATM   30  O7  UNL     1     -17.779  13.363   5.715  1.00  0.00    -0.388 OA
ATOM     31  H7  UNL     1     -17.304  12.572   5.939  1.00  0.00     0.210 HD
ENDBRANCH  16  30
BRANCH  17  32
HETATM   32  O8  UNL     1     -16.196  13.882   7.931  1.00  0.00    -0.390 OA
ATOM     33  H8  UNL     1     -16.720  13.098   7.813  1.00  0.00     0.210 HD
ENDBRANCH  17  32
BRANCH  18  34
HETATM   34  O9  UNL     1     -14.009  15.659   7.615  1.00  0.00    -0.391 OA
ATOM     35  H9  UNL     1     -13.766  16.537   7.881  1.00  0.00     0.210 HD
ENDBRANCH  18  34
ENDBRANCH  10  11
ENDBRANCH   9  10
ENDBRANCH   8   9
BRANCH   1  36
HETATM   36  N1  UNL     1     -16.739  20.779   6.814  1.00  0.00    -0.071 N 
ATOM     37  H13 UNL     1     -16.768  21.644   7.354  1.00  0.00     0.274 HD
ATOM     38  H12 UNL     1     -16.487  21.198   5.919  1.00  0.00     0.274 HD
ATOM     39  H11 UNL     1     -17.631  20.286   6.792  1.00  0.00     0.274 HD
ENDBRANCH   1  36
BRANCH   4  40
HETATM   40  O1  UNL     1     -12.240  20.190   8.862  1.00  0.00    -0.350 OA
BRANCH  40  41
HETATM   41  C5  UNL     1     -11.755  18.892   8.861  1.00  0.00     0.159 C 
HETATM   42  C6  UNL     1     -10.416  18.770   9.533  1.00  0.00     0.068 C 
HETATM   43  C7  UNL     1     -10.447  17.559  10.412  1.00  0.00     0.151 C 
HETATM   44  C8  UNL     1     -11.812  16.939  10.284  1.00  0.00     0.179 C 
HETATM   45  C9  UNL     1     -12.650  18.075   9.766  1.00  0.00     0.243 C 
BRANCH  43  46
HETATM   46  O2  UNL     1      -9.433  16.671  10.047  1.00  0.00    -0.393 OA
ATOM     47  H2  UNL     1      -9.757  15.778  10.062  1.00  0.00     0.210 HD
ENDBRANCH  43  46
BRANCH  44  48
HETATM   48  O3  UNL     1     -11.824  15.829   9.441  1.00  0.00    -0.391 OA
ATOM     49  H3  UNL     1     -11.872  15.008   9.915  1.00  0.00     0.210 HD
ENDBRANCH  44  48
BRANCH  45  50
HETATM   50  N3  UNL     1     -13.028  18.899  10.908  1.00  0.00    -0.070 N 
ATOM     51  H33 UNL     1     -12.253  19.055  11.552  1.00  0.00     0.274 HD
ATOM     52  H32 UNL     1     -13.193  19.872  10.652  1.00  0.00     0.274 HD
ATOM     53  H31 UNL     1     -13.835  18.471  11.362  1.00  0.00     0.274 HD
ENDBRANCH  45  50
ENDBRANCH  40  41
ENDBRANCH   4  40
BRANCH   3  54
HETATM   54  N2  UNL     1     -13.720  22.270   9.172  1.00  0.00    -0.071 N 
ATOM     55  H23 UNL     1     -14.505  22.436   9.802  1.00  0.00     0.274 HD
ATOM     56  H22 UNL     1     -13.101  21.822   9.847  1.00  0.00     0.274 HD
ATOM     57  H21 UNL     1     -13.332  23.131   8.785  1.00  0.00     0.274 HD
ENDBRANCH   3  54
TORSDOF 17
ENDMDL
MODEL 2
REMARK VINA RESULT: -5.831356622      2.231      4.068
REMARK  17 active torsions:
REMARK  status: ('A' for Active; 'I' for Inactive)
REMARK    1  A    between atoms: N1_1  and  C1_5 
REMARK    2  A    between atoms: C3_7  and  N2_8 
REMARK    3  A    between atoms: C4_12  and  O1_13 
REMARK    4  A    between atoms: O1_13  and  C5_14 
REMARK    5  A    between atoms: C7_16  and  O2_17 
REMARK    6  A    between atoms: C8_19  and  O3_20 
REMARK    7  A    between atoms: C9_22  and  N3_23 
REMARK    8  A    between atoms: C10_30  and  O4_31 
REMARK    9  A    between atoms: O4_31  and  C11_32 
REMARK   10  A    between atoms: C11_32  and  C12_33 
REMARK   11  A    between atoms: C13_37  and  O5_38 
REMARK   12  A    between atoms: O5_38  and  C14_39 
REMARK   13  A    between atoms: C16_42  and  C17_43 
REMARK   14  A    between atoms: C17_43  and  O6_44 
REMARK   15  A    between atoms: C18_49  and  O7_50 
REMARK   16  A    between atoms: C19_52  and  O8_53 
REMARK   17  A    between atoms: C20_55  and  O9_56 
ROOT
HETATM    1  C1  UNL     1     -14.191  20.508   4.421  1.00  0.00     0.241 C 
HETATM    2  C2  UNL     1     -14.760  20.699   5.812  1.00  0.00     0.074 C 
HETATM    3  C3  UNL     1     -13.754  21.512   6.599  1.00  0.00     0.241 C 
HETATM    4  C4  UNL     1     -12.638  20.536   6.992  1.00  0.00     0.355 C 
HETATM    5  N4  UNL     1     -12.369  19.714   5.843  1.00  0.00    -0.018 N 
ATOM      6  H41 UNL     1     -12.852  18.819   5.921  1.00  0.00     0.283 HD
ATOM      7  H42 UNL     1     -11.401  19.389   5.852  1.00  0.00     0.283 HD
HETATM    8  C10 UNL     1     -12.677  20.348   4.588  1.00  0.00     0.354 C 
ENDROOT
BRANCH   8   9
HETATM    9  O4  UNL     1     -12.118  19.662   3.537  1.00  0.00    -0.355 OA
BRANCH   9  10
HETATM   10  C11 UNL     1     -13.063  19.327   2.594  1.00  0.00     0.206 C 
BRANCH  10  11
HETATM   11  C12 UNL     1     -13.156  17.835   2.371  1.00  0.00     0.243 C 
HETATM   12  N5  UNL     1     -12.958  17.129   3.642  1.00  0.00    -0.037 N 
HETATM   13  C13 UNL     1     -13.304  15.718   3.429  1.00  0.00     0.355 C 
ATOM     14  H52 UNL     1     -12.020  17.254   4.022  1.00  0.00     0.281 HD
ATOM     15  H51 UNL     1     -13.474  17.551   4.414  1.00  0.00     0.281 HD
HETATM   16  C18 UNL     1     -12.372  15.182   2.392  1.00  0.00     0.205 C 
HETATM   17  C19 UNL     1     -12.506  15.887   1.067  1.00  0.00     0.182 C 
HETATM   18  C20 UNL     1     -12.183  17.364   1.329  1.00  0.00     0.182 C 
BRANCH  13  19
HETATM   19  O5  UNL     1     -14.633  15.665   3.097  1.00  0.00    -0.323 OA
BRANCH  19  20
HETATM   20  C14 UNL     1     -15.317  14.623   3.715  1.00  0.00     0.333 C 
HETATM   21  C15 UNL     1     -16.802  14.863   3.473  1.00  0.00     0.137 C 
HETATM   22  S1  UNL     1     -17.119  16.055   4.840  1.00  0.00    -0.130 SA
HETATM   23  C16 UNL     1     -15.521  15.809   5.715  1.00  0.00     0.273 C 
HETATM   24  N6  UNL     1     -15.102  14.555   5.125  1.00  0.00    -0.033 N 
ATOM     25  H62 UNL     1     -15.560  13.750   5.552  1.00  0.00     0.281 HD
ATOM     26  H61 UNL     1     -14.140  14.312   5.363  1.00  0.00     0.281 HD
BRANCH  23  27
HETATM   27  C17 UNL     1     -15.854  15.552   7.159  1.00  0.00     0.208 C 
BRANCH  27  28
HETATM   28  O6  UNL     1     -15.302  14.340   7.585  1.00  0.00    -0.398 OA
ATOM     29  H6  UNL     1     -15.547  14.157   8.484  1.00  0.00     0.209 HD
ENDBRANCH  27  28
ENDBRANCH  23  27
ENDBRANCH  19  20
ENDBRANCH  13  19
BRANCH  16  30
HETATM   30  O7  UNL     1     -12.428  13.796   2.275  1.00  0.00    -0.388 OA
ATOM     31  H7  UNL     1     -12.147  13.485   1.423  1.00  0.00     0.210 HD
ENDBRANCH  16  30
BRANCH  17  32
HETATM   32  O8  UNL     1     -11.509  15.412   0.219  1.00  0.00    -0.390 OA
ATOM     33  H8  UNL     1     -11.196  16.139  -0.307  1.00  0.00     0.210 HD
ENDBRANCH  17  32
BRANCH  18  34
HETATM   34  O9  UNL     1     -12.323  18.128   0.197  1.00  0.00    -0.391 OA
ATOM     35  H9  UNL     1     -11.477  18.223  -0.225  1.00  0.00     0.210 HD
ENDBRANCH  18  34
ENDBRANCH  10  11
ENDBRANCH   9  10
ENDBRANCH   8   9
BRANCH   1  36
HETATM   36  N1  UNL     1     -14.498  21.729   3.680  1.00  0.00    -0.071 N 
ATOM     37  H13 UNL     1     -15.119  22.362   4.184  1.00  0.00     0.274 HD
ATOM     38  H12 UNL     1     -13.705  22.366   3.603  1.00  0.00     0.274 HD
ATOM     39  H11 UNL     1     -14.867  21.432   2.778  1.00  0.00     0.274 HD
ENDBRANCH   1  36
BRANCH   4  40
HETATM   40  O1  UNL     1     -13.136  19.804   8.065  1.00  0.00    -0.350 OA
BRANCH  40  41
HETATM   41  C5  UNL     1     -12.357  18.702   8.380  1.00  0.00     0.159 C 
HETATM   42  C6  UNL     1     -11.165  19.054   9.226  1.00  0.00     0.068 C 
HETATM   43  C7  UNL     1     -11.052  18.032  10.314  1.00  0.00     0.151 C 
HETATM   44  C8  UNL     1     -12.182  17.054  10.139  1.00  0.00     0.179 C 
HETATM   45  C9  UNL     1     -13.169  17.825   9.307  1.00  0.00     0.243 C 
BRANCH  43  46
HETATM   46  O2  UNL     1      -9.804  17.406  10.260  1.00  0.00    -0.393 OA
ATOM     47  H2  UNL     1      -9.535  17.135  11.130  1.00  0.00     0.210 HD
ENDBRANCH  43  46
BRANCH  44  48
HETATM   48  O3  UNL     1     -11.777  15.865   9.535  1.00  0.00    -0.391 OA
ATOM     49  H3  UNL     1     -11.078  15.993   8.905  1.00  0.00     0.210 HD
ENDBRANCH  44  48
BRANCH  45  50
HETATM   50  N3  UNL     1     -13.927  18.685  10.209  1.00  0.00    -0.070 N 
ATOM     51  H33 UNL     1     -14.558  19.314   9.713  1.00  0.00     0.274 HD
ATOM     52  H32 UNL     1     -14.631  18.172  10.740  1.00  0.00     0.274 HD
ATOM     53  H31 UNL     1     -13.269  19.182  10.809  1.00  0.00     0.274 HD
ENDBRANCH  45  50
ENDBRANCH  40  41
ENDBRANCH   4  40
BRANCH   3  54
HETATM   54  N2  UNL     1     -14.427  22.010   7.781  1.00  0.00    -0.071 N 
ATOM     55  H23 UNL     1     -14.003  22.860   8.153  1.00  0.00     0.274 HD
ATOM     56  H22 UNL     1     -15.349  22.398   7.580  1.00  0.00     0.274 HD
ATOM     57  H21 UNL     1     -14.455  21.250   8.460  1.00  0.00     0.274 HD
ENDBRANCH   3  54
TORSDOF 17
ENDMDL
MODEL 3
REMARK VINA RESULT: -5.753288732      1.233      1.291
REMARK  17 active torsions:
REMARK  status: ('A' for Active; 'I' for Inactive)
REMARK    1  A    between atoms: N1_1  and  C1_5 
REMARK    2  A    between atoms: C3_7  and  N2_8 
REMARK    3  A    between atoms: C4_12  and  O1_13 
REMARK    4  A    between atoms: O1_13  and  C5_14 
REMARK    5  A    between atoms: C7_16  and  O2_17 
REMARK    6  A    between atoms: C8_19  and  O3_20 
REMARK    7  A    between atoms: C9_22  and  N3_23 
REMARK    8  A    between atoms: C10_30  and  O4_31 
REMARK    9  A    between atoms: O4_31  and  C11_32 
REMARK   10  A    between atoms: C11_32  and  C12_33 
REMARK   11  A    between atoms: C13_37  and  O5_38 
REMARK   12  A    between atoms: O5_38  and  C14_39 
REMARK   13  A    between atoms: C16_42  and  C17_43 
REMARK   14  A    between atoms: C17_43  and  O6_44 
REMARK   15  A    between atoms: C18_49  and  O7_50 
REMARK   16  A    between atoms: C19_52  and  O8_53 
REMARK   17  A    between atoms: C20_55  and  O9_56 
ROOT
HETATM    1  C1  UNL     1     -15.688  20.342   7.806  1.00  0.00     0.241 C 
HETATM    2  C2  UNL     1     -14.905  20.815   9.014  1.00  0.00     0.074 C 
HETATM    3  C3  UNL     1     -13.813  21.732   8.507  1.00  0.00     0.241 C 
HETATM    4  C4  UNL     1     -12.725  20.815   7.934  1.00  0.00     0.355 C 
HETATM    5  N4  UNL     1     -13.391  19.779   7.191  1.00  0.00    -0.018 N 
ATOM      6  H41 UNL     1     -13.474  18.932   7.753  1.00  0.00     0.283 HD
ATOM      7  H42 UNL     1     -12.791  19.432   6.442  1.00  0.00     0.283 HD
HETATM    8  C10 UNL     1     -14.675  20.169   6.670  1.00  0.00     0.354 C 
ENDROOT
BRANCH   8   9
HETATM    9  O4  UNL     1     -15.117  19.277   5.725  1.00  0.00    -0.355 OA
BRANCH   9  10
HETATM   10  C11 UNL     1     -14.120  18.407   5.348  1.00  0.00     0.206 C 
BRANCH  10  11
HETATM   11  C12 UNL     1     -14.603  16.977   5.254  1.00  0.00     0.243 C 
HETATM   12  N5  UNL     1     -15.630  16.868   4.212  1.00  0.00    -0.037 N 
HETATM   13  C13 UNL     1     -15.884  15.440   3.982  1.00  0.00     0.355 C 
ATOM     14  H52 UNL     1     -16.477  17.390   4.435  1.00  0.00     0.281 HD
ATOM     15  H51 UNL     1     -15.383  17.369   3.358  1.00  0.00     0.281 HD
HETATM   16  C18 UNL     1     -16.389  14.865   5.265  1.00  0.00     0.205 C 
HETATM   17  C19 UNL     1     -15.389  14.973   6.386  1.00  0.00     0.182 C 
HETATM   18  C20 UNL     1     -15.109  16.470   6.573  1.00  0.00     0.182 C 
BRANCH  13  19
HETATM   19  O5  UNL     1     -14.721  14.884   3.515  1.00  0.00    -0.323 OA
BRANCH  19  20
HETATM   20  C14 UNL     1     -14.701  14.718   2.134  1.00  0.00     0.333 C 
HETATM   21  C15 UNL     1     -13.894  13.457   1.850  1.00  0.00     0.137 C 
HETATM   22  S1  UNL     1     -12.205  14.187   1.917  1.00  0.00    -0.130 SA
HETATM   23  C16 UNL     1     -12.731  15.949   1.914  1.00  0.00     0.273 C 
HETATM   24  N6  UNL     1     -14.091  15.804   1.437  1.00  0.00    -0.033 N 
ATOM     25  H62 UNL     1     -14.141  15.696   0.424  1.00  0.00     0.281 HD
ATOM     26  H61 UNL     1     -14.627  16.669   1.512  1.00  0.00     0.281 HD
BRANCH  23  27
HETATM   27  C17 UNL     1     -11.936  16.635   0.837  1.00  0.00     0.208 C 
BRANCH  27  28
HETATM   28  O6  UNL     1     -12.200  18.008   0.827  1.00  0.00    -0.398 OA
ATOM     29  H6  UNL     1     -11.391  18.505   0.785  1.00  0.00     0.209 HD
ENDBRANCH  27  28
ENDBRANCH  23  27
ENDBRANCH  19  20
ENDBRANCH  13  19
BRANCH  16  30
HETATM   30  O7  UNL     1     -16.902  13.579   5.119  1.00  0.00    -0.388 OA
ATOM     31  H7  UNL     1     -16.585  12.977   5.781  1.00  0.00     0.210 HD
ENDBRANCH  16  30
BRANCH  17  32
HETATM   32  O8  UNL     1     -16.002  14.539   7.559  1.00  0.00    -0.390 OA
ATOM     33  H8  UNL     1     -16.118  13.598   7.502  1.00  0.00     0.210 HD
ENDBRANCH  17  32
BRANCH  18  34
HETATM   34  O9  UNL     1     -14.164  16.698   7.542  1.00  0.00    -0.391 OA
ATOM     35  H9  UNL     1     -13.306  16.472   7.204  1.00  0.00     0.210 HD
ENDBRANCH  18  34
ENDBRANCH  10  11
ENDBRANCH   9  10
ENDBRANCH   8   9
BRANCH   1  36
HETATM   36  N1  UNL     1     -16.636  21.407   7.488  1.00  0.00    -0.071 N 
ATOM     37  H13 UNL     1     -16.923  21.950   8.302  1.00  0.00     0.274 HD
ATOM     38  H12 UNL     1     -16.220  22.176   6.963  1.00  0.00     0.274 HD
ATOM     39  H11 UNL     1     -17.415  20.962   7.003  1.00  0.00     0.274 HD
ENDBRANCH   1  36
BRANCH   4  40
HETATM   40  O1  UNL     1     -12.030  20.320   9.033  1.00  0.00    -0.350 OA
BRANCH  40  41
HETATM   41  C5  UNL     1     -11.792  18.957   8.956  1.00  0.00     0.159 C 
HETATM   42  C6  UNL     1     -10.417  18.578   9.432  1.00  0.00     0.068 C 
HETATM   43  C7  UNL     1     -10.544  17.365  10.298  1.00  0.00     0.151 C 
HETATM   44  C8  UNL     1     -12.003  17.001  10.360  1.00  0.00     0.179 C 
HETATM   45  C9  UNL     1     -12.686  18.284   9.973  1.00  0.00     0.243 C 
BRANCH  43  46
HETATM   46  O2  UNL     1      -9.766  16.323   9.788  1.00  0.00    -0.393 OA
ATOM     47  H2  UNL     1     -10.316  15.581   9.564  1.00  0.00     0.210 HD
ENDBRANCH  43  46
BRANCH  44  48
HETATM   48  O3  UNL     1     -12.330  15.938   9.520  1.00  0.00    -0.391 OA
ATOM     49  H3  UNL     1     -13.116  15.482   9.794  1.00  0.00     0.210 HD
ENDBRANCH  44  48
BRANCH  45  50
HETATM   50  N3  UNL     1     -12.748  19.125  11.162  1.00  0.00    -0.070 N 
ATOM     51  H33 UNL     1     -11.831  19.469  11.447  1.00  0.00     0.274 HD
ATOM     52  H32 UNL     1     -13.186  20.028  10.981  1.00  0.00     0.274 HD
ATOM     53  H31 UNL     1     -13.218  18.603  11.902  1.00  0.00     0.274 HD
ENDBRANCH  45  50
ENDBRANCH  40  41
ENDBRANCH   4  40
BRANCH   3  54
HETATM   54  N2  UNL     1     -13.302  22.470   9.645  1.00  0.00    -0.071 N 
ATOM     55  H23 UNL     1     -13.970  22.529  10.413  1.00  0.00     0.274 HD
ATOM     56  H22 UNL     1     -12.568  21.970  10.146  1.00  0.00     0.274 HD
ATOM     57  H21 UNL     1     -13.002  23.384   9.307  1.00  0.00     0.274 HD
ENDBRANCH   3  54
TORSDOF 17
ENDMDL
MODEL 4
REMARK VINA RESULT: -5.691083004      4.146      6.752
REMARK  17 active torsions:
REMARK  status: ('A' for Active; 'I' for Inactive)
REMARK    1  A    between atoms: N1_1  and  C1_5 
REMARK    2  A    between atoms: C3_7  and  N2_8 
REMARK    3  A    between atoms: C4_12  and  O1_13 
REMARK    4  A    between atoms: O1_13  and  C5_14 
REMARK    5  A    between atoms: C7_16  and  O2_17 
REMARK    6  A    between atoms: C8_19  and  O3_20 
REMARK    7  A    between atoms: C9_22  and  N3_23 
REMARK    8  A    between atoms: C10_30  and  O4_31 
REMARK    9  A    between atoms: O4_31  and  C11_32 
REMARK   10  A    between atoms: C11_32  and  C12_33 
REMARK   11  A    between atoms: C13_37  and  O5_38 
REMARK   12  A    between atoms: O5_38  and  C14_39 
REMARK   13  A    between atoms: C16_42  and  C17_43 
REMARK   14  A    between atoms: C17_43  and  O6_44 
REMARK   15  A    between atoms: C18_49  and  O7_50 
REMARK   16  A    between atoms: C19_52  and  O8_53 
REMARK   17  A    between atoms: C20_55  and  O9_56 
ROOT
HETATM    1  C1  UNL     1     -15.274  18.652   5.348  1.00  0.00     0.241 C 
HETATM    2  C2  UNL     1     -15.434  19.325   6.697  1.00  0.00     0.074 C 
HETATM    3  C3  UNL     1     -14.624  20.603   6.658  1.00  0.00     0.241 C 
HETATM    4  C4  UNL     1     -13.161  20.181   6.839  1.00  0.00     0.355 C 
HETATM    5  N4  UNL     1     -12.955  19.008   6.032  1.00  0.00    -0.018 N 
ATOM      6  H41 UNL     1     -13.020  18.164   6.603  1.00  0.00     0.283 HD
ATOM      7  H42 UNL     1     -11.981  18.941   5.736  1.00  0.00     0.283 HD
HETATM    8  C10 UNL     1     -13.835  18.919   4.897  1.00  0.00     0.354 C 
ENDROOT
BRANCH   8   9
HETATM    9  O4  UNL     1     -13.398  17.972   4.005  1.00  0.00    -0.355 OA
BRANCH   9  10
HETATM   10  C11 UNL     1     -13.148  18.520   2.768  1.00  0.00     0.206 C 
BRANCH  10  11
HETATM   11  C12 UNL     1     -12.887  20.009   2.835  1.00  0.00     0.243 C 
HETATM   12  N5  UNL     1     -13.655  20.695   1.791  1.00  0.00    -0.037 N 
HETATM   13  C13 UNL     1     -13.573  22.139   2.051  1.00  0.00     0.355 C 
ATOM     14  H52 UNL     1     -13.356  20.445   0.849  1.00  0.00     0.281 HD
ATOM     15  H51 UNL     1     -14.616  20.360   1.722  1.00  0.00     0.281 HD
HETATM   16  C18 UNL     1     -12.131  22.524   1.968  1.00  0.00     0.205 C 
HETATM   17  C19 UNL     1     -11.281  21.828   2.998  1.00  0.00     0.182 C 
HETATM   18  C20 UNL     1     -11.423  20.323   2.731  1.00  0.00     0.182 C 
BRANCH  13  19
HETATM   19  O5  UNL     1     -14.167  22.374   3.264  1.00  0.00    -0.323 OA
BRANCH  19  20
HETATM   20  C14 UNL     1     -15.489  22.791   3.161  1.00  0.00     0.333 C 
HETATM   21  C15 UNL     1     -15.479  24.115   2.407  1.00  0.00     0.137 C 
HETATM   22  S1  UNL     1     -15.100  25.236   3.818  1.00  0.00    -0.130 SA
HETATM   23  C16 UNL     1     -15.369  24.001   5.153  1.00  0.00     0.273 C 
HETATM   24  N6  UNL     1     -16.122  23.003   4.423  1.00  0.00    -0.033 N 
ATOM     25  H62 UNL     1     -17.108  23.247   4.331  1.00  0.00     0.281 HD
ATOM     26  H61 UNL     1     -16.241  22.138   4.951  1.00  0.00     0.281 HD
BRANCH  23  27
HETATM   27  C17 UNL     1     -16.295  24.639   6.152  1.00  0.00     0.208 C 
BRANCH  27  28
HETATM   28  O6  UNL     1     -15.924  24.301   7.456  1.00  0.00    -0.398 OA
ATOM     29  H6  UNL     1     -15.687  23.382   7.511  1.00  0.00     0.209 HD
ENDBRANCH  27  28
ENDBRANCH  23  27
ENDBRANCH  19  20
ENDBRANCH  13  19
BRANCH  16  30
HETATM   30  O7  UNL     1     -11.938  23.902   1.949  1.00  0.00    -0.388 OA
ATOM     31  H7  UNL     1     -11.953  24.266   1.072  1.00  0.00     0.210 HD
ENDBRANCH  16  30
BRANCH  17  32
HETATM   32  O8  UNL     1      -9.948  22.147   2.750  1.00  0.00    -0.390 OA
ATOM     33  H8  UNL     1      -9.690  21.728   1.937  1.00  0.00     0.210 HD
ENDBRANCH  17  32
BRANCH  18  34
HETATM   34  O9  UNL     1     -10.728  19.573   3.646  1.00  0.00    -0.391 OA
ATOM     35  H9  UNL     1      -9.814  19.533   3.392  1.00  0.00     0.210 HD
ENDBRANCH  18  34
ENDBRANCH  10  11
ENDBRANCH   9  10
ENDBRANCH   8   9
BRANCH   1  36
HETATM   36  N1  UNL     1     -16.222  19.305   4.449  1.00  0.00    -0.071 N 
ATOM     37  H13 UNL     1     -16.858  18.654   3.989  1.00  0.00     0.274 HD
ATOM     38  H12 UNL     1     -16.932  19.852   4.936  1.00  0.00     0.274 HD
ATOM     39  H11 UNL     1     -15.665  19.856   3.796  1.00  0.00     0.274 HD
ENDBRANCH   1  36
BRANCH   4  40
HETATM   40  O1  UNL     1     -13.006  19.927   8.198  1.00  0.00    -0.350 OA
BRANCH  40  41
HETATM   41  C5  UNL     1     -12.268  18.782   8.456  1.00  0.00     0.159 C 
HETATM   42  C6  UNL     1     -11.058  19.049   9.307  1.00  0.00     0.068 C 
HETATM   43  C7  UNL     1     -10.977  17.976  10.347  1.00  0.00     0.151 C 
HETATM   44  C8  UNL     1     -12.145  17.050  10.138  1.00  0.00     0.179 C 
HETATM   45  C9  UNL     1     -13.107  17.896   9.349  1.00  0.00     0.243 C 
BRANCH  43  46
HETATM   46  O2  UNL     1      -9.755  17.305  10.255  1.00  0.00    -0.393 OA
ATOM     47  H2  UNL     1      -9.091  17.761  10.760  1.00  0.00     0.210 HD
ENDBRANCH  43  46
BRANCH  44  48
HETATM   48  O3  UNL     1     -11.790  15.876   9.477  1.00  0.00    -0.391 OA
ATOM     49  H3  UNL     1     -11.112  15.390   9.930  1.00  0.00     0.210 HD
ENDBRANCH  44  48
BRANCH  45  50
HETATM   50  N3  UNL     1     -13.825  18.742  10.295  1.00  0.00    -0.070 N 
ATOM     51  H33 UNL     1     -13.612  19.732  10.176  1.00  0.00     0.274 HD
ATOM     52  H32 UNL     1     -14.824  18.790  10.097  1.00  0.00     0.274 HD
ATOM     53  H31 UNL     1     -13.628  18.410  11.240  1.00  0.00     0.274 HD
ENDBRANCH  45  50
ENDBRANCH  40  41
ENDBRANCH   4  40
BRANCH   3  54
HETATM   54  N2  UNL     1     -15.053  21.423   7.772  1.00  0.00    -0.071 N 
ATOM     55  H23 UNL     1     -15.997  21.201   8.090  1.00  0.00     0.274 HD
ATOM     56  H22 UNL     1     -14.565  21.203   8.640  1.00  0.00     0.274 HD
ATOM     57  H21 UNL     1     -14.947  22.399   7.493  1.00  0.00     0.274 HD
ENDBRANCH   3  54
TORSDOF 17
ENDMDL
MODEL 5
REMARK VINA RESULT: -5.599765459      2.582      4.507
REMARK  17 active torsions:
REMARK  status: ('A' for Active; 'I' for Inactive)
REMARK    1  A    between atoms: N1_1  and  C1_5 
REMARK    2  A    between atoms: C3_7  and  N2_8 
REMARK    3  A    between atoms: C4_12  and  O1_13 
REMARK    4  A    between atoms: O1_13  and  C5_14 
REMARK    5  A    between atoms: C7_16  and  O2_17 
REMARK    6  A    between atoms: C8_19  and  O3_20 
REMARK    7  A    between atoms: C9_22  and  N3_23 
REMARK    8  A    between atoms: C10_30  and  O4_31 
REMARK    9  A    between atoms: O4_31  and  C11_32 
REMARK   10  A    between atoms: C11_32  and  C12_33 
REMARK   11  A    between atoms: C13_37  and  O5_38 
REMARK   12  A    between atoms: O5_38  and  C14_39 
REMARK   13  A    between atoms: C16_42  and  C17_43 
REMARK   14  A    between atoms: C17_43  and  O6_44 
REMARK   15  A    between atoms: C18_49  and  O7_50 
REMARK   16  A    between atoms: C19_52  and  O8_53 
REMARK   17  A    between atoms: C20_55  and  O9_56 
ROOT
HETATM    1  C1  UNL     1     -15.131  20.489   7.343  1.00  0.00     0.241 C 
HETATM    2  C2  UNL     1     -14.565  20.804   8.713  1.00  0.00     0.074 C 
HETATM    3  C3  UNL     1     -13.391  21.736   8.508  1.00  0.00     0.241 C 
HETATM    4  C4  UNL     1     -12.230  20.855   8.030  1.00  0.00     0.355 C 
HETATM    5  N4  UNL     1     -12.769  19.927   7.072  1.00  0.00    -0.018 N 
ATOM      6  H41 UNL     1     -12.958  19.026   7.512  1.00  0.00     0.283 HD
ATOM      7  H42 UNL     1     -12.052  19.645   6.403  1.00  0.00     0.283 HD
HETATM    8  C10 UNL     1     -13.938  20.410   6.386  1.00  0.00     0.354 C 
ENDROOT
BRANCH   8   9
HETATM    9  O4  UNL     1     -14.219  19.640   5.285  1.00  0.00    -0.355 OA
BRANCH   9  10
HETATM   10  C11 UNL     1     -13.683  18.378   5.401  1.00  0.00     0.206 C 
BRANCH  10  11
HETATM   11  C12 UNL     1     -14.736  17.319   5.635  1.00  0.00     0.243 C 
HETATM   12  N5  UNL     1     -14.741  16.925   7.048  1.00  0.00    -0.037 N 
HETATM   13  C13 UNL     1     -15.930  16.095   7.278  1.00  0.00     0.355 C 
ATOM     14  H52 UNL     1     -13.876  16.467   7.334  1.00  0.00     0.281 HD
ATOM     15  H51 UNL     1     -14.686  17.723   7.682  1.00  0.00     0.281 HD
HETATM   16  C18 UNL     1     -15.805  14.887   6.407  1.00  0.00     0.205 C 
HETATM   17  C19 UNL     1     -15.765  15.228   4.940  1.00  0.00     0.182 C 
HETATM   18  C20 UNL     1     -14.541  16.131   4.739  1.00  0.00     0.182 C 
BRANCH  13  19
HETATM   19  O5  UNL     1     -17.031  16.875   7.033  1.00  0.00    -0.323 OA
BRANCH  19  20
HETATM   20  C14 UNL     1     -18.078  16.649   7.920  1.00  0.00     0.333 C 
HETATM   21  C15 UNL     1     -19.306  17.342   7.343  1.00  0.00     0.137 C 
HETATM   22  S1  UNL     1     -18.979  19.046   7.961  1.00  0.00    -0.130 SA
HETATM   23  C16 UNL     1     -17.620  18.599   9.116  1.00  0.00     0.273 C 
HETATM   24  N6  UNL     1     -17.843  17.173   9.227  1.00  0.00    -0.033 N 
ATOM     25  H62 UNL     1     -18.592  16.944   9.881  1.00  0.00     0.281 HD
ATOM     26  H61 UNL     1     -17.084  16.694   9.711  1.00  0.00     0.281 HD
BRANCH  23  27
HETATM   27  C17 UNL     1     -17.958  19.224  10.442  1.00  0.00     0.208 C 
BRANCH  27  28
HETATM   28  O6  UNL     1     -16.967  18.942  11.388  1.00  0.00    -0.398 OA
ATOM     29  H6  UNL     1     -16.956  18.015  11.596  1.00  0.00     0.209 HD
ENDBRANCH  27  28
ENDBRANCH  23  27
ENDBRANCH  19  20
ENDBRANCH  13  19
BRANCH  16  30
HETATM   30  O7  UNL     1     -16.740  13.902   6.709  1.00  0.00    -0.388 OA
ATOM     31  H7  UNL     1     -16.376  13.191   7.222  1.00  0.00     0.210 HD
ENDBRANCH  16  30
BRANCH  17  32
HETATM   32  O8  UNL     1     -15.511  14.057   4.229  1.00  0.00    -0.390 OA
ATOM     33  H8  UNL     1     -16.071  14.049   3.461  1.00  0.00     0.210 HD
ENDBRANCH  17  32
BRANCH  18  34
HETATM   34  O9  UNL     1     -14.425  16.554   3.438  1.00  0.00    -0.391 OA
ATOM     35  H9  UNL     1     -14.054  15.856   2.911  1.00  0.00     0.210 HD
ENDBRANCH  18  34
ENDBRANCH  10  11
ENDBRANCH   9  10
ENDBRANCH   8   9
BRANCH   1  36
HETATM   36  N1  UNL     1     -15.998  21.611   6.990  1.00  0.00    -0.071 N 
ATOM     37  H13 UNL     1     -16.868  21.324   6.542  1.00  0.00     0.274 HD
ATOM     38  H12 UNL     1     -16.417  22.069   7.798  1.00  0.00     0.274 HD
ATOM     39  H11 UNL     1     -15.434  22.238   6.416  1.00  0.00     0.274 HD
ENDBRANCH   1  36
BRANCH   4  40
HETATM   40  O1  UNL     1     -11.743  20.221   9.169  1.00  0.00    -0.350 OA
BRANCH  40  41
HETATM   41  C5  UNL     1     -11.599  18.852   9.010  1.00  0.00     0.159 C 
HETATM   42  C6  UNL     1     -10.351  18.318   9.656  1.00  0.00     0.068 C 
HETATM   43  C7  UNL     1     -10.708  17.060  10.383  1.00  0.00     0.151 C 
HETATM   44  C8  UNL     1     -12.181  16.823  10.189  1.00  0.00     0.179 C 
HETATM   45  C9  UNL     1     -12.694  18.187   9.815  1.00  0.00     0.243 C 
BRANCH  43  46
HETATM   46  O2  UNL     1      -9.940  15.993   9.908  1.00  0.00    -0.393 OA
ATOM     47  H2  UNL     1      -9.583  15.497  10.635  1.00  0.00     0.210 HD
ENDBRANCH  43  46
BRANCH  44  48
HETATM   48  O3  UNL     1     -12.450  15.860   9.218  1.00  0.00    -0.391 OA
ATOM     49  H3  UNL     1     -13.114  15.238   9.492  1.00  0.00     0.210 HD
ENDBRANCH  44  48
BRANCH  45  50
HETATM   50  N3  UNL     1     -12.881  18.940  11.050  1.00  0.00    -0.070 N 
ATOM     51  H33 UNL     1     -11.998  19.242  11.462  1.00  0.00     0.274 HD
ATOM     52  H32 UNL     1     -13.283  19.863  10.889  1.00  0.00     0.274 HD
ATOM     53  H31 UNL     1     -13.439  18.375  11.690  1.00  0.00     0.274 HD
ENDBRANCH  45  50
ENDBRANCH  40  41
ENDBRANCH   4  40
BRANCH   3  54
HETATM   54  N2  UNL     1     -13.077  22.329   9.792  1.00  0.00    -0.071 N 
ATOM     55  H23 UNL     1     -13.855  22.859  10.187  1.00  0.00     0.274 HD
ATOM     56  H22 UNL     1     -12.994  21.640  10.539  1.00  0.00     0.274 HD
ATOM     57  H21 UNL     1     -12.234  22.890   9.672  1.00  0.00     0.274 HD
ENDBRANCH   3  54
TORSDOF 17
ENDMDL
