MODEL 1
REMARK VINA RESULT: -8.123703935      0.000      0.000
REMARK  15 active torsions:
REMARK  status: ('A' for Active; 'I' for Inactive)
REMARK    1  A    between atoms: N1_1  and  C1_4 
REMARK    2  A    between atoms: N6_16  and  C5_17 
REMARK    3  A    between atoms: C5_17  and  C6_18 
REMARK    4  A    between atoms: C6_18  and  N7_19 
REMARK    5  A    between atoms: N7_19  and  C7_21 
REMARK    6  A    between atoms: C8_22  and  C9_23 
REMARK    7  A    between atoms: C9_23  and  O1_24 
REMARK    8  A    between atoms: C9_23  and  O2_26 
REMARK    9  A    between atoms: C10_31  and  C11_32 
REMARK       I    between atoms: C11_32  and  N9_34 
REMARK   10  A    between atoms: N9_34  and  C12_36 
REMARK   11  A    between atoms: C14_38  and  N10_39 
REMARK   12  A    between atoms: C16_44  and  O5_45 
REMARK   13  A    between atoms: C16_44  and  C17_47 
REMARK   14  A    between atoms: C17_47  and  O6_48 
REMARK   15  A    between atoms: C18_50  and  N11_51 
ROOT
HETATM    1  C7  UNL     1      63.188  22.333  93.494  1.00  0.00     0.100 A 
HETATM    2  C8  UNL     1      62.897  23.607  93.997  1.00  0.00     0.116 A 
HETATM    3  N8  UNL     1      62.037  23.380  95.005  1.00  0.00    -0.257 N 
ATOM      4  H8  UNL     1      61.622  24.104  95.591  1.00  0.00     0.195 HD
HETATM    5  O3  UNL     1      61.810  22.103  95.127  1.00  0.00    -0.230 OA
HETATM    6  C10 UNL     1      62.486  21.413  94.230  1.00  0.00     0.194 A 
ENDROOT
BRANCH   6   7
HETATM    7  C11 UNL     1      62.486  19.959  94.052  1.00  0.00     0.280 C 
HETATM    8  O4  UNL     1      63.449  19.344  93.539  1.00  0.00    -0.265 OA
HETATM    9  N9  UNL     1      61.370  19.206  94.467  1.00  0.00    -0.348 N 
ATOM     10  H9  UNL     1      60.579  19.689  94.893  1.00  0.00     0.163 HD
BRANCH   9  11
HETATM   11  C12 UNL     1      61.313  17.756  94.305  1.00  0.00     0.120 C 
HETATM   12  C13 UNL     1      61.481  17.101  95.626  1.00  0.00     0.060 C 
HETATM   13  C14 UNL     1      60.803  15.773  95.626  1.00  0.00     0.188 C 
HETATM   14  C15 UNL     1      59.320  15.861  95.390  1.00  0.00     0.075 C 
HETATM   15  C16 UNL     1      58.946  16.860  94.341  1.00  0.00     0.111 C 
HETATM   16  C18 UNL     1      60.075  17.391  93.546  1.00  0.00     0.242 C 
BRANCH  13  17
HETATM   17  N10 UNL     1      61.401  14.942  94.588  1.00  0.00    -0.075 N 
ATOM     18 3H10 UNL     1      61.664  15.479  93.761  1.00  0.00     0.274 HD
ATOM     19 2H10 UNL     1      62.332  14.610  94.842  1.00  0.00     0.274 HD
ATOM     20 1H10 UNL     1      60.760  14.178  94.370  1.00  0.00     0.274 HD
ENDBRANCH  13  17
BRANCH  15  21
HETATM   21  O5  UNL     1      58.061  16.213  93.460  1.00  0.00    -0.385 OA
ATOM     22  H5  UNL     1      57.195  16.276  93.845  1.00  0.00     0.210 HD
ENDBRANCH  15  21
BRANCH  15  23
HETATM   23  C17 UNL     1      58.131  17.990  94.965  1.00  0.00     0.204 C 
BRANCH  23  24
HETATM   24  O6  UNL     1      57.722  17.498  96.225  1.00  0.00    -0.398 OA
ATOM     25  H6  UNL     1      57.499  18.270  96.732  1.00  0.00     0.209 HD
ENDBRANCH  23  24
ENDBRANCH  15  23
BRANCH  16  26
HETATM   26  N11 UNL     1      59.614  18.520  92.765  1.00  0.00    -0.070 N 
ATOM     27 3H11 UNL     1      60.069  19.388  93.045  1.00  0.00     0.274 HD
ATOM     28 2H11 UNL     1      59.948  18.479  91.802  1.00  0.00     0.274 HD
ATOM     29 1H11 UNL     1      58.597  18.590  92.812  1.00  0.00     0.274 HD
ENDBRANCH  16  26
ENDBRANCH   9  11
ENDBRANCH   6   7
BRANCH   1  30
HETATM   30  N7  UNL     1      64.065  22.111  92.401  1.00  0.00    -0.384 N 
ATOM     31  H7  UNL     1      65.018  21.789  92.566  1.00  0.00     0.159 HD
BRANCH  30  32
HETATM   32  C6  UNL     1      63.608  22.341  91.082  1.00  0.00     0.142 C 
BRANCH  32  33
HETATM   33  C5  UNL     1      64.498  21.994  89.952  1.00  0.00     0.172 C 
BRANCH  33  34
HETATM   34  N6  UNL     1      64.041  20.943  89.090  1.00  0.00    -0.258 N 
HETATM   35  C3  UNL     1      63.701  19.677  89.408  1.00  0.00     0.157 A 
HETATM   36  N3  UNL     1      63.674  18.965  90.535  1.00  0.00    -0.335 N 
HETATM   37  C4  UNL     1      63.310  18.999  88.250  1.00  0.00     0.139 A 
HETATM   38  C2  UNL     1      63.299  17.682  90.572  1.00  0.00     0.183 A 
ATOM     39  H3  UNL     1      63.952  19.418  91.405  1.00  0.00     0.168 HD
HETATM   40  N2  UNL     1      62.913  17.004  89.453  1.00  0.00    -0.337 N 
HETATM   41  C1  UNL     1      62.921  17.670  88.287  1.00  0.00     0.132 A 
ATOM     42  H2  UNL     1      62.629  16.026  89.499  1.00  0.00     0.168 HD
HETATM   43  N4  UNL     1      63.433  19.909  87.265  1.00  0.00    -0.279 N 
HETATM   44  N5  UNL     1      63.863  21.044  87.778  1.00  0.00    -0.238 N 
ATOM     45  H4  UNL     1      63.227  19.746  86.280  1.00  0.00     0.189 HD
ATOM     46  H5  UNL     1      64.036  21.891  87.238  1.00  0.00     0.208 HD
BRANCH  41  47
HETATM   47  N1  UNL     1      62.563  17.052  87.215  1.00  0.00    -0.383 N 
ATOM     48  H12 UNL     1      62.169  16.112  87.256  1.00  0.00     0.157 HD
ATOM     49  H11 UNL     1      62.678  17.519  86.315  1.00  0.00     0.157 HD
ENDBRANCH  41  47
ENDBRANCH  33  34
ENDBRANCH  32  33
ENDBRANCH  30  32
ENDBRANCH   1  30
BRANCH   2  50
HETATM   50  C9  UNL     1      63.454  24.891  93.489  1.00  0.00     0.309 C 
BRANCH  50  51
HETATM   51  O1  UNL     1      64.866  24.832  93.510  1.00  0.00    -0.366 OA
ATOM     52  H1  UNL     1      65.221  25.668  93.232  1.00  0.00     0.213 HD
ENDBRANCH  50  51
BRANCH  50  53
HETATM   53  O2  UNL     1      63.099  25.936  94.348  1.00  0.00    -0.366 OA
ATOM     54  H2  UNL     1      62.199  26.196  94.185  1.00  0.00     0.213 HD
ENDBRANCH  50  53
ENDBRANCH   2  50
TORSDOF 15
ENDMDL
MODEL 2
REMARK VINA RESULT: -8.074535409      1.937      2.322
REMARK  15 active torsions:
REMARK  status: ('A' for Active; 'I' for Inactive)
REMARK    1  A    between atoms: N1_1  and  C1_4 
REMARK    2  A    between atoms: N6_16  and  C5_17 
REMARK    3  A    between atoms: C5_17  and  C6_18 
REMARK    4  A    between atoms: C6_18  and  N7_19 
REMARK    5  A    between atoms: N7_19  and  C7_21 
REMARK    6  A    between atoms: C8_22  and  C9_23 
REMARK    7  A    between atoms: C9_23  and  O1_24 
REMARK    8  A    between atoms: C9_23  and  O2_26 
REMARK    9  A    between atoms: C10_31  and  C11_32 
REMARK       I    between atoms: C11_32  and  N9_34 
REMARK   10  A    between atoms: N9_34  and  C12_36 
REMARK   11  A    between atoms: C14_38  and  N10_39 
REMARK   12  A    between atoms: C16_44  and  O5_45 
REMARK   13  A    between atoms: C16_44  and  C17_47 
REMARK   14  A    between atoms: C17_47  and  O6_48 
REMARK   15  A    between atoms: C18_50  and  N11_51 
ROOT
HETATM    1  C7  UNL     1      64.301  20.659  93.756  1.00  0.00     0.100 A 
HETATM    2  C8  UNL     1      65.442  21.187  94.370  1.00  0.00     0.116 A 
HETATM    3  N8  UNL     1      66.107  20.109  94.822  1.00  0.00    -0.257 N 
ATOM      4  H8  UNL     1      66.993  20.140  95.326  1.00  0.00     0.195 HD
HETATM    5  O3  UNL     1      65.458  19.020  94.525  1.00  0.00    -0.230 OA
HETATM    6  C10 UNL     1      64.345  19.294  93.872  1.00  0.00     0.194 A 
ENDROOT
BRANCH   6   7
HETATM    7  C11 UNL     1      63.355  18.335  93.375  1.00  0.00     0.280 C 
HETATM    8  O4  UNL     1      63.458  17.783  92.255  1.00  0.00    -0.265 OA
HETATM    9  N9  UNL     1      62.239  18.009  94.170  1.00  0.00    -0.348 N 
ATOM     10  H9  UNL     1      62.142  18.444  95.088  1.00  0.00     0.163 HD
BRANCH   9  11
HETATM   11  C12 UNL     1      61.218  17.068  93.720  1.00  0.00     0.120 C 
HETATM   12  C13 UNL     1      60.882  16.133  94.822  1.00  0.00     0.060 C 
HETATM   13  C14 UNL     1      59.485  15.639  94.664  1.00  0.00     0.188 C 
HETATM   14  C15 UNL     1      58.456  16.733  94.719  1.00  0.00     0.075 C 
HETATM   15  C16 UNL     1      58.869  17.971  93.987  1.00  0.00     0.111 C 
HETATM   16  C18 UNL     1      60.068  17.827  93.134  1.00  0.00     0.242 C 
BRANCH  13  17
HETATM   17  N10 UNL     1      59.376  14.947  93.384  1.00  0.00    -0.075 N 
ATOM     18 3H10 UNL     1      58.425  14.632  93.191  1.00  0.00     0.274 HD
ATOM     19 2H10 UNL     1      59.479  15.578  92.590  1.00  0.00     0.274 HD
ATOM     20 1H10 UNL     1      60.052  14.183  93.367  1.00  0.00     0.274 HD
ENDBRANCH  13  17
BRANCH  15  21
HETATM   21  O5  UNL     1      57.790  18.336  93.161  1.00  0.00    -0.385 OA
ATOM     22  H5  UNL     1      57.923  17.901  92.327  1.00  0.00     0.210 HD
ENDBRANCH  15  21
BRANCH  15  23
HETATM   23  C17 UNL     1      59.025  19.129  94.969  1.00  0.00     0.204 C 
BRANCH  23  24
HETATM   24  O6  UNL     1      58.157  20.137  94.494  1.00  0.00    -0.398 OA
ATOM     25  H6  UNL     1      58.226  20.843  95.125  1.00  0.00     0.209 HD
ENDBRANCH  23  24
ENDBRANCH  15  23
BRANCH  16  26
HETATM   26  N11 UNL     1      60.502  19.140  92.702  1.00  0.00    -0.070 N 
ATOM     27 3H11 UNL     1      61.510  19.179  92.553  1.00  0.00     0.274 HD
ATOM     28 2H11 UNL     1      60.201  19.346  91.749  1.00  0.00     0.274 HD
ATOM     29 1H11 UNL     1      60.187  19.851  93.362  1.00  0.00     0.274 HD
ENDBRANCH  16  26
ENDBRANCH   9  11
ENDBRANCH   6   7
BRANCH   1  30
HETATM   30  N7  UNL     1      63.307  21.465  93.142  1.00  0.00    -0.384 N 
ATOM     31  H7  UNL     1      62.494  21.773  93.675  1.00  0.00     0.159 HD
BRANCH  30  32
HETATM   32  C6  UNL     1      63.451  21.837  91.784  1.00  0.00     0.142 C 
BRANCH  32  33
HETATM   33  C5  UNL     1      64.460  21.136  90.960  1.00  0.00     0.172 C 
BRANCH  33  34
HETATM   34  N6  UNL     1      64.093  20.880  89.598  1.00  0.00    -0.258 N 
HETATM   35  C3  UNL     1      63.596  19.749  89.055  1.00  0.00     0.157 A 
HETATM   36  N3  UNL     1      63.295  18.536  89.519  1.00  0.00    -0.335 N 
HETATM   37  C4  UNL     1      63.380  19.949  87.688  1.00  0.00     0.139 A 
HETATM   38  C2  UNL     1      62.816  17.561  88.739  1.00  0.00     0.183 A 
ATOM     39  H3  UNL     1      63.437  18.344  90.510  1.00  0.00     0.168 HD
HETATM   40  N2  UNL     1      62.598  17.738  87.405  1.00  0.00    -0.337 N 
HETATM   41  C1  UNL     1      62.883  18.941  86.880  1.00  0.00     0.132 A 
ATOM     42  H2  UNL     1      62.231  16.983  86.825  1.00  0.00     0.168 HD
HETATM   43  N4  UNL     1      63.763  21.221  87.466  1.00  0.00    -0.279 N 
HETATM   44  N5  UNL     1      64.178  21.750  88.599  1.00  0.00    -0.238 N 
ATOM     45  H4  UNL     1      63.737  21.697  86.565  1.00  0.00     0.189 HD
ATOM     46  H5  UNL     1      64.521  22.706  88.696  1.00  0.00     0.208 HD
BRANCH  41  47
HETATM   47  N1  UNL     1      62.689  19.132  85.621  1.00  0.00    -0.383 N 
ATOM     48  H12 UNL     1      62.510  18.350  84.991  1.00  0.00     0.157 HD
ATOM     49  H11 UNL     1      62.714  20.085  85.258  1.00  0.00     0.157 HD
ENDBRANCH  41  47
ENDBRANCH  33  34
ENDBRANCH  32  33
ENDBRANCH  30  32
ENDBRANCH   1  30
BRANCH   2  50
HETATM   50  C9  UNL     1      65.790  22.632  94.465  1.00  0.00     0.309 C 
BRANCH  50  51
HETATM   51  O1  UNL     1      66.193  23.103  93.195  1.00  0.00    -0.366 OA
ATOM     52  H1  UNL     1      66.779  23.842  93.304  1.00  0.00     0.213 HD
ENDBRANCH  50  51
BRANCH  50  53
HETATM   53  O2  UNL     1      66.895  22.800  95.307  1.00  0.00    -0.366 OA
ATOM     54  H2  UNL     1      67.661  22.396  94.918  1.00  0.00     0.213 HD
ENDBRANCH  50  53
ENDBRANCH   2  50
TORSDOF 15
ENDMDL
MODEL 3
REMARK VINA RESULT: -8.025773877      3.287      7.407
REMARK  15 active torsions:
REMARK  status: ('A' for Active; 'I' for Inactive)
REMARK    1  A    between atoms: N1_1  and  C1_4 
REMARK    2  A    between atoms: N6_16  and  C5_17 
REMARK    3  A    between atoms: C5_17  and  C6_18 
REMARK    4  A    between atoms: C6_18  and  N7_19 
REMARK    5  A    between atoms: N7_19  and  C7_21 
REMARK    6  A    between atoms: C8_22  and  C9_23 
REMARK    7  A    between atoms: C9_23  and  O1_24 
REMARK    8  A    between atoms: C9_23  and  O2_26 
REMARK    9  A    between atoms: C10_31  and  C11_32 
REMARK       I    between atoms: C11_32  and  N9_34 
REMARK   10  A    between atoms: N9_34  and  C12_36 
REMARK   11  A    between atoms: C14_38  and  N10_39 
REMARK   12  A    between atoms: C16_44  and  O5_45 
REMARK   13  A    between atoms: C16_44  and  C17_47 
REMARK   14  A    between atoms: C17_47  and  O6_48 
REMARK   15  A    between atoms: C18_50  and  N11_51 
ROOT
HETATM    1  C7  UNL     1      62.575  18.079  98.197  1.00  0.00     0.100 A 
HETATM    2  C8  UNL     1      63.235  17.025  98.838  1.00  0.00     0.116 A 
HETATM    3  N8  UNL     1      64.073  16.539  97.906  1.00  0.00    -0.257 N 
ATOM      4  H8  UNL     1      64.710  15.755  98.047  1.00  0.00     0.195 HD
HETATM    5  O3  UNL     1      63.957  17.213  96.797  1.00  0.00    -0.230 OA
HETATM    6  C10 UNL     1      63.055  18.168  96.916  1.00  0.00     0.194 A 
ENDROOT
BRANCH   6   7
HETATM    7  C11 UNL     1      62.647  19.128  95.886  1.00  0.00     0.280 C 
HETATM    8  O4  UNL     1      62.062  20.200  96.161  1.00  0.00    -0.265 OA
HETATM    9  N9  UNL     1      62.911  18.850  94.531  1.00  0.00    -0.348 N 
ATOM     10  H9  UNL     1      63.392  17.984  94.288  1.00  0.00     0.163 HD
BRANCH   9  11
HETATM   11  C12 UNL     1      62.517  19.766  93.464  1.00  0.00     0.120 C 
HETATM   12  C13 UNL     1      63.655  20.657  93.127  1.00  0.00     0.060 C 
HETATM   13  C14 UNL     1      63.551  21.104  91.709  1.00  0.00     0.188 C 
HETATM   14  C15 UNL     1      63.604  19.971  90.722  1.00  0.00     0.075 C 
HETATM   15  C16 UNL     1      62.825  18.770  91.157  1.00  0.00     0.111 C 
HETATM   16  C18 UNL     1      61.942  18.982  92.325  1.00  0.00     0.242 C 
BRANCH  13  17
HETATM   17  N10 UNL     1      62.295  21.827  91.538  1.00  0.00    -0.075 N 
ATOM     18 3H10 UNL     1      61.521  21.389  92.037  1.00  0.00     0.274 HD
ATOM     19 2H10 UNL     1      62.290  22.721  92.028  1.00  0.00     0.274 HD
ATOM     20 1H10 UNL     1      62.109  21.927  90.539  1.00  0.00     0.274 HD
ENDBRANCH  13  17
BRANCH  15  21
HETATM   21  O5  UNL     1      62.020  18.390  90.068  1.00  0.00    -0.385 OA
ATOM     22  H5  UNL     1      62.588  18.346  89.308  1.00  0.00     0.210 HD
ENDBRANCH  15  21
BRANCH  15  23
HETATM   23  C17 UNL     1      63.768  17.592  91.384  1.00  0.00     0.204 C 
BRANCH  23  24
HETATM   24  O6  UNL     1      63.263  16.552  90.572  1.00  0.00    -0.398 OA
ATOM     25  H6  UNL     1      63.597  16.732  89.701  1.00  0.00     0.209 HD
ENDBRANCH  23  24
ENDBRANCH  15  23
BRANCH  16  26
HETATM   26  N11 UNL     1      61.461  17.698  92.792  1.00  0.00    -0.070 N 
ATOM     27 3H11 UNL     1      61.777  17.494  93.740  1.00  0.00     0.274 HD
ATOM     28 2H11 UNL     1      60.456  17.709  92.968  1.00  0.00     0.274 HD
ATOM     29 1H11 UNL     1      61.724  16.962  92.137  1.00  0.00     0.274 HD
ENDBRANCH  16  26
ENDBRANCH   9  11
ENDBRANCH   6   7
BRANCH   1  30
HETATM   30  N7  UNL     1      61.583  18.874  98.829  1.00  0.00    -0.384 N 
ATOM     31  H7  UNL     1      61.817  19.801  99.182  1.00  0.00     0.159 HD
BRANCH  30  32
HETATM   32  C6  UNL     1      60.268  18.370  98.964  1.00  0.00     0.142 C 
BRANCH  32  33
HETATM   33  C5  UNL     1      59.134  19.228  98.558  1.00  0.00     0.172 C 
BRANCH  33  34
HETATM   34  N6  UNL     1      59.012  19.487  97.152  1.00  0.00    -0.258 N 
HETATM   35  C3  UNL     1      58.662  18.638  96.164  1.00  0.00     0.157 A 
HETATM   36  N3  UNL     1      58.340  17.346  96.104  1.00  0.00    -0.335 N 
HETATM   37  C4  UNL     1      58.670  19.321  94.944  1.00  0.00     0.139 A 
HETATM   38  C2  UNL     1      58.040  16.727  94.957  1.00  0.00     0.183 A 
ATOM     39  H3  UNL     1      58.321  16.807  96.969  1.00  0.00     0.168 HD
HETATM   40  N2  UNL     1      58.042  17.376  93.758  1.00  0.00    -0.337 N 
HETATM   41  C1  UNL     1      58.360  18.681  93.756  1.00  0.00     0.132 A 
ATOM     42  H2  UNL     1      57.811  16.889  92.893  1.00  0.00     0.168 HD
HETATM   43  N4  UNL     1      59.031  20.579  95.261  1.00  0.00    -0.279 N 
HETATM   44  N5  UNL     1      59.227  20.656  96.562  1.00  0.00    -0.238 N 
ATOM     45  H4  UNL     1      59.137  21.348  94.600  1.00  0.00     0.189 HD
ATOM     46  H5  UNL     1      59.507  21.505  97.052  1.00  0.00     0.208 HD
BRANCH  41  47
HETATM   47  N1  UNL     1      58.372  19.317  92.636  1.00  0.00    -0.383 N 
ATOM     48  H12 UNL     1      57.821  18.992  91.840  1.00  0.00     0.157 HD
ATOM     49  H11 UNL     1      58.942  20.159  92.552  1.00  0.00     0.157 HD
ENDBRANCH  41  47
ENDBRANCH  33  34
ENDBRANCH  32  33
ENDBRANCH  30  32
ENDBRANCH   1  30
BRANCH   2  50
HETATM   50  C9  UNL     1      63.017  16.589 100.245  1.00  0.00     0.309 C 
BRANCH  50  51
HETATM   51  O1  UNL     1      64.107  17.009 101.042  1.00  0.00    -0.366 OA
ATOM     52  H1  UNL     1      63.986  16.697 101.931  1.00  0.00     0.213 HD
ENDBRANCH  50  51
BRANCH  50  53
HETATM   53  O2  UNL     1      63.005  15.192 100.313  1.00  0.00    -0.366 OA
ATOM     54  H2  UNL     1      62.667  14.913 101.156  1.00  0.00     0.213 HD
ENDBRANCH  50  53
ENDBRANCH   2  50
TORSDOF 15
ENDMDL
MODEL 4
REMARK VINA RESULT: -7.958540085      2.920      5.539
REMARK  15 active torsions:
REMARK  status: ('A' for Active; 'I' for Inactive)
REMARK    1  A    between atoms: N1_1  and  C1_4 
REMARK    2  A    between atoms: N6_16  and  C5_17 
REMARK    3  A    between atoms: C5_17  and  C6_18 
REMARK    4  A    between atoms: C6_18  and  N7_19 
REMARK    5  A    between atoms: N7_19  and  C7_21 
REMARK    6  A    between atoms: C8_22  and  C9_23 
REMARK    7  A    between atoms: C9_23  and  O1_24 
REMARK    8  A    between atoms: C9_23  and  O2_26 
REMARK    9  A    between atoms: C10_31  and  C11_32 
REMARK       I    between atoms: C11_32  and  N9_34 
REMARK   10  A    between atoms: N9_34  and  C12_36 
REMARK   11  A    between atoms: C14_38  and  N10_39 
REMARK   12  A    between atoms: C16_44  and  O5_45 
REMARK   13  A    between atoms: C16_44  and  C17_47 
REMARK   14  A    between atoms: C17_47  and  O6_48 
REMARK   15  A    between atoms: C18_50  and  N11_51 
ROOT
HETATM    1  C7  UNL     1      63.582  19.514  89.799  1.00  0.00     0.100 A 
HETATM    2  C8  UNL     1      63.401  19.185  88.450  1.00  0.00     0.116 A 
HETATM    3  N8  UNL     1      62.776  17.995  88.478  1.00  0.00    -0.257 N 
ATOM      4  H8  UNL     1      62.495  17.466  87.652  1.00  0.00     0.195 HD
HETATM    5  O3  UNL     1      62.582  17.614  89.708  1.00  0.00    -0.230 OA
HETATM    6  C10 UNL     1      63.054  18.503  90.560  1.00  0.00     0.194 A 
ENDROOT
BRANCH   6   7
HETATM    7  C11 UNL     1      63.024  18.425  92.023  1.00  0.00     0.280 C 
HETATM    8  O4  UNL     1      64.066  18.425  92.717  1.00  0.00    -0.265 OA
HETATM    9  N9  UNL     1      61.786  18.345  92.690  1.00  0.00    -0.348 N 
ATOM     10  H9  UNL     1      60.927  18.350  92.141  1.00  0.00     0.163 HD
BRANCH   9  11
HETATM   11  C12 UNL     1      61.698  18.255  94.145  1.00  0.00     0.120 C 
HETATM   12  C13 UNL     1      61.689  19.619  94.729  1.00  0.00     0.060 C 
HETATM   13  C14 UNL     1      60.970  19.611  96.034  1.00  0.00     0.188 C 
HETATM   14  C15 UNL     1      59.528  19.198  95.918  1.00  0.00     0.075 C 
HETATM   15  C16 UNL     1      59.313  18.061  94.970  1.00  0.00     0.111 C 
HETATM   16  C18 UNL     1      60.544  17.377  94.518  1.00  0.00     0.242 C 
BRANCH  13  17
HETATM   17  N10 UNL     1      61.655  18.695  96.940  1.00  0.00    -0.075 N 
ATOM     18 3H10 UNL     1      61.357  17.728  96.816  1.00  0.00     0.274 HD
ATOM     19 2H10 UNL     1      62.639  18.571  96.699  1.00  0.00     0.274 HD
ATOM     20 1H10 UNL     1      61.526  19.025  97.897  1.00  0.00     0.274 HD
ENDBRANCH  13  17
BRANCH  15  21
HETATM   21  O5  UNL     1      58.514  17.117  95.641  1.00  0.00    -0.385 OA
ATOM     22  H5  UNL     1      59.072  16.376  95.842  1.00  0.00     0.210 HD
ENDBRANCH  15  21
BRANCH  15  23
HETATM   23  C17 UNL     1      58.471  18.523  93.785  1.00  0.00     0.204 C 
BRANCH  23  24
HETATM   24  O6  UNL     1      57.430  17.574  93.677  1.00  0.00    -0.398 OA
ATOM     25  H6  UNL     1      56.632  18.059  93.851  1.00  0.00     0.209 HD
ENDBRANCH  23  24
ENDBRANCH  15  23
BRANCH  16  26
HETATM   26  N11 UNL     1      60.216  16.487  93.423  1.00  0.00    -0.070 N 
ATOM     27 3H11 UNL     1      59.995  17.000  92.569  1.00  0.00     0.274 HD
ATOM     28 2H11 UNL     1      61.034  15.980  93.086  1.00  0.00     0.274 HD
ATOM     29 1H11 UNL     1      59.461  15.857  93.694  1.00  0.00     0.274 HD
ENDBRANCH  16  26
ENDBRANCH   9  11
ENDBRANCH   6   7
BRANCH   1  30
HETATM   30  N7  UNL     1      64.218  20.707  90.229  1.00  0.00    -0.384 N 
ATOM     31  H7  UNL     1      65.234  20.789  90.193  1.00  0.00     0.159 HD
BRANCH  30  32
HETATM   32  C6  UNL     1      63.433  21.783  90.707  1.00  0.00     0.142 C 
BRANCH  32  33
HETATM   33  C5  UNL     1      63.536  22.156  92.135  1.00  0.00     0.172 C 
BRANCH  33  34
HETATM   34  N6  UNL     1      64.799  21.899  92.764  1.00  0.00    -0.258 N 
HETATM   35  C3  UNL     1      65.990  22.494  92.544  1.00  0.00     0.157 A 
HETATM   36  N3  UNL     1      66.426  23.451  91.725  1.00  0.00    -0.335 N 
HETATM   37  C4  UNL     1      66.952  21.929  93.386  1.00  0.00     0.139 A 
HETATM   38  C2  UNL     1      67.700  23.856  91.698  1.00  0.00     0.183 A 
ATOM     39  H3  UNL     1      65.760  23.893  91.092  1.00  0.00     0.168 HD
HETATM   40  N2  UNL     1      68.652  23.316  92.512  1.00  0.00    -0.337 N 
HETATM   41  C1  UNL     1      68.272  22.347  93.360  1.00  0.00     0.132 A 
ATOM     42  H2  UNL     1      69.619  23.638  92.478  1.00  0.00     0.168 HD
HETATM   43  N4  UNL     1      66.281  20.998  94.092  1.00  0.00    -0.279 N 
HETATM   44  N5  UNL     1      65.019  20.996  93.713  1.00  0.00    -0.238 N 
ATOM     45  H4  UNL     1      66.685  20.392  94.805  1.00  0.00     0.189 HD
ATOM     46  H5  UNL     1      64.304  20.381  94.098  1.00  0.00     0.208 HD
BRANCH  41  47
HETATM   47  N1  UNL     1      69.153  21.819  94.137  1.00  0.00    -0.383 N 
ATOM     48  H12 UNL     1      69.853  22.394  94.607  1.00  0.00     0.157 HD
ATOM     49  H11 UNL     1      69.141  20.809  94.281  1.00  0.00     0.157 HD
ENDBRANCH  41  47
ENDBRANCH  33  34
ENDBRANCH  32  33
ENDBRANCH  30  32
ENDBRANCH   1  30
BRANCH   2  50
HETATM   50  C9  UNL     1      63.824  20.015  87.289  1.00  0.00     0.309 C 
BRANCH  50  51
HETATM   51  O1  UNL     1      63.594  21.379  87.576  1.00  0.00    -0.366 OA
ATOM     52  H1  UNL     1      64.346  21.891  87.301  1.00  0.00     0.213 HD
ENDBRANCH  50  51
BRANCH  50  53
HETATM   53  O2  UNL     1      63.030  19.715  86.177  1.00  0.00    -0.366 OA
ATOM     54  H2  UNL     1      63.277  18.870  85.821  1.00  0.00     0.213 HD
ENDBRANCH  50  53
ENDBRANCH   2  50
TORSDOF 15
ENDMDL
MODEL 5
REMARK VINA RESULT: -7.952552639      2.617      6.561
REMARK  15 active torsions:
REMARK  status: ('A' for Active; 'I' for Inactive)
REMARK    1  A    between atoms: N1_1  and  C1_4 
REMARK    2  A    between atoms: N6_16  and  C5_17 
REMARK    3  A    between atoms: C5_17  and  C6_18 
REMARK    4  A    between atoms: C6_18  and  N7_19 
REMARK    5  A    between atoms: N7_19  and  C7_21 
REMARK    6  A    between atoms: C8_22  and  C9_23 
REMARK    7  A    between atoms: C9_23  and  O1_24 
REMARK    8  A    between atoms: C9_23  and  O2_26 
REMARK    9  A    between atoms: C10_31  and  C11_32 
REMARK       I    between atoms: C11_32  and  N9_34 
REMARK   10  A    between atoms: N9_34  and  C12_36 
REMARK   11  A    between atoms: C14_38  and  N10_39 
REMARK   12  A    between atoms: C16_44  and  O5_45 
REMARK   13  A    between atoms: C16_44  and  C17_47 
REMARK   14  A    between atoms: C17_47  and  O6_48 
REMARK   15  A    between atoms: C18_50  and  N11_51 
ROOT
HETATM    1  C7  UNL     1      61.999  19.111  93.534  1.00  0.00     0.100 A 
HETATM    2  C8  UNL     1      60.697  19.119  94.049  1.00  0.00     0.116 A 
HETATM    3  N8  UNL     1      60.831  19.626  95.287  1.00  0.00    -0.257 N 
ATOM      4  H8  UNL     1      60.063  19.769  95.944  1.00  0.00     0.195 HD
HETATM    5  O3  UNL     1      62.079  19.908  95.528  1.00  0.00    -0.230 OA
HETATM    6  C10 UNL     1      62.840  19.614  94.492  1.00  0.00     0.194 A 
ENDROOT
BRANCH   6   7
HETATM    7  C11 UNL     1      64.291  19.788  94.387  1.00  0.00     0.280 C 
HETATM    8  O4  UNL     1      65.069  18.830  94.171  1.00  0.00    -0.265 OA
HETATM    9  N9  UNL     1      64.852  21.072  94.534  1.00  0.00    -0.348 N 
ATOM     10  H9  UNL     1      64.234  21.865  94.705  1.00  0.00     0.163 HD
BRANCH   9  11
HETATM   11  C12 UNL     1      66.291  21.300  94.449  1.00  0.00     0.120 C 
HETATM   12  C13 UNL     1      66.634  21.824  93.103  1.00  0.00     0.060 C 
HETATM   13  C14 UNL     1      67.871  22.652  93.178  1.00  0.00     0.188 C 
HETATM   14  C15 UNL     1      67.730  23.856  94.069  1.00  0.00     0.075 C 
HETATM   15  C16 UNL     1      66.975  23.572  95.330  1.00  0.00     0.111 C 
HETATM   16  C18 UNL     1      66.730  22.141  95.608  1.00  0.00     0.242 C 
BRANCH  13  17
HETATM   17  N10 UNL     1      68.962  21.820  93.672  1.00  0.00    -0.075 N 
ATOM     18 3H10 UNL     1      68.825  21.531  94.640  1.00  0.00     0.274 HD
ATOM     19 2H10 UNL     1      68.968  20.893  93.247  1.00  0.00     0.274 HD
ATOM     20 1H10 UNL     1      69.842  22.319  93.534  1.00  0.00     0.274 HD
ENDBRANCH  13  17
BRANCH  15  21
HETATM   21  O5  UNL     1      67.741  24.095  96.388  1.00  0.00    -0.385 OA
ATOM     22  H5  UNL     1      67.217  24.007  97.176  1.00  0.00     0.210 HD
ENDBRANCH  15  21
BRANCH  15  23
HETATM   23  C17 UNL     1      65.675  24.370  95.349  1.00  0.00     0.204 C 
BRANCH  23  24
HETATM   24  O6  UNL     1      65.628  25.032  94.101  1.00  0.00    -0.398 OA
ATOM     25  H6  UNL     1      64.775  24.822  93.740  1.00  0.00     0.209 HD
ENDBRANCH  23  24
ENDBRANCH  15  23
BRANCH  16  26
HETATM   26  N11 UNL     1      65.781  22.027  96.697  1.00  0.00    -0.070 N 
ATOM     27 3H11 UNL     1      64.983  21.443  96.448  1.00  0.00     0.274 HD
ATOM     28 2H11 UNL     1      66.147  21.462  97.463  1.00  0.00     0.274 HD
ATOM     29 1H11 UNL     1      65.491  22.953  97.011  1.00  0.00     0.274 HD
ENDBRANCH  16  26
ENDBRANCH   9  11
ENDBRANCH   6   7
BRANCH   1  30
HETATM   30  N7  UNL     1      62.317  18.640  92.234  1.00  0.00    -0.384 N 
ATOM     31  H7  UNL     1      62.338  19.286  91.445  1.00  0.00     0.159 HD
BRANCH  30  32
HETATM   32  C6  UNL     1      62.604  17.268  92.040  1.00  0.00     0.142 C 
BRANCH  32  33
HETATM   33  C5  UNL     1      63.600  16.890  91.014  1.00  0.00     0.172 C 
BRANCH  33  34
HETATM   34  N6  UNL     1      63.270  17.229  89.660  1.00  0.00    -0.258 N 
HETATM   35  C3  UNL     1      63.438  18.403  89.017  1.00  0.00     0.157 A 
HETATM   36  N3  UNL     1      63.915  19.601  89.356  1.00  0.00    -0.335 N 
HETATM   37  C4  UNL     1      62.976  18.281  87.704  1.00  0.00     0.139 A 
HETATM   38  C2  UNL     1      63.957  20.631  88.504  1.00  0.00     0.183 A 
ATOM     39  H3  UNL     1      64.264  19.737  90.305  1.00  0.00     0.168 HD
HETATM   40  N2  UNL     1      63.511  20.531  87.219  1.00  0.00    -0.337 N 
HETATM   41  C1  UNL     1      63.018  19.347  86.821  1.00  0.00     0.132 A 
ATOM     42  H2  UNL     1      63.551  21.327  86.583  1.00  0.00     0.168 HD
HETATM   43  N4  UNL     1      62.542  17.010  87.613  1.00  0.00    -0.279 N 
HETATM   44  N5  UNL     1      62.723  16.409  88.771  1.00  0.00    -0.238 N 
ATOM     45  H4  UNL     1      62.137  16.581  86.781  1.00  0.00     0.189 HD
ATOM     46  H5  UNL     1      62.475  15.438  88.960  1.00  0.00     0.208 HD
BRANCH  41  47
HETATM   47  N1  UNL     1      62.588  19.228  85.612  1.00  0.00    -0.383 N 
ATOM     48  H12 UNL     1      63.191  18.869  84.872  1.00  0.00     0.157 HD
ATOM     49  H11 UNL     1      61.627  19.497  85.402  1.00  0.00     0.157 HD
ENDBRANCH  41  47
ENDBRANCH  33  34
ENDBRANCH  32  33
ENDBRANCH  30  32
ENDBRANCH   1  30
BRANCH   2  50
HETATM   50  C9  UNL     1      59.475  18.660  93.332  1.00  0.00     0.309 C 
BRANCH  50  51
HETATM   51  O1  UNL     1      59.521  19.107  91.992  1.00  0.00    -0.366 OA
ATOM     52  H1  UNL     1      58.817  18.700  91.500  1.00  0.00     0.213 HD
ENDBRANCH  50  51
BRANCH  50  53
HETATM   53  O2  UNL     1      58.342  19.253  93.898  1.00  0.00    -0.366 OA
ATOM     54  H2  UNL     1      57.578  18.712  93.734  1.00  0.00     0.213 HD
ENDBRANCH  50  53
ENDBRANCH   2  50
TORSDOF 15
ENDMDL
