MODEL 1
REMARK VINA RESULT: -6.221220219      0.000      0.000
REMARK  1 active torsions:
REMARK  status: ('A' for Active; 'I' for Inactive)
REMARK    1  A    between atoms: N2_19  and  C16_21 
ROOT
HETATM    1  O1  UNL     1      19.416  34.233  31.042  1.00  0.00    -0.286 OA
HETATM    2  C1  UNL     1      18.193  34.087  30.809  1.00  0.00     0.197 A 
HETATM    3  C2  UNL     1      17.610  32.740  30.626  1.00  0.00     0.028 A 
HETATM    4  C3  UNL     1      18.174  31.474  30.657  1.00  0.00     0.016 A 
HETATM    5  C4  UNL     1      17.329  30.414  30.442  1.00  0.00     0.001 A 
HETATM    6  C5  UNL     1      15.975  30.614  30.205  1.00  0.00     0.001 A 
HETATM    7  C6  UNL     1      15.442  31.881  30.179  1.00  0.00     0.014 A 
HETATM    8  C7  UNL     1      16.273  32.958  30.393  1.00  0.00     0.006 A 
HETATM    9  C8  UNL     1      15.996  34.411  30.425  1.00  0.00     0.060 A 
HETATM   10  N1  UNL     1      14.853  35.098  30.254  1.00  0.00    -0.354 N 
ATOM     11  H1  UNL     1      13.994  34.580  30.066  1.00  0.00     0.166 HD
HETATM   12  C9  UNL     1      14.796  36.438  30.320  1.00  0.00     0.045 A 
HETATM   13  C10 UNL     1      13.574  37.106  30.134  1.00  0.00     0.030 A 
HETATM   14  C11 UNL     1      13.513  38.476  30.200  1.00  0.00     0.002 A 
HETATM   15  C12 UNL     1      14.665  39.176  30.451  1.00  0.00     0.001 A 
HETATM   16  C13 UNL     1      15.868  38.529  30.635  1.00  0.00     0.016 A 
HETATM   17  C14 UNL     1      15.933  37.135  30.568  1.00  0.00     0.018 A 
HETATM   18  C15 UNL     1      17.195  36.502  30.764  1.00  0.00     0.061 A 
HETATM   19  N2  UNL     1      18.163  37.181  30.979  1.00  0.00    -0.355 N 
ATOM     20  H2  UNL     1      17.798  38.133  30.966  1.00  0.00     0.166 HD
HETATM   21  C22 UNL     1      17.159  35.105  30.677  1.00  0.00     0.070 A 
ENDROOT
BRANCH  19  22
HETATM   22  C16 UNL     1      19.460  37.346  31.226  1.00  0.00     0.032 A 
HETATM   23  C17 UNL     1      20.470  37.021  30.289  1.00  0.00     0.029 A 
HETATM   24  C18 UNL     1      21.773  37.250  30.615  1.00  0.00     0.002 A 
HETATM   25  C19 UNL     1      22.153  37.790  31.827  1.00  0.00     0.000 A 
HETATM   26  C20 UNL     1      21.171  38.112  32.752  1.00  0.00     0.002 A 
HETATM   27  C21 UNL     1      19.857  37.899  32.467  1.00  0.00     0.029 A 
ENDBRANCH  19  22
TORSDOF 1
ENDMDL
MODEL 2
REMARK VINA RESULT: -4.407692726      1.078      1.444
REMARK  1 active torsions:
REMARK  status: ('A' for Active; 'I' for Inactive)
REMARK    1  A    between atoms: N2_19  and  C16_21 
ROOT
HETATM    1  O1  UNL     1      18.851  34.324  32.411  1.00  0.00    -0.286 OA
HETATM    2  C1  UNL     1      17.847  34.163  31.677  1.00  0.00     0.197 A 
HETATM    3  C2  UNL     1      17.510  32.830  31.133  1.00  0.00     0.028 A 
HETATM    4  C3  UNL     1      18.119  31.592  31.267  1.00  0.00     0.016 A 
HETATM    5  C4  UNL     1      17.531  30.539  30.614  1.00  0.00     0.001 A 
HETATM    6  C5  UNL     1      16.380  30.716  29.858  1.00  0.00     0.001 A 
HETATM    7  C6  UNL     1      15.796  31.955  29.741  1.00  0.00     0.014 A 
HETATM    8  C7  UNL     1      16.371  33.026  30.389  1.00  0.00     0.006 A 
HETATM    9  C8  UNL     1      15.979  34.452  30.450  1.00  0.00     0.060 A 
HETATM   10  N1  UNL     1      14.950  35.111  29.890  1.00  0.00    -0.354 N 
ATOM     11  H1  UNL     1      14.291  34.590  29.311  1.00  0.00     0.166 HD
HETATM   12  C9  UNL     1      14.754  36.429  30.062  1.00  0.00     0.045 A 
HETATM   13  C10 UNL     1      13.662  37.070  29.453  1.00  0.00     0.030 A 
HETATM   14  C11 UNL     1      13.460  38.417  29.627  1.00  0.00     0.002 A 
HETATM   15  C12 UNL     1      14.343  39.121  30.404  1.00  0.00     0.001 A 
HETATM   16  C13 UNL     1      15.418  38.501  31.004  1.00  0.00     0.016 A 
HETATM   17  C14 UNL     1      15.626  37.131  30.829  1.00  0.00     0.018 A 
HETATM   18  C15 UNL     1      16.748  36.525  31.466  1.00  0.00     0.061 A 
HETATM   19  N2  UNL     1      17.481  37.207  32.132  1.00  0.00    -0.355 N 
ATOM     20  H2  UNL     1      17.072  38.138  32.065  1.00  0.00     0.166 HD
HETATM   21  C22 UNL     1      16.872  35.150  31.232  1.00  0.00     0.070 A 
ENDROOT
BRANCH  19  22
HETATM   22  C16 UNL     1      18.544  37.387  32.911  1.00  0.00     0.032 A 
HETATM   23  C17 UNL     1      19.798  37.822  32.416  1.00  0.00     0.029 A 
HETATM   24  C18 UNL     1      20.826  38.009  33.290  1.00  0.00     0.002 A 
HETATM   25  C19 UNL     1      20.697  37.791  34.647  1.00  0.00     0.000 A 
HETATM   26  C20 UNL     1      19.474  37.365  35.142  1.00  0.00     0.002 A 
HETATM   27  C21 UNL     1      18.421  37.166  34.303  1.00  0.00     0.029 A 
ENDBRANCH  19  22
TORSDOF 1
ENDMDL
MODEL 3
REMARK VINA RESULT: -4.390309184      2.095      5.571
REMARK  1 active torsions:
REMARK  status: ('A' for Active; 'I' for Inactive)
REMARK    1  A    between atoms: N2_19  and  C16_21 
ROOT
HETATM    1  O1  UNL     1      18.496  34.731  33.163  1.00  0.00    -0.286 OA
HETATM    2  C1  UNL     1      18.075  35.911  33.110  1.00  0.00     0.197 A 
HETATM    3  C2  UNL     1      18.625  36.954  34.002  1.00  0.00     0.028 A 
HETATM    4  C3  UNL     1      19.603  36.914  34.984  1.00  0.00     0.016 A 
HETATM    5  C4  UNL     1      19.875  38.090  35.635  1.00  0.00     0.001 A 
HETATM    6  C5  UNL     1      19.198  39.260  35.316  1.00  0.00     0.001 A 
HETATM    7  C6  UNL     1      18.232  39.272  34.338  1.00  0.00     0.014 A 
HETATM    8  C7  UNL     1      17.944  38.102  33.672  1.00  0.00     0.006 A 
HETATM    9  C8  UNL     1      16.975  37.809  32.592  1.00  0.00     0.060 A 
HETATM   10  N1  UNL     1      16.098  38.601  31.951  1.00  0.00    -0.354 N 
ATOM     11  H1  UNL     1      16.046  39.586  32.212  1.00  0.00     0.166 HD
HETATM   12  C9  UNL     1      15.287  38.148  30.981  1.00  0.00     0.045 A 
HETATM   13  C10 UNL     1      14.388  39.020  30.343  1.00  0.00     0.030 A 
HETATM   14  C11 UNL     1      13.558  38.559  29.351  1.00  0.00     0.002 A 
HETATM   15  C12 UNL     1      13.624  37.236  28.998  1.00  0.00     0.001 A 
HETATM   16  C13 UNL     1      14.502  36.374  29.618  1.00  0.00     0.016 A 
HETATM   17  C14 UNL     1      15.348  36.839  30.628  1.00  0.00     0.018 A 
HETATM   18  C15 UNL     1      16.243  35.918  31.246  1.00  0.00     0.061 A 
HETATM   19  N2  UNL     1      16.244  34.771  30.884  1.00  0.00    -0.355 N 
ATOM     20  H2  UNL     1      15.533  34.748  30.154  1.00  0.00     0.166 HD
HETATM   21  C22 UNL     1      17.049  36.478  32.245  1.00  0.00     0.070 A 
ENDROOT
BRANCH  19  22
HETATM   22  C16 UNL     1      16.684  33.517  30.934  1.00  0.00     0.032 A 
HETATM   23  C17 UNL     1      16.157  32.550  31.824  1.00  0.00     0.029 A 
HETATM   24  C18 UNL     1      16.647  31.280  31.787  1.00  0.00     0.002 A 
HETATM   25  C19 UNL     1      17.641  30.891  30.911  1.00  0.00     0.000 A 
HETATM   26  C20 UNL     1      18.164  31.830  30.035  1.00  0.00     0.002 A 
HETATM   27  C21 UNL     1      17.703  33.111  30.039  1.00  0.00     0.029 A 
ENDBRANCH  19  22
TORSDOF 1
ENDMDL
MODEL 4
REMARK VINA RESULT: -3.811019678      2.402      4.359
REMARK  1 active torsions:
REMARK  status: ('A' for Active; 'I' for Inactive)
REMARK    1  A    between atoms: N2_19  and  C16_21 
ROOT
HETATM    1  O1  UNL     1      16.163  34.907  33.320  1.00  0.00    -0.286 OA
HETATM    2  C1  UNL     1      16.741  34.308  32.382  1.00  0.00     0.197 A 
HETATM    3  C2  UNL     1      16.359  32.928  32.012  1.00  0.00     0.028 A 
HETATM    4  C3  UNL     1      15.406  32.061  32.524  1.00  0.00     0.016 A 
HETATM    5  C4  UNL     1      15.312  30.826  31.933  1.00  0.00     0.001 A 
HETATM    6  C5  UNL     1      16.137  30.474  30.873  1.00  0.00     0.001 A 
HETATM    7  C6  UNL     1      17.074  31.353  30.384  1.00  0.00     0.014 A 
HETATM    8  C7  UNL     1      17.184  32.598  30.963  1.00  0.00     0.006 A 
HETATM    9  C8  UNL     1      18.080  33.736  30.661  1.00  0.00     0.060 A 
HETATM   10  N1  UNL     1      19.044  33.882  29.735  1.00  0.00    -0.354 N 
ATOM     11  H1  UNL     1      19.236  33.106  29.102  1.00  0.00     0.166 HD
HETATM   12  C9  UNL     1      19.764  35.009  29.611  1.00  0.00     0.045 A 
HETATM   13  C10 UNL     1      20.760  35.109  28.625  1.00  0.00     0.030 A 
HETATM   14  C11 UNL     1      21.498  36.260  28.495  1.00  0.00     0.002 A 
HETATM   15  C12 UNL     1      21.244  37.305  29.345  1.00  0.00     0.001 A 
HETATM   16  C13 UNL     1      20.269  37.216  30.315  1.00  0.00     0.016 A 
HETATM   17  C14 UNL     1      19.516  36.046  30.450  1.00  0.00     0.018 A 
HETATM   18  C15 UNL     1      18.517  35.992  31.464  1.00  0.00     0.061 A 
HETATM   19  N2  UNL     1      18.350  36.948  32.173  1.00  0.00    -0.355 N 
ATOM     20  H2  UNL     1      19.035  37.623  31.834  1.00  0.00     0.166 HD
HETATM   21  C22 UNL     1      17.817  34.781  31.520  1.00  0.00     0.070 A 
ENDROOT
BRANCH  19  22
HETATM   22  C16 UNL     1      17.744  37.591  33.167  1.00  0.00     0.032 A 
HETATM   23  C17 UNL     1      18.366  37.847  34.413  1.00  0.00     0.029 A 
HETATM   24  C18 UNL     1      17.680  38.538  35.365  1.00  0.00     0.002 A 
HETATM   25  C19 UNL     1      16.396  39.005  35.166  1.00  0.00     0.000 A 
HETATM   26  C20 UNL     1      15.778  38.760  33.950  1.00  0.00     0.002 A 
HETATM   27  C21 UNL     1      16.427  38.073  32.971  1.00  0.00     0.029 A 
ENDBRANCH  19  22
TORSDOF 1
ENDMDL
MODEL 5
REMARK VINA RESULT: -3.319916451      1.991      2.283
REMARK  1 active torsions:
REMARK  status: ('A' for Active; 'I' for Inactive)
REMARK    1  A    between atoms: N2_19  and  C16_21 
ROOT
HETATM    1  O1  UNL     1      17.882  34.551  33.562  1.00  0.00    -0.286 OA
HETATM    2  C1  UNL     1      17.046  34.354  32.648  1.00  0.00     0.197 A 
HETATM    3  C2  UNL     1      16.703  32.983  32.215  1.00  0.00     0.028 A 
HETATM    4  C3  UNL     1      17.146  31.739  32.638  1.00  0.00     0.016 A 
HETATM    5  C4  UNL     1      16.609  30.644  32.008  1.00  0.00     0.001 A 
HETATM    6  C5  UNL     1      15.668  30.788  30.998  1.00  0.00     0.001 A 
HETATM    7  C6  UNL     1      15.246  32.034  30.597  1.00  0.00     0.014 A 
HETATM    8  C7  UNL     1      15.772  33.146  31.217  1.00  0.00     0.006 A 
HETATM    9  C8  UNL     1      15.518  34.589  31.008  1.00  0.00     0.060 A 
HETATM   10  N1  UNL     1      14.701  35.229  30.153  1.00  0.00    -0.354 N 
ATOM     11  H1  UNL     1      14.132  34.675  29.512  1.00  0.00     0.166 HD
HETATM   12  C9  UNL     1      14.604  36.567  30.109  1.00  0.00     0.045 A 
HETATM   13  C10 UNL     1      13.733  37.186  29.196  1.00  0.00     0.030 A 
HETATM   14  C11 UNL     1      13.632  38.554  29.148  1.00  0.00     0.002 A 
HETATM   15  C12 UNL     1      14.395  39.302  30.007  1.00  0.00     0.001 A 
HETATM   16  C13 UNL     1      15.252  38.704  30.906  1.00  0.00     0.016 A 
HETATM   17  C14 UNL     1      15.357  37.312  30.957  1.00  0.00     0.018 A 
HETATM   18  C15 UNL     1      16.254  36.730  31.900  1.00  0.00     0.061 A 
HETATM   19  N2  UNL     1      16.892  37.450  32.622  1.00  0.00    -0.355 N 
ATOM     20  H2  UNL     1      16.599  38.387  32.347  1.00  0.00     0.166 HD
HETATM   21  C22 UNL     1      16.289  35.331  31.875  1.00  0.00     0.070 A 
ENDROOT
BRANCH  19  22
HETATM   22  C16 UNL     1      17.778  37.668  33.589  1.00  0.00     0.032 A 
HETATM   23  C17 UNL     1      19.019  36.991  33.665  1.00  0.00     0.029 A 
HETATM   24  C18 UNL     1      19.880  37.299  34.675  1.00  0.00     0.002 A 
HETATM   25  C19 UNL     1      19.593  38.250  35.634  1.00  0.00     0.000 A 
HETATM   26  C20 UNL     1      18.380  38.918  35.569  1.00  0.00     0.002 A 
HETATM   27  C21 UNL     1      17.491  38.641  34.576  1.00  0.00     0.029 A 
ENDBRANCH  19  22
TORSDOF 1
ENDMDL
