MODEL 1
REMARK VINA RESULT: -6.276608204      0.000      0.000
REMARK  2 active torsions:
REMARK  status: ('A' for Active; 'I' for Inactive)
REMARK    1  A    between atoms: C11_11  and  C12_12 
REMARK       I    between atoms: C12_12  and  N1_14 
REMARK    2  A    between atoms: N1_14  and  N2_16 
REMARK       I    between atoms: N2_16  and  C13_18 
ROOT
HETATM    1  C1  UNL     1       7.955  -5.899  -2.864  1.00  0.00     0.012 C 
HETATM    2  C2  UNL     1       8.175  -6.554  -1.874  1.00  0.00    -0.111 C 
HETATM    3  C3  UNL     1       8.466  -7.352  -0.702  1.00  0.00     0.081 C 
HETATM    4  C4  UNL     1       7.275  -8.189  -0.322  1.00  0.00     0.002 C 
HETATM    5  C5  UNL     1       7.706  -9.606  -0.007  1.00  0.00     0.006 C 
HETATM    6  C6  UNL     1       7.280 -10.079   1.354  1.00  0.00     0.001 C 
HETATM    7  C7  UNL     1       7.684  -9.157   2.468  1.00  0.00     0.005 C 
HETATM    8  C8  UNL     1       7.507  -7.706   2.062  1.00  0.00    -0.013 C 
HETATM    9  C9  UNL     1       6.571  -7.585   0.883  1.00  0.00     0.010 C 
HETATM   10  C10 UNL     1       8.870  -7.146   1.758  1.00  0.00     0.020 C 
HETATM   11  C11 UNL     1       8.914  -6.461   0.416  1.00  0.00     0.096 C 
ENDROOT
BRANCH  11  12
HETATM   12  C12 UNL     1      10.252  -5.879   0.238  1.00  0.00     0.241 C 
HETATM   13  O1  UNL     1      11.223  -6.733   0.171  1.00  0.00    -0.271 OA
HETATM   14  N1  UNL     1      10.562  -4.510   0.138  1.00  0.00    -0.266 N 
ATOM     15  H1  UNL     1       9.821  -3.810   0.192  1.00  0.00     0.190 HD
BRANCH  14  16
HETATM   16  N2  UNL     1      11.882  -4.118  -0.035  1.00  0.00    -0.251 N 
HETATM   17  C13 UNL     1      12.466  -3.769  -1.274  1.00  0.00     0.347 C 
HETATM   18  N3  UNL     1      13.814  -3.377  -1.396  1.00  0.00    -0.038 NA
HETATM   19  O2  UNL     1      11.757  -3.807  -2.332  1.00  0.00    -0.249 OA
ATOM     20  H2  UNL     1      12.475  -4.078   0.794  1.00  0.00     0.191 HD
ENDBRANCH  14  16
ENDBRANCH  11  12
TORSDOF 2
ENDMDL
MODEL 2
REMARK VINA RESULT: -6.218224143      1.554      1.793
REMARK  2 active torsions:
REMARK  status: ('A' for Active; 'I' for Inactive)
REMARK    1  A    between atoms: C11_11  and  C12_12 
REMARK       I    between atoms: C12_12  and  N1_14 
REMARK    2  A    between atoms: N1_14  and  N2_16 
REMARK       I    between atoms: N2_16  and  C13_18 
ROOT
HETATM    1  C1  UNL     1       8.123  -3.888   0.191  1.00  0.00     0.012 C 
HETATM    2  C2  UNL     1       8.197  -5.090   0.268  1.00  0.00    -0.111 C 
HETATM    3  C3  UNL     1       8.300  -6.533   0.331  1.00  0.00     0.081 C 
HETATM    4  C4  UNL     1       6.957  -7.148   0.612  1.00  0.00     0.002 C 
HETATM    5  C5  UNL     1       6.719  -8.333  -0.302  1.00  0.00     0.006 C 
HETATM    6  C6  UNL     1       6.397  -9.605   0.429  1.00  0.00     0.001 C 
HETATM    7  C7  UNL     1       7.401  -9.964   1.487  1.00  0.00     0.005 C 
HETATM    8  C8  UNL     1       7.855  -8.730   2.244  1.00  0.00    -0.013 C 
HETATM    9  C9  UNL     1       6.876  -7.594   2.064  1.00  0.00     0.010 C 
HETATM   10  C10 UNL     1       9.231  -8.371   1.751  1.00  0.00     0.020 C 
HETATM   11  C11 UNL     1       9.328  -6.920   1.351  1.00  0.00     0.096 C 
ENDROOT
BRANCH  11  12
HETATM   12  C12 UNL     1      10.716  -6.642   0.959  1.00  0.00     0.241 C 
HETATM   13  O1  UNL     1      11.149  -7.311  -0.061  1.00  0.00    -0.271 OA
HETATM   14  N1  UNL     1      11.594  -5.734   1.581  1.00  0.00    -0.266 N 
ATOM     15  H1  UNL     1      11.286  -5.195   2.391  1.00  0.00     0.190 HD
BRANCH  14  16
HETATM   16  N2  UNL     1      12.882  -5.579   1.086  1.00  0.00    -0.251 N 
HETATM   17  C13 UNL     1      13.284  -4.565   0.186  1.00  0.00     0.347 C 
HETATM   18  N3  UNL     1      14.607  -4.450  -0.287  1.00  0.00    -0.038 NA
HETATM   19  O2  UNL     1      12.428  -3.715  -0.221  1.00  0.00    -0.249 OA
ATOM     20  H2  UNL     1      13.589  -6.245   1.394  1.00  0.00     0.191 HD
ENDBRANCH  14  16
ENDBRANCH  11  12
TORSDOF 2
ENDMDL
MODEL 3
REMARK VINA RESULT: -6.096971070      1.334      1.482
REMARK  2 active torsions:
REMARK  status: ('A' for Active; 'I' for Inactive)
REMARK    1  A    between atoms: C11_11  and  C12_12 
REMARK       I    between atoms: C12_12  and  N1_14 
REMARK    2  A    between atoms: N1_14  and  N2_16 
REMARK       I    between atoms: N2_16  and  C13_18 
ROOT
HETATM    1  C1  UNL     1       7.664  -6.557  -3.166  1.00  0.00     0.012 C 
HETATM    2  C2  UNL     1       7.917  -6.946  -2.051  1.00  0.00    -0.111 C 
HETATM    3  C3  UNL     1       8.254  -7.414  -0.723  1.00  0.00     0.081 C 
HETATM    4  C4  UNL     1       7.397  -8.590  -0.344  1.00  0.00     0.002 C 
HETATM    5  C5  UNL     1       8.244  -9.679   0.283  1.00  0.00     0.006 C 
HETATM    6  C6  UNL     1       7.772 -10.103   1.644  1.00  0.00     0.001 C 
HETATM    7  C7  UNL     1       7.602  -8.963   2.607  1.00  0.00     0.005 C 
HETATM    8  C8  UNL     1       6.992  -7.758   1.917  1.00  0.00    -0.013 C 
HETATM    9  C9  UNL     1       6.312  -8.159   0.630  1.00  0.00     0.010 C 
HETATM   10  C10 UNL     1       8.092  -6.757   1.685  1.00  0.00     0.020 C 
HETATM   11  C11 UNL     1       8.134  -6.285   0.254  1.00  0.00     0.096 C 
ENDROOT
BRANCH  11  12
HETATM   12  C12 UNL     1       9.180  -5.259   0.138  1.00  0.00     0.241 C 
HETATM   13  O1  UNL     1       8.761  -4.071  -0.159  1.00  0.00    -0.271 OA
HETATM   14  N1  UNL     1      10.563  -5.451   0.317  1.00  0.00    -0.266 N 
ATOM     15  H1  UNL     1      10.927  -6.376   0.548  1.00  0.00     0.190 HD
BRANCH  14  16
HETATM   16  N2  UNL     1      11.427  -4.374   0.178  1.00  0.00    -0.251 N 
HETATM   17  C13 UNL     1      12.835  -4.448   0.292  1.00  0.00     0.347 C 
HETATM   18  N3  UNL     1      13.669  -3.323   0.141  1.00  0.00    -0.038 NA
HETATM   19  O2  UNL     1      13.384  -5.569   0.541  1.00  0.00    -0.249 OA
ATOM     20  H2  UNL     1      11.016  -3.462  -0.022  1.00  0.00     0.191 HD
ENDBRANCH  14  16
ENDBRANCH  11  12
TORSDOF 2
ENDMDL
MODEL 4
REMARK VINA RESULT: -5.981450954      3.265      5.132
REMARK  2 active torsions:
REMARK  status: ('A' for Active; 'I' for Inactive)
REMARK    1  A    between atoms: C11_11  and  C12_12 
REMARK       I    between atoms: C12_12  and  N1_14 
REMARK    2  A    between atoms: N1_14  and  N2_16 
REMARK       I    between atoms: N2_16  and  C13_18 
ROOT
HETATM    1  C1  UNL     1       6.548  -7.984   2.067  1.00  0.00     0.012 C 
HETATM    2  C2  UNL     1       7.385  -7.191   1.708  1.00  0.00    -0.111 C 
HETATM    3  C3  UNL     1       8.381  -6.222   1.304  1.00  0.00     0.081 C 
HETATM    4  C4  UNL     1       8.132  -5.762  -0.105  1.00  0.00     0.002 C 
HETATM    5  C5  UNL     1       8.261  -4.255  -0.198  1.00  0.00     0.006 C 
HETATM    6  C6  UNL     1       9.252  -3.796  -1.231  1.00  0.00     0.001 C 
HETATM    7  C7  UNL     1      10.609  -4.423  -1.087  1.00  0.00     0.005 C 
HETATM    8  C8  UNL     1      10.492  -5.891  -0.725  1.00  0.00    -0.013 C 
HETATM    9  C9  UNL     1       9.118  -6.422  -1.056  1.00  0.00     0.010 C 
HETATM   10  C10 UNL     1      10.811  -6.029   0.740  1.00  0.00     0.020 C 
HETATM   11  C11 UNL     1       9.751  -6.805   1.479  1.00  0.00     0.096 C 
ENDROOT
BRANCH  11  12
HETATM   12  C12 UNL     1      10.180  -6.957   2.876  1.00  0.00     0.241 C 
HETATM   13  O1  UNL     1       9.846  -8.073   3.440  1.00  0.00    -0.271 OA
HETATM   14  N1  UNL     1      10.904  -6.018   3.635  1.00  0.00    -0.266 N 
ATOM     15  H1  UNL     1      11.179  -5.127   3.221  1.00  0.00     0.190 HD
BRANCH  14  16
HETATM   16  N2  UNL     1      11.241  -6.313   4.948  1.00  0.00    -0.251 N 
HETATM   17  C13 UNL     1      12.560  -6.341   5.458  1.00  0.00     0.347 C 
HETATM   18  N3  UNL     1      12.849  -6.647   6.803  1.00  0.00    -0.038 NA
HETATM   19  O2  UNL     1      13.535  -6.080   4.682  1.00  0.00    -0.249 OA
ATOM     20  H2  UNL     1      10.481  -6.527   5.594  1.00  0.00     0.191 HD
ENDBRANCH  14  16
ENDBRANCH  11  12
TORSDOF 2
ENDMDL
MODEL 5
REMARK VINA RESULT: -5.921442172      1.515      1.645
REMARK  2 active torsions:
REMARK  status: ('A' for Active; 'I' for Inactive)
REMARK    1  A    between atoms: C11_11  and  C12_12 
REMARK       I    between atoms: C12_12  and  N1_14 
REMARK    2  A    between atoms: N1_14  and  N2_16 
REMARK       I    between atoms: N2_16  and  C13_18 
ROOT
HETATM    1  C1  UNL     1       7.408  -7.190  -3.251  1.00  0.00     0.012 C 
HETATM    2  C2  UNL     1       7.948  -7.234  -2.172  1.00  0.00    -0.111 C 
HETATM    3  C3  UNL     1       8.626  -7.289  -0.894  1.00  0.00     0.081 C 
HETATM    4  C4  UNL     1       8.053  -8.383  -0.037  1.00  0.00     0.002 C 
HETATM    5  C5  UNL     1       9.164  -9.181   0.612  1.00  0.00     0.006 C 
HETATM    6  C6  UNL     1       9.063  -9.252   2.109  1.00  0.00     0.001 C 
HETATM    7  C7  UNL     1       8.938  -7.910   2.770  1.00  0.00     0.005 C 
HETATM    8  C8  UNL     1       8.025  -6.996   1.976  1.00  0.00    -0.013 C 
HETATM    9  C9  UNL     1       7.150  -7.792   1.035  1.00  0.00     0.010 C 
HETATM   10  C10 UNL     1       8.891  -6.010   1.240  1.00  0.00     0.020 C 
HETATM   11  C11 UNL     1       8.555  -5.948  -0.229  1.00  0.00     0.096 C 
ENDROOT
BRANCH  11  12
HETATM   12  C12 UNL     1       9.391  -4.910  -0.849  1.00  0.00     0.241 C 
HETATM   13  O1  UNL     1       8.753  -3.866  -1.273  1.00  0.00    -0.271 OA
HETATM   14  N1  UNL     1      10.788  -4.951  -1.017  1.00  0.00    -0.266 N 
ATOM     15  H1  UNL     1      11.320  -5.761  -0.698  1.00  0.00     0.190 HD
BRANCH  14  16
HETATM   16  N2  UNL     1      11.436  -3.882  -1.621  1.00  0.00    -0.251 N 
HETATM   17  C13 UNL     1      12.800  -3.558  -1.439  1.00  0.00     0.347 C 
HETATM   18  N3  UNL     1      13.412  -2.460  -2.076  1.00  0.00    -0.038 NA
HETATM   19  O2  UNL     1      13.517  -4.277  -0.671  1.00  0.00    -0.249 OA
ATOM     20  H2  UNL     1      10.887  -3.287  -2.241  1.00  0.00     0.191 HD
ENDBRANCH  14  16
ENDBRANCH  11  12
TORSDOF 2
ENDMDL
