MODEL 1
REMARK VINA RESULT: -7.967177985      0.000      0.000
REMARK  5 active torsions:
REMARK  status: ('A' for Active; 'I' for Inactive)
REMARK    1  A    between atoms: C2_2  and  C3_3 
REMARK    2  A    between atoms: C3_3  and  C4_4 
REMARK    3  A    between atoms: N2_8  and  C6_10 
REMARK    4  A    between atoms: C6_10  and  C7_11 
REMARK    5  A    between atoms: C7_11  and  N3_12 
ROOT
HETATM    1  C4  UNL     1     -13.016  12.094  -8.124  1.00  0.00     0.054 A 
HETATM    2  N1  UNL     1     -13.809  11.151  -7.612  1.00  0.00    -0.340 N 
ATOM      3  H1  UNL     1     -13.677  10.213  -7.992  1.00  0.00     0.167 HD
HETATM    4  C5  UNL     1     -14.739  11.263  -6.684  1.00  0.00     0.116 A 
HETATM    5  N2  UNL     1     -15.404  10.216  -6.323  1.00  0.00    -0.374 N 
ATOM      6  H2  UNL     1     -16.129  10.279  -5.608  1.00  0.00     0.161 HD
HETATM    7  C13 UNL     1     -15.069  12.444  -6.049  1.00  0.00     0.061 A 
HETATM    8  C14 UNL     1     -14.502  13.660  -6.269  1.00  0.00     0.091 A 
HETATM    9  N4  UNL     1     -15.076  14.578  -5.469  1.00  0.00    -0.347 N 
ATOM     10  H4  UNL     1     -14.828  15.566  -5.445  1.00  0.00     0.167 HD
HETATM   11  C15 UNL     1     -16.043  13.992  -4.692  1.00  0.00     0.074 A 
HETATM   12  C16 UNL     1     -16.931  14.363  -3.735  1.00  0.00     0.103 A 
HETATM   13  C17 UNL     1     -17.084  15.739  -3.219  1.00  0.00     0.104 C 
HETATM   14  N5  UNL     1     -17.190  16.842  -2.819  1.00  0.00    -0.191 NA
HETATM   15  C18 UNL     1     -17.735  13.381  -3.222  1.00  0.00     0.111 A 
HETATM   16  N6  UNL     1     -18.756  13.507  -2.203  1.00  0.00    -0.093 NA
HETATM   17  S1  UNL     1     -17.237  11.989  -4.076  1.00  0.00    -0.070 SA
HETATM   18  C19 UNL     1     -16.029  12.680  -5.057  1.00  0.00     0.051 A 
HETATM   19  S2  UNL     1     -13.268  13.645  -7.465  1.00  0.00    -0.058 SA
ENDROOT
BRANCH   1  20
HETATM   20  C3  UNL     1     -12.025  11.747  -9.176  1.00  0.00     0.065 C 
BRANCH  20  21
HETATM   21  C2  UNL     1     -11.619  13.000  -9.939  1.00  0.00     0.002 C 
HETATM   22  C1  UNL     1     -11.232  12.701 -11.350  1.00  0.00     0.005 C 
ENDBRANCH  20  21
ENDBRANCH   1  20
BRANCH   5  23
HETATM   23  C6  UNL     1     -15.098   8.958  -6.956  1.00  0.00     0.140 C 
BRANCH  23  24
HETATM   24  C7  UNL     1     -15.423   7.780  -6.050  1.00  0.00     0.136 C 
BRANCH  24  25
HETATM   25  N3  UNL     1     -15.787   6.675  -6.871  1.00  0.00    -0.411 N 
HETATM   26  C8  UNL     1     -15.401   5.387  -6.429  1.00  0.00     0.117 C 
HETATM   27  C9  UNL     1     -16.627   4.500  -6.374  1.00  0.00     0.019 C 
HETATM   28  C10 UNL     1     -17.078   4.307  -7.806  1.00  0.00     0.003 C 
HETATM   29  C11 UNL     1     -17.363   5.647  -8.444  1.00  0.00     0.019 C 
HETATM   30  C12 UNL     1     -17.049   6.794  -7.512  1.00  0.00     0.117 C 
ENDBRANCH  24  25
ENDBRANCH  23  24
ENDBRANCH   5  23
TORSDOF 5
ENDMDL
MODEL 2
REMARK VINA RESULT: -7.901491290      2.350      7.475
REMARK  5 active torsions:
REMARK  status: ('A' for Active; 'I' for Inactive)
REMARK    1  A    between atoms: C2_2  and  C3_3 
REMARK    2  A    between atoms: C3_3  and  C4_4 
REMARK    3  A    between atoms: N2_8  and  C6_10 
REMARK    4  A    between atoms: C6_10  and  C7_11 
REMARK    5  A    between atoms: C7_11  and  N3_12 
ROOT
HETATM    1  C4  UNL     1     -15.174  12.427  -3.833  1.00  0.00     0.054 A 
HETATM    2  N1  UNL     1     -14.743  12.121  -5.058  1.00  0.00    -0.340 N 
ATOM      3  H1  UNL     1     -14.245  12.866  -5.547  1.00  0.00     0.167 HD
HETATM    4  C5  UNL     1     -14.872  10.991  -5.724  1.00  0.00     0.116 A 
HETATM    5  N2  UNL     1     -14.378  10.896  -6.914  1.00  0.00    -0.374 N 
ATOM      6  H2  UNL     1     -14.466  10.032  -7.449  1.00  0.00     0.161 HD
HETATM    7  C13 UNL     1     -15.512   9.868  -5.239  1.00  0.00     0.061 A 
HETATM    8  C14 UNL     1     -16.102   9.743  -4.020  1.00  0.00     0.091 A 
HETATM    9  N4  UNL     1     -16.624   8.509  -3.895  1.00  0.00    -0.347 N 
ATOM     10  H4  UNL     1     -17.121   8.167  -3.073  1.00  0.00     0.167 HD
HETATM   11  C15 UNL     1     -16.392   7.777  -5.032  1.00  0.00     0.074 A 
HETATM   12  C16 UNL     1     -16.652   6.531  -5.502  1.00  0.00     0.103 A 
HETATM   13  C17 UNL     1     -17.381   5.486  -4.752  1.00  0.00     0.104 C 
HETATM   14  N5  UNL     1     -17.962   4.666  -4.140  1.00  0.00    -0.191 NA
HETATM   15  C18 UNL     1     -16.201   6.236  -6.760  1.00  0.00     0.111 A 
HETATM   16  N6  UNL     1     -16.344   4.994  -7.490  1.00  0.00    -0.093 NA
HETATM   17  S1  UNL     1     -15.439   7.684  -7.246  1.00  0.00    -0.070 SA
HETATM   18  C19 UNL     1     -15.708   8.623  -5.851  1.00  0.00     0.051 A 
HETATM   19  S2  UNL     1     -16.001  11.159  -3.051  1.00  0.00    -0.058 SA
ENDROOT
BRANCH   1  20
HETATM   20  C3  UNL     1     -14.919  13.777  -3.267  1.00  0.00     0.065 C 
BRANCH  20  21
HETATM   21  C2  UNL     1     -16.236  14.513  -3.068  1.00  0.00     0.002 C 
HETATM   22  C1  UNL     1     -16.753  15.100  -4.341  1.00  0.00     0.005 C 
ENDBRANCH  20  21
ENDBRANCH   1  20
BRANCH   5  23
HETATM   23  C6  UNL     1     -13.699  12.041  -7.467  1.00  0.00     0.140 C 
BRANCH  23  24
HETATM   24  C7  UNL     1     -12.351  11.661  -8.063  1.00  0.00     0.136 C 
BRANCH  24  25
HETATM   25  N3  UNL     1     -12.287  12.187  -9.385  1.00  0.00    -0.411 N 
HETATM   26  C8  UNL     1     -12.043  13.575  -9.517  1.00  0.00     0.117 C 
HETATM   27  C9  UNL     1     -10.846  13.778 -10.423  1.00  0.00     0.019 C 
HETATM   28  C10 UNL     1     -11.273  13.319 -11.801  1.00  0.00     0.003 C 
HETATM   29  C11 UNL     1     -11.722  11.877 -11.751  1.00  0.00     0.019 C 
HETATM   30  C12 UNL     1     -11.692  11.325 -10.345  1.00  0.00     0.117 C 
ENDBRANCH  24  25
ENDBRANCH  23  24
ENDBRANCH   5  23
TORSDOF 5
ENDMDL
MODEL 3
REMARK VINA RESULT: -7.754741099      2.698      7.434
REMARK  5 active torsions:
REMARK  status: ('A' for Active; 'I' for Inactive)
REMARK    1  A    between atoms: C2_2  and  C3_3 
REMARK    2  A    between atoms: C3_3  and  C4_4 
REMARK    3  A    between atoms: N2_8  and  C6_10 
REMARK    4  A    between atoms: C6_10  and  C7_11 
REMARK    5  A    between atoms: C7_11  and  N3_12 
ROOT
HETATM    1  C4  UNL     1     -16.134   9.207  -4.879  1.00  0.00     0.054 A 
HETATM    2  N1  UNL     1     -16.463  10.477  -4.636  1.00  0.00    -0.340 N 
ATOM      3  H1  UNL     1     -17.163  10.618  -3.908  1.00  0.00     0.167 HD
HETATM    4  C5  UNL     1     -16.008  11.576  -5.207  1.00  0.00     0.116 A 
HETATM    5  N2  UNL     1     -16.460  12.723  -4.824  1.00  0.00    -0.374 N 
ATOM      6  H2  UNL     1     -16.124  13.586  -5.252  1.00  0.00     0.161 HD
HETATM    7  C13 UNL     1     -15.061  11.598  -6.212  1.00  0.00     0.061 A 
HETATM    8  C14 UNL     1     -14.453  10.516  -6.767  1.00  0.00     0.091 A 
HETATM    9  N4  UNL     1     -13.588  10.920  -7.716  1.00  0.00    -0.347 N 
ATOM     10  H4  UNL     1     -13.009  10.299  -8.280  1.00  0.00     0.167 HD
HETATM   11  C15 UNL     1     -13.599  12.289  -7.816  1.00  0.00     0.074 A 
HETATM   12  C16 UNL     1     -12.984  13.252  -8.547  1.00  0.00     0.103 A 
HETATM   13  C17 UNL     1     -11.975  12.996  -9.596  1.00  0.00     0.104 C 
HETATM   14  N5  UNL     1     -11.171  12.772 -10.427  1.00  0.00    -0.191 NA
HETATM   15  C18 UNL     1     -13.334  14.549  -8.282  1.00  0.00     0.111 A 
HETATM   16  N6  UNL     1     -12.834  15.754  -8.912  1.00  0.00    -0.093 NA
HETATM   17  S1  UNL     1     -14.495  14.389  -7.041  1.00  0.00    -0.070 SA
HETATM   18  C19 UNL     1     -14.509  12.694  -6.887  1.00  0.00     0.051 A 
HETATM   19  S2  UNL     1     -14.964   9.015  -6.103  1.00  0.00    -0.058 SA
ENDROOT
BRANCH   1  20
HETATM   20  C3  UNL     1     -16.776   8.109  -4.111  1.00  0.00     0.065 C 
BRANCH  20  21
HETATM   21  C2  UNL     1     -17.383   8.660  -2.829  1.00  0.00     0.002 C 
HETATM   22  C1  UNL     1     -16.518   8.405  -1.639  1.00  0.00     0.005 C 
ENDBRANCH  20  21
ENDBRANCH   1  20
BRANCH   5  23
HETATM   23  C6  UNL     1     -17.451  12.755  -3.778  1.00  0.00     0.140 C 
BRANCH  23  24
HETATM   24  C7  UNL     1     -17.262  13.954  -2.861  1.00  0.00     0.136 C 
BRANCH  24  25
HETATM   25  N3  UNL     1     -16.348  13.587  -1.833  1.00  0.00    -0.411 N 
HETATM   26  C8  UNL     1     -16.263  12.213  -1.505  1.00  0.00     0.117 C 
HETATM   27  C9  UNL     1     -14.817  11.774  -1.604  1.00  0.00     0.019 C 
HETATM   28  C10 UNL     1     -14.078  12.491  -0.494  1.00  0.00     0.003 C 
HETATM   29  C11 UNL     1     -14.239  13.986  -0.646  1.00  0.00     0.019 C 
HETATM   30  C12 UNL     1     -15.144  14.341  -1.802  1.00  0.00     0.117 C 
ENDBRANCH  24  25
ENDBRANCH  23  24
ENDBRANCH   5  23
TORSDOF 5
ENDMDL
MODEL 4
REMARK VINA RESULT: -7.701353235      2.556      7.572
REMARK  5 active torsions:
REMARK  status: ('A' for Active; 'I' for Inactive)
REMARK    1  A    between atoms: C2_2  and  C3_3 
REMARK    2  A    between atoms: C3_3  and  C4_4 
REMARK    3  A    between atoms: N2_8  and  C6_10 
REMARK    4  A    between atoms: C6_10  and  C7_11 
REMARK    5  A    between atoms: C7_11  and  N3_12 
ROOT
HETATM    1  C4  UNL     1     -16.133   9.198  -4.806  1.00  0.00     0.054 A 
HETATM    2  N1  UNL     1     -16.480  10.466  -4.574  1.00  0.00    -0.340 N 
ATOM      3  H1  UNL     1     -17.186  10.602  -3.850  1.00  0.00     0.167 HD
HETATM    4  C5  UNL     1     -16.038  11.566  -5.151  1.00  0.00     0.116 A 
HETATM    5  N2  UNL     1     -16.507  12.710  -4.779  1.00  0.00    -0.374 N 
ATOM      6  H2  UNL     1     -16.181  13.574  -5.212  1.00  0.00     0.161 HD
HETATM    7  C13 UNL     1     -15.085  11.593  -6.151  1.00  0.00     0.061 A 
HETATM    8  C14 UNL     1     -14.459  10.516  -6.694  1.00  0.00     0.091 A 
HETATM    9  N4  UNL     1     -13.595  10.924  -7.641  1.00  0.00    -0.347 N 
ATOM     10  H4  UNL     1     -13.004  10.307  -8.197  1.00  0.00     0.167 HD
HETATM   11  C15 UNL     1     -13.624  12.292  -7.752  1.00  0.00     0.074 A 
HETATM   12  C16 UNL     1     -13.018  13.258  -8.487  1.00  0.00     0.103 A 
HETATM   13  C17 UNL     1     -12.000  13.007  -9.528  1.00  0.00     0.104 C 
HETATM   14  N5  UNL     1     -11.189  12.788 -10.353  1.00  0.00    -0.191 NA
HETATM   15  C18 UNL     1     -13.388  14.552  -8.234  1.00  0.00     0.111 A 
HETATM   16  N6  UNL     1     -12.901  15.758  -8.870  1.00  0.00    -0.093 NA
HETATM   17  S1  UNL     1     -14.553  14.386  -6.998  1.00  0.00    -0.070 SA
HETATM   18  C19 UNL     1     -14.544  12.691  -6.831  1.00  0.00     0.051 A 
HETATM   19  S2  UNL     1     -14.953   9.013  -6.022  1.00  0.00    -0.058 SA
ENDROOT
BRANCH   1  20
HETATM   20  C3  UNL     1     -16.764   8.098  -4.032  1.00  0.00     0.065 C 
BRANCH  20  21
HETATM   21  C2  UNL     1     -16.802   6.829  -4.872  1.00  0.00     0.002 C 
HETATM   22  C1  UNL     1     -17.183   5.630  -4.068  1.00  0.00     0.005 C 
ENDBRANCH  20  21
ENDBRANCH   1  20
BRANCH   5  23
HETATM   23  C6  UNL     1     -17.504  12.736  -3.739  1.00  0.00     0.140 C 
BRANCH  23  24
HETATM   24  C7  UNL     1     -17.241  13.850  -2.736  1.00  0.00     0.136 C 
BRANCH  24  25
HETATM   25  N3  UNL     1     -15.958  13.634  -2.159  1.00  0.00    -0.411 N 
HETATM   26  C8  UNL     1     -15.179  14.780  -1.867  1.00  0.00     0.117 C 
HETATM   27  C9  UNL     1     -14.766  14.734  -0.411  1.00  0.00     0.019 C 
HETATM   28  C10 UNL     1     -13.814  13.565  -0.276  1.00  0.00     0.003 C 
HETATM   29  C11 UNL     1     -14.490  12.290  -0.724  1.00  0.00     0.019 C 
HETATM   30  C12 UNL     1     -15.884  12.546  -1.248  1.00  0.00     0.117 C 
ENDBRANCH  24  25
ENDBRANCH  23  24
ENDBRANCH   5  23
TORSDOF 5
ENDMDL
MODEL 5
REMARK VINA RESULT: -7.657489949      2.535      7.248
REMARK  5 active torsions:
REMARK  status: ('A' for Active; 'I' for Inactive)
REMARK    1  A    between atoms: C2_2  and  C3_3 
REMARK    2  A    between atoms: C3_3  and  C4_4 
REMARK    3  A    between atoms: N2_8  and  C6_10 
REMARK    4  A    between atoms: C6_10  and  C7_11 
REMARK    5  A    between atoms: C7_11  and  N3_12 
ROOT
HETATM    1  C4  UNL     1     -13.374  13.244  -7.511  1.00  0.00     0.054 A 
HETATM    2  N1  UNL     1     -14.006  13.337  -6.339  1.00  0.00    -0.340 N 
ATOM      3  H1  UNL     1     -13.990  14.260  -5.904  1.00  0.00     0.167 HD
HETATM    4  C5  UNL     1     -14.649  12.403  -5.667  1.00  0.00     0.116 A 
HETATM    5  N2  UNL     1     -15.200  12.700  -4.537  1.00  0.00    -0.374 N 
ATOM      6  H2  UNL     1     -15.701  11.993  -3.998  1.00  0.00     0.161 HD
HETATM    7  C13 UNL     1     -14.784  11.094  -6.085  1.00  0.00     0.061 A 
HETATM    8  C14 UNL     1     -14.288  10.562  -7.234  1.00  0.00     0.091 A 
HETATM    9  N4  UNL     1     -14.615   9.259  -7.307  1.00  0.00    -0.347 N 
ATOM     10  H4  UNL     1     -14.359   8.636  -8.073  1.00  0.00     0.167 HD
HETATM   11  C15 UNL     1     -15.341   8.889  -6.203  1.00  0.00     0.074 A 
HETATM   12  C16 UNL     1     -15.933   7.770  -5.713  1.00  0.00     0.103 A 
HETATM   13  C17 UNL     1     -15.927   6.454  -6.383  1.00  0.00     0.104 C 
HETATM   14  N5  UNL     1     -15.913   5.413  -6.933  1.00  0.00    -0.191 NA
HETATM   15  C18 UNL     1     -16.577   7.887  -4.510  1.00  0.00     0.111 A 
HETATM   16  N6  UNL     1     -17.282   6.859  -3.773  1.00  0.00    -0.093 NA
HETATM   17  S1  UNL     1     -16.341   9.528  -4.104  1.00  0.00    -0.070 SA
HETATM   18  C19 UNL     1     -15.438  10.025  -5.459  1.00  0.00     0.051 A 
HETATM   19  S2  UNL     1     -13.424  11.688  -8.203  1.00  0.00    -0.058 SA
ENDROOT
BRANCH   1  20
HETATM   20  C3  UNL     1     -12.706  14.435  -8.097  1.00  0.00     0.065 C 
BRANCH  20  21
HETATM   21  C2  UNL     1     -12.539  14.249  -9.598  1.00  0.00     0.002 C 
HETATM   22  C1  UNL     1     -11.210  13.667  -9.950  1.00  0.00     0.005 C 
ENDBRANCH  20  21
ENDBRANCH   1  20
BRANCH   5  23
HETATM   23  C6  UNL     1     -15.088  14.054  -4.055  1.00  0.00     0.140 C 
BRANCH  23  24
HETATM   24  C7  UNL     1     -15.807  14.239  -2.727  1.00  0.00     0.136 C 
BRANCH  24  25
HETATM   25  N3  UNL     1     -14.824  14.371  -1.705  1.00  0.00    -0.411 N 
HETATM   26  C8  UNL     1     -14.652  15.656  -1.137  1.00  0.00     0.117 C 
HETATM   27  C9  UNL     1     -14.796  15.551   0.367  1.00  0.00     0.019 C 
HETATM   28  C10 UNL     1     -13.612  14.743   0.852  1.00  0.00     0.003 C 
HETATM   29  C11 UNL     1     -13.595  13.391   0.178  1.00  0.00     0.019 C 
HETATM   30  C12 UNL     1     -14.707  13.253  -0.837  1.00  0.00     0.117 C 
ENDBRANCH  24  25
ENDBRANCH  23  24
ENDBRANCH   5  23
TORSDOF 5
ENDMDL
