MODEL 1
REMARK VINA RESULT: -6.782166325      0.000      0.000
REMARK  4 active torsions:
REMARK  status: ('A' for Active; 'I' for Inactive)
REMARK    1  A    between atoms: N1_2  and  C2_4 
REMARK    2  A    between atoms: C4_7  and  N2_8 
REMARK    3  A    between atoms: C7_17  and  N5_18 
REMARK    4  A    between atoms: N9_29  and  C10_30 
ROOT
HETATM    1  C2  UNL     1       2.605  14.316  14.439  1.00  0.00     0.132 A 
HETATM    2  C3  UNL     1       2.816  13.076  15.059  1.00  0.00     0.097 A 
HETATM    3  S1  UNL     1       2.149  11.506  14.896  1.00  0.00    -0.047 SA
HETATM    4  C4  UNL     1       3.070  10.719  16.087  1.00  0.00     0.144 A 
HETATM    5  N3  UNL     1       3.848  11.676  16.563  1.00  0.00    -0.322 N 
ATOM      6  H3  UNL     1       4.518  11.484  17.307  1.00  0.00     0.169 HD
HETATM    7  C5  UNL     1       3.734  12.882  16.053  1.00  0.00     0.130 A 
HETATM    8  N4  UNL     1       4.454  13.998  16.418  1.00  0.00    -0.324 N 
ATOM      9  H4  UNL     1       5.155  13.925  17.154  1.00  0.00     0.169 HD
HETATM   10  C6  UNL     1       4.243  15.176  15.819  1.00  0.00     0.161 A 
HETATM   11  C7  UNL     1       5.006  16.282  16.230  1.00  0.00     0.146 A 
HETATM   12  N6  UNL     1       4.831  17.475  15.661  1.00  0.00    -0.322 N 
ATOM     13  H6  UNL     1       5.388  18.273  15.965  1.00  0.00     0.169 HD
HETATM   14  C8  UNL     1       3.919  17.625  14.689  1.00  0.00     0.172 A 
HETATM   15  C9  UNL     1       3.150  16.565  14.256  1.00  0.00     0.177 A 
HETATM   16  N7  UNL     1       2.322  16.974  13.282  1.00  0.00    -0.267 N 
ATOM     17  H7  UNL     1       1.641  16.409  12.775  1.00  0.00     0.190 HD
HETATM   18  N8  UNL     1       2.570  18.249  13.116  1.00  0.00    -0.237 N 
ATOM     19  H8  UNL     1       2.092  18.841  12.437  1.00  0.00     0.208 HD
HETATM   20  N9  UNL     1       3.526  18.679  13.944  1.00  0.00    -0.255 N 
HETATM   21  N10 UNL     1       3.350  15.397  14.841  1.00  0.00    -0.260 N 
ENDROOT
BRANCH   1  22
HETATM   22  N1  UNL     1       1.740  14.433  13.524  1.00  0.00    -0.379 N 
HETATM   23  C1  UNL     1       1.091  13.374  12.832  1.00  0.00     0.147 C 
ATOM     24  H1  UNL     1       1.482  15.383  13.255  1.00  0.00     0.160 HD
ENDBRANCH   1  22
BRANCH   4  25
HETATM   25  N2  UNL     1       3.066   9.468  16.493  1.00  0.00    -0.380 N 
ATOM     26  H22 UNL     1       3.757   8.762  16.242  1.00  0.00     0.158 HD
ATOM     27  H21 UNL     1       2.421   8.965  17.103  1.00  0.00     0.158 HD
ENDBRANCH   4  25
BRANCH  11  28
HETATM   28  N5  UNL     1       5.879  16.126  17.167  1.00  0.00    -0.382 N 
ATOM     29  H52 UNL     1       6.805  15.755  16.955  1.00  0.00     0.157 HD
ATOM     30  H51 UNL     1       5.629  16.380  18.124  1.00  0.00     0.157 HD
ENDBRANCH  11  28
BRANCH  20  31
HETATM   31  C10 UNL     1       4.035  20.012  14.025  1.00  0.00     0.103 C 
HETATM   32  C11 UNL     1       5.502  19.997  13.652  1.00  0.00     0.034 C 
HETATM   33  C12 UNL     1       3.943  20.598  15.418  1.00  0.00     0.034 C 
ENDBRANCH  20  31
TORSDOF 4
ENDMDL
MODEL 2
REMARK VINA RESULT: -6.456446194      2.518      6.283
REMARK  4 active torsions:
REMARK  status: ('A' for Active; 'I' for Inactive)
REMARK    1  A    between atoms: N1_2  and  C2_4 
REMARK    2  A    between atoms: C4_7  and  N2_8 
REMARK    3  A    between atoms: C7_17  and  N5_18 
REMARK    4  A    between atoms: N9_29  and  C10_30 
ROOT
HETATM    1  C2  UNL     1       3.355  17.142  13.408  1.00  0.00     0.132 A 
HETATM    2  C3  UNL     1       4.059  18.306  13.749  1.00  0.00     0.097 A 
HETATM    3  S1  UNL     1       4.488  19.751  12.933  1.00  0.00    -0.047 SA
HETATM    4  C4  UNL     1       5.323  20.514  14.199  1.00  0.00     0.144 A 
HETATM    5  N3  UNL     1       5.246  19.645  15.192  1.00  0.00    -0.322 N 
ATOM      6  H3  UNL     1       5.672  19.845  16.097  1.00  0.00     0.169 HD
HETATM    7  C5  UNL     1       4.607  18.516  14.984  1.00  0.00     0.130 A 
HETATM    8  N4  UNL     1       4.424  17.497  15.891  1.00  0.00    -0.324 N 
ATOM      9  H4  UNL     1       4.808  17.587  16.832  1.00  0.00     0.169 HD
HETATM   10  C6  UNL     1       3.750  16.391  15.555  1.00  0.00     0.161 A 
HETATM   11  C7  UNL     1       3.594  15.382  16.520  1.00  0.00     0.146 A 
HETATM   12  N6  UNL     1       2.930  14.263  16.229  1.00  0.00    -0.322 N 
ATOM     13  H6  UNL     1       2.820  13.536  16.936  1.00  0.00     0.169 HD
HETATM   14  C8  UNL     1       2.407  14.094  15.006  1.00  0.00     0.172 A 
HETATM   15  C9  UNL     1       2.539  15.059  14.030  1.00  0.00     0.177 A 
HETATM   16  N7  UNL     1       1.931  14.651  12.904  1.00  0.00    -0.267 N 
ATOM     17  H7  UNL     1       1.866  15.158  12.021  1.00  0.00     0.190 HD
HETATM   18  N8  UNL     1       1.437  13.470  13.175  1.00  0.00    -0.237 N 
ATOM     19  H8  UNL     1       0.914  12.902  12.509  1.00  0.00     0.208 HD
HETATM   20  N9  UNL     1       1.702  13.099  14.430  1.00  0.00    -0.255 N 
HETATM   21  N10 UNL     1       3.202  16.157  14.352  1.00  0.00    -0.260 N 
ENDROOT
BRANCH   1  22
HETATM   22  N1  UNL     1       2.871  17.005  12.248  1.00  0.00    -0.379 N 
HETATM   23  C1  UNL     1       3.596  16.995  11.025  1.00  0.00     0.147 C 
ATOM     24  H1  UNL     1       1.860  16.890  12.184  1.00  0.00     0.160 HD
ENDBRANCH   1  22
BRANCH   4  25
HETATM   25  N2  UNL     1       5.927  21.682  14.253  1.00  0.00    -0.380 N 
ATOM     26  H22 UNL     1       6.196  22.169  15.108  1.00  0.00     0.158 HD
ATOM     27  H21 UNL     1       6.237  22.309  13.511  1.00  0.00     0.158 HD
ENDBRANCH   4  25
BRANCH  11  28
HETATM   28  N5  UNL     1       4.102  15.555  17.694  1.00  0.00    -0.382 N 
ATOM     29  H52 UNL     1       4.111  16.481  18.122  1.00  0.00     0.157 HD
ATOM     30  H51 UNL     1       4.494  14.752  18.186  1.00  0.00     0.157 HD
ENDBRANCH  11  28
BRANCH  20  31
HETATM   31  C10 UNL     1       1.311  11.870  15.048  1.00  0.00     0.103 C 
HETATM   32  C11 UNL     1       2.548  11.036  15.302  1.00  0.00     0.034 C 
HETATM   33  C12 UNL     1       0.391  11.037  14.181  1.00  0.00     0.034 C 
ENDBRANCH  20  31
TORSDOF 4
ENDMDL
MODEL 3
REMARK VINA RESULT: -5.374214100      1.665      3.465
REMARK  4 active torsions:
REMARK  status: ('A' for Active; 'I' for Inactive)
REMARK    1  A    between atoms: N1_2  and  C2_4 
REMARK    2  A    between atoms: C4_7  and  N2_8 
REMARK    3  A    between atoms: C7_17  and  N5_18 
REMARK    4  A    between atoms: N9_29  and  C10_30 
ROOT
HETATM    1  C2  UNL     1       2.670  13.632  15.176  1.00  0.00     0.132 A 
HETATM    2  C3  UNL     1       1.787  12.693  14.625  1.00  0.00     0.097 A 
HETATM    3  S1  UNL     1       1.329  11.085  15.003  1.00  0.00    -0.047 SA
HETATM    4  C4  UNL     1       0.212  10.842  13.748  1.00  0.00     0.144 A 
HETATM    5  N3  UNL     1       0.228  11.988  13.090  1.00  0.00    -0.322 N 
ATOM      6  H3  UNL     1      -0.361  12.128  12.269  1.00  0.00     0.169 HD
HETATM    7  C5  UNL     1       1.021  12.943  13.520  1.00  0.00     0.130 A 
HETATM    8  N4  UNL     1       1.172  14.195  12.968  1.00  0.00    -0.324 N 
ATOM      9  H4  UNL     1       0.632  14.448  12.141  1.00  0.00     0.169 HD
HETATM   10  C6  UNL     1       2.019  15.083  13.503  1.00  0.00     0.161 A 
HETATM   11  C7  UNL     1       2.133  16.346  12.899  1.00  0.00     0.146 A 
HETATM   12  N6  UNL     1       2.964  17.263  13.398  1.00  0.00    -0.322 N 
ATOM     13  H6  UNL     1       3.041  18.178  12.954  1.00  0.00     0.169 HD
HETATM   14  C8  UNL     1       3.698  16.980  14.484  1.00  0.00     0.172 A 
HETATM   15  C9  UNL     1       3.615  15.752  15.106  1.00  0.00     0.177 A 
HETATM   16  N7  UNL     1       4.444  15.722  16.162  1.00  0.00    -0.267 N 
ATOM     17  H7  UNL     1       4.592  14.945  16.807  1.00  0.00     0.190 HD
HETATM   18  N8  UNL     1       5.023  16.895  16.193  1.00  0.00    -0.237 N 
ATOM     19  H8  UNL     1       5.712  17.175  16.891  1.00  0.00     0.208 HD
HETATM   20  N9  UNL     1       4.600  17.682  15.199  1.00  0.00    -0.255 N 
HETATM   21  N10 UNL     1       2.782  14.867  14.586  1.00  0.00    -0.260 N 
ENDROOT
BRANCH   1  22
HETATM   22  N1  UNL     1       3.352  13.343  16.200  1.00  0.00    -0.379 N 
HETATM   23  C1  UNL     1       4.318  12.305  16.308  1.00  0.00     0.147 C 
ATOM     24  H1  UNL     1       3.194  13.910  17.033  1.00  0.00     0.160 HD
ENDBRANCH   1  22
BRANCH   4  25
HETATM   25  N2  UNL     1      -0.526   9.797  13.441  1.00  0.00    -0.380 N 
ATOM     26  H22 UNL     1      -0.561   8.923  13.966  1.00  0.00     0.158 HD
ATOM     27  H21 UNL     1      -1.177   9.640  12.671  1.00  0.00     0.158 HD
ENDBRANCH   4  25
BRANCH  11  28
HETATM   28  N5  UNL     1       1.423  16.608  11.854  1.00  0.00    -0.382 N 
ATOM     29  H52 UNL     1       0.762  17.385  11.860  1.00  0.00     0.157 HD
ATOM     30  H51 UNL     1       1.532  16.026  11.023  1.00  0.00     0.157 HD
ENDBRANCH  11  28
BRANCH  20  31
HETATM   31  C10 UNL     1       5.029  19.021  14.943  1.00  0.00     0.103 C 
HETATM   32  C11 UNL     1       3.857  19.956  15.152  1.00  0.00     0.034 C 
HETATM   33  C12 UNL     1       5.508  19.229  13.522  1.00  0.00     0.034 C 
ENDBRANCH  20  31
TORSDOF 4
ENDMDL
MODEL 4
REMARK VINA RESULT: -5.342406349      1.299      3.014
REMARK  4 active torsions:
REMARK  status: ('A' for Active; 'I' for Inactive)
REMARK    1  A    between atoms: N1_2  and  C2_4 
REMARK    2  A    between atoms: C4_7  and  N2_8 
REMARK    3  A    between atoms: C7_17  and  N5_18 
REMARK    4  A    between atoms: N9_29  and  C10_30 
ROOT
HETATM    1  C2  UNL     1       3.971  14.610  15.476  1.00  0.00     0.132 A 
HETATM    2  C3  UNL     1       3.323  13.382  15.280  1.00  0.00     0.097 A 
HETATM    3  S1  UNL     1       3.519  11.792  15.889  1.00  0.00    -0.047 SA
HETATM    4  C4  UNL     1       2.252  11.042  15.043  1.00  0.00     0.144 A 
HETATM    5  N3  UNL     1       1.729  12.025  14.330  1.00  0.00    -0.322 N 
ATOM      6  H3  UNL     1       0.934  11.858  13.713  1.00  0.00     0.169 HD
HETATM    7  C5  UNL     1       2.259  13.223  14.437  1.00  0.00     0.130 A 
HETATM    8  N4  UNL     1       1.852  14.361  13.778  1.00  0.00    -0.324 N 
ATOM      9  H4  UNL     1       1.064  14.314  13.132  1.00  0.00     0.169 HD
HETATM   10  C6  UNL     1       2.479  15.528  13.974  1.00  0.00     0.161 A 
HETATM   11  C7  UNL     1       2.022  16.658  13.275  1.00  0.00     0.146 A 
HETATM   12  N6  UNL     1       2.615  17.841  13.439  1.00  0.00    -0.322 N 
ATOM     13  H6  UNL     1       2.277  18.657  12.929  1.00  0.00     0.169 HD
HETATM   14  C8  UNL     1       3.657  17.957  14.276  1.00  0.00     0.172 A 
HETATM   15  C9  UNL     1       4.136  16.872  14.979  1.00  0.00     0.177 A 
HETATM   16  N7  UNL     1       5.176  17.249  15.741  1.00  0.00    -0.267 N 
ATOM     17  H7  UNL     1       5.726  16.660  16.367  1.00  0.00     0.190 HD
HETATM   18  N8  UNL     1       5.336  18.528  15.517  1.00  0.00    -0.237 N 
ATOM     19  H8  UNL     1       6.055  19.101  15.957  1.00  0.00     0.208 HD
HETATM   20  N9  UNL     1       4.441  18.992  14.640  1.00  0.00    -0.255 N 
HETATM   21  N10 UNL     1       3.525  15.714  14.794  1.00  0.00    -0.260 N 
ENDROOT
BRANCH   1  22
HETATM   22  N1  UNL     1       4.951  14.694  16.270  1.00  0.00    -0.379 N 
HETATM   23  C1  UNL     1       6.273  14.225  16.036  1.00  0.00     0.147 C 
ATOM     24  H1  UNL     1       4.777  15.145  17.169  1.00  0.00     0.160 HD
ENDBRANCH   1  22
BRANCH   4  25
HETATM   25  N2  UNL     1       1.834   9.795  15.043  1.00  0.00    -0.380 N 
ATOM     26  H22 UNL     1       2.397   8.983  15.299  1.00  0.00     0.158 HD
ATOM     27  H21 UNL     1       0.927   9.393  14.808  1.00  0.00     0.158 HD
ENDBRANCH   4  25
BRANCH  11  28
HETATM   28  N5  UNL     1       1.019  16.535  12.472  1.00  0.00    -0.382 N 
ATOM     29  H52 UNL     1       0.410  15.719  12.527  1.00  0.00     0.157 HD
ATOM     30  H51 UNL     1       0.846  17.266  11.782  1.00  0.00     0.157 HD
ENDBRANCH  11  28
BRANCH  20  31
HETATM   31  C10 UNL     1       4.336  20.339  14.174  1.00  0.00     0.103 C 
HETATM   32  C11 UNL     1       5.692  20.792  13.679  1.00  0.00     0.034 C 
HETATM   33  C12 UNL     1       3.918  21.311  15.257  1.00  0.00     0.034 C 
ENDBRANCH  20  31
TORSDOF 4
ENDMDL
MODEL 5
REMARK VINA RESULT: -5.036341591      2.293      6.887
REMARK  4 active torsions:
REMARK  status: ('A' for Active; 'I' for Inactive)
REMARK    1  A    between atoms: N1_2  and  C2_4 
REMARK    2  A    between atoms: C4_7  and  N2_8 
REMARK    3  A    between atoms: C7_17  and  N5_18 
REMARK    4  A    between atoms: N9_29  and  C10_30 
ROOT
HETATM    1  C2  UNL     1       4.329  16.774  15.469  1.00  0.00     0.132 A 
HETATM    2  C3  UNL     1       4.414  18.075  14.950  1.00  0.00     0.097 A 
HETATM    3  S1  UNL     1       5.240  19.509  15.394  1.00  0.00    -0.047 SA
HETATM    4  C4  UNL     1       4.691  20.512  14.138  1.00  0.00     0.144 A 
HETATM    5  N3  UNL     1       3.902  19.721  13.430  1.00  0.00    -0.322 N 
ATOM      6  H3  UNL     1       3.425  20.068  12.598  1.00  0.00     0.169 HD
HETATM    7  C5  UNL     1       3.748  18.478  13.827  1.00  0.00     0.130 A 
HETATM    8  N4  UNL     1       2.973  17.514  13.222  1.00  0.00    -0.324 N 
ATOM      9  H4  UNL     1       2.448  17.747  12.379  1.00  0.00     0.169 HD
HETATM   10  C6  UNL     1       2.899  16.277  13.727  1.00  0.00     0.161 A 
HETATM   11  C7  UNL     1       2.093  15.333  13.069  1.00  0.00     0.146 A 
HETATM   12  N6  UNL     1       1.989  14.088  13.536  1.00  0.00    -0.322 N 
ATOM     13  H6  UNL     1       1.402  13.408  13.053  1.00  0.00     0.169 HD
HETATM   14  C8  UNL     1       2.658  13.730  14.642  1.00  0.00     0.172 A 
HETATM   15  C9  UNL     1       3.460  14.627  15.317  1.00  0.00     0.177 A 
HETATM   16  N7  UNL     1       4.015  14.026  16.382  1.00  0.00    -0.267 N 
ATOM     17  H7  UNL     1       4.651  14.443  17.061  1.00  0.00     0.190 HD
HETATM   18  N8  UNL     1       3.570  12.795  16.368  1.00  0.00    -0.237 N 
ATOM     19  H8  UNL     1       3.819  12.089  17.059  1.00  0.00     0.208 HD
HETATM   20  N9  UNL     1       2.751  12.577  15.335  1.00  0.00    -0.255 N 
HETATM   21  N10 UNL     1       3.541  15.852  14.827  1.00  0.00    -0.260 N 
ENDROOT
BRANCH   1  22
HETATM   22  N1  UNL     1       4.969  16.461  16.513  1.00  0.00    -0.379 N 
HETATM   23  C1  UNL     1       4.505  16.564  17.853  1.00  0.00     0.147 C 
ATOM     24  H1  UNL     1       5.912  16.097  16.381  1.00  0.00     0.160 HD
ENDBRANCH   1  22
BRANCH   4  25
HETATM   25  N2  UNL     1       4.943  21.775  13.870  1.00  0.00    -0.380 N 
ATOM     26  H22 UNL     1       5.865  22.167  13.684  1.00  0.00     0.158 HD
ATOM     27  H21 UNL     1       4.320  22.579  13.793  1.00  0.00     0.158 HD
ENDBRANCH   4  25
BRANCH  11  28
HETATM   28  N5  UNL     1       1.452  15.688  12.006  1.00  0.00    -0.382 N 
ATOM     29  H52 UNL     1       0.678  16.349  12.066  1.00  0.00     0.157 HD
ATOM     30  H51 UNL     1       1.732  15.296  11.107  1.00  0.00     0.157 HD
ENDBRANCH  11  28
BRANCH  20  31
HETATM   31  C10 UNL     1       2.092  11.347  15.025  1.00  0.00     0.103 C 
HETATM   32  C11 UNL     1       0.598  11.550  15.143  1.00  0.00     0.034 C 
HETATM   33  C12 UNL     1       2.459  10.223  15.971  1.00  0.00     0.034 C 
ENDBRANCH  20  31
TORSDOF 4
ENDMDL
