MODEL 1
REMARK VINA RESULT: -8.632564463      0.000      0.000
REMARK  9 active torsions:
REMARK  status: ('A' for Active; 'I' for Inactive)
REMARK    1  A    between atoms: C2_3  and  N2_4 
REMARK    2  A    between atoms: N2_4  and  N3_6 
REMARK    3  A    between atoms: N3_6  and  C3_8 
REMARK    4  A    between atoms: C4_11  and  N5_12 
REMARK    5  A    between atoms: C5_17  and  C6_18 
REMARK    6  A    between atoms: N8_20  and  N9_22 
REMARK    7  A    between atoms: C7_24  and  C8_25 
REMARK    8  A    between atoms: C11_28  and  N10_29 
REMARK    9  A    between atoms: C12_33  and  N11_34 
ROOT
HETATM    1  N1  UNL     1      21.959   4.187 -26.098  1.00  0.00    -0.196 NA
HETATM    2  C1  UNL     1      22.702   3.870 -25.271  1.00  0.00     0.080 C 
HETATM    3  C2  UNL     1      23.679   3.456 -24.215  1.00  0.00     0.263 C 
ENDROOT
BRANCH   3   4
HETATM    4  N2  UNL     1      24.586   2.445 -24.705  1.00  0.00    -0.322 N 
ATOM      5  H2  UNL     1      24.169   1.539 -24.918  1.00  0.00     0.181 HD
BRANCH   4   6
HETATM    6  N3  UNL     1      25.877   2.543 -24.910  1.00  0.00    -0.286 N 
ATOM      7  H3  UNL     1      26.094   3.464 -25.291  1.00  0.00     0.188 HD
BRANCH   6   8
HETATM    8  C3  UNL     1      26.930   1.878 -24.793  1.00  0.00     0.171 A 
HETATM    9  N4  UNL     1      27.099   0.775 -24.056  1.00  0.00    -0.173 N 
HETATM   10  C4  UNL     1      28.267   0.112 -23.980  1.00  0.00     0.678 A 
ATOM     11  H4  UNL     1      26.303   0.420 -23.526  1.00  0.00     0.186 HD
HETATM   12  N6  UNL     1      29.321   0.557 -24.662  1.00  0.00    -0.186 N 
HETATM   13  C5  UNL     1      29.285   1.671 -25.451  1.00  0.00     0.128 A 
ATOM     14  H6  UNL     1      30.197   0.041 -24.590  1.00  0.00     0.184 HD
HETATM   15  C12 UNL     1      28.090   2.316 -25.506  1.00  0.00     0.179 A 
BRANCH  10  16
HETATM   16  N5  UNL     1      28.372  -0.959 -23.246  1.00  0.00    -0.234 N 
ATOM     17  H52 UNL     1      29.294  -1.296 -22.967  1.00  0.00     0.174 HD
ATOM     18  H51 UNL     1      27.539  -1.465 -22.946  1.00  0.00     0.174 HD
ENDBRANCH  10  16
BRANCH  13  19
HETATM   19  C6  UNL     1      30.489   2.089 -26.131  1.00  0.00     0.161 C 
HETATM   20  N7  UNL     1      31.391   3.017 -25.577  1.00  0.00    -0.079 NA
HETATM   21  N8  UNL     1      30.727   1.554 -27.298  1.00  0.00    -0.286 N 
ATOM     22  H8  UNL     1      30.057   0.877 -27.664  1.00  0.00     0.188 HD
BRANCH  21  23
HETATM   23  N9  UNL     1      31.828   1.852 -28.058  1.00  0.00    -0.308 N 
HETATM   24  C7  UNL     1      31.878   2.461 -29.167  1.00  0.00     0.144 C 
ATOM     25  H9  UNL     1      32.724   1.542 -27.681  1.00  0.00     0.186 HD
BRANCH  24  26
HETATM   26  C8  UNL     1      33.204   2.658 -29.790  1.00  0.00     0.095 A 
HETATM   27  C9  UNL     1      34.186   3.533 -29.377  1.00  0.00     0.043 A 
HETATM   28  C10 UNL     1      35.239   3.400 -30.219  1.00  0.00     0.065 A 
HETATM   29  C11 UNL     1      34.895   2.444 -31.140  1.00  0.00     0.215 A 
HETATM   30  O3  UNL     1      33.685   2.041 -30.840  1.00  0.00    -0.287 OA
BRANCH  29  31
HETATM   31  N10 UNL     1      35.718   1.982 -32.227  1.00  0.00    -0.090 N 
HETATM   32  O1  UNL     1      36.413   0.980 -32.080  1.00  0.00    -0.530 OA
HETATM   33  O2  UNL     1      35.740   2.639 -33.427  1.00  0.00    -0.530 OA
ENDBRANCH  29  31
ENDBRANCH  24  26
ENDBRANCH  21  23
ENDBRANCH  13  19
BRANCH  15  34
HETATM   34  N11 UNL     1      27.894   3.460 -26.304  1.00  0.00    -0.109 N 
HETATM   35  O4  UNL     1      28.010   4.599 -25.819  1.00  0.00    -0.532 OA
HETATM   36  O5  UNL     1      27.566   3.338 -27.616  1.00  0.00    -0.532 OA
ENDBRANCH  15  34
ENDBRANCH   6   8
ENDBRANCH   4   6
ENDBRANCH   3   4
TORSDOF 9
ENDMDL
MODEL 2
REMARK VINA RESULT: -8.565388192      1.109      1.392
REMARK  9 active torsions:
REMARK  status: ('A' for Active; 'I' for Inactive)
REMARK    1  A    between atoms: C2_3  and  N2_4 
REMARK    2  A    between atoms: N2_4  and  N3_6 
REMARK    3  A    between atoms: N3_6  and  C3_8 
REMARK    4  A    between atoms: C4_11  and  N5_12 
REMARK    5  A    between atoms: C5_17  and  C6_18 
REMARK    6  A    between atoms: N8_20  and  N9_22 
REMARK    7  A    between atoms: C7_24  and  C8_25 
REMARK    8  A    between atoms: C11_28  and  N10_29 
REMARK    9  A    between atoms: C12_33  and  N11_34 
ROOT
HETATM    1  N1  UNL     1      22.116   4.372 -26.115  1.00  0.00    -0.196 NA
HETATM    2  C1  UNL     1      22.806   3.973 -25.278  1.00  0.00     0.080 C 
HETATM    3  C2  UNL     1      23.717   3.455 -24.208  1.00  0.00     0.263 C 
ENDROOT
BRANCH   3   4
HETATM    4  N2  UNL     1      24.610   2.443 -24.723  1.00  0.00    -0.322 N 
ATOM      5  H2  UNL     1      24.173   1.562 -24.996  1.00  0.00     0.181 HD
BRANCH   4   6
HETATM    6  N3  UNL     1      25.908   2.512 -24.884  1.00  0.00    -0.286 N 
ATOM      7  H3  UNL     1      26.163   3.442 -25.216  1.00  0.00     0.188 HD
BRANCH   6   8
HETATM    8  C3  UNL     1      26.939   1.812 -24.765  1.00  0.00     0.171 A 
HETATM    9  N4  UNL     1      27.103   0.770 -23.943  1.00  0.00    -0.173 N 
HETATM   10  C4  UNL     1      28.245   0.062 -23.871  1.00  0.00     0.678 A 
ATOM     11  H4  UNL     1      26.325   0.498 -23.342  1.00  0.00     0.186 HD
HETATM   12  N6  UNL     1      29.276   0.398 -24.644  1.00  0.00    -0.186 N 
HETATM   13  C5  UNL     1      29.241   1.440 -25.526  1.00  0.00     0.128 A 
ATOM     14  H6  UNL     1      30.133  -0.150 -24.574  1.00  0.00     0.184 HD
HETATM   15  C12 UNL     1      28.073   2.132 -25.575  1.00  0.00     0.179 A 
BRANCH  10  16
HETATM   16  N5  UNL     1      28.348  -0.945 -23.051  1.00  0.00    -0.234 N 
ATOM     17  H52 UNL     1      28.041  -0.848 -22.083  1.00  0.00     0.174 HD
ATOM     18  H51 UNL     1      28.734  -1.834 -23.369  1.00  0.00     0.174 HD
ENDBRANCH  10  16
BRANCH  13  19
HETATM   19  C6  UNL     1      30.421   1.742 -26.303  1.00  0.00     0.161 C 
HETATM   20  N7  UNL     1      31.445   2.585 -25.833  1.00  0.00    -0.079 NA
HETATM   21  N8  UNL     1      30.516   1.181 -27.479  1.00  0.00    -0.286 N 
ATOM     22  H8  UNL     1      29.760   0.567 -27.783  1.00  0.00     0.188 HD
BRANCH  21  23
HETATM   23  N9  UNL     1      31.576   1.373 -28.326  1.00  0.00    -0.308 N 
HETATM   24  C7  UNL     1      31.609   1.252 -29.586  1.00  0.00     0.144 C 
ATOM     25  H9  UNL     1      32.453   1.648 -27.884  1.00  0.00     0.186 HD
BRANCH  24  26
HETATM   26  C8  UNL     1      32.889   1.518 -30.275  1.00  0.00     0.095 A 
HETATM   27  C9  UNL     1      33.050   2.011 -31.552  1.00  0.00     0.043 A 
HETATM   28  C10 UNL     1      34.380   2.105 -31.794  1.00  0.00     0.065 A 
HETATM   29  C11 UNL     1      35.023   1.669 -30.664  1.00  0.00     0.215 A 
HETATM   30  O3  UNL     1      34.096   1.336 -29.800  1.00  0.00    -0.287 OA
BRANCH  29  31
HETATM   31  N10 UNL     1      36.448   1.597 -30.476  1.00  0.00    -0.090 N 
HETATM   32  O1  UNL     1      37.022   2.472 -29.833  1.00  0.00    -0.530 OA
HETATM   33  O2  UNL     1      37.180   0.568 -31.002  1.00  0.00    -0.530 OA
ENDBRANCH  29  31
ENDBRANCH  24  26
ENDBRANCH  21  23
ENDBRANCH  13  19
BRANCH  15  34
HETATM   34  N11 UNL     1      27.879   3.211 -26.459  1.00  0.00    -0.109 N 
HETATM   35  O4  UNL     1      27.633   3.009 -27.661  1.00  0.00    -0.532 OA
HETATM   36  O5  UNL     1      27.968   4.491 -26.016  1.00  0.00    -0.532 OA
ENDBRANCH  15  34
ENDBRANCH   6   8
ENDBRANCH   4   6
ENDBRANCH   3   4
TORSDOF 9
ENDMDL
MODEL 3
REMARK VINA RESULT: -8.174988752      4.881      9.025
REMARK  9 active torsions:
REMARK  status: ('A' for Active; 'I' for Inactive)
REMARK    1  A    between atoms: C2_3  and  N2_4 
REMARK    2  A    between atoms: N2_4  and  N3_6 
REMARK    3  A    between atoms: N3_6  and  C3_8 
REMARK    4  A    between atoms: C4_11  and  N5_12 
REMARK    5  A    between atoms: C5_17  and  C6_18 
REMARK    6  A    between atoms: N8_20  and  N9_22 
REMARK    7  A    between atoms: C7_24  and  C8_25 
REMARK    8  A    between atoms: C11_28  and  N10_29 
REMARK    9  A    between atoms: C12_33  and  N11_34 
ROOT
HETATM    1  N1  UNL     1      31.316   1.280 -19.440  1.00  0.00    -0.196 NA
HETATM    2  C1  UNL     1      32.004   1.755 -20.238  1.00  0.00     0.080 C 
HETATM    3  C2  UNL     1      32.881   2.386 -21.275  1.00  0.00     0.263 C 
ENDROOT
BRANCH   3   4
HETATM    4  N2  UNL     1      32.099   2.960 -22.345  1.00  0.00    -0.322 N 
ATOM      5  H2  UNL     1      32.041   3.978 -22.357  1.00  0.00     0.181 HD
BRANCH   4   6
HETATM    6  N3  UNL     1      31.456   2.340 -23.304  1.00  0.00    -0.286 N 
ATOM      7  H3  UNL     1      32.060   2.254 -24.121  1.00  0.00     0.188 HD
BRANCH   6   8
HETATM    8  C3  UNL     1      30.345   1.818 -23.546  1.00  0.00     0.171 A 
HETATM    9  N4  UNL     1      29.937   0.602 -23.171  1.00  0.00    -0.173 N 
HETATM   10  C4  UNL     1      28.722   0.108 -23.470  1.00  0.00     0.678 A 
ATOM     11  H4  UNL     1      30.577   0.020 -22.632  1.00  0.00     0.186 HD
HETATM   12  N6  UNL     1      27.867   0.848 -24.174  1.00  0.00    -0.186 N 
HETATM   13  C5  UNL     1      28.158   2.106 -24.620  1.00  0.00     0.128 A 
ATOM     14  H6  UNL     1      26.951   0.456 -24.392  1.00  0.00     0.184 HD
HETATM   15  C12 UNL     1      29.392   2.574 -24.300  1.00  0.00     0.179 A 
BRANCH  10  16
HETATM   16  N5  UNL     1      28.377  -1.085 -23.077  1.00  0.00    -0.234 N 
ATOM     17  H52 UNL     1      28.544  -1.371 -22.111  1.00  0.00     0.174 HD
ATOM     18  H51 UNL     1      27.941  -1.739 -23.727  1.00  0.00     0.174 HD
ENDBRANCH  10  16
BRANCH  13  19
HETATM   19  C6  UNL     1      27.173   2.819 -25.400  1.00  0.00     0.161 C 
HETATM   20  N7  UNL     1      27.377   3.164 -26.749  1.00  0.00    -0.079 NA
HETATM   21  N8  UNL     1      26.054   3.128 -24.802  1.00  0.00    -0.286 N 
ATOM     22  H8  UNL     1      25.936   2.853 -23.827  1.00  0.00     0.188 HD
BRANCH  21  23
HETATM   23  N9  UNL     1      25.029   3.802 -25.414  1.00  0.00    -0.308 N 
HETATM   24  C7  UNL     1      23.797   3.799 -25.119  1.00  0.00     0.144 C 
ATOM     25  H9  UNL     1      25.293   4.382 -26.211  1.00  0.00     0.186 HD
BRANCH  24  26
HETATM   26  C8  UNL     1      22.886   4.620 -25.943  1.00  0.00     0.095 A 
HETATM   27  C9  UNL     1      21.519   4.476 -26.051  1.00  0.00     0.043 A 
HETATM   28  C10 UNL     1      21.069   5.427 -26.905  1.00  0.00     0.065 A 
HETATM   29  C11 UNL     1      22.163   6.145 -27.314  1.00  0.00     0.215 A 
HETATM   30  O3  UNL     1      23.207   5.627 -26.716  1.00  0.00    -0.287 OA
BRANCH  29  31
HETATM   31  N10 UNL     1      22.152   7.257 -28.228  1.00  0.00    -0.090 N 
HETATM   32  O1  UNL     1      22.751   8.289 -27.938  1.00  0.00    -0.530 OA
HETATM   33  O2  UNL     1      21.483   7.186 -29.420  1.00  0.00    -0.530 OA
ENDBRANCH  29  31
ENDBRANCH  24  26
ENDBRANCH  21  23
ENDBRANCH  13  19
BRANCH  15  34
HETATM   34  N11 UNL     1      29.820   3.865 -24.663  1.00  0.00    -0.109 N 
HETATM   35  O4  UNL     1      30.218   4.100 -25.817  1.00  0.00    -0.532 OA
HETATM   36  O5  UNL     1      29.814   4.875 -23.755  1.00  0.00    -0.532 OA
ENDBRANCH  15  34
ENDBRANCH   6   8
ENDBRANCH   4   6
ENDBRANCH   3   4
TORSDOF 9
ENDMDL
MODEL 4
REMARK VINA RESULT: -8.082724915      3.931      4.632
REMARK  9 active torsions:
REMARK  status: ('A' for Active; 'I' for Inactive)
REMARK    1  A    between atoms: C2_3  and  N2_4 
REMARK    2  A    between atoms: N2_4  and  N3_6 
REMARK    3  A    between atoms: N3_6  and  C3_8 
REMARK    4  A    between atoms: C4_11  and  N5_12 
REMARK    5  A    between atoms: C5_17  and  C6_18 
REMARK    6  A    between atoms: N8_20  and  N9_22 
REMARK    7  A    between atoms: C7_24  and  C8_25 
REMARK    8  A    between atoms: C11_28  and  N10_29 
REMARK    9  A    between atoms: C12_33  and  N11_34 
ROOT
HETATM    1  N1  UNL     1      21.972   3.766 -25.705  1.00  0.00    -0.196 NA
HETATM    2  C1  UNL     1      22.988   3.604 -25.178  1.00  0.00     0.080 C 
HETATM    3  C2  UNL     1      24.310   3.382 -24.511  1.00  0.00     0.263 C 
ENDROOT
BRANCH   3   4
HETATM    4  N2  UNL     1      24.783   2.033 -24.718  1.00  0.00    -0.322 N 
ATOM      5  H2  UNL     1      24.080   1.298 -24.637  1.00  0.00     0.181 HD
BRANCH   4   6
HETATM    6  N3  UNL     1      25.999   1.633 -24.997  1.00  0.00    -0.286 N 
ATOM      7  H3  UNL     1      25.990   1.084 -25.856  1.00  0.00     0.188 HD
BRANCH   6   8
HETATM    8  C3  UNL     1      27.168   1.702 -24.555  1.00  0.00     0.171 A 
HETATM    9  N4  UNL     1      27.633   1.127 -23.441  1.00  0.00    -0.173 N 
HETATM   10  C4  UNL     1      28.908   1.247 -23.028  1.00  0.00     0.678 A 
ATOM     11  H4  UNL     1      26.991   0.571 -22.877  1.00  0.00     0.186 HD
HETATM   12  N6  UNL     1      29.766   1.969 -23.747  1.00  0.00    -0.186 N 
HETATM   13  C5  UNL     1      29.420   2.608 -24.903  1.00  0.00     0.128 A 
ATOM     14  H6  UNL     1      30.728   2.049 -23.417  1.00  0.00     0.184 HD
HETATM   15  C12 UNL     1      28.126   2.466 -25.291  1.00  0.00     0.179 A 
BRANCH  10  16
HETATM   16  N5  UNL     1      29.307   0.663 -21.934  1.00  0.00    -0.234 N 
ATOM     17  H52 UNL     1      29.927   1.155 -21.291  1.00  0.00     0.174 HD
ATOM     18  H51 UNL     1      29.004  -0.286 -21.714  1.00  0.00     0.174 HD
ENDBRANCH  10  16
BRANCH  13  19
HETATM   19  C6  UNL     1      30.417   3.390 -25.598  1.00  0.00     0.161 C 
HETATM   20  N7  UNL     1      31.191   2.870 -26.652  1.00  0.00    -0.079 NA
HETATM   21  N8  UNL     1      30.570   4.630 -25.217  1.00  0.00    -0.286 N 
ATOM     22  H8  UNL     1      29.983   4.976 -24.457  1.00  0.00     0.188 HD
BRANCH  21  23
HETATM   23  N9  UNL     1      31.474   5.491 -25.782  1.00  0.00    -0.308 N 
HETATM   24  C7  UNL     1      32.312   6.244 -25.204  1.00  0.00     0.144 C 
ATOM     25  H9  UNL     1      31.471   5.530 -26.801  1.00  0.00     0.186 HD
BRANCH  24  26
HETATM   26  C8  UNL     1      33.184   7.086 -26.049  1.00  0.00     0.095 A 
HETATM   27  C9  UNL     1      34.214   6.654 -26.857  1.00  0.00     0.043 A 
HETATM   28  C10 UNL     1      34.755   7.742 -27.455  1.00  0.00     0.065 A 
HETATM   29  C11 UNL     1      34.052   8.833 -27.011  1.00  0.00     0.215 A 
HETATM   30  O3  UNL     1      33.137   8.388 -26.185  1.00  0.00    -0.287 OA
BRANCH  29  31
HETATM   31  N10 UNL     1      34.285  10.202 -27.390  1.00  0.00    -0.090 N 
HETATM   32  O1  UNL     1      33.415  11.045 -27.187  1.00  0.00    -0.530 OA
HETATM   33  O2  UNL     1      35.461  10.583 -27.974  1.00  0.00    -0.530 OA
ENDBRANCH  29  31
ENDBRANCH  24  26
ENDBRANCH  21  23
ENDBRANCH  13  19
BRANCH  15  34
HETATM   34  N11 UNL     1      27.634   3.041 -26.479  1.00  0.00    -0.109 N 
HETATM   35  O4  UNL     1      27.161   4.191 -26.478  1.00  0.00    -0.532 OA
HETATM   36  O5  UNL     1      27.658   2.345 -27.644  1.00  0.00    -0.532 OA
ENDBRANCH  15  34
ENDBRANCH   6   8
ENDBRANCH   4   6
ENDBRANCH   3   4
TORSDOF 9
ENDMDL
MODEL 5
REMARK VINA RESULT: -7.960636083      5.634      8.285
REMARK  9 active torsions:
REMARK  status: ('A' for Active; 'I' for Inactive)
REMARK    1  A    between atoms: C2_3  and  N2_4 
REMARK    2  A    between atoms: N2_4  and  N3_6 
REMARK    3  A    between atoms: N3_6  and  C3_8 
REMARK    4  A    between atoms: C4_11  and  N5_12 
REMARK    5  A    between atoms: C5_17  and  C6_18 
REMARK    6  A    between atoms: N8_20  and  N9_22 
REMARK    7  A    between atoms: C7_24  and  C8_25 
REMARK    8  A    between atoms: C11_28  and  N10_29 
REMARK    9  A    between atoms: C12_33  and  N11_34 
ROOT
HETATM    1  N1  UNL     1      27.900   0.677 -31.247  1.00  0.00    -0.196 NA
HETATM    2  C1  UNL     1      28.130   1.688 -30.736  1.00  0.00     0.080 C 
HETATM    3  C2  UNL     1      28.449   2.989 -30.067  1.00  0.00     0.263 C 
ENDROOT
BRANCH   3   4
HETATM    4  N2  UNL     1      29.272   2.792 -28.898  1.00  0.00    -0.322 N 
ATOM      5  H2  UNL     1      30.203   2.409 -29.068  1.00  0.00     0.181 HD
BRANCH   4   6
HETATM    6  N3  UNL     1      28.978   3.042 -27.646  1.00  0.00    -0.286 N 
ATOM      7  H3  UNL     1      29.053   4.043 -27.470  1.00  0.00     0.188 HD
BRANCH   6   8
HETATM    8  C3  UNL     1      28.634   2.455 -26.595  1.00  0.00     0.171 A 
HETATM    9  N4  UNL     1      27.385   2.156 -26.222  1.00  0.00    -0.173 N 
HETATM   10  C4  UNL     1      27.093   1.521 -25.073  1.00  0.00     0.678 A 
ATOM     11  H4  UNL     1      26.617   2.421 -26.838  1.00  0.00     0.186 HD
HETATM   12  N6  UNL     1      28.077   1.165 -24.250  1.00  0.00    -0.186 N 
HETATM   13  C5  UNL     1      29.395   1.411 -24.510  1.00  0.00     0.128 A 
ATOM     14  H6  UNL     1      27.835   0.685 -23.383  1.00  0.00     0.184 HD
HETATM   15  C12 UNL     1      29.655   2.053 -25.679  1.00  0.00     0.179 A 
BRANCH  10  16
HETATM   16  N5  UNL     1      25.856   1.253 -24.761  1.00  0.00    -0.234 N 
ATOM     17  H52 UNL     1      25.153   1.992 -24.789  1.00  0.00     0.174 HD
ATOM     18  H51 UNL     1      25.584   0.309 -24.488  1.00  0.00     0.174 HD
ENDBRANCH  10  16
BRANCH  13  19
HETATM   19  C6  UNL     1      30.389   1.009 -23.541  1.00  0.00     0.161 C 
HETATM   20  N7  UNL     1      30.866  -0.312 -23.446  1.00  0.00    -0.079 NA
HETATM   21  N8  UNL     1      30.853   1.936 -22.748  1.00  0.00    -0.286 N 
ATOM     22  H8  UNL     1      30.493   2.885 -22.853  1.00  0.00     0.188 HD
BRANCH  21  23
HETATM   23  N9  UNL     1      31.798   1.705 -21.782  1.00  0.00    -0.308 N 
HETATM   24  C7  UNL     1      31.642   1.641 -20.527  1.00  0.00     0.144 C 
ATOM     25  H9  UNL     1      32.751   1.567 -22.118  1.00  0.00     0.186 HD
BRANCH  24  26
HETATM   26  C8  UNL     1      32.833   1.377 -19.694  1.00  0.00     0.095 A 
HETATM   27  C9  UNL     1      34.015   2.087 -19.699  1.00  0.00     0.043 A 
HETATM   28  C10 UNL     1      34.843   1.517 -18.790  1.00  0.00     0.065 A 
HETATM   29  C11 UNL     1      34.162   0.463 -18.235  1.00  0.00     0.215 A 
HETATM   30  O3  UNL     1      32.983   0.427 -18.805  1.00  0.00    -0.287 OA
BRANCH  29  31
HETATM   31  N10 UNL     1      34.662  -0.426 -17.220  1.00  0.00    -0.090 N 
HETATM   32  O1  UNL     1      34.609  -1.640 -17.396  1.00  0.00    -0.530 OA
HETATM   33  O2  UNL     1      35.195   0.057 -16.056  1.00  0.00    -0.530 OA
ENDBRANCH  29  31
ENDBRANCH  24  26
ENDBRANCH  21  23
ENDBRANCH  13  19
BRANCH  15  34
HETATM   34  N11 UNL     1      30.968   2.344 -26.095  1.00  0.00    -0.109 N 
HETATM   35  O4  UNL     1      31.540   1.631 -26.939  1.00  0.00    -0.532 OA
HETATM   36  O5  UNL     1      31.638   3.404 -25.575  1.00  0.00    -0.532 OA
ENDBRANCH  15  34
ENDBRANCH   6   8
ENDBRANCH   4   6
ENDBRANCH   3   4
TORSDOF 9
ENDMDL
