MODEL 1
REMARK VINA RESULT: -4.613174342      0.000      0.000
REMARK  8 active torsions:
REMARK  status: ('A' for Active; 'I' for Inactive)
REMARK    1  A    between atoms: C2_2  and  N1_3 
REMARK    2  A    between atoms: N1_3  and  C5_6 
REMARK    3  A    between atoms: C5_6  and  N2_7 
REMARK    4  A    between atoms: C6_9  and  C7_10 
REMARK    5  A    between atoms: C7_10  and  C8_11 
REMARK    6  A    between atoms: C8_11  and  N3_12 
REMARK    7  A    between atoms: C11_15  and  N4_16 
REMARK    8  A    between atoms: C12_20  and  N5_21 
ROOT
HETATM    1  N3  UNL     1       2.590  26.908  14.910  1.00  0.00     0.121 N 
HETATM    2  C9  UNL     1       3.469  26.582  13.774  1.00  0.00     0.277 C 
HETATM    3  C10 UNL     1       4.601  25.820  14.488  1.00  0.00     0.067 C 
HETATM    4  C11 UNL     1       3.805  24.889  15.350  1.00  0.00     0.245 C 
HETATM    5  C12 UNL     1       2.654  25.788  15.778  1.00  0.00     0.447 C 
ENDROOT
BRANCH   1   6
HETATM    6  C8  UNL     1       3.025  28.179  15.490  1.00  0.00     0.280 C 
BRANCH   6   7
HETATM    7  C7  UNL     1       3.042  29.308  14.553  1.00  0.00     0.074 C 
BRANCH   7   8
HETATM    8  C6  UNL     1       4.389  29.749  14.169  1.00  0.00     0.059 C 
HETATM    9  N2  UNL     1       5.666  29.327  14.391  1.00  0.00    -0.380 N 
ATOM     10  H2  UNL     1       6.013  28.572  13.800  1.00  0.00     0.160 HD
BRANCH   9  11
HETATM   11  C5  UNL     1       6.547  29.833  15.357  1.00  0.00     0.358 C 
BRANCH  11  12
HETATM   12  N1  UNL     1       7.291  28.659  15.930  1.00  0.00    -0.059 N 
HETATM   13  C3  UNL     1       6.345  28.181  16.988  1.00  0.00     0.274 C 
HETATM   14  C4  UNL     1       8.493  28.914  16.586  1.00  0.00     0.274 C 
BRANCH  12  15
HETATM   15  C2  UNL     1       7.425  27.678  14.901  1.00  0.00     0.234 C 
HETATM   16  C1  UNL     1       7.937  26.349  15.430  1.00  0.00     0.035 C 
ENDBRANCH  12  15
ENDBRANCH  11  12
ENDBRANCH   9  11
ENDBRANCH   7   8
ENDBRANCH   6   7
ENDBRANCH   1   6
BRANCH   5  17
HETATM   17  N5  UNL     1       1.441  24.991  15.505  1.00  0.00    -0.045 N 
ATOM     18  H53 UNL     1       0.577  25.529  15.575  1.00  0.00     0.277 HD
ATOM     19  H52 UNL     1       1.342  24.724  14.526  1.00  0.00     0.277 HD
ATOM     20  H51 UNL     1       1.478  24.195  16.141  1.00  0.00     0.277 HD
ENDBRANCH   5  17
BRANCH   4  21
HETATM   21  N4  UNL     1       4.545  24.345  16.467  1.00  0.00    -0.071 N 
ATOM     22  H43 UNL     1       5.521  24.638  16.427  1.00  0.00     0.274 HD
ATOM     23  H42 UNL     1       4.265  24.799  17.337  1.00  0.00     0.274 HD
ATOM     24  H41 UNL     1       4.478  23.331  16.555  1.00  0.00     0.274 HD
ENDBRANCH   4  21
TORSDOF 8
ENDMDL
MODEL 2
REMARK VINA RESULT: -4.576760744      1.371      4.919
REMARK  8 active torsions:
REMARK  status: ('A' for Active; 'I' for Inactive)
REMARK    1  A    between atoms: C2_2  and  N1_3 
REMARK    2  A    between atoms: N1_3  and  C5_6 
REMARK    3  A    between atoms: C5_6  and  N2_7 
REMARK    4  A    between atoms: C6_9  and  C7_10 
REMARK    5  A    between atoms: C7_10  and  C8_11 
REMARK    6  A    between atoms: C8_11  and  N3_12 
REMARK    7  A    between atoms: C11_15  and  N4_16 
REMARK    8  A    between atoms: C12_20  and  N5_21 
ROOT
HETATM    1  N3  UNL     1       6.268  26.239  15.952  1.00  0.00     0.121 N 
HETATM    2  C9  UNL     1       7.666  25.783  15.882  1.00  0.00     0.277 C 
HETATM    3  C10 UNL     1       8.279  26.857  14.965  1.00  0.00     0.067 C 
HETATM    4  C11 UNL     1       7.735  28.101  15.596  1.00  0.00     0.245 C 
HETATM    5  C12 UNL     1       6.328  27.656  15.968  1.00  0.00     0.447 C 
ENDROOT
BRANCH   1   6
HETATM    6  C8  UNL     1       5.525  25.654  14.836  1.00  0.00     0.280 C 
BRANCH   6   7
HETATM    7  C7  UNL     1       4.357  24.855  15.226  1.00  0.00     0.074 C 
BRANCH   7   8
HETATM    8  C6  UNL     1       3.202  25.652  15.656  1.00  0.00     0.059 C 
HETATM    9  N2  UNL     1       2.513  26.728  15.179  1.00  0.00    -0.380 N 
ATOM     10  H2  UNL     1       1.809  26.545  14.464  1.00  0.00     0.160 HD
BRANCH   9  11
HETATM   11  C5  UNL     1       2.683  28.060  15.579  1.00  0.00     0.358 C 
BRANCH  11  12
HETATM   12  N1  UNL     1       3.136  28.828  14.368  1.00  0.00    -0.059 N 
HETATM   13  C3  UNL     1       3.244  27.744  13.340  1.00  0.00     0.274 C 
HETATM   14  C4  UNL     1       4.392  29.427  14.417  1.00  0.00     0.274 C 
BRANCH  12  15
HETATM   15  C2  UNL     1       2.102  29.747  14.017  1.00  0.00     0.234 C 
HETATM   16  C1  UNL     1       2.616  30.907  13.181  1.00  0.00     0.035 C 
ENDBRANCH  12  15
ENDBRANCH  11  12
ENDBRANCH   9  11
ENDBRANCH   7   8
ENDBRANCH   6   7
ENDBRANCH   1   6
BRANCH   5  17
HETATM   17  N5  UNL     1       6.175  28.055  17.382  1.00  0.00    -0.045 N 
ATOM     18  H53 UNL     1       6.639  27.422  18.035  1.00  0.00     0.277 HD
ATOM     19  H52 UNL     1       6.702  28.893  17.627  1.00  0.00     0.277 HD
ATOM     20  H51 UNL     1       5.172  28.144  17.543  1.00  0.00     0.277 HD
ENDBRANCH   5  17
BRANCH   4  21
HETATM   21  N4  UNL     1       7.753  29.258  14.728  1.00  0.00    -0.071 N 
ATOM     22  H43 UNL     1       6.899  29.300  14.171  1.00  0.00     0.274 HD
ATOM     23  H42 UNL     1       7.646  30.115  15.272  1.00  0.00     0.274 HD
ATOM     24  H41 UNL     1       8.576  29.315  14.128  1.00  0.00     0.274 HD
ENDBRANCH   4  21
TORSDOF 8
ENDMDL
MODEL 3
REMARK VINA RESULT: -4.385698935      1.305      4.834
REMARK  8 active torsions:
REMARK  status: ('A' for Active; 'I' for Inactive)
REMARK    1  A    between atoms: C2_2  and  N1_3 
REMARK    2  A    between atoms: N1_3  and  C5_6 
REMARK    3  A    between atoms: C5_6  and  N2_7 
REMARK    4  A    between atoms: C6_9  and  C7_10 
REMARK    5  A    between atoms: C7_10  and  C8_11 
REMARK    6  A    between atoms: C8_11  and  N3_12 
REMARK    7  A    between atoms: C11_15  and  N4_16 
REMARK    8  A    between atoms: C12_20  and  N5_21 
ROOT
HETATM    1  N3  UNL     1       6.998  29.394  15.607  1.00  0.00     0.121 N 
HETATM    2  C9  UNL     1       6.175  28.548  16.487  1.00  0.00     0.277 C 
HETATM    3  C10 UNL     1       6.503  27.147  15.939  1.00  0.00     0.067 C 
HETATM    4  C11 UNL     1       7.996  27.228  15.851  1.00  0.00     0.245 C 
HETATM    5  C12 UNL     1       8.190  28.661  15.375  1.00  0.00     0.447 C 
ENDROOT
BRANCH   1   6
HETATM    6  C8  UNL     1       6.220  29.723  14.412  1.00  0.00     0.280 C 
BRANCH   6   7
HETATM    7  C7  UNL     1       4.797  29.986  14.658  1.00  0.00     0.074 C 
BRANCH   7   8
HETATM    8  C6  UNL     1       3.887  29.175  13.841  1.00  0.00     0.059 C 
HETATM    9  N2  UNL     1       2.931  28.231  14.071  1.00  0.00    -0.380 N 
ATOM     10  H2  UNL     1       2.003  28.566  14.329  1.00  0.00     0.160 HD
BRANCH   9  11
HETATM   11  C5  UNL     1       3.104  26.842  13.987  1.00  0.00     0.358 C 
BRANCH  11  12
HETATM   12  N1  UNL     1       2.965  26.297  15.381  1.00  0.00    -0.059 N 
HETATM   13  C3  UNL     1       1.724  25.468  15.266  1.00  0.00     0.274 C 
HETATM   14  C4  UNL     1       2.717  27.205  16.408  1.00  0.00     0.274 C 
BRANCH  12  15
HETATM   15  C2  UNL     1       4.097  25.467  15.644  1.00  0.00     0.234 C 
HETATM   16  C1  UNL     1       3.738  23.991  15.677  1.00  0.00     0.035 C 
ENDBRANCH  12  15
ENDBRANCH  11  12
ENDBRANCH   9  11
ENDBRANCH   7   8
ENDBRANCH   6   7
ENDBRANCH   1   6
BRANCH   5  17
HETATM   17  N5  UNL     1       9.199  29.223  16.295  1.00  0.00    -0.045 N 
ATOM     18  H53 UNL     1      10.025  29.588  15.820  1.00  0.00     0.277 HD
ATOM     19  H52 UNL     1       8.910  30.099  16.731  1.00  0.00     0.277 HD
ATOM     20  H51 UNL     1       9.409  28.485  16.968  1.00  0.00     0.277 HD
ENDBRANCH   5  17
BRANCH   4  21
HETATM   21  N4  UNL     1       8.587  26.251  14.964  1.00  0.00    -0.071 N 
ATOM     22  H43 UNL     1       9.245  25.659  15.471  1.00  0.00     0.274 HD
ATOM     23  H42 UNL     1       7.898  25.551  14.692  1.00  0.00     0.274 HD
ATOM     24  H41 UNL     1       9.032  26.655  14.139  1.00  0.00     0.274 HD
ENDBRANCH   4  21
TORSDOF 8
ENDMDL
MODEL 4
REMARK VINA RESULT: -4.311823647      0.559      1.330
REMARK  8 active torsions:
REMARK  status: ('A' for Active; 'I' for Inactive)
REMARK    1  A    between atoms: C2_2  and  N1_3 
REMARK    2  A    between atoms: N1_3  and  C5_6 
REMARK    3  A    between atoms: C5_6  and  N2_7 
REMARK    4  A    between atoms: C6_9  and  C7_10 
REMARK    5  A    between atoms: C7_10  and  C8_11 
REMARK    6  A    between atoms: C8_11  and  N3_12 
REMARK    7  A    between atoms: C11_15  and  N4_16 
REMARK    8  A    between atoms: C12_20  and  N5_21 
ROOT
HETATM    1  N3  UNL     1       2.672  26.510  14.972  1.00  0.00     0.121 N 
HETATM    2  C9  UNL     1       3.656  26.238  13.911  1.00  0.00     0.277 C 
HETATM    3  C10 UNL     1       4.680  25.379  14.676  1.00  0.00     0.067 C 
HETATM    4  C11 UNL     1       3.768  24.416  15.371  1.00  0.00     0.245 C 
HETATM    5  C12 UNL     1       2.606  25.325  15.748  1.00  0.00     0.447 C 
ENDROOT
BRANCH   1   6
HETATM    6  C8  UNL     1       3.082  27.714  15.696  1.00  0.00     0.280 C 
BRANCH   6   7
HETATM    7  C7  UNL     1       2.894  28.969  14.957  1.00  0.00     0.074 C 
BRANCH   7   8
HETATM    8  C6  UNL     1       4.137  29.549  14.435  1.00  0.00     0.059 C 
HETATM    9  N2  UNL     1       5.461  29.224  14.452  1.00  0.00    -0.380 N 
ATOM     10  H2  UNL     1       5.779  28.544  13.761  1.00  0.00     0.160 HD
BRANCH   9  11
HETATM   11  C5  UNL     1       6.426  29.736  15.330  1.00  0.00     0.358 C 
BRANCH  11  12
HETATM   12  N1  UNL     1       6.904  28.588  16.176  1.00  0.00    -0.059 N 
HETATM   13  C3  UNL     1       7.044  27.496  15.161  1.00  0.00     0.274 C 
HETATM   14  C4  UNL     1       6.034  28.093  17.144  1.00  0.00     0.274 C 
BRANCH  12  15
HETATM   15  C2  UNL     1       8.180  28.938  16.712  1.00  0.00     0.234 C 
HETATM   16  C1  UNL     1       9.162  29.371  15.636  1.00  0.00     0.035 C 
ENDBRANCH  12  15
ENDBRANCH  11  12
ENDBRANCH   9  11
ENDBRANCH   7   8
ENDBRANCH   6   7
ENDBRANCH   1   6
BRANCH   5  17
HETATM   17  N5  UNL     1       1.405  24.601  15.286  1.00  0.00    -0.045 N 
ATOM     18  H53 UNL     1       1.189  24.758  14.301  1.00  0.00     0.277 HD
ATOM     19  H52 UNL     1       1.538  23.592  15.224  1.00  0.00     0.277 HD
ATOM     20  H51 UNL     1       0.652  24.873  15.917  1.00  0.00     0.277 HD
ENDBRANCH   5  17
BRANCH   4  21
HETATM   21  N4  UNL     1       4.366  23.758  16.512  1.00  0.00    -0.071 N 
ATOM     22  H43 UNL     1       4.629  22.802  16.276  1.00  0.00     0.274 HD
ATOM     23  H42 UNL     1       5.288  24.148  16.707  1.00  0.00     0.274 HD
ATOM     24  H41 UNL     1       3.786  23.773  17.351  1.00  0.00     0.274 HD
ENDBRANCH   4  21
TORSDOF 8
ENDMDL
MODEL 5
REMARK VINA RESULT: -4.199331264      0.849      1.746
REMARK  8 active torsions:
REMARK  status: ('A' for Active; 'I' for Inactive)
REMARK    1  A    between atoms: C2_2  and  N1_3 
REMARK    2  A    between atoms: N1_3  and  C5_6 
REMARK    3  A    between atoms: C5_6  and  N2_7 
REMARK    4  A    between atoms: C6_9  and  C7_10 
REMARK    5  A    between atoms: C7_10  and  C8_11 
REMARK    6  A    between atoms: C8_11  and  N3_12 
REMARK    7  A    between atoms: C11_15  and  N4_16 
REMARK    8  A    between atoms: C12_20  and  N5_21 
ROOT
HETATM    1  N3  UNL     1       3.732  27.347  14.696  1.00  0.00     0.121 N 
HETATM    2  C9  UNL     1       3.334  27.781  16.046  1.00  0.00     0.277 C 
HETATM    3  C10 UNL     1       1.964  27.090  16.184  1.00  0.00     0.067 C 
HETATM    4  C11 UNL     1       2.303  25.711  15.709  1.00  0.00     0.245 C 
HETATM    5  C12 UNL     1       3.263  26.015  14.567  1.00  0.00     0.447 C 
ENDROOT
BRANCH   1   6
HETATM    6  C8  UNL     1       3.198  28.299  13.721  1.00  0.00     0.280 C 
BRANCH   6   7
HETATM    7  C7  UNL     1       3.454  29.710  14.036  1.00  0.00     0.074 C 
BRANCH   7   8
HETATM    8  C6  UNL     1       4.864  30.103  13.924  1.00  0.00     0.059 C 
HETATM    9  N2  UNL     1       6.067  29.576  14.288  1.00  0.00    -0.380 N 
ATOM     10  H2  UNL     1       6.470  28.873  13.669  1.00  0.00     0.160 HD
BRANCH   9  11
HETATM   11  C5  UNL     1       6.801  29.910  15.434  1.00  0.00     0.358 C 
BRANCH  11  12
HETATM   12  N1  UNL     1       7.397  28.634  15.962  1.00  0.00    -0.059 N 
HETATM   13  C3  UNL     1       6.449  28.286  17.068  1.00  0.00     0.274 C 
HETATM   14  C4  UNL     1       8.655  28.705  16.553  1.00  0.00     0.274 C 
BRANCH  12  15
HETATM   15  C2  UNL     1       7.332  27.656  14.923  1.00  0.00     0.234 C 
HETATM   16  C1  UNL     1       7.845  26.298  15.372  1.00  0.00     0.035 C 
ENDBRANCH  12  15
ENDBRANCH  11  12
ENDBRANCH   9  11
ENDBRANCH   7   8
ENDBRANCH   6   7
ENDBRANCH   1   6
BRANCH   5  17
HETATM   17  N5  UNL     1       4.429  25.146  14.824  1.00  0.00    -0.045 N 
ATOM     18  H53 UNL     1       4.268  24.168  14.582  1.00  0.00     0.277 HD
ATOM     19  H52 UNL     1       5.205  25.306  14.181  1.00  0.00     0.277 HD
ATOM     20  H51 UNL     1       4.677  25.289  15.803  1.00  0.00     0.277 HD
ENDBRANCH   5  17
BRANCH   4  21
HETATM   21  N4  UNL     1       1.156  24.934  15.292  1.00  0.00    -0.071 N 
ATOM     22  H43 UNL     1       1.023  25.005  14.283  1.00  0.00     0.274 HD
ATOM     23  H42 UNL     1       1.353  23.936  15.369  1.00  0.00     0.274 HD
ATOM     24  H41 UNL     1       0.294  25.168  15.785  1.00  0.00     0.274 HD
ENDBRANCH   4  21
TORSDOF 8
ENDMDL
