MODEL 1
REMARK VINA RESULT: -8.503284796      0.000      0.000
REMARK  9 active torsions:
REMARK  status: ('A' for Active; 'I' for Inactive)
REMARK    1  A    between atoms: N1_2  and  C2_4 
REMARK    2  A    between atoms: C3_5  and  C4_6 
REMARK    3  A    between atoms: C4_6  and  S1_7 
REMARK    4  A    between atoms: S1_7  and  C5_8 
REMARK    5  A    between atoms: N5_13  and  C6_14 
REMARK    6  A    between atoms: C8_19  and  C9_20 
REMARK    7  A    between atoms: C9_20  and  N8_21 
REMARK    8  A    between atoms: C9_20  and  N9_25 
REMARK    9  A    between atoms: C12_35  and  N13_36 
ROOT
HETATM    1  N9  UNL     1      -5.309 -35.130  -1.816  1.00  0.00    -0.293 N 
ATOM      2  H9  UNL     1      -4.392 -35.559  -1.939  1.00  0.00     0.174 HD
HETATM    3  C10 UNL     1      -6.162 -35.548  -0.792  1.00  0.00     0.179 C 
HETATM    4  N10 UNL     1      -6.874 -35.912   0.066  1.00  0.00    -0.172 NA
ENDROOT
BRANCH   1   5
HETATM    5  C9  UNL     1      -5.751 -34.088  -2.688  1.00  0.00     0.358 C 
BRANCH   5   6
HETATM    6  C8  UNL     1      -5.283 -34.298  -4.096  1.00  0.00     0.137 A 
HETATM    7  N7  UNL     1      -5.929 -33.745  -5.137  1.00  0.00    -0.329 N 
HETATM    8  C7  UNL     1      -5.533 -33.916  -6.422  1.00  0.00     0.152 A 
ATOM      9  H7  UNL     1      -6.752 -33.173  -4.953  1.00  0.00     0.168 HD
HETATM   10  C6  UNL     1      -4.423 -34.684  -6.703  1.00  0.00     0.165 A 
HETATM   11  N6  UNL     1      -6.222 -33.330  -7.495  1.00  0.00    -0.080 NA
HETATM   12  C11 UNL     1      -3.766 -35.248  -5.628  1.00  0.00     0.278 A 
HETATM   13  N11 UNL     1      -4.198 -35.048  -4.369  1.00  0.00    -0.308 N 
HETATM   14  O1  UNL     1      -2.746 -35.954  -5.877  1.00  0.00    -0.265 OA
ATOM     15  H11 UNL     1      -3.689 -35.479  -3.598  1.00  0.00     0.170 HD
BRANCH  10  16
HETATM   16  N5  UNL     1      -3.939 -34.911  -8.020  1.00  0.00    -0.210 N 
HETATM   17  C5  UNL     1      -3.078 -34.121  -8.725  1.00  0.00     0.178 A 
HETATM   18  N2  UNL     1      -2.893 -34.704  -9.908  1.00  0.00    -0.264 N 
HETATM   19  N3  UNL     1      -3.606 -35.826  -9.965  1.00  0.00    -0.006 NA
ATOM     20  H2  UNL     1      -2.297 -34.346 -10.654  1.00  0.00     0.186 HD
HETATM   21  N4  UNL     1      -4.237 -35.937  -8.807  1.00  0.00     0.001 NA
BRANCH  17  22
HETATM   22  S1  UNL     1      -2.412 -32.612  -8.044  1.00  0.00    -0.085 SA
BRANCH  22  23
HETATM   23  C4  UNL     1      -2.286 -31.366  -9.329  1.00  0.00     0.142 C 
BRANCH  23  24
HETATM   24  C3  UNL     1      -1.740 -30.086  -8.836  1.00  0.00     0.066 A 
HETATM   25  C2  UNL     1      -2.448 -28.919  -9.017  1.00  0.00     0.094 A 
HETATM   26  C13 UNL     1      -1.930 -27.746  -8.556  1.00  0.00     0.160 A 
HETATM   27  N14 UNL     1      -0.737 -27.664  -7.918  1.00  0.00    -0.177 N 
HETATM   28  N15 UNL     1      -2.661 -26.535  -8.744  1.00  0.00    -0.080 NA
HETATM   29  C12 UNL     1      -0.071 -28.841  -7.761  1.00  0.00     0.677 A 
ATOM     30  H14 UNL     1      -0.363 -26.779  -7.577  1.00  0.00     0.185 HD
HETATM   31  N12 UNL     1      -0.550 -30.013  -8.201  1.00  0.00    -0.193 N 
ATOM     32  H12 UNL     1      -0.007 -30.863  -8.053  1.00  0.00     0.184 HD
BRANCH  25  33
HETATM   33  N1  UNL     1      -3.713 -28.888  -9.675  1.00  0.00    -0.390 N 
HETATM   34  C1  UNL     1      -4.968 -29.091  -8.997  1.00  0.00     0.146 C 
ATOM     35  H1  UNL     1      -3.731 -28.712 -10.680  1.00  0.00     0.159 HD
ENDBRANCH  25  33
BRANCH  29  36
HETATM   36  N13 UNL     1       1.067 -28.754  -7.150  1.00  0.00    -0.234 N 
ATOM     37 2H13 UNL     1       1.712 -28.059  -7.527  1.00  0.00     0.174 HD
ATOM     38 1H13 UNL     1       1.294 -29.342  -6.348  1.00  0.00     0.174 HD
ENDBRANCH  29  36
ENDBRANCH  23  24
ENDBRANCH  22  23
ENDBRANCH  17  22
ENDBRANCH  10  16
ENDBRANCH   5   6
BRANCH   5  39
HETATM   39  N8  UNL     1      -5.328 -32.817  -2.153  1.00  0.00    -0.051 N 
ATOM     40  H83 UNL     1      -5.380 -32.810  -1.134  1.00  0.00     0.277 HD
ATOM     41  H82 UNL     1      -4.323 -32.686  -2.266  1.00  0.00     0.277 HD
ATOM     42  H81 UNL     1      -5.848 -32.035  -2.552  1.00  0.00     0.277 HD
ENDBRANCH   5  39
ENDBRANCH   1   5
TORSDOF 9
ENDMDL
MODEL 2
REMARK VINA RESULT: -8.487449565      1.060      1.558
REMARK  9 active torsions:
REMARK  status: ('A' for Active; 'I' for Inactive)
REMARK    1  A    between atoms: N1_2  and  C2_4 
REMARK    2  A    between atoms: C3_5  and  C4_6 
REMARK    3  A    between atoms: C4_6  and  S1_7 
REMARK    4  A    between atoms: S1_7  and  C5_8 
REMARK    5  A    between atoms: N5_13  and  C6_14 
REMARK    6  A    between atoms: C8_19  and  C9_20 
REMARK    7  A    between atoms: C9_20  and  N8_21 
REMARK    8  A    between atoms: C9_20  and  N9_25 
REMARK    9  A    between atoms: C12_35  and  N13_36 
ROOT
HETATM    1  N9  UNL     1      -5.508 -34.779  -1.766  1.00  0.00    -0.293 N 
ATOM      2  H9  UNL     1      -5.444 -35.733  -2.121  1.00  0.00     0.174 HD
HETATM    3  C10 UNL     1      -5.431 -34.520  -0.396  1.00  0.00     0.179 C 
HETATM    4  N10 UNL     1      -5.373 -34.314   0.757  1.00  0.00    -0.172 NA
ENDROOT
BRANCH   1   5
HETATM    5  C9  UNL     1      -5.680 -33.677  -2.659  1.00  0.00     0.358 C 
BRANCH   5   6
HETATM    6  C8  UNL     1      -5.202 -33.996  -4.042  1.00  0.00     0.137 A 
HETATM    7  N7  UNL     1      -4.059 -34.672  -4.249  1.00  0.00    -0.329 N 
HETATM    8  C7  UNL     1      -3.598 -34.977  -5.486  1.00  0.00     0.152 A 
ATOM      9  H7  UNL     1      -3.514 -34.968  -3.439  1.00  0.00     0.168 HD
HETATM   10  C6  UNL     1      -4.313 -34.590  -6.600  1.00  0.00     0.165 A 
HETATM   11  N6  UNL     1      -2.401 -35.683  -5.679  1.00  0.00    -0.080 NA
HETATM   12  C11 UNL     1      -5.486 -33.897  -6.379  1.00  0.00     0.278 A 
HETATM   13  N11 UNL     1      -5.901 -33.619  -5.130  1.00  0.00    -0.308 N 
HETATM   14  O1  UNL     1      -6.148 -33.540  -7.397  1.00  0.00    -0.265 OA
ATOM     15  H11 UNL     1      -6.774 -33.106  -5.002  1.00  0.00     0.170 HD
BRANCH  10  16
HETATM   16  N5  UNL     1      -3.903 -34.871  -7.932  1.00  0.00    -0.210 N 
HETATM   17  C5  UNL     1      -3.042 -34.138  -8.697  1.00  0.00     0.178 A 
HETATM   18  N2  UNL     1      -2.940 -34.758  -9.871  1.00  0.00    -0.264 N 
HETATM   19  N3  UNL     1      -3.704 -35.848  -9.865  1.00  0.00    -0.006 NA
ATOM     20  H2  UNL     1      -2.365 -34.446 -10.654  1.00  0.00     0.186 HD
HETATM   21  N4  UNL     1      -4.283 -35.902  -8.677  1.00  0.00     0.001 NA
BRANCH  17  22
HETATM   22  S1  UNL     1      -2.279 -32.645  -8.088  1.00  0.00    -0.085 SA
BRANCH  22  23
HETATM   23  C4  UNL     1      -2.373 -31.359  -9.335  1.00  0.00     0.142 C 
BRANCH  23  24
HETATM   24  C3  UNL     1      -1.825 -30.069  -8.872  1.00  0.00     0.066 A 
HETATM   25  C2  UNL     1      -2.549 -28.910  -9.044  1.00  0.00     0.094 A 
HETATM   26  C13 UNL     1      -2.028 -27.728  -8.611  1.00  0.00     0.160 A 
HETATM   27  N14 UNL     1      -0.818 -27.628  -8.009  1.00  0.00    -0.177 N 
HETATM   28  N15 UNL     1      -2.777 -26.525  -8.790  1.00  0.00    -0.080 NA
HETATM   29  C12 UNL     1      -0.137 -28.797  -7.860  1.00  0.00     0.677 A 
ATOM     30  H14 UNL     1      -0.442 -26.735  -7.689  1.00  0.00     0.185 HD
HETATM   31  N12 UNL     1      -0.617 -29.978  -8.273  1.00  0.00    -0.193 N 
ATOM     32  H12 UNL     1      -0.062 -30.821  -8.133  1.00  0.00     0.184 HD
BRANCH  25  33
HETATM   33  N1  UNL     1      -3.833 -28.898  -9.664  1.00  0.00    -0.390 N 
HETATM   34  C1  UNL     1      -5.066 -29.111  -8.948  1.00  0.00     0.146 C 
ATOM     35  H1  UNL     1      -3.883 -28.729 -10.669  1.00  0.00     0.159 HD
ENDBRANCH  25  33
BRANCH  29  36
HETATM   36  N13 UNL     1       1.019 -28.693  -7.284  1.00  0.00    -0.234 N 
ATOM     37 2H13 UNL     1       1.368 -29.548  -6.853  1.00  0.00     0.174 HD
ATOM     38 1H13 UNL     1       1.536 -27.814  -7.270  1.00  0.00     0.174 HD
ENDBRANCH  29  36
ENDBRANCH  23  24
ENDBRANCH  22  23
ENDBRANCH  17  22
ENDBRANCH  10  16
ENDBRANCH   5   6
BRANCH   5  39
HETATM   39  N8  UNL     1      -5.024 -32.517  -2.105  1.00  0.00    -0.051 N 
ATOM     40  H83 UNL     1      -4.945 -31.773  -2.798  1.00  0.00     0.277 HD
ATOM     41  H82 UNL     1      -5.621 -32.046  -1.426  1.00  0.00     0.277 HD
ATOM     42  H81 UNL     1      -4.114 -32.741  -1.702  1.00  0.00     0.277 HD
ENDBRANCH   5  39
ENDBRANCH   1   5
TORSDOF 9
ENDMDL
MODEL 3
REMARK VINA RESULT: -8.353521036      3.961      7.948
REMARK  9 active torsions:
REMARK  status: ('A' for Active; 'I' for Inactive)
REMARK    1  A    between atoms: N1_2  and  C2_4 
REMARK    2  A    between atoms: C3_5  and  C4_6 
REMARK    3  A    between atoms: C4_6  and  S1_7 
REMARK    4  A    between atoms: S1_7  and  C5_8 
REMARK    5  A    between atoms: N5_13  and  C6_14 
REMARK    6  A    between atoms: C8_19  and  C9_20 
REMARK    7  A    between atoms: C9_20  and  N8_21 
REMARK    8  A    between atoms: C9_20  and  N9_25 
REMARK    9  A    between atoms: C12_35  and  N13_36 
ROOT
HETATM    1  N9  UNL     1      -0.995 -27.589  -7.846  1.00  0.00    -0.293 N 
ATOM      2  H9  UNL     1      -1.833 -27.745  -7.286  1.00  0.00     0.174 HD
HETATM    3  C10 UNL     1      -0.650 -26.305  -8.273  1.00  0.00     0.179 C 
HETATM    4  N10 UNL     1      -0.375 -25.224  -8.634  1.00  0.00    -0.172 NA
ENDROOT
BRANCH   1   5
HETATM    5  C9  UNL     1      -0.146 -28.679  -8.212  1.00  0.00     0.358 C 
BRANCH   5   6
HETATM    6  C8  UNL     1      -0.891 -29.978  -8.261  1.00  0.00     0.137 A 
HETATM    7  N7  UNL     1      -0.358 -31.109  -7.767  1.00  0.00    -0.329 N 
HETATM    8  C7  UNL     1      -1.003 -32.299  -7.796  1.00  0.00     0.152 A 
ATOM      9  H7  UNL     1       0.573 -31.069  -7.352  1.00  0.00     0.168 HD
HETATM   10  C6  UNL     1      -2.263 -32.386  -8.350  1.00  0.00     0.165 A 
HETATM   11  N6  UNL     1      -0.428 -33.469  -7.274  1.00  0.00    -0.080 NA
HETATM   12  C11 UNL     1      -2.803 -31.219  -8.855  1.00  0.00     0.278 A 
HETATM   13  N11 UNL     1      -2.121 -30.061  -8.802  1.00  0.00    -0.308 N 
HETATM   14  O1  UNL     1      -3.959 -31.290  -9.364  1.00  0.00    -0.265 OA
ATOM     15  H11 UNL     1      -2.550 -29.217  -9.184  1.00  0.00     0.170 HD
BRANCH  10  16
HETATM   16  N5  UNL     1      -3.010 -33.593  -8.418  1.00  0.00    -0.210 N 
HETATM   17  C5  UNL     1      -3.092 -34.447  -9.480  1.00  0.00     0.178 A 
HETATM   18  N2  UNL     1      -3.894 -35.445  -9.116  1.00  0.00    -0.264 N 
HETATM   19  N3  UNL     1      -4.314 -35.244  -7.868  1.00  0.00    -0.006 NA
ATOM     20  H2  UNL     1      -4.148 -36.241  -9.701  1.00  0.00     0.186 HD
HETATM   21  N4  UNL     1      -3.765 -34.112  -7.459  1.00  0.00     0.001 NA
BRANCH  17  22
HETATM   22  S1  UNL     1      -2.223 -34.138 -11.007  1.00  0.00    -0.085 SA
BRANCH  22  23
HETATM   23  C4  UNL     1      -1.786 -35.694 -11.786  1.00  0.00     0.142 C 
BRANCH  23  24
HETATM   24  C3  UNL     1      -0.461 -35.658 -12.435  1.00  0.00     0.066 A 
HETATM   25  C2  UNL     1      -0.256 -36.325 -13.623  1.00  0.00     0.094 A 
HETATM   26  C13 UNL     1       0.973 -36.282 -14.208  1.00  0.00     0.160 A 
HETATM   27  N14 UNL     1       2.023 -35.607 -13.679  1.00  0.00    -0.177 N 
HETATM   28  N15 UNL     1       1.188 -36.973 -15.439  1.00  0.00    -0.080 NA
HETATM   29  C12 UNL     1       1.777 -34.964 -12.505  1.00  0.00     0.677 A 
ATOM     30  H14 UNL     1       2.937 -35.583 -14.130  1.00  0.00     0.185 HD
HETATM   31  N12 UNL     1       0.580 -34.984 -11.901  1.00  0.00    -0.193 N 
ATOM     32  H12 UNL     1       0.455 -34.481 -11.022  1.00  0.00     0.184 HD
BRANCH  25  33
HETATM   33  N1  UNL     1      -1.289 -37.066 -14.270  1.00  0.00    -0.390 N 
HETATM   34  C1  UNL     1      -2.136 -36.519 -15.300  1.00  0.00     0.146 C 
ATOM     35  H1  UNL     1      -1.436 -38.036 -13.989  1.00  0.00     0.159 HD
ENDBRANCH  25  33
BRANCH  29  36
HETATM   36  N13 UNL     1       2.784 -34.321 -12.006  1.00  0.00    -0.234 N 
ATOM     37 2H13 UNL     1       2.788 -34.242 -10.989  1.00  0.00     0.174 HD
ATOM     38 1H13 UNL     1       3.517 -33.928 -12.595  1.00  0.00     0.174 HD
ENDBRANCH  29  36
ENDBRANCH  23  24
ENDBRANCH  22  23
ENDBRANCH  17  22
ENDBRANCH  10  16
ENDBRANCH   5   6
BRANCH   5  39
HETATM   39  N8  UNL     1       0.977 -28.724  -7.307  1.00  0.00    -0.051 N 
ATOM     40  H83 UNL     1       1.130 -27.817  -6.865  1.00  0.00     0.277 HD
ATOM     41  H82 UNL     1       0.759 -29.275  -6.478  1.00  0.00     0.277 HD
ATOM     42  H81 UNL     1       1.827 -29.060  -7.760  1.00  0.00     0.277 HD
ENDBRANCH   5  39
ENDBRANCH   1   5
TORSDOF 9
ENDMDL
MODEL 4
REMARK VINA RESULT: -8.263482886      4.008      8.379
REMARK  9 active torsions:
REMARK  status: ('A' for Active; 'I' for Inactive)
REMARK    1  A    between atoms: N1_2  and  C2_4 
REMARK    2  A    between atoms: C3_5  and  C4_6 
REMARK    3  A    between atoms: C4_6  and  S1_7 
REMARK    4  A    between atoms: S1_7  and  C5_8 
REMARK    5  A    between atoms: N5_13  and  C6_14 
REMARK    6  A    between atoms: C8_19  and  C9_20 
REMARK    7  A    between atoms: C9_20  and  N8_21 
REMARK    8  A    between atoms: C9_20  and  N9_25 
REMARK    9  A    between atoms: C12_35  and  N13_36 
ROOT
HETATM    1  N9  UNL     1      -0.924 -27.419  -7.695  1.00  0.00    -0.293 N 
ATOM      2  H9  UNL     1      -1.626 -27.584  -6.974  1.00  0.00     0.174 HD
HETATM    3  C10 UNL     1      -0.737 -26.143  -8.232  1.00  0.00     0.179 C 
HETATM    4  N10 UNL     1      -0.595 -25.070  -8.682  1.00  0.00    -0.172 NA
ENDROOT
BRANCH   1   5
HETATM    5  C9  UNL     1      -0.107 -28.487  -8.179  1.00  0.00     0.358 C 
BRANCH   5   6
HETATM    6  C8  UNL     1      -0.877 -29.767  -8.307  1.00  0.00     0.137 A 
HETATM    7  N7  UNL     1      -0.405 -30.920  -7.802  1.00  0.00    -0.329 N 
HETATM    8  C7  UNL     1      -1.074 -32.094  -7.902  1.00  0.00     0.152 A 
ATOM      9  H7  UNL     1       0.496 -30.911  -7.324  1.00  0.00     0.168 HD
HETATM   10  C6  UNL     1      -2.294 -32.138  -8.542  1.00  0.00     0.165 A 
HETATM   11  N6  UNL     1      -0.563 -33.287  -7.368  1.00  0.00    -0.080 NA
HETATM   12  C11 UNL     1      -2.772 -30.949  -9.057  1.00  0.00     0.278 A 
HETATM   13  N11 UNL     1      -2.069 -29.808  -8.932  1.00  0.00    -0.308 N 
HETATM   14  O1  UNL     1      -3.891 -30.981  -9.645  1.00  0.00    -0.265 OA
ATOM     15  H11 UNL     1      -2.451 -28.947  -9.323  1.00  0.00     0.170 HD
BRANCH  10  16
HETATM   16  N5  UNL     1      -3.062 -33.325  -8.688  1.00  0.00    -0.210 N 
HETATM   17  C5  UNL     1      -3.121 -34.134  -9.785  1.00  0.00     0.178 A 
HETATM   18  N2  UNL     1      -3.956 -35.128  -9.492  1.00  0.00    -0.264 N 
HETATM   19  N3  UNL     1      -4.419 -34.968  -8.255  1.00  0.00    -0.006 NA
ATOM     20  H2  UNL     1      -4.203 -35.895 -10.119  1.00  0.00     0.186 HD
HETATM   21  N4  UNL     1      -3.864 -33.866  -7.779  1.00  0.00     0.001 NA
BRANCH  17  22
HETATM   22  S1  UNL     1      -2.188 -33.783 -11.265  1.00  0.00    -0.085 SA
BRANCH  22  23
HETATM   23  C4  UNL     1      -0.870 -34.986 -11.455  1.00  0.00     0.142 C 
BRANCH  23  24
HETATM   24  C3  UNL     1      -0.930 -35.703 -12.744  1.00  0.00     0.066 A 
HETATM   25  C2  UNL     1       0.172 -35.731 -13.570  1.00  0.00     0.094 A 
HETATM   26  C13 UNL     1       0.099 -36.398 -14.756  1.00  0.00     0.160 A 
HETATM   27  N14 UNL     1      -1.015 -37.045 -15.175  1.00  0.00    -0.177 N 
HETATM   28  N15 UNL     1       1.240 -36.428 -15.614  1.00  0.00    -0.080 NA
HETATM   29  C12 UNL     1      -2.080 -36.990 -14.330  1.00  0.00     0.677 A 
ATOM     30  H14 UNL     1      -1.054 -37.540 -16.066  1.00  0.00     0.185 HD
HETATM   31  N12 UNL     1      -2.045 -36.345 -13.155  1.00  0.00    -0.193 N 
ATOM     32  H12 UNL     1      -2.874 -36.339 -12.562  1.00  0.00     0.184 HD
BRANCH  25  33
HETATM   33  N1  UNL     1       1.397 -35.085 -13.230  1.00  0.00    -0.390 N 
HETATM   34  C1  UNL     1       2.413 -35.688 -12.404  1.00  0.00     0.146 C 
ATOM     35  H1  UNL     1       1.564 -34.146 -13.591  1.00  0.00     0.159 HD
ENDBRANCH  25  33
BRANCH  29  36
HETATM   36  N13 UNL     1      -3.141 -37.611 -14.737  1.00  0.00    -0.234 N 
ATOM     37 2H13 UNL     1      -2.979 -38.537 -15.131  1.00  0.00     0.174 HD
ATOM     38 1H13 UNL     1      -4.070 -37.195 -14.664  1.00  0.00     0.174 HD
ENDBRANCH  29  36
ENDBRANCH  23  24
ENDBRANCH  22  23
ENDBRANCH  17  22
ENDBRANCH  10  16
ENDBRANCH   5   6
BRANCH   5  39
HETATM   39  N8  UNL     1       1.045 -28.623  -7.322  1.00  0.00    -0.051 N 
ATOM     40  H83 UNL     1       0.829 -29.186  -6.500  1.00  0.00     0.277 HD
ATOM     41  H82 UNL     1       1.752 -29.222  -7.748  1.00  0.00     0.277 HD
ATOM     42  H81 UNL     1       1.440 -27.721  -7.056  1.00  0.00     0.277 HD
ENDBRANCH   5  39
ENDBRANCH   1   5
TORSDOF 9
ENDMDL
MODEL 5
REMARK VINA RESULT: -8.214078507      2.471      3.082
REMARK  9 active torsions:
REMARK  status: ('A' for Active; 'I' for Inactive)
REMARK    1  A    between atoms: N1_2  and  C2_4 
REMARK    2  A    between atoms: C3_5  and  C4_6 
REMARK    3  A    between atoms: C4_6  and  S1_7 
REMARK    4  A    between atoms: S1_7  and  C5_8 
REMARK    5  A    between atoms: N5_13  and  C6_14 
REMARK    6  A    between atoms: C8_19  and  C9_20 
REMARK    7  A    between atoms: C9_20  and  N8_21 
REMARK    8  A    between atoms: C9_20  and  N9_25 
REMARK    9  A    between atoms: C12_35  and  N13_36 
ROOT
HETATM    1  N9  UNL     1      -5.000 -34.462  -2.706  1.00  0.00    -0.293 N 
ATOM      2  H9  UNL     1      -4.225 -35.113  -2.587  1.00  0.00     0.174 HD
HETATM    3  C10 UNL     1      -5.371 -33.595  -1.675  1.00  0.00     0.179 C 
HETATM    4  N10 UNL     1      -5.679 -32.879  -0.800  1.00  0.00    -0.172 NA
ENDROOT
BRANCH   1   5
HETATM    5  C9  UNL     1      -5.733 -34.413  -3.932  1.00  0.00     0.358 C 
BRANCH   5   6
HETATM    6  C8  UNL     1      -4.836 -34.536  -5.126  1.00  0.00     0.137 A 
HETATM    7  N7  UNL     1      -5.327 -34.495  -6.377  1.00  0.00    -0.329 N 
HETATM    8  C7  UNL     1      -4.545 -34.604  -7.478  1.00  0.00     0.152 A 
ATOM      9  H7  UNL     1      -6.333 -34.378  -6.503  1.00  0.00     0.168 HD
HETATM   10  C6  UNL     1      -3.182 -34.764  -7.340  1.00  0.00     0.165 A 
HETATM   11  N6  UNL     1      -5.079 -34.560  -8.775  1.00  0.00    -0.080 NA
HETATM   12  C11 UNL     1      -2.686 -34.804  -6.052  1.00  0.00     0.278 A 
HETATM   13  N11 UNL     1      -3.505 -34.692  -4.991  1.00  0.00    -0.308 N 
HETATM   14  O1  UNL     1      -1.437 -34.950  -5.917  1.00  0.00    -0.265 OA
ATOM     15  H11 UNL     1      -3.105 -34.724  -4.053  1.00  0.00     0.170 HD
BRANCH  10  16
HETATM   16  N5  UNL     1      -2.291 -34.883  -8.441  1.00  0.00    -0.210 N 
HETATM   17  C5  UNL     1      -1.679 -33.865  -9.114  1.00  0.00     0.178 A 
HETATM   18  N2  UNL     1      -0.934 -34.421 -10.067  1.00  0.00    -0.264 N 
HETATM   19  N3  UNL     1      -1.060 -35.745 -10.013  1.00  0.00    -0.006 NA
ATOM     20  H2  UNL     1      -0.356 -33.911 -10.736  1.00  0.00     0.186 HD
HETATM   21  N4  UNL     1      -1.889 -36.009  -9.016  1.00  0.00     0.001 NA
BRANCH  17  22
HETATM   22  S1  UNL     1      -1.936 -32.156  -8.673  1.00  0.00    -0.085 SA
BRANCH  22  23
HETATM   23  C4  UNL     1      -3.020 -31.374  -9.870  1.00  0.00     0.142 C 
BRANCH  23  24
HETATM   24  C3  UNL     1      -4.222 -30.780  -9.253  1.00  0.00     0.066 A 
HETATM   25  C2  UNL     1      -4.679 -29.551  -9.675  1.00  0.00     0.094 A 
HETATM   26  C13 UNL     1      -5.790 -29.017  -9.094  1.00  0.00     0.160 A 
HETATM   27  N14 UNL     1      -6.482 -29.639  -8.109  1.00  0.00    -0.177 N 
HETATM   28  N15 UNL     1      -6.265 -27.743  -9.530  1.00  0.00    -0.080 NA
HETATM   29  C12 UNL     1      -5.996 -30.850  -7.722  1.00  0.00     0.677 A 
ATOM     30  H14 UNL     1      -7.313 -29.227  -7.685  1.00  0.00     0.185 HD
HETATM   31  N12 UNL     1      -4.906 -31.406  -8.271  1.00  0.00    -0.193 N 
ATOM     32  H12 UNL     1      -4.589 -32.317  -7.941  1.00  0.00     0.184 HD
BRANCH  25  33
HETATM   33  N1  UNL     1      -4.029 -28.808 -10.704  1.00  0.00    -0.390 N 
HETATM   34  C1  UNL     1      -4.320 -28.968 -12.107  1.00  0.00     0.146 C 
ATOM     35  H1  UNL     1      -3.321 -28.126 -10.433  1.00  0.00     0.159 HD
ENDBRANCH  25  33
BRANCH  29  36
HETATM   36  N13 UNL     1      -6.663 -31.438  -6.781  1.00  0.00    -0.234 N 
ATOM     37 2H13 UNL     1      -6.096 -31.873  -6.053  1.00  0.00     0.174 HD
ATOM     38 1H13 UNL     1      -7.682 -31.458  -6.775  1.00  0.00     0.174 HD
ENDBRANCH  29  36
ENDBRANCH  23  24
ENDBRANCH  22  23
ENDBRANCH  17  22
ENDBRANCH  10  16
ENDBRANCH   5   6
BRANCH   5  39
HETATM   39  N8  UNL     1      -6.523 -33.206  -3.961  1.00  0.00    -0.051 N 
ATOM     40  H83 UNL     1      -6.220 -32.551  -3.240  1.00  0.00     0.277 HD
ATOM     41  H82 UNL     1      -6.312 -32.648  -4.787  1.00  0.00     0.277 HD
ATOM     42  H81 UNL     1      -7.523 -33.395  -3.890  1.00  0.00     0.277 HD
ENDBRANCH   5  39
ENDBRANCH   1   5
TORSDOF 9
ENDMDL
