MODEL 1
REMARK VINA RESULT: -6.161001315      0.000      0.000
REMARK  7 active torsions:
REMARK  status: ('A' for Active; 'I' for Inactive)
REMARK    1  A    between atoms: C3_3  and  O2_5 
REMARK    2  A    between atoms: O2_5  and  C4_6 
REMARK    3  A    between atoms: C4_6  and  C5_7 
REMARK    4  A    between atoms: C6_9  and  O4_10 
REMARK    5  A    between atoms: C13_19  and  N1_20 
REMARK       I    between atoms: N1_20  and  C14_22 
REMARK    6  A    between atoms: C14_22  and  O8_24 
REMARK    7  A    between atoms: O8_24  and  C15_25 
ROOT
HETATM    1  C1  UNL     1     -17.761 -11.571 -29.405  1.00  0.00     0.023 C 
HETATM    2  C2  UNL     1     -17.597 -10.387 -29.243  1.00  0.00    -0.009 C 
HETATM    3  C3  UNL     1     -17.424  -8.961 -29.038  1.00  0.00     0.338 C 
HETATM    4  O1  UNL     1     -17.974  -8.191 -29.856  1.00  0.00    -0.249 OA
ENDROOT
BRANCH   3   5
HETATM    5  O2  UNL     1     -16.707  -8.426 -28.023  1.00  0.00    -0.308 OA
BRANCH   5   6
HETATM    6  C4  UNL     1     -16.707  -8.688 -26.671  1.00  0.00     0.214 C 
BRANCH   6   7
HETATM    7  C5  UNL     1     -15.416  -8.692 -25.944  1.00  0.00     0.181 C 
HETATM    8  O3  UNL     1     -15.308  -9.452 -24.823  1.00  0.00    -0.351 OA
HETATM    9  C6  UNL     1     -14.048  -9.960 -24.566  1.00  0.00     0.266 C 
HETATM   10  C8  UNL     1     -13.501  -9.472 -23.230  1.00  0.00     0.066 C 
HETATM   11  C9  UNL     1     -12.558 -10.515 -22.668  1.00  0.00     0.017 C 
HETATM   12  C10 UNL     1     -12.761  -8.181 -23.332  1.00  0.00     0.136 C 
HETATM   13  C11 UNL     1     -11.345  -8.264 -22.805  1.00  0.00     0.040 C 
HETATM   14  O5  UNL     1     -12.722  -7.627 -24.620  1.00  0.00    -0.314 OA
HETATM   15  C12 UNL     1     -13.678  -7.098 -25.461  1.00  0.00     0.284 C 
HETATM   16  O6  UNL     1     -13.258  -6.341 -26.366  1.00  0.00    -0.263 OA
HETATM   17  C13 UNL     1     -15.150  -7.242 -25.522  1.00  0.00     0.217 C 
BRANCH   9  18
HETATM   18  O4  UNL     1     -14.147 -11.364 -24.435  1.00  0.00    -0.366 OA
HETATM   19  C7  UNL     1     -14.050 -11.985 -25.676  1.00  0.00     0.204 C 
ENDBRANCH   9  18
BRANCH  17  20
HETATM   20  N1  UNL     1     -15.742  -6.295 -26.408  1.00  0.00    -0.320 N 
HETATM   21  C14 UNL     1     -16.302  -5.104 -25.901  1.00  0.00     0.362 C 
HETATM   22  O7  UNL     1     -16.285  -4.866 -24.665  1.00  0.00    -0.238 OA
ATOM     23  H1  UNL     1     -15.761  -6.480 -27.411  1.00  0.00     0.165 HD
BRANCH  21  24
HETATM   24  O8  UNL     1     -16.897  -4.136 -26.696  1.00  0.00    -0.294 OA
BRANCH  24  25
HETATM   25  C15 UNL     1     -18.263  -4.164 -27.048  1.00  0.00     0.061 C 
HETATM   26  C16 UNL     1     -18.690  -5.487 -27.620  1.00  0.00     0.046 C 
HETATM   27  C17 UNL     1     -19.177  -3.822 -25.910  1.00  0.00     0.046 C 
HETATM   28  C18 UNL     1     -18.470  -3.114 -28.128  1.00  0.00     0.046 C 
ENDBRANCH  24  25
ENDBRANCH  21  24
ENDBRANCH  17  20
ENDBRANCH   6   7
ENDBRANCH   5   6
ENDBRANCH   3   5
TORSDOF 7
ENDMDL
MODEL 2
REMARK VINA RESULT: -5.968130474      2.545      7.461
REMARK  7 active torsions:
REMARK  status: ('A' for Active; 'I' for Inactive)
REMARK    1  A    between atoms: C3_3  and  O2_5 
REMARK    2  A    between atoms: O2_5  and  C4_6 
REMARK    3  A    between atoms: C4_6  and  C5_7 
REMARK    4  A    between atoms: C6_9  and  O4_10 
REMARK    5  A    between atoms: C13_19  and  N1_20 
REMARK       I    between atoms: N1_20  and  C14_22 
REMARK    6  A    between atoms: C14_22  and  O8_24 
REMARK    7  A    between atoms: O8_24  and  C15_25 
ROOT
HETATM    1  C1  UNL     1     -15.324  -5.155 -25.739  1.00  0.00     0.023 C 
HETATM    2  C2  UNL     1     -14.838  -6.069 -25.120  1.00  0.00    -0.009 C 
HETATM    3  C3  UNL     1     -14.274  -7.170 -24.361  1.00  0.00     0.338 C 
HETATM    4  O1  UNL     1     -13.809  -6.909 -23.230  1.00  0.00    -0.249 OA
ENDROOT
BRANCH   3   5
HETATM    5  O2  UNL     1     -14.225  -8.447 -24.806  1.00  0.00    -0.308 OA
BRANCH   5   6
HETATM    6  C4  UNL     1     -13.562  -9.015 -25.871  1.00  0.00     0.214 C 
BRANCH   6   7
HETATM    7  C5  UNL     1     -14.339  -9.793 -26.863  1.00  0.00     0.181 C 
HETATM    8  O3  UNL     1     -15.645  -9.471 -27.057  1.00  0.00    -0.351 OA
HETATM    9  C6  UNL     1     -16.130  -9.692 -28.332  1.00  0.00     0.266 C 
HETATM   10  C8  UNL     1     -17.283 -10.689 -28.337  1.00  0.00     0.066 C 
HETATM   11  C9  UNL     1     -18.202 -10.381 -29.501  1.00  0.00     0.017 C 
HETATM   12  C10 UNL     1     -16.836 -12.106 -28.458  1.00  0.00     0.136 C 
HETATM   13  C11 UNL     1     -17.456 -12.827 -29.636  1.00  0.00     0.040 C 
HETATM   14  O5  UNL     1     -15.446 -12.281 -28.516  1.00  0.00    -0.314 OA
HETATM   15  C12 UNL     1     -14.420 -12.078 -27.617  1.00  0.00     0.284 C 
HETATM   16  O6  UNL     1     -13.355 -12.696 -27.847  1.00  0.00    -0.263 OA
HETATM   17  C13 UNL     1     -14.308 -11.252 -26.394  1.00  0.00     0.217 C 
BRANCH   9  18
HETATM   18  O4  UNL     1     -16.683  -8.485 -28.819  1.00  0.00    -0.366 OA
HETATM   19  C7  UNL     1     -17.144  -7.695 -27.771  1.00  0.00     0.204 C 
ENDBRANCH   9  18
BRANCH  17  20
HETATM   20  N1  UNL     1     -13.135 -11.563 -25.646  1.00  0.00    -0.320 N 
HETATM   21  C14 UNL     1     -13.243 -12.024 -24.317  1.00  0.00     0.362 C 
HETATM   22  O7  UNL     1     -14.372 -12.166 -23.781  1.00  0.00    -0.238 OA
ATOM     23  H1  UNL     1     -12.215 -11.452 -26.073  1.00  0.00     0.165 HD
BRANCH  21  24
HETATM   24  O8  UNL     1     -12.151 -12.346 -23.525  1.00  0.00    -0.294 OA
BRANCH  24  25
HETATM   25  C15 UNL     1     -11.455 -11.392 -22.753  1.00  0.00     0.061 C 
HETATM   26  C16 UNL     1     -10.871 -11.975 -21.495  1.00  0.00     0.046 C 
HETATM   27  C17 UNL     1     -10.359 -10.701 -23.507  1.00  0.00     0.046 C 
HETATM   28  C18 UNL     1     -12.461 -10.331 -22.337  1.00  0.00     0.046 C 
ENDBRANCH  24  25
ENDBRANCH  21  24
ENDBRANCH  17  20
ENDBRANCH   6   7
ENDBRANCH   5   6
ENDBRANCH   3   5
TORSDOF 7
ENDMDL
MODEL 3
REMARK VINA RESULT: -5.884732594      0.950      1.007
REMARK  7 active torsions:
REMARK  status: ('A' for Active; 'I' for Inactive)
REMARK    1  A    between atoms: C3_3  and  O2_5 
REMARK    2  A    between atoms: O2_5  and  C4_6 
REMARK    3  A    between atoms: C4_6  and  C5_7 
REMARK    4  A    between atoms: C6_9  and  O4_10 
REMARK    5  A    between atoms: C13_19  and  N1_20 
REMARK       I    between atoms: N1_20  and  C14_22 
REMARK    6  A    between atoms: C14_22  and  O8_24 
REMARK    7  A    between atoms: O8_24  and  C15_25 
ROOT
HETATM    1  C1  UNL     1     -17.495 -11.143 -29.091  1.00  0.00     0.023 C 
HETATM    2  C2  UNL     1     -17.556  -9.938 -29.128  1.00  0.00    -0.009 C 
HETATM    3  C3  UNL     1     -17.656  -8.491 -29.168  1.00  0.00     0.338 C 
HETATM    4  O1  UNL     1     -18.170  -7.978 -30.186  1.00  0.00    -0.249 OA
ENDROOT
BRANCH   3   5
HETATM    5  O2  UNL     1     -17.227  -7.678 -28.176  1.00  0.00    -0.308 OA
BRANCH   5   6
HETATM    6  C4  UNL     1     -17.006  -7.913 -26.837  1.00  0.00     0.214 C 
BRANCH   6   7
HETATM    7  C5  UNL     1     -15.617  -8.127 -26.369  1.00  0.00     0.181 C 
HETATM    8  O3  UNL     1     -15.386  -9.111 -25.460  1.00  0.00    -0.351 OA
HETATM    9  C6  UNL     1     -14.145  -9.716 -25.540  1.00  0.00     0.266 C 
HETATM   10  C8  UNL     1     -13.346  -9.545 -24.254  1.00  0.00     0.066 C 
HETATM   11  C9  UNL     1     -12.409 -10.724 -24.090  1.00  0.00     0.017 C 
HETATM   12  C10 UNL     1     -12.532  -8.296 -24.227  1.00  0.00     0.136 C 
HETATM   13  C11 UNL     1     -11.059  -8.550 -23.990  1.00  0.00     0.040 C 
HETATM   14  O5  UNL     1     -12.663  -7.485 -25.364  1.00  0.00    -0.314 OA
HETATM   15  C12 UNL     1     -13.700  -6.750 -25.897  1.00  0.00     0.284 C 
HETATM   16  O6  UNL     1     -13.377  -5.838 -26.694  1.00  0.00    -0.263 OA
HETATM   17  C13 UNL     1     -15.168  -6.812 -25.721  1.00  0.00     0.217 C 
BRANCH   9  18
HETATM   18  O4  UNL     1     -14.333 -11.111 -25.676  1.00  0.00    -0.366 OA
HETATM   19  C7  UNL     1     -14.401 -11.472 -27.018  1.00  0.00     0.204 C 
ENDBRANCH   9  18
BRANCH  17  20
HETATM   20  N1  UNL     1     -15.821  -5.675 -26.279  1.00  0.00    -0.320 N 
HETATM   21  C14 UNL     1     -16.187  -4.591 -25.453  1.00  0.00     0.362 C 
HETATM   22  O7  UNL     1     -15.941  -4.617 -24.219  1.00  0.00    -0.238 OA
ATOM     23  H1  UNL     1     -16.024  -5.644 -27.278  1.00  0.00     0.165 HD
BRANCH  21  24
HETATM   24  O8  UNL     1     -16.826  -3.451 -25.919  1.00  0.00    -0.294 OA
BRANCH  24  25
HETATM   25  C15 UNL     1     -18.229  -3.309 -25.934  1.00  0.00     0.061 C 
HETATM   26  C16 UNL     1     -18.943  -4.605 -26.206  1.00  0.00     0.046 C 
HETATM   27  C17 UNL     1     -18.781  -2.721 -24.671  1.00  0.00     0.046 C 
HETATM   28  C18 UNL     1     -18.572  -2.356 -27.068  1.00  0.00     0.046 C 
ENDBRANCH  24  25
ENDBRANCH  21  24
ENDBRANCH  17  20
ENDBRANCH   6   7
ENDBRANCH   5   6
ENDBRANCH   3   5
TORSDOF 7
ENDMDL
MODEL 4
REMARK VINA RESULT: -5.845618168      2.528      6.922
REMARK  7 active torsions:
REMARK  status: ('A' for Active; 'I' for Inactive)
REMARK    1  A    between atoms: C3_3  and  O2_5 
REMARK    2  A    between atoms: O2_5  and  C4_6 
REMARK    3  A    between atoms: C4_6  and  C5_7 
REMARK    4  A    between atoms: C6_9  and  O4_10 
REMARK    5  A    between atoms: C13_19  and  N1_20 
REMARK       I    between atoms: N1_20  and  C14_22 
REMARK    6  A    between atoms: C14_22  and  O8_24 
REMARK    7  A    between atoms: O8_24  and  C15_25 
ROOT
HETATM    1  C1  UNL     1     -11.418 -11.787 -22.091  1.00  0.00     0.023 C 
HETATM    2  C2  UNL     1     -12.029 -12.030 -23.103  1.00  0.00    -0.009 C 
HETATM    3  C3  UNL     1     -12.776 -12.300 -24.317  1.00  0.00     0.338 C 
HETATM    4  O1  UNL     1     -13.953 -12.701 -24.190  1.00  0.00    -0.249 OA
ENDROOT
BRANCH   3   5
HETATM    5  O2  UNL     1     -12.272 -12.144 -25.563  1.00  0.00    -0.308 OA
BRANCH   5   6
HETATM    6  C4  UNL     1     -12.406 -11.122 -26.477  1.00  0.00     0.214 C 
BRANCH   6   7
HETATM    7  C5  UNL     1     -13.684 -10.377 -26.534  1.00  0.00     0.181 C 
HETATM    8  O3  UNL     1     -14.248 -10.151 -27.750  1.00  0.00    -0.351 OA
HETATM    9  C6  UNL     1     -15.628 -10.087 -27.765  1.00  0.00     0.266 C 
HETATM   10  C8  UNL     1     -16.129  -8.734 -28.258  1.00  0.00     0.066 C 
HETATM   11  C9  UNL     1     -17.479  -8.915 -28.920  1.00  0.00     0.017 C 
HETATM   12  C10 UNL     1     -16.275  -7.727 -27.168  1.00  0.00     0.136 C 
HETATM   13  C11 UNL     1     -17.670  -7.147 -27.078  1.00  0.00     0.040 C 
HETATM   14  O5  UNL     1     -15.903  -8.182 -25.895  1.00  0.00    -0.314 OA
HETATM   15  C12 UNL     1     -14.703  -8.558 -25.329  1.00  0.00     0.284 C 
HETATM   16  O6  UNL     1     -14.652  -8.535 -24.078  1.00  0.00    -0.263 OA
HETATM   17  C13 UNL     1     -13.416  -9.002 -25.910  1.00  0.00     0.217 C 
BRANCH   9  18
HETATM   18  O4  UNL     1     -16.113 -11.026 -28.705  1.00  0.00    -0.366 OA
HETATM   19  C7  UNL     1     -15.795 -12.323 -28.317  1.00  0.00     0.204 C 
ENDBRANCH   9  18
BRANCH  17  20
HETATM   20  N1  UNL     1     -12.375  -9.036 -24.937  1.00  0.00    -0.320 N 
HETATM   21  C14 UNL     1     -11.484  -7.949 -24.815  1.00  0.00     0.362 C 
HETATM   22  O7  UNL     1     -11.599  -6.942 -25.561  1.00  0.00    -0.238 OA
ATOM     23  H1  UNL     1     -12.274  -9.847 -24.328  1.00  0.00     0.165 HD
BRANCH  21  24
HETATM   24  O8  UNL     1     -10.446  -7.906 -23.895  1.00  0.00    -0.294 OA
BRANCH  24  25
HETATM   25  C15 UNL     1      -9.160  -8.419 -24.165  1.00  0.00     0.061 C 
HETATM   26  C16 UNL     1      -9.191  -9.627 -25.060  1.00  0.00     0.046 C 
HETATM   27  C17 UNL     1      -8.230  -7.408 -24.766  1.00  0.00     0.046 C 
HETATM   28  C18 UNL     1      -8.562  -8.854 -22.836  1.00  0.00     0.046 C 
ENDBRANCH  24  25
ENDBRANCH  21  24
ENDBRANCH  17  20
ENDBRANCH   6   7
ENDBRANCH   5   6
ENDBRANCH   3   5
TORSDOF 7
ENDMDL
MODEL 5
REMARK VINA RESULT: -5.822432629      1.892      2.446
REMARK  7 active torsions:
REMARK  status: ('A' for Active; 'I' for Inactive)
REMARK    1  A    between atoms: C3_3  and  O2_5 
REMARK    2  A    between atoms: O2_5  and  C4_6 
REMARK    3  A    between atoms: C4_6  and  C5_7 
REMARK    4  A    between atoms: C6_9  and  O4_10 
REMARK    5  A    between atoms: C13_19  and  N1_20 
REMARK       I    between atoms: N1_20  and  C14_22 
REMARK    6  A    between atoms: C14_22  and  O8_24 
REMARK    7  A    between atoms: O8_24  and  C15_25 
ROOT
HETATM    1  C1  UNL     1     -17.464 -11.941 -29.083  1.00  0.00     0.023 C 
HETATM    2  C2  UNL     1     -17.370 -10.767 -28.820  1.00  0.00    -0.009 C 
HETATM    3  C3  UNL     1     -17.282  -9.355 -28.496  1.00  0.00     0.338 C 
HETATM    4  O1  UNL     1     -17.775  -8.547 -29.313  1.00  0.00    -0.249 OA
ENDROOT
BRANCH   3   5
HETATM    5  O2  UNL     1     -16.701  -8.873 -27.373  1.00  0.00    -0.308 OA
BRANCH   5   6
HETATM    6  C4  UNL     1     -15.443  -8.363 -27.146  1.00  0.00     0.214 C 
BRANCH   6   7
HETATM    7  C5  UNL     1     -14.467  -9.179 -26.387  1.00  0.00     0.181 C 
HETATM    8  O3  UNL     1     -14.888 -10.354 -25.849  1.00  0.00    -0.351 OA
HETATM    9  C6  UNL     1     -13.928 -11.344 -25.757  1.00  0.00     0.266 C 
HETATM   10  C8  UNL     1     -13.695 -11.777 -24.314  1.00  0.00     0.066 C 
HETATM   11  C9  UNL     1     -13.251 -13.225 -24.295  1.00  0.00     0.017 C 
HETATM   12  C10 UNL     1     -12.660 -10.962 -23.614  1.00  0.00     0.136 C 
HETATM   13  C11 UNL     1     -11.529 -11.795 -23.049  1.00  0.00     0.040 C 
HETATM   14  O5  UNL     1     -12.106  -9.929 -24.384  1.00  0.00    -0.314 OA
HETATM   15  C12 UNL     1     -12.608  -8.761 -24.915  1.00  0.00     0.284 C 
HETATM   16  O6  UNL     1     -11.765  -7.883 -25.212  1.00  0.00    -0.263 OA
HETATM   17  C13 UNL     1     -13.984  -8.307 -25.221  1.00  0.00     0.217 C 
BRANCH   9  18
HETATM   18  O4  UNL     1     -14.408 -12.500 -26.416  1.00  0.00    -0.366 OA
HETATM   19  C7  UNL     1     -14.068 -12.475 -27.765  1.00  0.00     0.204 C 
ENDBRANCH   9  18
BRANCH  17  20
HETATM   20  N1  UNL     1     -14.033  -6.915 -25.521  1.00  0.00    -0.320 N 
HETATM   21  C14 UNL     1     -14.215  -5.973 -24.486  1.00  0.00     0.362 C 
HETATM   22  O7  UNL     1     -14.335  -6.352 -23.292  1.00  0.00    -0.238 OA
ATOM     23  H1  UNL     1     -13.936  -6.598 -26.486  1.00  0.00     0.165 HD
BRANCH  21  24
HETATM   24  O8  UNL     1     -14.274  -4.604 -24.696  1.00  0.00    -0.294 OA
BRANCH  24  25
HETATM   25  C15 UNL     1     -15.490  -3.899 -24.829  1.00  0.00     0.061 C 
HETATM   26  C16 UNL     1     -16.599  -4.751 -25.382  1.00  0.00     0.046 C 
HETATM   27  C17 UNL     1     -15.962  -3.281 -23.547  1.00  0.00     0.046 C 
HETATM   28  C18 UNL     1     -15.249  -2.770 -25.817  1.00  0.00     0.046 C 
ENDBRANCH  24  25
ENDBRANCH  21  24
ENDBRANCH  17  20
ENDBRANCH   6   7
ENDBRANCH   5   6
ENDBRANCH   3   5
TORSDOF 7
ENDMDL
