MODEL 1
REMARK VINA RESULT: -7.658263451      0.000      0.000
REMARK  11 active torsions:
REMARK  status: ('A' for Active; 'I' for Inactive)
REMARK    1  A    between atoms: C2_2  and  C3_3 
REMARK    2  A    between atoms: C2_2  and  C11_15 
REMARK    3  A    between atoms: C3_3  and  C4_4 
REMARK    4  A    between atoms: C4_4  and  C5_5 
REMARK    5  A    between atoms: C5_5  and  N1_6 
REMARK    6  A    between atoms: N1_6  and  C7_8 
REMARK    7  A    between atoms: N1_6  and  C8_10 
REMARK    8  A    between atoms: C9_11  and  C10_12 
REMARK       I    between atoms: C11_15  and  N3_17 
REMARK    9  A    between atoms: C15_24  and  C16_25 
REMARK   10  A    between atoms: C16_25  and  N5_26 
REMARK   11  A    between atoms: C20_31  and  C22_33 
ROOT
HETATM    1  C11 UNL     1      21.271   1.637  18.374  1.00  0.00     0.239 C 
HETATM    2  O3  UNL     1      22.010   0.639  18.297  1.00  0.00    -0.272 OA
HETATM    3  N3  UNL     1      21.551   2.653  19.305  1.00  0.00    -0.159 N 
ATOM      4  H3  UNL     1      22.352   3.252  19.105  1.00  0.00     0.187 HD
HETATM    5  C12 UNL     1      20.901   2.897  20.376  1.00  0.00     0.687 A 
HETATM    6  N4  UNL     1      19.830   2.310  20.909  1.00  0.00    -0.188 N 
ATOM      7  H4  UNL     1      19.344   1.514  20.494  1.00  0.00     0.184 HD
HETATM    8  C13 UNL     1      19.472   2.901  22.066  1.00  0.00     0.095 A 
HETATM    9  C14 UNL     1      18.636   2.984  23.153  1.00  0.00     0.060 A 
HETATM   10  C15 UNL     1      19.035   4.032  23.986  1.00  0.00     0.039 A 
HETATM   11  N8  UNL     1      20.108   4.567  23.385  1.00  0.00    -0.342 N 
ATOM     12  H8  UNL     1      20.635   5.360  23.751  1.00  0.00     0.167 HD
HETATM   13  C25 UNL     1      20.404   3.928  22.243  1.00  0.00     0.148 A 
HETATM   14  N9  UNL     1      21.244   3.902  21.219  1.00  0.00    -0.174 N 
ATOM     15  H9  UNL     1      22.029   4.541  21.085  1.00  0.00     0.186 HD
ENDROOT
BRANCH   1  16
HETATM   16  C2  UNL     1      20.090   1.739  17.468  1.00  0.00     0.074 C 
HETATM   17  C1  UNL     1      19.559   3.141  17.416  1.00  0.00     0.020 C 
BRANCH  16  18
HETATM   18  C3  UNL     1      19.068   0.714  17.732  1.00  0.00     0.015 C 
BRANCH  18  19
HETATM   19  C4  UNL     1      17.648   1.045  17.873  1.00  0.00     0.030 C 
BRANCH  19  20
HETATM   20  C5  UNL     1      17.087   1.134  19.250  1.00  0.00     0.252 C 
BRANCH  20  21
HETATM   21  N1  UNL     1      15.822   1.886  19.210  1.00  0.00     0.003 N 
HETATM   22  C6  UNL     1      14.966   1.550  20.321  1.00  0.00     0.288 C 
BRANCH  21  23
HETATM   23  C7  UNL     1      15.134   1.587  18.004  1.00  0.00     0.464 C 
HETATM   24  O1  UNL     1      14.359   2.370  17.506  1.00  0.00    -0.275 OA
ENDBRANCH  21  23
BRANCH  21  25
HETATM   25  C8  UNL     1      16.102   3.296  19.296  1.00  0.00     0.216 C 
HETATM   26  C9  UNL     1      15.817   3.929  20.417  1.00  0.00     0.096 C 
BRANCH  26  27
HETATM   27  C10 UNL     1      16.086   5.342  20.531  1.00  0.00     0.256 C 
HETATM   28  N2  UNL     1      17.401   5.779  20.833  1.00  0.00    -0.058 NA
HETATM   29  O2  UNL     1      15.174   6.192  20.367  1.00  0.00    -0.272 OA
ENDBRANCH  26  27
ENDBRANCH  21  25
ENDBRANCH  20  21
ENDBRANCH  19  20
ENDBRANCH  18  19
ENDBRANCH  16  18
ENDBRANCH   1  16
BRANCH  10  30
HETATM   30  C16 UNL     1      18.384   4.440  25.256  1.00  0.00     0.301 C 
BRANCH  30  31
HETATM   31  N5  UNL     1      17.515   5.577  25.123  1.00  0.00    -0.032 N 
HETATM   32  C17 UNL     1      18.201   6.703  24.562  1.00  0.00     0.280 C 
HETATM   33  C18 UNL     1      16.937   5.823  26.395  1.00  0.00     0.292 C 
HETATM   34  N6  UNL     1      15.795   6.315  26.637  1.00  0.00    -0.357 N 
HETATM   35  C19 UNL     1      15.347   6.504  28.022  1.00  0.00     0.151 C 
HETATM   36  C20 UNL     1      14.893   6.713  25.611  1.00  0.00     0.109 C 
HETATM   37  C21 UNL     1      13.482   6.220  25.924  1.00  0.00     0.049 C 
HETATM   38  C23 UNL     1      15.334   6.239  24.278  1.00  0.00     0.068 C 
HETATM   39  C24 UNL     1      16.384   5.169  24.271  1.00  0.00     0.247 C 
BRANCH  36  40
HETATM   40  C22 UNL     1      14.776   8.219  25.650  1.00  0.00     0.259 C 
HETATM   41  N7  UNL     1      13.512   8.863  25.499  1.00  0.00    -0.060 NA
HETATM   42  O4  UNL     1      15.812   8.900  25.816  1.00  0.00    -0.274 OA
ENDBRANCH  36  40
ENDBRANCH  30  31
ENDBRANCH  10  30
TORSDOF 11
ENDMDL
MODEL 2
REMARK VINA RESULT: -7.596234029      2.480      9.151
REMARK  11 active torsions:
REMARK  status: ('A' for Active; 'I' for Inactive)
REMARK    1  A    between atoms: C2_2  and  C3_3 
REMARK    2  A    between atoms: C2_2  and  C11_15 
REMARK    3  A    between atoms: C3_3  and  C4_4 
REMARK    4  A    between atoms: C4_4  and  C5_5 
REMARK    5  A    between atoms: C5_5  and  N1_6 
REMARK    6  A    between atoms: N1_6  and  C7_8 
REMARK    7  A    between atoms: N1_6  and  C8_10 
REMARK    8  A    between atoms: C9_11  and  C10_12 
REMARK       I    between atoms: C11_15  and  N3_17 
REMARK    9  A    between atoms: C15_24  and  C16_25 
REMARK   10  A    between atoms: C16_25  and  N5_26 
REMARK   11  A    between atoms: C20_31  and  C22_33 
ROOT
HETATM    1  C11 UNL     1      14.643  10.653  24.028  1.00  0.00     0.239 C 
HETATM    2  O3  UNL     1      14.178  11.459  23.201  1.00  0.00    -0.272 OA
HETATM    3  N3  UNL     1      15.892  10.049  23.800  1.00  0.00    -0.159 N 
ATOM      4  H3  UNL     1      16.716  10.642  23.903  1.00  0.00     0.187 HD
HETATM    5  C12 UNL     1      16.094   8.831  23.476  1.00  0.00     0.687 A 
HETATM    6  N4  UNL     1      15.248   7.823  23.267  1.00  0.00    -0.188 N 
ATOM      7  H4  UNL     1      14.233   7.899  23.346  1.00  0.00     0.184 HD
HETATM    8  C13 UNL     1      15.903   6.692  22.939  1.00  0.00     0.095 A 
HETATM    9  C14 UNL     1      15.888   5.361  22.599  1.00  0.00     0.060 A 
HETATM   10  C15 UNL     1      17.193   4.901  22.404  1.00  0.00     0.039 A 
HETATM   11  N8  UNL     1      17.976   5.965  22.630  1.00  0.00    -0.342 N 
ATOM     12  H8  UNL     1      18.994   5.951  22.567  1.00  0.00     0.167 HD
HETATM   13  C25 UNL     1      17.255   7.050  22.951  1.00  0.00     0.148 A 
HETATM   14  N9  UNL     1      17.339   8.332  23.275  1.00  0.00    -0.174 N 
ATOM     15  H9  UNL     1      18.207   8.862  23.361  1.00  0.00     0.186 HD
ENDROOT
BRANCH   1  16
HETATM   16  C2  UNL     1      13.859  10.341  25.258  1.00  0.00     0.074 C 
HETATM   17  C1  UNL     1      13.436  11.590  25.971  1.00  0.00     0.020 C 
BRANCH  16  18
HETATM   18  C3  UNL     1      14.510   9.343  26.122  1.00  0.00     0.015 C 
BRANCH  18  19
HETATM   19  C4  UNL     1      13.748   8.344  26.874  1.00  0.00     0.030 C 
BRANCH  19  20
HETATM   20  C5  UNL     1      13.635   6.975  26.299  1.00  0.00     0.252 C 
BRANCH  20  21
HETATM   21  N1  UNL     1      14.420   6.038  27.120  1.00  0.00     0.003 N 
HETATM   22  C6  UNL     1      13.747   4.774  27.278  1.00  0.00     0.288 C 
BRANCH  21  23
HETATM   23  C7  UNL     1      14.629   6.601  28.408  1.00  0.00     0.464 C 
HETATM   24  O1  UNL     1      14.186   6.082  29.405  1.00  0.00    -0.275 OA
ENDBRANCH  21  23
BRANCH  21  25
HETATM   25  C8  UNL     1      15.680   5.775  26.473  1.00  0.00     0.216 C 
HETATM   26  C9  UNL     1      16.738   6.468  26.846  1.00  0.00     0.096 C 
BRANCH  26  27
HETATM   27  C10 UNL     1      18.012   6.225  26.215  1.00  0.00     0.256 C 
HETATM   28  N2  UNL     1      18.342   4.911  25.792  1.00  0.00    -0.058 NA
HETATM   29  O2  UNL     1      18.836   7.158  26.035  1.00  0.00    -0.272 OA
ENDBRANCH  26  27
ENDBRANCH  21  25
ENDBRANCH  20  21
ENDBRANCH  19  20
ENDBRANCH  18  19
ENDBRANCH  16  18
ENDBRANCH   1  16
BRANCH  10  30
HETATM   30  C16 UNL     1      17.588   3.520  22.030  1.00  0.00     0.301 C 
BRANCH  30  31
HETATM   31  N5  UNL     1      18.480   3.456  20.906  1.00  0.00    -0.032 N 
HETATM   32  C17 UNL     1      18.149   4.434  19.912  1.00  0.00     0.280 C 
HETATM   33  C18 UNL     1      18.475   2.120  20.431  1.00  0.00     0.292 C 
HETATM   34  N6  UNL     1      19.426   1.500  19.870  1.00  0.00    -0.357 N 
HETATM   35  C19 UNL     1      19.252   0.108  19.437  1.00  0.00     0.151 C 
HETATM   36  C20 UNL     1      20.695   2.094  19.624  1.00  0.00     0.109 C 
HETATM   37  C21 UNL     1      21.816   1.133  20.013  1.00  0.00     0.049 C 
HETATM   38  C23 UNL     1      20.841   3.389  20.329  1.00  0.00     0.068 C 
HETATM   39  C24 UNL     1      19.847   3.666  21.416  1.00  0.00     0.247 C 
BRANCH  36  40
HETATM   40  C22 UNL     1      20.852   2.260  18.130  1.00  0.00     0.259 C 
HETATM   41  N7  UNL     1      22.047   1.855  17.465  1.00  0.00    -0.060 NA
HETATM   42  O4  UNL     1      19.909   2.762  17.477  1.00  0.00    -0.274 OA
ENDBRANCH  36  40
ENDBRANCH  30  31
ENDBRANCH  10  30
TORSDOF 11
ENDMDL
MODEL 3
REMARK VINA RESULT: -7.517850787      2.558      9.054
REMARK  11 active torsions:
REMARK  status: ('A' for Active; 'I' for Inactive)
REMARK    1  A    between atoms: C2_2  and  C3_3 
REMARK    2  A    between atoms: C2_2  and  C11_15 
REMARK    3  A    between atoms: C3_3  and  C4_4 
REMARK    4  A    between atoms: C4_4  and  C5_5 
REMARK    5  A    between atoms: C5_5  and  N1_6 
REMARK    6  A    between atoms: N1_6  and  C7_8 
REMARK    7  A    between atoms: N1_6  and  C8_10 
REMARK    8  A    between atoms: C9_11  and  C10_12 
REMARK       I    between atoms: C11_15  and  N3_17 
REMARK    9  A    between atoms: C15_24  and  C16_25 
REMARK   10  A    between atoms: C16_25  and  N5_26 
REMARK   11  A    between atoms: C20_31  and  C22_33 
ROOT
HETATM    1  C11 UNL     1      15.685   9.800  23.426  1.00  0.00     0.239 C 
HETATM    2  O3  UNL     1      15.550  10.622  22.502  1.00  0.00    -0.272 OA
HETATM    3  N3  UNL     1      16.826   8.980  23.480  1.00  0.00    -0.159 N 
ATOM      4  H3  UNL     1      17.704   9.430  23.741  1.00  0.00     0.187 HD
HETATM    5  C12 UNL     1      16.870   7.728  23.233  1.00  0.00     0.687 A 
HETATM    6  N4  UNL     1      15.918   6.868  22.873  1.00  0.00    -0.188 N 
ATOM      7  H4  UNL     1      14.939   7.119  22.735  1.00  0.00     0.184 HD
HETATM    8  C13 UNL     1      16.415   5.625  22.715  1.00  0.00     0.095 A 
HETATM    9  C14 UNL     1      16.232   4.298  22.410  1.00  0.00     0.060 A 
HETATM   10  C15 UNL     1      17.445   3.612  22.505  1.00  0.00     0.039 A 
HETATM   11  N8  UNL     1      18.343   4.539  22.867  1.00  0.00    -0.342 N 
ATOM     12  H8  UNL     1      19.334   4.350  23.019  1.00  0.00     0.167 HD
HETATM   13  C25 UNL     1      17.777   5.748  23.004  1.00  0.00     0.148 A 
HETATM   14  N9  UNL     1      18.021   7.014  23.310  1.00  0.00    -0.174 N 
ATOM     15  H9  UNL     1      18.933   7.394  23.565  1.00  0.00     0.186 HD
ENDROOT
BRANCH   1  16
HETATM   16  C2  UNL     1      14.625   9.697  24.470  1.00  0.00     0.074 C 
HETATM   17  C1  UNL     1      13.974  11.025  24.722  1.00  0.00     0.020 C 
BRANCH  16  18
HETATM   18  C3  UNL     1      15.075   9.003  25.687  1.00  0.00     0.015 C 
BRANCH  18  19
HETATM   19  C4  UNL     1      14.159   8.236  26.533  1.00  0.00     0.030 C 
BRANCH  19  20
HETATM   20  C5  UNL     1      13.658   6.933  26.014  1.00  0.00     0.252 C 
BRANCH  20  21
HETATM   21  N1  UNL     1      14.181   5.843  26.854  1.00  0.00     0.003 N 
HETATM   22  C6  UNL     1      15.399   5.291  26.314  1.00  0.00     0.288 C 
BRANCH  21  23
HETATM   23  C7  UNL     1      13.214   4.805  26.936  1.00  0.00     0.464 C 
HETATM   24  O1  UNL     1      12.195   4.836  26.286  1.00  0.00    -0.275 OA
ENDBRANCH  21  23
BRANCH  21  25
HETATM   25  C8  UNL     1      14.487   6.353  28.165  1.00  0.00     0.216 C 
HETATM   26  C9  UNL     1      14.498   5.515  29.183  1.00  0.00     0.096 C 
BRANCH  26  27
HETATM   27  C10 UNL     1      14.801   6.000  30.507  1.00  0.00     0.256 C 
HETATM   28  N2  UNL     1      13.997   5.589  31.601  1.00  0.00    -0.058 NA
HETATM   29  O2  UNL     1      15.766   6.782  30.707  1.00  0.00    -0.272 OA
ENDBRANCH  26  27
ENDBRANCH  21  25
ENDBRANCH  20  21
ENDBRANCH  19  20
ENDBRANCH  18  19
ENDBRANCH  16  18
ENDBRANCH   1  16
BRANCH  10  30
HETATM   30  C16 UNL     1      17.656   2.165  22.253  1.00  0.00     0.301 C 
BRANCH  30  31
HETATM   31  N5  UNL     1      18.794   1.880  21.423  1.00  0.00    -0.032 N 
HETATM   32  C17 UNL     1      19.988   1.721  22.199  1.00  0.00     0.280 C 
HETATM   33  C18 UNL     1      18.871   2.898  20.439  1.00  0.00     0.292 C 
HETATM   34  N6  UNL     1      19.319   2.795  19.259  1.00  0.00    -0.357 N 
HETATM   35  C19 UNL     1      19.326   3.957  18.363  1.00  0.00     0.151 C 
HETATM   36  C20 UNL     1      19.837   1.578  18.735  1.00  0.00     0.109 C 
HETATM   37  C21 UNL     1      19.298   1.333  17.328  1.00  0.00     0.049 C 
HETATM   38  C23 UNL     1      19.541   0.428  19.622  1.00  0.00     0.068 C 
HETATM   39  C24 UNL     1      18.489   0.652  20.666  1.00  0.00     0.247 C 
BRANCH  36  40
HETATM   40  C22 UNL     1      21.325   1.750  18.536  1.00  0.00     0.259 C 
HETATM   41  N7  UNL     1      22.212   1.831  19.650  1.00  0.00    -0.060 NA
HETATM   42  O4  UNL     1      21.773   1.822  17.369  1.00  0.00    -0.274 OA
ENDBRANCH  36  40
ENDBRANCH  30  31
ENDBRANCH  10  30
TORSDOF 11
ENDMDL
MODEL 4
REMARK VINA RESULT: -7.417486459      2.615      8.888
REMARK  11 active torsions:
REMARK  status: ('A' for Active; 'I' for Inactive)
REMARK    1  A    between atoms: C2_2  and  C3_3 
REMARK    2  A    between atoms: C2_2  and  C11_15 
REMARK    3  A    between atoms: C3_3  and  C4_4 
REMARK    4  A    between atoms: C4_4  and  C5_5 
REMARK    5  A    between atoms: C5_5  and  N1_6 
REMARK    6  A    between atoms: N1_6  and  C7_8 
REMARK    7  A    between atoms: N1_6  and  C8_10 
REMARK    8  A    between atoms: C9_11  and  C10_12 
REMARK       I    between atoms: C11_15  and  N3_17 
REMARK    9  A    between atoms: C15_24  and  C16_25 
REMARK   10  A    between atoms: C16_25  and  N5_26 
REMARK   11  A    between atoms: C20_31  and  C22_33 
ROOT
HETATM    1  C11 UNL     1      15.659   9.869  23.435  1.00  0.00     0.239 C 
HETATM    2  O3  UNL     1      15.589  10.722  22.531  1.00  0.00    -0.272 OA
HETATM    3  N3  UNL     1      16.776   9.018  23.516  1.00  0.00    -0.159 N 
ATOM      4  H3  UNL     1      17.651   9.436  23.832  1.00  0.00     0.187 HD
HETATM    5  C12 UNL     1      16.800   7.774  23.232  1.00  0.00     0.687 A 
HETATM    6  N4  UNL     1      15.845   6.950  22.802  1.00  0.00    -0.188 N 
ATOM      7  H4  UNL     1      14.880   7.231  22.625  1.00  0.00     0.184 HD
HETATM    8  C13 UNL     1      16.317   5.699  22.629  1.00  0.00     0.095 A 
HETATM    9  C14 UNL     1      16.115   4.388  22.274  1.00  0.00     0.060 A 
HETATM   10  C15 UNL     1      17.305   3.667  22.404  1.00  0.00     0.039 A 
HETATM   11  N8  UNL     1      18.208   4.559  22.837  1.00  0.00    -0.342 N 
ATOM     12  H8  UNL     1      19.185   4.338  23.030  1.00  0.00     0.167 HD
HETATM   13  C25 UNL     1      17.667   5.778  22.985  1.00  0.00     0.148 A 
HETATM   14  N9  UNL     1      17.927   7.027  23.341  1.00  0.00    -0.174 N 
ATOM     15  H9  UNL     1      18.835   7.374  23.651  1.00  0.00     0.186 HD
ENDROOT
BRANCH   1  16
HETATM   16  C2  UNL     1      14.549   9.764  24.424  1.00  0.00     0.074 C 
HETATM   17  C1  UNL     1      13.886  11.091  24.647  1.00  0.00     0.020 C 
BRANCH  16  18
HETATM   18  C3  UNL     1      14.937   9.067  25.660  1.00  0.00     0.015 C 
BRANCH  18  19
HETATM   19  C4  UNL     1      14.025   8.169  26.370  1.00  0.00     0.030 C 
BRANCH  19  20
HETATM   20  C5  UNL     1      13.802   6.809  25.803  1.00  0.00     0.252 C 
BRANCH  20  21
HETATM   21  N1  UNL     1      14.324   5.801  26.740  1.00  0.00     0.003 N 
HETATM   22  C6  UNL     1      14.676   6.386  28.010  1.00  0.00     0.288 C 
BRANCH  21  23
HETATM   23  C7  UNL     1      15.485   5.198  26.185  1.00  0.00     0.464 C 
HETATM   24  O1  UNL     1      16.543   5.782  26.142  1.00  0.00    -0.275 OA
ENDBRANCH  21  23
BRANCH  21  25
HETATM   25  C8  UNL     1      13.310   4.810  26.990  1.00  0.00     0.216 C 
HETATM   26  C9  UNL     1      13.675   3.643  27.484  1.00  0.00     0.096 C 
BRANCH  26  27
HETATM   27  C10 UNL     1      12.680   2.633  27.744  1.00  0.00     0.256 C 
HETATM   28  N2  UNL     1      11.700   2.348  26.759  1.00  0.00    -0.058 NA
HETATM   29  O2  UNL     1      12.666   2.000  28.831  1.00  0.00    -0.272 OA
ENDBRANCH  26  27
ENDBRANCH  21  25
ENDBRANCH  20  21
ENDBRANCH  19  20
ENDBRANCH  18  19
ENDBRANCH  16  18
ENDBRANCH   1  16
BRANCH  10  30
HETATM   30  C16 UNL     1      17.491   2.223  22.118  1.00  0.00     0.301 C 
BRANCH  30  31
HETATM   31  N5  UNL     1      18.664   1.931  21.342  1.00  0.00    -0.032 N 
HETATM   32  C17 UNL     1      19.824   1.787  22.171  1.00  0.00     0.280 C 
HETATM   33  C18 UNL     1      18.781   2.938  20.349  1.00  0.00     0.292 C 
HETATM   34  N6  UNL     1      19.280   2.821  19.191  1.00  0.00    -0.357 N 
HETATM   35  C19 UNL     1      19.322   3.972  18.281  1.00  0.00     0.151 C 
HETATM   36  C20 UNL     1      19.824   1.599  18.705  1.00  0.00     0.109 C 
HETATM   37  C21 UNL     1      19.347   1.334  17.280  1.00  0.00     0.049 C 
HETATM   38  C23 UNL     1      19.493   0.460  19.594  1.00  0.00     0.068 C 
HETATM   39  C24 UNL     1      18.397   0.693  20.588  1.00  0.00     0.247 C 
BRANCH  36  40
HETATM   40  C22 UNL     1      21.319   1.775  18.569  1.00  0.00     0.259 C 
HETATM   41  N7  UNL     1      22.145   1.972  19.715  1.00  0.00    -0.060 NA
HETATM   42  O4  UNL     1      21.828   1.745  17.426  1.00  0.00    -0.274 OA
ENDBRANCH  36  40
ENDBRANCH  30  31
ENDBRANCH  10  30
TORSDOF 11
ENDMDL
MODEL 5
REMARK VINA RESULT: -7.380121029      4.007      8.468
REMARK  11 active torsions:
REMARK  status: ('A' for Active; 'I' for Inactive)
REMARK    1  A    between atoms: C2_2  and  C3_3 
REMARK    2  A    between atoms: C2_2  and  C11_15 
REMARK    3  A    between atoms: C3_3  and  C4_4 
REMARK    4  A    between atoms: C4_4  and  C5_5 
REMARK    5  A    between atoms: C5_5  and  N1_6 
REMARK    6  A    between atoms: N1_6  and  C7_8 
REMARK    7  A    between atoms: N1_6  and  C8_10 
REMARK    8  A    between atoms: C9_11  and  C10_12 
REMARK       I    between atoms: C11_15  and  N3_17 
REMARK    9  A    between atoms: C15_24  and  C16_25 
REMARK   10  A    between atoms: C16_25  and  N5_26 
REMARK   11  A    between atoms: C20_31  and  C22_33 
ROOT
HETATM    1  C11 UNL     1      18.065   4.892  21.465  1.00  0.00     0.239 C 
HETATM    2  O3  UNL     1      17.802   5.887  22.165  1.00  0.00    -0.272 OA
HETATM    3  N3  UNL     1      17.565   4.800  20.154  1.00  0.00    -0.159 N 
ATOM      4  H3  UNL     1      17.989   5.412  19.456  1.00  0.00     0.187 HD
HETATM    5  C12 UNL     1      16.633   4.026  19.753  1.00  0.00     0.687 A 
HETATM    6  N4  UNL     1      15.895   3.127  20.402  1.00  0.00    -0.188 N 
ATOM      7  H4  UNL     1      15.984   2.920  21.397  1.00  0.00     0.184 HD
HETATM    8  C13 UNL     1      15.014   2.527  19.577  1.00  0.00     0.095 A 
HETATM    9  C14 UNL     1      14.004   1.620  19.367  1.00  0.00     0.060 A 
HETATM   10  C15 UNL     1      13.612   1.640  18.026  1.00  0.00     0.039 A 
HETATM   11  N8  UNL     1      14.395   2.561  17.447  1.00  0.00    -0.342 N 
ATOM     12  H8  UNL     1      14.352   2.811  16.459  1.00  0.00     0.167 HD
HETATM   13  C25 UNL     1      15.243   3.113  18.328  1.00  0.00     0.148 A 
HETATM   14  N9  UNL     1      16.215   4.004  18.463  1.00  0.00    -0.174 N 
ATOM     15  H9  UNL     1      16.590   4.583  17.712  1.00  0.00     0.186 HD
ENDROOT
BRANCH   1  16
HETATM   16  C2  UNL     1      18.912   3.805  22.035  1.00  0.00     0.074 C 
HETATM   17  C1  UNL     1      18.884   3.817  23.534  1.00  0.00     0.020 C 
BRANCH  16  18
HETATM   18  C3  UNL     1      20.264   3.759  21.456  1.00  0.00     0.015 C 
BRANCH  18  19
HETATM   19  C4  UNL     1      20.716   2.651  20.613  1.00  0.00     0.030 C 
BRANCH  19  20
HETATM   20  C5  UNL     1      19.679   1.823  19.934  1.00  0.00     0.252 C 
BRANCH  20  21
HETATM   21  N1  UNL     1      19.981   1.753  18.495  1.00  0.00     0.003 N 
HETATM   22  C6  UNL     1      21.217   1.056  18.242  1.00  0.00     0.288 C 
BRANCH  21  23
HETATM   23  C7  UNL     1      20.091   3.069  17.972  1.00  0.00     0.464 C 
HETATM   24  O1  UNL     1      19.121   3.683  17.593  1.00  0.00    -0.275 OA
ENDBRANCH  21  23
BRANCH  21  25
HETATM   25  C8  UNL     1      18.935   1.028  17.822  1.00  0.00     0.216 C 
HETATM   26  C9  UNL     1      18.002   0.444  18.549  1.00  0.00     0.096 C 
BRANCH  26  27
HETATM   27  C10 UNL     1      16.943  -0.289  17.901  1.00  0.00     0.256 C 
HETATM   28  N2  UNL     1      16.136  -1.171  18.665  1.00  0.00    -0.058 NA
HETATM   29  O2  UNL     1      16.724  -0.161  16.669  1.00  0.00    -0.272 OA
ENDBRANCH  26  27
ENDBRANCH  21  25
ENDBRANCH  20  21
ENDBRANCH  19  20
ENDBRANCH  18  19
ENDBRANCH  16  18
ENDBRANCH   1  16
BRANCH  10  30
HETATM   30  C16 UNL     1      12.552   0.802  17.410  1.00  0.00     0.301 C 
BRANCH  30  31
HETATM   31  N5  UNL     1      11.220   1.285  17.648  1.00  0.00    -0.032 N 
HETATM   32  C17 UNL     1      10.786   1.002  18.984  1.00  0.00     0.280 C 
HETATM   33  C18 UNL     1      10.384   0.744  16.638  1.00  0.00     0.292 C 
HETATM   34  N6  UNL     1       9.344   1.269  16.139  1.00  0.00    -0.357 N 
HETATM   35  C19 UNL     1       8.589   0.569  15.092  1.00  0.00     0.151 C 
HETATM   36  C20 UNL     1       8.847   2.537  16.549  1.00  0.00     0.109 C 
HETATM   37  C21 UNL     1       8.466   3.378  15.333  1.00  0.00     0.049 C 
HETATM   38  C23 UNL     1       9.820   3.257  17.405  1.00  0.00     0.068 C 
HETATM   39  C24 UNL     1      11.225   2.736  17.391  1.00  0.00     0.247 C 
BRANCH  36  40
HETATM   40  C22 UNL     1       7.538   2.316  17.270  1.00  0.00     0.259 C 
HETATM   41  N7  UNL     1       7.505   2.056  18.672  1.00  0.00    -0.060 NA
HETATM   42  O4  UNL     1       6.473   2.363  16.615  1.00  0.00    -0.274 OA
ENDBRANCH  36  40
ENDBRANCH  30  31
ENDBRANCH  10  30
TORSDOF 11
ENDMDL
