MODEL 1
REMARK VINA RESULT: -6.512019178      0.000      0.000
REMARK  11 active torsions:
REMARK  status: ('A' for Active; 'I' for Inactive)
REMARK    1  A    between atoms: C10_13  and  C11_14 
REMARK    2  A    between atoms: C11_14  and  C12_15 
REMARK    3  A    between atoms: C12_15  and  C13_16 
REMARK    4  A    between atoms: C13_16  and  N2_17 
REMARK    5  A    between atoms: C15_24  and  C16_25 
REMARK    6  A    between atoms: C16_25  and  S1_26 
REMARK    7  A    between atoms: S1_26  and  C17_27 
REMARK    8  A    between atoms: C17_27  and  C18_28 
REMARK    9  A    between atoms: C18_28  and  C19_29 
REMARK   10  A    between atoms: C19_29  and  N6_30 
REMARK   11  A    between atoms: C21_35  and  C22_36 
ROOT
HETATM    1  C1  UNL     1      21.917  51.988  44.901  1.00  0.00     0.051 C 
HETATM    2  C2  UNL     1      21.454  50.607  44.615  1.00  0.00    -0.021 A 
HETATM    3  C3  UNL     1      20.206  50.152  44.961  1.00  0.00     0.010 A 
HETATM    4  C4  UNL     1      19.817  48.835  44.670  1.00  0.00     0.011 A 
HETATM    5  C5  UNL     1      20.674  47.979  44.037  1.00  0.00    -0.021 A 
HETATM    6  C6  UNL     1      21.927  48.448  43.689  1.00  0.00     0.083 A 
HETATM    7  C7  UNL     1      22.318  49.734  43.972  1.00  0.00     0.149 A 
HETATM    8  F1  UNL     1      23.575  50.090  43.650  1.00  0.00    -0.203 F 
HETATM    9  N1  UNL     1      23.042  47.888  42.987  1.00  0.00    -0.317 N 
HETATM   10  C8  UNL     1      23.788  48.841  42.273  1.00  0.00     0.159 C 
HETATM   11  C9  UNL     1      23.466  46.491  42.915  1.00  0.00     0.246 C 
HETATM   12  O1  UNL     1      24.747  46.541  42.954  1.00  0.00    -0.271 OA
HETATM   13  C10 UNL     1      22.924  45.146  42.820  1.00  0.00     0.170 C 
HETATM   14  N5  UNL     1      21.700  45.030  43.543  1.00  0.00    -0.404 N 
ATOM     15  H5  UNL     1      21.620  44.472  44.393  1.00  0.00     0.154 HD
HETATM   16  C15 UNL     1      20.606  45.741  42.998  1.00  0.00     0.095 C 
HETATM   17  C21 UNL     1      19.945  46.688  43.964  1.00  0.00     0.047 C 
ENDROOT
BRANCH  16  18
HETATM   18  C16 UNL     1      19.616  44.938  42.237  1.00  0.00     0.099 C 
BRANCH  18  19
HETATM   19  S1  UNL     1      17.976  45.711  42.090  1.00  0.00    -0.167 SA
BRANCH  19  20
HETATM   20  C17 UNL     1      16.773  44.373  41.864  1.00  0.00     0.075 C 
BRANCH  20  21
HETATM   21  C18 UNL     1      15.507  44.956  41.281  1.00  0.00     0.030 C 
BRANCH  21  22
HETATM   22  C19 UNL     1      15.798  46.318  40.689  1.00  0.00     0.122 C 
BRANCH  22  23
HETATM   23  N6  UNL     1      14.877  46.516  39.596  1.00  0.00    -0.367 N 
HETATM   24  C20 UNL     1      14.006  47.460  39.566  1.00  0.00     0.196 C 
HETATM   25  N7  UNL     1      13.871  48.403  40.621  1.00  0.00    -0.067 NA
HETATM   26  N8  UNL     1      13.140  47.585  38.458  1.00  0.00    -0.067 NA
ATOM     27  H6  UNL     1      14.920  45.874  38.805  1.00  0.00     0.161 HD
ENDBRANCH  22  23
ENDBRANCH  21  22
ENDBRANCH  20  21
ENDBRANCH  19  20
ENDBRANCH  18  19
ENDBRANCH  16  18
BRANCH  17  28
HETATM   28  C22 UNL     1      19.765  46.156  45.349  1.00  0.00    -0.012 C 
HETATM   29  C23 UNL     1      19.363  44.701  45.410  1.00  0.00     0.010 C 
HETATM   30  C24 UNL     1      20.961  46.318  46.247  1.00  0.00     0.010 C 
ENDBRANCH  17  28
BRANCH  13  31
HETATM   31  C11 UNL     1      23.866  44.020  43.028  1.00  0.00     0.036 C 
BRANCH  31  32
HETATM   32  C12 UNL     1      23.868  43.432  44.401  1.00  0.00     0.022 C 
BRANCH  32  33
HETATM   33  C13 UNL     1      25.307  43.445  44.979  1.00  0.00     0.122 C 
BRANCH  33  34
HETATM   34  N2  UNL     1      25.931  44.711  44.672  1.00  0.00    -0.367 N 
HETATM   35  C14 UNL     1      27.206  44.878  44.737  1.00  0.00     0.196 C 
HETATM   36  N3  UNL     1      27.746  46.151  44.421  1.00  0.00    -0.067 NA
HETATM   37  N4  UNL     1      28.106  43.845  45.110  1.00  0.00    -0.067 NA
ATOM     38  H2  UNL     1      25.344  45.498  44.396  1.00  0.00     0.161 HD
ENDBRANCH  33  34
ENDBRANCH  32  33
ENDBRANCH  31  32
ENDBRANCH  13  31
TORSDOF 11
ENDMDL
MODEL 2
REMARK VINA RESULT: -6.135929622      3.203      4.477
REMARK  11 active torsions:
REMARK  status: ('A' for Active; 'I' for Inactive)
REMARK    1  A    between atoms: C10_13  and  C11_14 
REMARK    2  A    between atoms: C11_14  and  C12_15 
REMARK    3  A    between atoms: C12_15  and  C13_16 
REMARK    4  A    between atoms: C13_16  and  N2_17 
REMARK    5  A    between atoms: C15_24  and  C16_25 
REMARK    6  A    between atoms: C16_25  and  S1_26 
REMARK    7  A    between atoms: S1_26  and  C17_27 
REMARK    8  A    between atoms: C17_27  and  C18_28 
REMARK    9  A    between atoms: C18_28  and  C19_29 
REMARK   10  A    between atoms: C19_29  and  N6_30 
REMARK   11  A    between atoms: C21_35  and  C22_36 
ROOT
HETATM    1  C1  UNL     1      23.583  50.376  48.036  1.00  0.00     0.051 C 
HETATM    2  C2  UNL     1      23.134  49.209  47.236  1.00  0.00    -0.021 A 
HETATM    3  C3  UNL     1      22.675  48.048  47.805  1.00  0.00     0.010 A 
HETATM    4  C4  UNL     1      22.263  46.971  47.003  1.00  0.00     0.011 A 
HETATM    5  C5  UNL     1      22.310  47.059  45.641  1.00  0.00    -0.021 A 
HETATM    6  C6  UNL     1      22.769  48.235  45.077  1.00  0.00     0.083 A 
HETATM    7  C7  UNL     1      23.177  49.292  45.853  1.00  0.00     0.149 A 
HETATM    8  F1  UNL     1      23.664  50.377  45.223  1.00  0.00    -0.203 F 
HETATM    9  N1  UNL     1      22.905  48.711  43.734  1.00  0.00    -0.317 N 
HETATM   10  C8  UNL     1      22.746  50.102  43.615  1.00  0.00     0.159 C 
HETATM   11  C9  UNL     1      23.161  47.944  42.516  1.00  0.00     0.246 C 
HETATM   12  O1  UNL     1      23.962  48.679  41.835  1.00  0.00    -0.271 OA
HETATM   13  C10 UNL     1      22.814  46.687  41.874  1.00  0.00     0.170 C 
HETATM   14  N5  UNL     1      22.656  45.643  42.834  1.00  0.00    -0.404 N 
ATOM     15  H5  UNL     1      23.309  44.862  42.902  1.00  0.00     0.154 HD
HETATM   16  C15 UNL     1      21.534  45.768  43.685  1.00  0.00     0.095 C 
HETATM   17  C21 UNL     1      21.866  45.729  45.153  1.00  0.00     0.047 C 
ENDROOT
BRANCH  16  18
HETATM   18  C16 UNL     1      20.363  44.916  43.354  1.00  0.00     0.099 C 
BRANCH  18  19
HETATM   19  S1  UNL     1      19.104  44.828  44.664  1.00  0.00    -0.167 SA
BRANCH  19  20
HETATM   20  C17 UNL     1      17.755  43.790  44.039  1.00  0.00     0.075 C 
BRANCH  20  21
HETATM   21  C18 UNL     1      17.752  43.861  42.529  1.00  0.00     0.030 C 
BRANCH  21  22
HETATM   22  C19 UNL     1      16.566  44.674  42.059  1.00  0.00     0.122 C 
BRANCH  22  23
HETATM   23  N6  UNL     1      15.945  43.943  40.981  1.00  0.00    -0.367 N 
HETATM   24  C20 UNL     1      16.418  43.904  39.787  1.00  0.00     0.196 C 
HETATM   25  N7  UNL     1      17.610  44.585  39.419  1.00  0.00    -0.067 NA
HETATM   26  N8  UNL     1      15.748  43.164  38.788  1.00  0.00    -0.067 NA
ATOM     27  H6  UNL     1      15.085  43.430  41.177  1.00  0.00     0.161 HD
ENDBRANCH  22  23
ENDBRANCH  21  22
ENDBRANCH  20  21
ENDBRANCH  19  20
ENDBRANCH  18  19
ENDBRANCH  16  18
BRANCH  17  28
HETATM   28  C22 UNL     1      22.883  44.706  45.544  1.00  0.00    -0.012 C 
HETATM   29  C23 UNL     1      22.381  43.282  45.509  1.00  0.00     0.010 C 
HETATM   30  C24 UNL     1      24.155  44.742  44.742  1.00  0.00     0.010 C 
ENDBRANCH  17  28
BRANCH  13  31
HETATM   31  C11 UNL     1      23.594  46.301  40.675  1.00  0.00     0.036 C 
BRANCH  31  32
HETATM   32  C12 UNL     1      23.219  44.992  40.061  1.00  0.00     0.022 C 
BRANCH  32  33
HETATM   33  C13 UNL     1      23.754  44.919  38.607  1.00  0.00     0.122 C 
BRANCH  33  34
HETATM   34  N2  UNL     1      22.641  44.975  37.687  1.00  0.00    -0.367 N 
HETATM   35  C14 UNL     1      22.803  45.215  36.432  1.00  0.00     0.196 C 
HETATM   36  N3  UNL     1      21.662  45.254  35.591  1.00  0.00    -0.067 NA
HETATM   37  N4  UNL     1      24.074  45.443  35.843  1.00  0.00    -0.067 NA
ATOM     38  H2  UNL     1      21.698  44.820  38.042  1.00  0.00     0.161 HD
ENDBRANCH  33  34
ENDBRANCH  32  33
ENDBRANCH  31  32
ENDBRANCH  13  31
TORSDOF 11
ENDMDL
MODEL 3
REMARK VINA RESULT: -5.661776445      1.274      1.673
REMARK  11 active torsions:
REMARK  status: ('A' for Active; 'I' for Inactive)
REMARK    1  A    between atoms: C10_13  and  C11_14 
REMARK    2  A    between atoms: C11_14  and  C12_15 
REMARK    3  A    between atoms: C12_15  and  C13_16 
REMARK    4  A    between atoms: C13_16  and  N2_17 
REMARK    5  A    between atoms: C15_24  and  C16_25 
REMARK    6  A    between atoms: C16_25  and  S1_26 
REMARK    7  A    between atoms: S1_26  and  C17_27 
REMARK    8  A    between atoms: C17_27  and  C18_28 
REMARK    9  A    between atoms: C18_28  and  C19_29 
REMARK   10  A    between atoms: C19_29  and  N6_30 
REMARK   11  A    between atoms: C21_35  and  C22_36 
ROOT
HETATM    1  C1  UNL     1      21.887  51.957  44.962  1.00  0.00     0.051 C 
HETATM    2  C2  UNL     1      21.420  50.584  44.647  1.00  0.00    -0.021 A 
HETATM    3  C3  UNL     1      20.164  50.132  44.969  1.00  0.00     0.010 A 
HETATM    4  C4  UNL     1      19.770  48.822  44.651  1.00  0.00     0.011 A 
HETATM    5  C5  UNL     1      20.630  47.972  44.014  1.00  0.00    -0.021 A 
HETATM    6  C6  UNL     1      21.891  48.438  43.691  1.00  0.00     0.083 A 
HETATM    7  C7  UNL     1      22.286  49.716  44.000  1.00  0.00     0.149 A 
HETATM    8  F1  UNL     1      23.549  50.069  43.701  1.00  0.00    -0.203 F 
HETATM    9  N1  UNL     1      23.011  47.883  42.993  1.00  0.00    -0.317 N 
HETATM   10  C8  UNL     1      23.773  48.842  42.305  1.00  0.00     0.159 C 
HETATM   11  C9  UNL     1      23.428  46.484  42.904  1.00  0.00     0.246 C 
HETATM   12  O1  UNL     1      24.708  46.525  42.960  1.00  0.00    -0.271 OA
HETATM   13  C10 UNL     1      22.878  45.144  42.779  1.00  0.00     0.170 C 
HETATM   14  N5  UNL     1      21.644  45.024  43.484  1.00  0.00    -0.404 N 
ATOM     15  H5  UNL     1      21.549  44.453  44.324  1.00  0.00     0.154 HD
HETATM   16  C15 UNL     1      20.562  45.751  42.937  1.00  0.00     0.095 C 
HETATM   17  C21 UNL     1      19.894  46.686  43.910  1.00  0.00     0.047 C 
ENDROOT
BRANCH  16  18
HETATM   18  C16 UNL     1      19.577  44.967  42.150  1.00  0.00     0.099 C 
BRANCH  18  19
HETATM   19  S1  UNL     1      18.045  45.866  41.756  1.00  0.00    -0.167 SA
BRANCH  19  20
HETATM   20  C17 UNL     1      16.666  44.723  42.041  1.00  0.00     0.075 C 
BRANCH  20  21
HETATM   21  C18 UNL     1      15.376  45.426  41.688  1.00  0.00     0.030 C 
BRANCH  21  22
HETATM   22  C19 UNL     1      14.423  44.447  41.038  1.00  0.00     0.122 C 
BRANCH  22  23
HETATM   23  N6  UNL     1      15.219  43.382  40.477  1.00  0.00    -0.367 N 
HETATM   24  C20 UNL     1      15.798  43.458  39.332  1.00  0.00     0.196 C 
HETATM   25  N7  UNL     1      15.705  44.613  38.509  1.00  0.00    -0.067 NA
HETATM   26  N8  UNL     1      16.560  42.370  38.855  1.00  0.00    -0.067 NA
ATOM     27  H6  UNL     1      15.328  42.524  41.017  1.00  0.00     0.161 HD
ENDBRANCH  22  23
ENDBRANCH  21  22
ENDBRANCH  20  21
ENDBRANCH  19  20
ENDBRANCH  18  19
ENDBRANCH  16  18
BRANCH  17  28
HETATM   28  C22 UNL     1      19.693  46.132  45.284  1.00  0.00    -0.012 C 
HETATM   29  C23 UNL     1      18.938  44.824  45.324  1.00  0.00     0.010 C 
HETATM   30  C24 UNL     1      20.957  45.933  46.074  1.00  0.00     0.010 C 
ENDBRANCH  17  28
BRANCH  13  31
HETATM   31  C11 UNL     1      23.810  44.009  42.980  1.00  0.00     0.036 C 
BRANCH  31  32
HETATM   32  C12 UNL     1      23.824  43.428  44.356  1.00  0.00     0.022 C 
BRANCH  32  33
HETATM   33  C13 UNL     1      25.270  43.433  44.916  1.00  0.00     0.122 C 
BRANCH  33  34
HETATM   34  N2  UNL     1      25.887  44.708  44.632  1.00  0.00    -0.367 N 
HETATM   35  C14 UNL     1      27.157  44.891  44.731  1.00  0.00     0.196 C 
HETATM   36  N3  UNL     1      27.689  46.173  44.435  1.00  0.00    -0.067 NA
HETATM   37  N4  UNL     1      28.060  43.868  45.122  1.00  0.00    -0.067 NA
ATOM     38  H2  UNL     1      25.297  45.490  44.344  1.00  0.00     0.161 HD
ENDBRANCH  33  34
ENDBRANCH  32  33
ENDBRANCH  31  32
ENDBRANCH  13  31
TORSDOF 11
ENDMDL
MODEL 4
REMARK VINA RESULT: -5.575203669      3.040      4.112
REMARK  11 active torsions:
REMARK  status: ('A' for Active; 'I' for Inactive)
REMARK    1  A    between atoms: C10_13  and  C11_14 
REMARK    2  A    between atoms: C11_14  and  C12_15 
REMARK    3  A    between atoms: C12_15  and  C13_16 
REMARK    4  A    between atoms: C13_16  and  N2_17 
REMARK    5  A    between atoms: C15_24  and  C16_25 
REMARK    6  A    between atoms: C16_25  and  S1_26 
REMARK    7  A    between atoms: S1_26  and  C17_27 
REMARK    8  A    between atoms: C17_27  and  C18_28 
REMARK    9  A    between atoms: C18_28  and  C19_29 
REMARK   10  A    between atoms: C19_29  and  N6_30 
REMARK   11  A    between atoms: C21_35  and  C22_36 
ROOT
HETATM    1  C1  UNL     1      23.576  50.013  47.492  1.00  0.00     0.051 C 
HETATM    2  C2  UNL     1      22.973  48.859  46.780  1.00  0.00    -0.021 A 
HETATM    3  C3  UNL     1      22.200  47.916  47.410  1.00  0.00     0.010 A 
HETATM    4  C4  UNL     1      21.653  46.840  46.692  1.00  0.00     0.011 A 
HETATM    5  C5  UNL     1      21.880  46.712  45.350  1.00  0.00    -0.021 A 
HETATM    6  C6  UNL     1      22.657  47.669  44.724  1.00  0.00     0.083 A 
HETATM    7  C7  UNL     1      23.198  48.722  45.419  1.00  0.00     0.149 A 
HETATM    8  F1  UNL     1      23.988  49.576  44.743  1.00  0.00    -0.203 F 
HETATM    9  N1  UNL     1      23.054  47.900  43.369  1.00  0.00    -0.317 N 
HETATM   10  C8  UNL     1      23.230  49.260  43.061  1.00  0.00     0.159 C 
HETATM   11  C9  UNL     1      23.274  46.923  42.303  1.00  0.00     0.246 C 
HETATM   12  O1  UNL     1      24.295  47.365  41.666  1.00  0.00    -0.271 OA
HETATM   13  C10 UNL     1      22.730  45.683  41.773  1.00  0.00     0.170 C 
HETATM   14  N5  UNL     1      22.228  44.851  42.817  1.00  0.00    -0.404 N 
ATOM     15  H5  UNL     1      22.675  43.971  43.075  1.00  0.00     0.154 HD
HETATM   16  C15 UNL     1      21.070  45.332  43.470  1.00  0.00     0.095 C 
HETATM   17  C21 UNL     1      21.208  45.445  44.966  1.00  0.00     0.047 C 
ENDROOT
BRANCH  16  18
HETATM   18  C16 UNL     1      19.785  44.701  43.074  1.00  0.00     0.099 C 
BRANCH  18  19
HETATM   19  S1  UNL     1      18.495  45.880  42.570  1.00  0.00    -0.167 SA
BRANCH  19  20
HETATM   20  C17 UNL     1      17.151  44.915  41.826  1.00  0.00     0.075 C 
BRANCH  20  21
HETATM   21  C18 UNL     1      17.181  45.121  40.329  1.00  0.00     0.030 C 
BRANCH  21  22
HETATM   22  C19 UNL     1      15.768  45.228  39.801  1.00  0.00     0.122 C 
BRANCH  22  23
HETATM   23  N6  UNL     1      15.354  46.602  39.958  1.00  0.00    -0.367 N 
HETATM   24  C20 UNL     1      14.140  46.953  40.190  1.00  0.00     0.196 C 
HETATM   25  N7  UNL     1      13.085  46.008  40.313  1.00  0.00    -0.067 NA
HETATM   26  N8  UNL     1      13.818  48.320  40.331  1.00  0.00    -0.067 NA
ATOM     27  H6  UNL     1      16.062  47.332  39.882  1.00  0.00     0.161 HD
ENDBRANCH  22  23
ENDBRANCH  21  22
ENDBRANCH  20  21
ENDBRANCH  19  20
ENDBRANCH  18  19
ENDBRANCH  16  18
BRANCH  17  28
HETATM   28  C22 UNL     1      21.915  44.304  45.624  1.00  0.00    -0.012 C 
HETATM   29  C23 UNL     1      21.063  43.070  45.814  1.00  0.00     0.010 C 
HETATM   30  C24 UNL     1      23.177  43.863  44.936  1.00  0.00     0.010 C 
ENDBRANCH  17  28
BRANCH  13  31
HETATM   31  C11 UNL     1      23.539  44.969  40.757  1.00  0.00     0.036 C 
BRANCH  31  32
HETATM   32  C12 UNL     1      23.539  45.579  39.394  1.00  0.00     0.022 C 
BRANCH  32  33
HETATM   33  C13 UNL     1      23.115  44.520  38.343  1.00  0.00     0.122 C 
BRANCH  33  34
HETATM   34  N2  UNL     1      23.730  44.834  37.074  1.00  0.00    -0.367 N 
HETATM   35  C14 UNL     1      23.064  45.353  36.102  1.00  0.00     0.196 C 
HETATM   36  N3  UNL     1      23.738  45.633  34.885  1.00  0.00    -0.067 NA
HETATM   37  N4  UNL     1      21.682  45.662  36.185  1.00  0.00    -0.067 NA
ATOM     38  H2  UNL     1      24.723  44.639  36.944  1.00  0.00     0.161 HD
ENDBRANCH  33  34
ENDBRANCH  32  33
ENDBRANCH  31  32
ENDBRANCH  13  31
TORSDOF 11
ENDMDL
MODEL 5
REMARK VINA RESULT: -5.422279469      1.670      2.421
REMARK  11 active torsions:
REMARK  status: ('A' for Active; 'I' for Inactive)
REMARK    1  A    between atoms: C10_13  and  C11_14 
REMARK    2  A    between atoms: C11_14  and  C12_15 
REMARK    3  A    between atoms: C12_15  and  C13_16 
REMARK    4  A    between atoms: C13_16  and  N2_17 
REMARK    5  A    between atoms: C15_24  and  C16_25 
REMARK    6  A    between atoms: C16_25  and  S1_26 
REMARK    7  A    between atoms: S1_26  and  C17_27 
REMARK    8  A    between atoms: C17_27  and  C18_28 
REMARK    9  A    between atoms: C18_28  and  C19_29 
REMARK   10  A    between atoms: C19_29  and  N6_30 
REMARK   11  A    between atoms: C21_35  and  C22_36 
ROOT
HETATM    1  C1  UNL     1      22.040  52.032  44.909  1.00  0.00     0.051 C 
HETATM    2  C2  UNL     1      21.531  50.674  44.593  1.00  0.00    -0.021 A 
HETATM    3  C3  UNL     1      20.225  50.303  44.791  1.00  0.00     0.010 A 
HETATM    4  C4  UNL     1      19.793  49.004  44.477  1.00  0.00     0.011 A 
HETATM    5  C5  UNL     1      20.665  48.084  43.968  1.00  0.00    -0.021 A 
HETATM    6  C6  UNL     1      21.978  48.469  43.768  1.00  0.00     0.083 A 
HETATM    7  C7  UNL     1      22.410  49.736  44.075  1.00  0.00     0.149 A 
HETATM    8  F1  UNL     1      23.717  50.008  43.903  1.00  0.00    -0.203 F 
HETATM    9  N1  UNL     1      23.132  47.827  43.216  1.00  0.00    -0.317 N 
HETATM   10  C8  UNL     1      24.018  48.716  42.583  1.00  0.00     0.159 C 
HETATM   11  C9  UNL     1      23.476  46.406  43.221  1.00  0.00     0.246 C 
HETATM   12  O1  UNL     1      24.743  46.381  43.415  1.00  0.00    -0.271 OA
HETATM   13  C10 UNL     1      22.867  45.093  43.083  1.00  0.00     0.170 C 
HETATM   14  N5  UNL     1      21.560  45.067  43.653  1.00  0.00    -0.404 N 
ATOM     15  H5  UNL     1      21.343  44.537  44.496  1.00  0.00     0.154 HD
HETATM   16  C15 UNL     1      20.586  45.829  42.966  1.00  0.00     0.095 C 
HETATM   17  C21 UNL     1      19.872  46.837  43.828  1.00  0.00     0.047 C 
ENDROOT
BRANCH  16  18
HETATM   18  C16 UNL     1      19.647  45.067  42.104  1.00  0.00     0.099 C 
BRANCH  18  19
HETATM   19  S1  UNL     1      18.010  45.837  41.914  1.00  0.00    -0.167 SA
BRANCH  19  20
HETATM   20  C17 UNL     1      16.786  44.499  41.924  1.00  0.00     0.075 C 
BRANCH  20  21
HETATM   21  C18 UNL     1      15.506  45.011  41.305  1.00  0.00     0.030 C 
BRANCH  21  22
HETATM   22  C19 UNL     1      15.738  46.386  40.719  1.00  0.00     0.122 C 
BRANCH  22  23
HETATM   23  N6  UNL     1      14.797  46.555  39.637  1.00  0.00    -0.367 N 
HETATM   24  C20 UNL     1      13.937  47.508  39.589  1.00  0.00     0.196 C 
HETATM   25  N7  UNL     1      13.835  48.492  40.610  1.00  0.00    -0.067 NA
HETATM   26  N8  UNL     1      13.051  47.603  38.494  1.00  0.00    -0.067 NA
ATOM     27  H6  UNL     1      14.817  45.883  38.870  1.00  0.00     0.161 HD
ENDBRANCH  22  23
ENDBRANCH  21  22
ENDBRANCH  20  21
ENDBRANCH  19  20
ENDBRANCH  18  19
ENDBRANCH  16  18
BRANCH  17  28
HETATM   28  C22 UNL     1      19.494  46.350  45.190  1.00  0.00    -0.012 C 
HETATM   29  C23 UNL     1      18.666  45.086  45.192  1.00  0.00     0.010 C 
HETATM   30  C24 UNL     1      20.652  46.116  46.120  1.00  0.00     0.010 C 
ENDBRANCH  17  28
BRANCH  13  31
HETATM   31  C11 UNL     1      23.705  43.919  43.423  1.00  0.00     0.036 C 
BRANCH  31  32
HETATM   32  C12 UNL     1      23.948  43.707  44.882  1.00  0.00     0.022 C 
BRANCH  32  33
HETATM   33  C13 UNL     1      23.260  42.397  45.346  1.00  0.00     0.122 C 
BRANCH  33  34
HETATM   34  N2  UNL     1      22.387  42.687  46.460  1.00  0.00    -0.367 N 
HETATM   35  C14 UNL     1      21.115  42.821  46.315  1.00  0.00     0.196 C 
HETATM   36  N3  UNL     1      20.322  43.104  47.458  1.00  0.00    -0.067 NA
HETATM   37  N4  UNL     1      20.459  42.697  45.063  1.00  0.00    -0.067 NA
ATOM     38  H2  UNL     1      22.791  42.788  47.392  1.00  0.00     0.161 HD
ENDBRANCH  33  34
ENDBRANCH  32  33
ENDBRANCH  31  32
ENDBRANCH  13  31
TORSDOF 11
ENDMDL
