MODEL 1
REMARK VINA RESULT: -9.955107974      0.000      0.000
REMARK  11 active torsions:
REMARK  status: ('A' for Active; 'I' for Inactive)
REMARK    1  A    between atoms: C2_2  and  N1_3 
REMARK    2  A    between atoms: N1_3  and  C3_4 
REMARK       I    between atoms: N1_3  and  C14_24 
REMARK    3  A    between atoms: C5_8  and  C6_9 
REMARK       I    between atoms: C14_24  and  N6_26 
REMARK    4  A    between atoms: N6_26  and  C15_28 
REMARK    5  A    between atoms: C15_28  and  C16_29 
REMARK    6  A    between atoms: C16_29  and  C17_30 
REMARK    7  A    between atoms: C17_30  and  C18_31 
REMARK    8  A    between atoms: C18_31  and  C19_32 
REMARK    9  A    between atoms: C19_32  and  C20_33 
REMARK   10  A    between atoms: C20_33  and  N7_34 
REMARK       I    between atoms: N7_34  and  C21_36 
REMARK       I    between atoms: C21_36  and  N9_40 
REMARK   11  A    between atoms: N9_40  and  C22_42 
ROOT
HETATM    1  N1  UNL     1      23.551  46.283  43.469  1.00  0.00    -0.307 N 
HETATM    2  C14 UNL     1      23.553  45.379  44.546  1.00  0.00     0.322 C 
HETATM    3  O1  UNL     1      24.313  45.605  45.521  1.00  0.00    -0.247 OA
HETATM    4  N6  UNL     1      22.745  44.217  44.598  1.00  0.00    -0.343 N 
ATOM      5  H6  UNL     1      22.120  44.007  43.820  1.00  0.00     0.164 HD
ENDROOT
BRANCH   1   6
HETATM    6  C2  UNL     1      22.636  45.966  42.388  1.00  0.00     0.128 C 
HETATM    7  C1  UNL     1      23.329  45.693  41.094  1.00  0.00     0.027 C 
ENDBRANCH   1   6
BRANCH   1   8
HETATM    8  C3  UNL     1      24.387  47.421  43.459  1.00  0.00     0.138 C 
HETATM    9  C4  UNL     1      24.114  48.621  44.201  1.00  0.00     0.099 C 
HETATM   10  N2  UNL     1      24.011  48.505  45.640  1.00  0.00    -0.346 N 
HETATM   11  N5  UNL     1      23.086  49.539  43.909  1.00  0.00    -0.255 NA
HETATM   12  C5  UNL     1      23.697  49.732  46.052  1.00  0.00     0.057 C 
ATOM     13  H2  UNL     1      24.147  47.671  46.211  1.00  0.00     0.167 HD
HETATM   14  C10 UNL     1      23.598  50.583  44.866  1.00  0.00     0.142 C 
HETATM   15  C11 UNL     1      22.744  51.766  44.872  1.00  0.00     0.258 C 
HETATM   16  N4  UNL     1      21.367  51.562  45.178  1.00  0.00    -0.072 N 
HETATM   17  C12 UNL     1      20.875  50.481  44.400  1.00  0.00     0.247 C 
ATOM     18  H42 UNL     1      21.207  51.426  46.177  1.00  0.00     0.277 HD
ATOM     19  H41 UNL     1      20.812  52.410  45.060  1.00  0.00     0.277 HD
HETATM   20  C13 UNL     1      21.775  49.261  44.411  1.00  0.00     0.125 C 
BRANCH  12  21
HETATM   21  C6  UNL     1      23.520  49.967  47.483  1.00  0.00     0.058 A 
HETATM   22  C7  UNL     1      23.162  49.000  48.429  1.00  0.00     0.052 A 
HETATM   23  C8  UNL     1      23.100  49.562  49.666  1.00  0.00     0.028 A 
HETATM   24 BR1  UNL     1      22.661  48.726  51.339  1.00  0.00    -0.050 Br
HETATM   25  C9  UNL     1      23.417  50.886  49.509  1.00  0.00     0.107 A 
HETATM   26  N3  UNL     1      23.662  51.094  48.195  1.00  0.00    -0.363 N 
ATOM     27  H3  UNL     1      23.924  51.996  47.796  1.00  0.00     0.165 HD
ENDBRANCH  12  21
ENDBRANCH   1   8
BRANCH   4  28
HETATM   28  C15 UNL     1      22.791  43.313  45.747  1.00  0.00     0.124 C 
BRANCH  28  29
HETATM   29  C16 UNL     1      21.418  42.836  46.066  1.00  0.00     0.020 C 
BRANCH  29  30
HETATM   30  C17 UNL     1      20.504  43.907  46.556  1.00  0.00     0.002 C 
BRANCH  30  31
HETATM   31  C18 UNL     1      19.908  44.735  45.447  1.00  0.00     0.002 C 
BRANCH  31  32
HETATM   32  C19 UNL     1      18.740  44.080  44.778  1.00  0.00     0.020 C 
BRANCH  32  33
HETATM   33  C20 UNL     1      18.895  44.066  43.290  1.00  0.00     0.138 C 
BRANCH  33  34
HETATM   34  N7  UNL     1      18.578  45.370  42.752  1.00  0.00    -0.227 N 
HETATM   35  C21 UNL     1      17.629  45.482  41.712  1.00  0.00     0.668 C 
HETATM   36  N8  UNL     1      18.010  45.267  40.504  1.00  0.00    -0.235 N 
HETATM   37  N9  UNL     1      16.291  45.828  42.045  1.00  0.00    -0.219 N 
ATOM     38  H82 UNL     1      18.969  45.019  40.264  1.00  0.00     0.174 HD
ATOM     39  H81 UNL     1      17.324  45.348  39.753  1.00  0.00     0.174 HD
ATOM     40  H9  UNL     1      16.044  46.138  42.985  1.00  0.00     0.178 HD
ATOM     41  H7  UNL     1      19.037  46.203  43.120  1.00  0.00     0.177 HD
BRANCH  37  42
HETATM   42  C22 UNL     1      15.289  45.724  41.000  1.00  0.00     0.036 C 
HETATM   43  C23 UNL     1      15.157  44.295  40.540  1.00  0.00     0.038 C 
HETATM   44  C24 UNL     1      15.684  46.638  39.836  1.00  0.00     0.038 C 
HETATM   45  C25 UNL     1      13.937  46.197  41.476  1.00  0.00     0.038 C 
ENDBRANCH  37  42
ENDBRANCH  33  34
ENDBRANCH  32  33
ENDBRANCH  31  32
ENDBRANCH  30  31
ENDBRANCH  29  30
ENDBRANCH  28  29
ENDBRANCH   4  28
TORSDOF 11
ENDMDL
MODEL 2
REMARK VINA RESULT: -9.170372616      0.793      1.010
REMARK  11 active torsions:
REMARK  status: ('A' for Active; 'I' for Inactive)
REMARK    1  A    between atoms: C2_2  and  N1_3 
REMARK    2  A    between atoms: N1_3  and  C3_4 
REMARK       I    between atoms: N1_3  and  C14_24 
REMARK    3  A    between atoms: C5_8  and  C6_9 
REMARK       I    between atoms: C14_24  and  N6_26 
REMARK    4  A    between atoms: N6_26  and  C15_28 
REMARK    5  A    between atoms: C15_28  and  C16_29 
REMARK    6  A    between atoms: C16_29  and  C17_30 
REMARK    7  A    between atoms: C17_30  and  C18_31 
REMARK    8  A    between atoms: C18_31  and  C19_32 
REMARK    9  A    between atoms: C19_32  and  C20_33 
REMARK   10  A    between atoms: C20_33  and  N7_34 
REMARK       I    between atoms: N7_34  and  C21_36 
REMARK       I    between atoms: C21_36  and  N9_40 
REMARK   11  A    between atoms: N9_40  and  C22_42 
ROOT
HETATM    1  N1  UNL     1      23.446  46.217  43.692  1.00  0.00    -0.307 N 
HETATM    2  C14 UNL     1      23.326  45.266  44.721  1.00  0.00     0.322 C 
HETATM    3  O1  UNL     1      24.083  45.359  45.720  1.00  0.00    -0.247 OA
HETATM    4  N6  UNL     1      22.396  44.198  44.699  1.00  0.00    -0.343 N 
ATOM      5  H6  UNL     1      21.770  44.096  43.900  1.00  0.00     0.164 HD
ENDROOT
BRANCH   1   6
HETATM    6  C2  UNL     1      22.528  46.055  42.580  1.00  0.00     0.128 C 
HETATM    7  C1  UNL     1      23.204  45.633  41.318  1.00  0.00     0.027 C 
ENDBRANCH   1   6
BRANCH   1   8
HETATM    8  C3  UNL     1      24.401  47.255  43.755  1.00  0.00     0.138 C 
HETATM    9  C4  UNL     1      24.205  48.479  44.483  1.00  0.00     0.099 C 
HETATM   10  N2  UNL     1      23.978  48.377  45.909  1.00  0.00    -0.346 N 
HETATM   11  N5  UNL     1      23.310  49.504  44.120  1.00  0.00    -0.255 NA
HETATM   12  C5  UNL     1      23.770  49.632  46.305  1.00  0.00     0.057 C 
ATOM     13  H2  UNL     1      23.977  47.533  46.483  1.00  0.00     0.167 HD
HETATM   14  C10 UNL     1      23.858  50.487  45.121  1.00  0.00     0.142 C 
HETATM   15  C11 UNL     1      23.141  51.757  45.069  1.00  0.00     0.258 C 
HETATM   16  N4  UNL     1      21.730  51.706  45.267  1.00  0.00    -0.072 N 
HETATM   17  C12 UNL     1      21.184  50.685  44.444  1.00  0.00     0.247 C 
ATOM     18  H42 UNL     1      21.479  51.590  46.249  1.00  0.00     0.277 HD
ATOM     19  H41 UNL     1      21.283  52.610  45.112  1.00  0.00     0.277 HD
HETATM   20  C13 UNL     1      21.940  49.373  44.517  1.00  0.00     0.125 C 
BRANCH  12  21
HETATM   21  C6  UNL     1      23.508  49.886  47.719  1.00  0.00     0.058 A 
HETATM   22  C7  UNL     1      23.180  48.917  48.674  1.00  0.00     0.052 A 
HETATM   23  C8  UNL     1      23.018  49.502  49.891  1.00  0.00     0.028 A 
HETATM   24 BR1  UNL     1      22.565  48.675  51.565  1.00  0.00    -0.050 Br
HETATM   25  C9  UNL     1      23.242  50.843  49.712  1.00  0.00     0.107 A 
HETATM   26  N3  UNL     1      23.533  51.037  48.406  1.00  0.00    -0.363 N 
ATOM     27  H3  UNL     1      23.745  51.946  47.994  1.00  0.00     0.165 HD
ENDBRANCH  12  21
ENDBRANCH   1   8
BRANCH   4  28
HETATM   28  C15 UNL     1      22.317  43.239  45.801  1.00  0.00     0.124 C 
BRANCH  28  29
HETATM   29  C16 UNL     1      20.954  43.269  46.397  1.00  0.00     0.020 C 
BRANCH  29  30
HETATM   30  C17 UNL     1      20.095  44.376  45.886  1.00  0.00     0.002 C 
BRANCH  30  31
HETATM   31  C18 UNL     1      19.125  43.933  44.820  1.00  0.00     0.002 C 
BRANCH  31  32
HETATM   32  C19 UNL     1      19.070  44.858  43.645  1.00  0.00     0.020 C 
BRANCH  32  33
HETATM   33  C20 UNL     1      17.846  44.625  42.818  1.00  0.00     0.138 C 
BRANCH  33  34
HETATM   34  N7  UNL     1      17.874  45.476  41.649  1.00  0.00    -0.227 N 
HETATM   35  C21 UNL     1      16.681  45.712  40.930  1.00  0.00     0.668 C 
HETATM   36  N8  UNL     1      16.296  44.838  40.071  1.00  0.00    -0.235 N 
HETATM   37  N9  UNL     1      15.956  46.907  41.188  1.00  0.00    -0.219 N 
ATOM     38  H82 UNL     1      16.816  43.981  39.886  1.00  0.00     0.174 HD
ATOM     39  H81 UNL     1      15.434  45.009  39.552  1.00  0.00     0.174 HD
ATOM     40  H9  UNL     1      16.352  47.652  41.760  1.00  0.00     0.178 HD
ATOM     41  H7  UNL     1      18.749  45.903  41.346  1.00  0.00     0.177 HD
BRANCH  37  42
HETATM   42  C22 UNL     1      14.631  47.029  40.608  1.00  0.00     0.036 C 
HETATM   43  C23 UNL     1      14.707  46.949  39.104  1.00  0.00     0.038 C 
HETATM   44  C24 UNL     1      14.012  48.358  41.052  1.00  0.00     0.038 C 
HETATM   45  C25 UNL     1      13.707  45.941  41.096  1.00  0.00     0.038 C 
ENDBRANCH  37  42
ENDBRANCH  33  34
ENDBRANCH  32  33
ENDBRANCH  31  32
ENDBRANCH  30  31
ENDBRANCH  29  30
ENDBRANCH  28  29
ENDBRANCH   4  28
TORSDOF 11
ENDMDL
MODEL 3
REMARK VINA RESULT: -8.537365609      1.632      3.351
REMARK  11 active torsions:
REMARK  status: ('A' for Active; 'I' for Inactive)
REMARK    1  A    between atoms: C2_2  and  N1_3 
REMARK    2  A    between atoms: N1_3  and  C3_4 
REMARK       I    between atoms: N1_3  and  C14_24 
REMARK    3  A    between atoms: C5_8  and  C6_9 
REMARK       I    between atoms: C14_24  and  N6_26 
REMARK    4  A    between atoms: N6_26  and  C15_28 
REMARK    5  A    between atoms: C15_28  and  C16_29 
REMARK    6  A    between atoms: C16_29  and  C17_30 
REMARK    7  A    between atoms: C17_30  and  C18_31 
REMARK    8  A    between atoms: C18_31  and  C19_32 
REMARK    9  A    between atoms: C19_32  and  C20_33 
REMARK   10  A    between atoms: C20_33  and  N7_34 
REMARK       I    between atoms: N7_34  and  C21_36 
REMARK       I    between atoms: C21_36  and  N9_40 
REMARK   11  A    between atoms: N9_40  and  C22_42 
ROOT
HETATM    1  N1  UNL     1      21.750  45.214  44.646  1.00  0.00    -0.307 N 
HETATM    2  C14 UNL     1      20.734  45.112  43.679  1.00  0.00     0.322 C 
HETATM    3  O1  UNL     1      20.925  45.619  42.546  1.00  0.00    -0.247 OA
HETATM    4  N6  UNL     1      19.494  44.465  43.909  1.00  0.00    -0.343 N 
ATOM      5  H6  UNL     1      19.310  44.046  44.820  1.00  0.00     0.164 HD
ENDROOT
BRANCH   1   6
HETATM    6  C2  UNL     1      21.464  44.590  45.924  1.00  0.00     0.128 C 
HETATM    7  C1  UNL     1      21.937  43.177  46.007  1.00  0.00     0.027 C 
ENDBRANCH   1   6
BRANCH   1   8
HETATM    8  C3  UNL     1      22.963  45.882  44.372  1.00  0.00     0.138 C 
HETATM    9  C4  UNL     1      23.234  47.239  44.760  1.00  0.00     0.099 C 
HETATM   10  N2  UNL     1      23.190  47.550  46.174  1.00  0.00    -0.346 N 
HETATM   11  N5  UNL     1      22.633  48.381  44.194  1.00  0.00    -0.255 NA
HETATM   12  C5  UNL     1      23.413  48.861  46.235  1.00  0.00     0.057 C 
ATOM     13  H2  UNL     1      23.025  46.908  46.949  1.00  0.00     0.167 HD
HETATM   14  C10 UNL     1      23.577  49.345  44.863  1.00  0.00     0.142 C 
HETATM   15  C11 UNL     1      23.259  50.727  44.522  1.00  0.00     0.258 C 
HETATM   16  N4  UNL     1      21.937  51.173  44.812  1.00  0.00    -0.072 N 
HETATM   17  C12 UNL     1      21.009  50.214  44.324  1.00  0.00     0.247 C 
ATOM     18  H42 UNL     1      21.803  51.373  45.803  1.00  0.00     0.277 HD
ATOM     19  H41 UNL     1      21.754  52.109  44.451  1.00  0.00     0.277 HD
HETATM   20  C13 UNL     1      21.355  48.785  44.695  1.00  0.00     0.125 C 
BRANCH  12  21
HETATM   21  C6  UNL     1      23.437  49.507  47.544  1.00  0.00     0.058 A 
HETATM   22  C7  UNL     1      23.321  48.855  48.777  1.00  0.00     0.052 A 
HETATM   23  C8  UNL     1      23.399  49.760  49.789  1.00  0.00     0.028 A 
HETATM   24 BR1  UNL     1      23.303  49.448  51.682  1.00  0.00    -0.050 Br
HETATM   25  C9  UNL     1      23.564  50.988  49.203  1.00  0.00     0.107 A 
HETATM   26  N3  UNL     1      23.584  50.802  47.863  1.00  0.00    -0.363 N 
ATOM     27  H3  UNL     1      23.696  51.552  47.181  1.00  0.00     0.165 HD
ENDBRANCH  12  21
ENDBRANCH   1   8
BRANCH   4  28
HETATM   28  C15 UNL     1      18.474  44.390  42.863  1.00  0.00     0.124 C 
BRANCH  28  29
HETATM   29  C16 UNL     1      18.032  45.762  42.493  1.00  0.00     0.020 C 
BRANCH  29  30
HETATM   30  C17 UNL     1      17.748  45.935  41.039  1.00  0.00     0.002 C 
BRANCH  30  31
HETATM   31  C18 UNL     1      17.606  44.628  40.301  1.00  0.00     0.002 C 
BRANCH  31  32
HETATM   32  C19 UNL     1      16.192  44.308  39.927  1.00  0.00     0.020 C 
BRANCH  32  33
HETATM   33  C20 UNL     1      15.457  43.661  41.059  1.00  0.00     0.138 C 
BRANCH  33  34
HETATM   34  N7  UNL     1      14.225  44.374  41.315  1.00  0.00    -0.227 N 
HETATM   35  C21 UNL     1      14.199  45.782  41.201  1.00  0.00     0.668 C 
HETATM   36  N8  UNL     1      14.611  46.488  42.193  1.00  0.00    -0.235 N 
HETATM   37  N9  UNL     1      13.718  46.360  39.995  1.00  0.00    -0.219 N 
ATOM     38  H82 UNL     1      14.956  46.073  43.058  1.00  0.00     0.174 HD
ATOM     39  H81 UNL     1      14.592  47.504  42.111  1.00  0.00     0.174 HD
ATOM     40  H9  UNL     1      13.260  45.791  39.283  1.00  0.00     0.178 HD
ATOM     41  H7  UNL     1      13.381  43.864  41.574  1.00  0.00     0.177 HD
BRANCH  37  42
HETATM   42  C22 UNL     1      13.902  47.787  39.813  1.00  0.00     0.036 C 
HETATM   43  C23 UNL     1      13.290  48.547  40.961  1.00  0.00     0.038 C 
HETATM   44  C24 UNL     1      13.268  48.206  38.482  1.00  0.00     0.038 C 
HETATM   45  C25 UNL     1      15.363  48.154  39.725  1.00  0.00     0.038 C 
ENDBRANCH  37  42
ENDBRANCH  33  34
ENDBRANCH  32  33
ENDBRANCH  31  32
ENDBRANCH  30  31
ENDBRANCH  29  30
ENDBRANCH  28  29
ENDBRANCH   4  28
TORSDOF 11
ENDMDL
MODEL 4
REMARK VINA RESULT: -8.121161658      1.301      1.829
REMARK  11 active torsions:
REMARK  status: ('A' for Active; 'I' for Inactive)
REMARK    1  A    between atoms: C2_2  and  N1_3 
REMARK    2  A    between atoms: N1_3  and  C3_4 
REMARK       I    between atoms: N1_3  and  C14_24 
REMARK    3  A    between atoms: C5_8  and  C6_9 
REMARK       I    between atoms: C14_24  and  N6_26 
REMARK    4  A    between atoms: N6_26  and  C15_28 
REMARK    5  A    between atoms: C15_28  and  C16_29 
REMARK    6  A    between atoms: C16_29  and  C17_30 
REMARK    7  A    between atoms: C17_30  and  C18_31 
REMARK    8  A    between atoms: C18_31  and  C19_32 
REMARK    9  A    between atoms: C19_32  and  C20_33 
REMARK   10  A    between atoms: C20_33  and  N7_34 
REMARK       I    between atoms: N7_34  and  C21_36 
REMARK       I    between atoms: C21_36  and  N9_40 
REMARK   11  A    between atoms: N9_40  and  C22_42 
ROOT
HETATM    1  N1  UNL     1      24.761  45.645  43.960  1.00  0.00    -0.307 N 
HETATM    2  C14 UNL     1      23.624  44.824  44.051  1.00  0.00     0.322 C 
HETATM    3  O1  UNL     1      22.563  45.198  43.491  1.00  0.00    -0.247 OA
HETATM    4  N6  UNL     1      23.600  43.589  44.745  1.00  0.00    -0.343 N 
ATOM      5  H6  UNL     1      24.446  43.260  45.211  1.00  0.00     0.164 HD
ENDROOT
BRANCH   1   6
HETATM    6  C2  UNL     1      25.952  45.140  44.617  1.00  0.00     0.128 C 
HETATM    7  C1  UNL     1      27.121  46.062  44.503  1.00  0.00     0.027 C 
ENDBRANCH   1   6
BRANCH   1   8
HETATM    8  C3  UNL     1      24.729  46.875  43.268  1.00  0.00     0.138 C 
HETATM    9  C4  UNL     1      23.983  48.022  43.709  1.00  0.00     0.099 C 
HETATM   10  N2  UNL     1      24.311  48.571  45.009  1.00  0.00    -0.346 N 
HETATM   11  N5  UNL     1      22.578  48.130  43.695  1.00  0.00    -0.255 NA
HETATM   12  C5  UNL     1      23.439  49.563  45.181  1.00  0.00     0.057 C 
ATOM     13  H2  UNL     1      25.045  48.266  45.648  1.00  0.00     0.167 HD
HETATM   14  C10 UNL     1      22.579  49.605  43.998  1.00  0.00     0.142 C 
HETATM   15  C11 UNL     1      21.222  50.133  44.087  1.00  0.00     0.258 C 
HETATM   16  N4  UNL     1      20.354  49.516  45.035  1.00  0.00    -0.072 N 
HETATM   17  C12 UNL     1      20.432  48.106  44.883  1.00  0.00     0.247 C 
ATOM     18  H42 UNL     1      20.547  49.815  45.990  1.00  0.00     0.277 HD
ATOM     19  H41 UNL     1      19.396  49.861  44.968  1.00  0.00     0.277 HD
HETATM   20  C13 UNL     1      21.850  47.578  44.798  1.00  0.00     0.125 C 
BRANCH  12  21
HETATM   21  C6  UNL     1      23.500  50.342  46.415  1.00  0.00     0.058 A 
HETATM   22  C7  UNL     1      23.492  49.816  47.712  1.00  0.00     0.052 A 
HETATM   23  C8  UNL     1      23.574  50.824  48.621  1.00  0.00     0.028 A 
HETATM   24 BR1  UNL     1      23.604  50.705  50.539  1.00  0.00    -0.050 Br
HETATM   25  C9  UNL     1      23.635  51.991  47.906  1.00  0.00     0.107 A 
HETATM   26  N3  UNL     1      23.590  51.668  46.593  1.00  0.00    -0.363 N 
ATOM     27  H3  UNL     1      23.620  52.348  45.833  1.00  0.00     0.165 HD
ENDBRANCH  12  21
ENDBRANCH   1   8
BRANCH   4  28
HETATM   28  C15 UNL     1      22.385  42.777  44.805  1.00  0.00     0.124 C 
BRANCH  28  29
HETATM   29  C16 UNL     1      21.913  42.682  46.214  1.00  0.00     0.020 C 
BRANCH  29  30
HETATM   30  C17 UNL     1      20.577  43.301  46.447  1.00  0.00     0.002 C 
BRANCH  30  31
HETATM   31  C18 UNL     1      20.201  44.318  45.400  1.00  0.00     0.002 C 
BRANCH  31  32
HETATM   32  C19 UNL     1      18.829  44.113  44.838  1.00  0.00     0.020 C 
BRANCH  32  33
HETATM   33  C20 UNL     1      18.851  44.046  43.343  1.00  0.00     0.138 C 
BRANCH  33  34
HETATM   34  N7  UNL     1      18.552  45.348  42.789  1.00  0.00    -0.227 N 
HETATM   35  C21 UNL     1      17.613  45.460  41.741  1.00  0.00     0.668 C 
HETATM   36  N8  UNL     1      18.000  45.228  40.538  1.00  0.00    -0.235 N 
HETATM   37  N9  UNL     1      16.276  45.824  42.060  1.00  0.00    -0.219 N 
ATOM     38  H82 UNL     1      18.959  44.968  40.309  1.00  0.00     0.174 HD
ATOM     39  H81 UNL     1      17.322  45.310  39.781  1.00  0.00     0.174 HD
ATOM     40  H9  UNL     1      16.025  46.146  42.994  1.00  0.00     0.178 HD
ATOM     41  H7  UNL     1      19.017  46.180  43.154  1.00  0.00     0.177 HD
BRANCH  37  42
HETATM   42  C22 UNL     1      15.281  45.720  41.008  1.00  0.00     0.036 C 
HETATM   43  C23 UNL     1      13.972  46.312  41.465  1.00  0.00     0.038 C 
HETATM   44  C24 UNL     1      15.110  44.247  40.626  1.00  0.00     0.038 C 
HETATM   45  C25 UNL     1      15.717  46.440  39.756  1.00  0.00     0.038 C 
ENDBRANCH  37  42
ENDBRANCH  33  34
ENDBRANCH  32  33
ENDBRANCH  31  32
ENDBRANCH  30  31
ENDBRANCH  29  30
ENDBRANCH  28  29
ENDBRANCH   4  28
TORSDOF 11
ENDMDL
MODEL 5
REMARK VINA RESULT: -7.729996407      1.652      2.707
REMARK  11 active torsions:
REMARK  status: ('A' for Active; 'I' for Inactive)
REMARK    1  A    between atoms: C2_2  and  N1_3 
REMARK    2  A    between atoms: N1_3  and  C3_4 
REMARK       I    between atoms: N1_3  and  C14_24 
REMARK    3  A    between atoms: C5_8  and  C6_9 
REMARK       I    between atoms: C14_24  and  N6_26 
REMARK    4  A    between atoms: N6_26  and  C15_28 
REMARK    5  A    between atoms: C15_28  and  C16_29 
REMARK    6  A    between atoms: C16_29  and  C17_30 
REMARK    7  A    between atoms: C17_30  and  C18_31 
REMARK    8  A    between atoms: C18_31  and  C19_32 
REMARK    9  A    between atoms: C19_32  and  C20_33 
REMARK   10  A    between atoms: C20_33  and  N7_34 
REMARK       I    between atoms: N7_34  and  C21_36 
REMARK       I    between atoms: C21_36  and  N9_40 
REMARK   11  A    between atoms: N9_40  and  C22_42 
ROOT
HETATM    1  N1  UNL     1      22.939  45.007  44.514  1.00  0.00    -0.307 N 
HETATM    2  C14 UNL     1      21.667  44.783  43.958  1.00  0.00     0.322 C 
HETATM    3  O1  UNL     1      21.274  45.531  43.028  1.00  0.00    -0.247 OA
HETATM    4  N6  UNL     1      20.792  43.755  44.388  1.00  0.00    -0.343 N 
ATOM      5  H6  UNL     1      21.083  43.132  45.142  1.00  0.00     0.164 HD
ENDROOT
BRANCH   1   6
HETATM    6  C2  UNL     1      23.330  44.093  45.571  1.00  0.00     0.128 C 
HETATM    7  C1  UNL     1      24.752  43.651  45.469  1.00  0.00     0.027 C 
ENDBRANCH   1   6
BRANCH   1   8
HETATM    8  C3  UNL     1      23.768  46.055  44.060  1.00  0.00     0.138 C 
HETATM    9  C4  UNL     1      23.604  47.429  44.448  1.00  0.00     0.099 C 
HETATM   10  N2  UNL     1      23.703  47.740  45.859  1.00  0.00    -0.346 N 
HETATM   11  N5  UNL     1      22.548  48.267  44.039  1.00  0.00    -0.255 NA
HETATM   12  C5  UNL     1      23.453  49.046  45.931  1.00  0.00     0.057 C 
ATOM     13  H2  UNL     1      23.916  47.102  46.625  1.00  0.00     0.167 HD
HETATM   14  C10 UNL     1      23.191  49.521  44.572  1.00  0.00     0.142 C 
HETATM   15  C11 UNL     1      22.349  50.691  44.344  1.00  0.00     0.258 C 
HETATM   16  N4  UNL     1      21.027  50.644  44.877  1.00  0.00    -0.072 N 
HETATM   17  C12 UNL     1      20.429  49.406  44.521  1.00  0.00     0.247 C 
ATOM     18  H42 UNL     1      21.008  50.810  45.883  1.00  0.00     0.277 HD
ATOM     19  H41 UNL     1      20.464  51.444  44.590  1.00  0.00     0.277 HD
HETATM   20  C13 UNL     1      21.319  48.204  44.770  1.00  0.00     0.125 C 
BRANCH  12  21
HETATM   21  C6  UNL     1      23.477  49.692  47.240  1.00  0.00     0.058 A 
HETATM   22  C7  UNL     1      23.479  49.033  48.475  1.00  0.00     0.052 A 
HETATM   23  C8  UNL     1      23.518  49.941  49.486  1.00  0.00     0.028 A 
HETATM   24 BR1  UNL     1      23.538  49.623  51.380  1.00  0.00    -0.050 Br
HETATM   25  C9  UNL     1      23.541  51.179  48.897  1.00  0.00     0.107 A 
HETATM   26  N3  UNL     1      23.516  50.995  47.558  1.00  0.00    -0.363 N 
ATOM     27  H3  UNL     1      23.527  51.752  46.874  1.00  0.00     0.165 HD
ENDBRANCH  12  21
ENDBRANCH   1   8
BRANCH   4  28
HETATM   28  C15 UNL     1      19.479  43.570  43.769  1.00  0.00     0.124 C 
BRANCH  28  29
HETATM   29  C16 UNL     1      18.462  44.375  44.501  1.00  0.00     0.020 C 
BRANCH  29  30
HETATM   30  C17 UNL     1      17.640  45.255  43.621  1.00  0.00     0.002 C 
BRANCH  30  31
HETATM   31  C18 UNL     1      18.310  45.577  42.309  1.00  0.00     0.002 C 
BRANCH  31  32
HETATM   32  C19 UNL     1      17.443  45.312  41.119  1.00  0.00     0.020 C 
BRANCH  32  33
HETATM   33  C20 UNL     1      16.617  44.077  41.303  1.00  0.00     0.138 C 
BRANCH  33  34
HETATM   34  N7  UNL     1      15.222  44.381  41.070  1.00  0.00    -0.227 N 
HETATM   35  C21 UNL     1      14.802  45.728  41.020  1.00  0.00     0.668 C 
HETATM   36  N8  UNL     1      14.572  46.343  42.125  1.00  0.00    -0.235 N 
HETATM   37  N9  UNL     1      14.650  46.348  39.750  1.00  0.00    -0.219 N 
ATOM     38  H82 UNL     1      14.681  45.899  43.035  1.00  0.00     0.174 HD
ATOM     39  H81 UNL     1      14.268  47.316  42.088  1.00  0.00     0.174 HD
ATOM     40  H9  UNL     1      14.693  45.804  38.889  1.00  0.00     0.178 HD
ATOM     41  H7  UNL     1      14.548  43.626  40.942  1.00  0.00     0.177 HD
BRANCH  37  42
HETATM   42  C22 UNL     1      14.432  47.782  39.723  1.00  0.00     0.036 C 
HETATM   43  C23 UNL     1      15.748  48.514  39.784  1.00  0.00     0.038 C 
HETATM   44  C24 UNL     1      13.536  48.174  40.902  1.00  0.00     0.038 C 
HETATM   45  C25 UNL     1      13.707  48.212  38.472  1.00  0.00     0.038 C 
ENDBRANCH  37  42
ENDBRANCH  33  34
ENDBRANCH  32  33
ENDBRANCH  31  32
ENDBRANCH  30  31
ENDBRANCH  29  30
ENDBRANCH  28  29
ENDBRANCH   4  28
TORSDOF 11
ENDMDL
