MODEL 1
REMARK VINA RESULT: -4.668316237      0.000      0.000
REMARK  5 active torsions:
REMARK  status: ('A' for Active; 'I' for Inactive)
REMARK    1  A    between atoms: N1_1  and  C1_5 
REMARK    2  A    between atoms: C1_5  and  C2_6 
REMARK    3  A    between atoms: C2_6  and  N2_7 
REMARK    4  A    between atoms: N2_7  and  C3_10 
REMARK    5  A    between atoms: C3_10  and  C4_11 
ROOT
HETATM    1  N2  UNL     1      12.145   3.702   4.106  1.00  0.00    -0.073 N 
ATOM      2  H21 UNL     1      12.375   2.893   3.530  1.00  0.00     0.277 HD
ATOM      3  H22 UNL     1      12.052   3.199   4.989  1.00  0.00     0.277 HD
ENDROOT
BRANCH   1   4
HETATM    4  C2  UNL     1      10.914   4.395   3.689  1.00  0.00     0.259 C 
BRANCH   4   5
HETATM    5  C1  UNL     1       9.712   4.044   4.507  1.00  0.00     0.257 C 
BRANCH   5   6
HETATM    6  N1  UNL     1       9.484   4.961   5.577  1.00  0.00    -0.078 N 
ATOM      7  H13 UNL     1      10.366   5.299   5.963  1.00  0.00     0.274 HD
ATOM      8  H12 UNL     1       9.107   5.843   5.229  1.00  0.00     0.274 HD
ATOM      9  H11 UNL     1       8.889   4.574   6.310  1.00  0.00     0.274 HD
ENDBRANCH   5   6
ENDBRANCH   4   5
ENDBRANCH   1   4
BRANCH   1  10
HETATM   10  C3  UNL     1      13.149   4.692   4.121  1.00  0.00     0.239 C 
BRANCH  10  11
HETATM   11  C4  UNL     1      14.387   4.459   3.357  1.00  0.00     0.037 C 
HETATM   12  C5  UNL     1      14.452   5.103   1.973  1.00  0.00     0.034 C 
HETATM   13  C6  UNL     1      15.609   4.296   1.395  1.00  0.00     0.168 C 
HETATM   14  O1  UNL     1      15.677   3.114   2.113  1.00  0.00    -0.391 OA
HETATM   15  C7  UNL     1      14.509   3.001   2.869  1.00  0.00     0.173 C 
ENDBRANCH  10  11
ENDBRANCH   1  10
TORSDOF 5
ENDMDL
MODEL 2
REMARK VINA RESULT: -4.624580478      1.545      2.288
REMARK  5 active torsions:
REMARK  status: ('A' for Active; 'I' for Inactive)
REMARK    1  A    between atoms: N1_1  and  C1_5 
REMARK    2  A    between atoms: C1_5  and  C2_6 
REMARK    3  A    between atoms: C2_6  and  N2_7 
REMARK    4  A    between atoms: N2_7  and  C3_10 
REMARK    5  A    between atoms: C3_10  and  C4_11 
ROOT
HETATM    1  N2  UNL     1      11.934   4.240   4.332  1.00  0.00    -0.073 N 
ATOM      2  H21 UNL     1      11.978   3.544   5.077  1.00  0.00     0.277 HD
ATOM      3  H22 UNL     1      12.227   5.038   4.895  1.00  0.00     0.277 HD
ENDROOT
BRANCH   1   4
HETATM    4  C2  UNL     1      10.593   4.391   3.743  1.00  0.00     0.259 C 
BRANCH   4   5
HETATM    5  C1  UNL     1       9.480   3.958   4.644  1.00  0.00     0.257 C 
BRANCH   5   6
HETATM    6  N1  UNL     1       9.278   4.850   5.740  1.00  0.00    -0.078 N 
ATOM      7  H13 UNL     1       8.368   4.695   6.175  1.00  0.00     0.274 HD
ATOM      8  H12 UNL     1       9.880   4.606   6.526  1.00  0.00     0.274 HD
ATOM      9  H11 UNL     1       9.396   5.830   5.480  1.00  0.00     0.274 HD
ENDBRANCH   5   6
ENDBRANCH   4   5
ENDBRANCH   1   4
BRANCH   1  10
HETATM   10  C3  UNL     1      12.794   3.964   3.249  1.00  0.00     0.239 C 
BRANCH  10  11
HETATM   11  C4  UNL     1      13.545   2.697   3.243  1.00  0.00     0.037 C 
HETATM   12  C5  UNL     1      13.186   1.698   4.341  1.00  0.00     0.034 C 
HETATM   13  C6  UNL     1      14.414   0.800   4.251  1.00  0.00     0.168 C 
HETATM   14  O1  UNL     1      15.422   1.550   3.670  1.00  0.00    -0.391 OA
HETATM   15  C7  UNL     1      15.017   2.886   3.663  1.00  0.00     0.173 C 
ENDBRANCH  10  11
ENDBRANCH   1  10
TORSDOF 5
ENDMDL
MODEL 3
REMARK VINA RESULT: -4.568089963      1.046      1.396
REMARK  5 active torsions:
REMARK  status: ('A' for Active; 'I' for Inactive)
REMARK    1  A    between atoms: N1_1  and  C1_5 
REMARK    2  A    between atoms: C1_5  and  C2_6 
REMARK    3  A    between atoms: C2_6  and  N2_7 
REMARK    4  A    between atoms: N2_7  and  C3_10 
REMARK    5  A    between atoms: C3_10  and  C4_11 
ROOT
HETATM    1  N2  UNL     1      12.051   3.337   4.045  1.00  0.00    -0.073 N 
ATOM      2  H21 UNL     1      11.919   2.700   3.259  1.00  0.00     0.277 HD
ATOM      3  H22 UNL     1      11.836   2.665   4.782  1.00  0.00     0.277 HD
ENDROOT
BRANCH   1   4
HETATM    4  C2  UNL     1      11.149   4.500   4.022  1.00  0.00     0.259 C 
BRANCH   4   5
HETATM    5  C1  UNL     1       9.743   4.186   4.427  1.00  0.00     0.257 C 
BRANCH   5   6
HETATM    6  N1  UNL     1       9.357   4.838   5.636  1.00  0.00    -0.078 N 
ATOM      7  H13 UNL     1       9.609   4.277   6.451  1.00  0.00     0.274 HD
ATOM      8  H12 UNL     1       9.939   5.657   5.812  1.00  0.00     0.274 HD
ATOM      9  H11 UNL     1       8.366   5.084   5.655  1.00  0.00     0.274 HD
ENDBRANCH   5   6
ENDBRANCH   4   5
ENDBRANCH   1   4
BRANCH   1  10
HETATM   10  C3  UNL     1      13.354   3.871   4.128  1.00  0.00     0.239 C 
BRANCH  10  11
HETATM   11  C4  UNL     1      14.055   4.229   2.883  1.00  0.00     0.037 C 
HETATM   12  C5  UNL     1      15.402   3.547   2.651  1.00  0.00     0.034 C 
HETATM   13  C6  UNL     1      15.949   4.471   1.569  1.00  0.00     0.168 C 
HETATM   14  O1  UNL     1      15.283   5.678   1.694  1.00  0.00    -0.391 OA
HETATM   15  C7  UNL     1      14.601   5.672   2.912  1.00  0.00     0.173 C 
ENDBRANCH  10  11
ENDBRANCH   1  10
TORSDOF 5
ENDMDL
MODEL 4
REMARK VINA RESULT: -4.519622453      2.628      3.532
REMARK  5 active torsions:
REMARK  status: ('A' for Active; 'I' for Inactive)
REMARK    1  A    between atoms: N1_1  and  C1_5 
REMARK    2  A    between atoms: C1_5  and  C2_6 
REMARK    3  A    between atoms: C2_6  and  N2_7 
REMARK    4  A    between atoms: N2_7  and  C3_10 
REMARK    5  A    between atoms: C3_10  and  C4_11 
ROOT
HETATM    1  N2  UNL     1      13.350   1.993   3.227  1.00  0.00    -0.073 N 
ATOM      2  H21 UNL     1      12.661   1.392   2.773  1.00  0.00     0.277 HD
ATOM      3  H22 UNL     1      14.137   1.750   2.625  1.00  0.00     0.277 HD
ENDROOT
BRANCH   1   4
HETATM    4  C2  UNL     1      13.571   1.674   4.647  1.00  0.00     0.259 C 
BRANCH   4   5
HETATM    5  C1  UNL     1      14.810   2.284   5.222  1.00  0.00     0.257 C 
BRANCH   5   6
HETATM    6  N1  UNL     1      16.003   1.797   4.607  1.00  0.00    -0.078 N 
ATOM      7  H13 UNL     1      16.645   2.563   4.397  1.00  0.00     0.274 HD
ATOM      8  H12 UNL     1      16.574   1.281   5.275  1.00  0.00     0.274 HD
ATOM      9  H11 UNL     1      15.818   1.236   3.775  1.00  0.00     0.274 HD
ENDBRANCH   5   6
ENDBRANCH   4   5
ENDBRANCH   1   4
BRANCH   1  10
HETATM   10  C3  UNL     1      13.015   3.363   3.195  1.00  0.00     0.239 C 
BRANCH  10  11
HETATM   11  C4  UNL     1      13.795   4.265   2.331  1.00  0.00     0.037 C 
HETATM   12  C5  UNL     1      15.063   3.675   1.715  1.00  0.00     0.034 C 
HETATM   13  C6  UNL     1      15.748   4.974   1.303  1.00  0.00     0.168 C 
HETATM   14  O1  UNL     1      15.220   5.979   2.096  1.00  0.00    -0.391 OA
HETATM   15  C7  UNL     1      14.500   5.379   3.131  1.00  0.00     0.173 C 
ENDBRANCH  10  11
ENDBRANCH   1  10
TORSDOF 5
ENDMDL
MODEL 5
REMARK VINA RESULT: -4.516377995      2.176      3.710
REMARK  5 active torsions:
REMARK  status: ('A' for Active; 'I' for Inactive)
REMARK    1  A    between atoms: N1_1  and  C1_5 
REMARK    2  A    between atoms: C1_5  and  C2_6 
REMARK    3  A    between atoms: C2_6  and  N2_7 
REMARK    4  A    between atoms: N2_7  and  C3_10 
REMARK    5  A    between atoms: C3_10  and  C4_11 
ROOT
HETATM    1  N2  UNL     1      12.912   4.708   4.140  1.00  0.00    -0.073 N 
ATOM      2  H21 UNL     1      12.481   5.044   5.001  1.00  0.00     0.277 HD
ATOM      3  H22 UNL     1      13.869   4.671   4.490  1.00  0.00     0.277 HD
ENDROOT
BRANCH   1   4
HETATM    4  C2  UNL     1      12.736   5.618   2.995  1.00  0.00     0.259 C 
BRANCH   4   5
HETATM    5  C1  UNL     1      14.020   6.069   2.374  1.00  0.00     0.257 C 
BRANCH   5   6
HETATM    6  N1  UNL     1      14.356   5.330   1.199  1.00  0.00    -0.078 N 
ATOM      7  H13 UNL     1      14.345   4.326   1.384  1.00  0.00     0.274 HD
ATOM      8  H12 UNL     1      13.606   5.379   0.510  1.00  0.00     0.274 HD
ATOM      9  H11 UNL     1      15.246   5.618   0.792  1.00  0.00     0.274 HD
ENDBRANCH   5   6
ENDBRANCH   4   5
ENDBRANCH   1   4
BRANCH   1  10
HETATM   10  C3  UNL     1      12.418   3.459   3.709  1.00  0.00     0.239 C 
BRANCH  10  11
HETATM   11  C4  UNL     1      13.361   2.341   3.543  1.00  0.00     0.037 C 
HETATM   12  C5  UNL     1      13.301   1.248   4.609  1.00  0.00     0.034 C 
HETATM   13  C6  UNL     1      14.642   0.578   4.332  1.00  0.00     0.168 C 
HETATM   14  O1  UNL     1      15.438   1.514   3.696  1.00  0.00    -0.391 OA
HETATM   15  C7  UNL     1      14.821   2.760   3.816  1.00  0.00     0.173 C 
ENDBRANCH  10  11
ENDBRANCH   1  10
TORSDOF 5
ENDMDL
