MODEL 1
REMARK VINA RESULT: -5.782051860      0.000      0.000
REMARK  13 active torsions:
REMARK  status: ('A' for Active; 'I' for Inactive)
REMARK    1  A    between atoms: C3_3  and  O1_5 
REMARK    2  A    between atoms: C3_3  and  C5_7 
REMARK    3  A    between atoms: C6_8  and  O2_9 
REMARK    4  A    between atoms: C8_12  and  C10_14 
REMARK    5  A    between atoms: C12_16  and  C13_17 
REMARK    6  A    between atoms: C15_19  and  O3_20 
REMARK    7  A    between atoms: O3_20  and  C16_21 
REMARK    8  A    between atoms: C19_25  and  O5_26 
REMARK    9  A    between atoms: C20_28  and  N1_29 
REMARK   10  A    between atoms: N1_29  and  O6_30 
REMARK   11  A    between atoms: O6_30  and  C21_31 
REMARK   12  A    between atoms: C21_31  and  C24_34 
REMARK   13  A    between atoms: C24_34  and  O7_35 
ROOT
HETATM    1  C1  UNL     1      36.589  56.682  13.356  1.00  0.00     0.015 C 
HETATM    2  C2  UNL     1      35.962  55.677  13.126  1.00  0.00    -0.079 C 
HETATM    3  C3  UNL     1      35.208  54.432  12.823  1.00  0.00     0.125 C 
HETATM    4  C4  UNL     1      35.034  54.380  11.347  1.00  0.00     0.061 C 
ENDROOT
BRANCH   3   5
HETATM    5  O1  UNL     1      33.984  54.605  13.513  1.00  0.00    -0.377 OA
ATOM      6  H1  UNL     1      33.368  54.076  13.018  1.00  0.00     0.211 HD
ENDBRANCH   3   5
BRANCH   3   7
HETATM    7  C5  UNL     1      35.987  53.310  13.418  1.00  0.00     0.090 C 
HETATM    8  C6  UNL     1      35.244  52.028  13.156  1.00  0.00     0.129 C 
HETATM    9  C7  UNL     1      36.124  50.894  12.747  1.00  0.00     0.046 C 
HETATM   10  C8  UNL     1      37.374  50.779  13.582  1.00  0.00    -0.015 C 
HETATM   11  C9  UNL     1      38.310  49.835  12.817  1.00  0.00     0.020 C 
HETATM   12  C12 UNL     1      38.060  52.081  13.812  1.00  0.00     0.049 C 
HETATM   13  C15 UNL     1      37.417  53.237  13.032  1.00  0.00     0.143 C 
BRANCH   8  14
HETATM   14  O2  UNL     1      34.476  51.628  14.268  1.00  0.00    -0.395 OA
ATOM     15  H2  UNL     1      34.474  50.685  14.377  1.00  0.00     0.210 HD
ENDBRANCH   8  14
BRANCH  10  16
HETATM   16  C10 UNL     1      37.009  50.083  14.842  1.00  0.00    -0.027 C 
HETATM   17  C11 UNL     1      37.203  48.786  15.032  1.00  0.00     0.007 C 
ENDBRANCH  10  16
BRANCH  12  18
HETATM   18  C13 UNL     1      38.115  52.368  15.265  1.00  0.00    -0.029 C 
HETATM   19  C14 UNL     1      38.757  53.433  15.706  1.00  0.00     0.007 C 
ENDBRANCH  12  18
BRANCH  13  20
HETATM   20  O3  UNL     1      37.681  53.006  11.704  1.00  0.00    -0.353 OA
BRANCH  20  21
HETATM   21  C16 UNL     1      38.952  53.409  11.300  1.00  0.00     0.284 C 
HETATM   22  O4  UNL     1      38.921  54.683  10.793  1.00  0.00    -0.352 OA
HETATM   23  C17 UNL     1      40.047  54.904  10.048  1.00  0.00     0.151 C 
HETATM   24  C18 UNL     1      41.253  55.300  10.889  1.00  0.00     0.042 C 
HETATM   25  C19 UNL     1      40.259  53.581   9.348  1.00  0.00     0.173 C 
HETATM   26  C20 UNL     1      39.473  52.572  10.159  1.00  0.00     0.192 C 
BRANCH  25  27
HETATM   27  O5  UNL     1      39.833  53.618   8.020  1.00  0.00    -0.391 OA
ATOM     28  H5  UNL     1      39.514  52.774   7.725  1.00  0.00     0.210 HD
ENDBRANCH  25  27
BRANCH  26  29
HETATM   29  N1  UNL     1      40.455  51.581  10.628  1.00  0.00    -0.087 NA
BRANCH  29  30
HETATM   30  O6  UNL     1      40.121  50.421  10.065  1.00  0.00    -0.273 OA
BRANCH  30  31
HETATM   31  C21 UNL     1      41.170  49.641   9.656  1.00  0.00     0.098 C 
HETATM   32  C22 UNL     1      42.516  50.251   9.902  1.00  0.00     0.050 C 
HETATM   33  C23 UNL     1      41.114  48.234  10.233  1.00  0.00     0.050 C 
BRANCH  31  34
HETATM   34  C24 UNL     1      41.034  49.467   8.138  1.00  0.00     0.203 C 
BRANCH  34  35
HETATM   35  O7  UNL     1      40.631  50.643   7.524  1.00  0.00    -0.398 OA
ATOM     36  H7  UNL     1      40.234  50.477   6.676  1.00  0.00     0.209 HD
ENDBRANCH  34  35
ENDBRANCH  31  34
ENDBRANCH  30  31
ENDBRANCH  29  30
ENDBRANCH  26  29
ENDBRANCH  20  21
ENDBRANCH  13  20
ENDBRANCH   3   7
TORSDOF 13
ENDMDL
MODEL 2
REMARK VINA RESULT: -5.641007301      2.309      4.793
REMARK  13 active torsions:
REMARK  status: ('A' for Active; 'I' for Inactive)
REMARK    1  A    between atoms: C3_3  and  O1_5 
REMARK    2  A    between atoms: C3_3  and  C5_7 
REMARK    3  A    between atoms: C6_8  and  O2_9 
REMARK    4  A    between atoms: C8_12  and  C10_14 
REMARK    5  A    between atoms: C12_16  and  C13_17 
REMARK    6  A    between atoms: C15_19  and  O3_20 
REMARK    7  A    between atoms: O3_20  and  C16_21 
REMARK    8  A    between atoms: C19_25  and  O5_26 
REMARK    9  A    between atoms: C20_28  and  N1_29 
REMARK   10  A    between atoms: N1_29  and  O6_30 
REMARK   11  A    between atoms: O6_30  and  C21_31 
REMARK   12  A    between atoms: C21_31  and  C24_34 
REMARK   13  A    between atoms: C24_34  and  O7_35 
ROOT
HETATM    1  C1  UNL     1      38.494  50.389  11.358  1.00  0.00     0.015 C 
HETATM    2  C2  UNL     1      37.821  50.140  12.328  1.00  0.00    -0.079 C 
HETATM    3  C3  UNL     1      37.004  49.851  13.536  1.00  0.00     0.125 C 
HETATM    4  C4  UNL     1      37.946  49.767  14.684  1.00  0.00     0.061 C 
ENDROOT
BRANCH   3   5
HETATM    5  O1  UNL     1      36.391  48.610  13.239  1.00  0.00    -0.377 OA
ATOM      6  H1  UNL     1      35.774  48.486  13.952  1.00  0.00     0.211 HD
ENDBRANCH   3   5
BRANCH   3   7
HETATM    7  C5  UNL     1      35.981  50.931  13.623  1.00  0.00     0.090 C 
HETATM    8  C6  UNL     1      34.995  50.562  14.698  1.00  0.00     0.129 C 
HETATM    9  C7  UNL     1      34.600  51.705  15.572  1.00  0.00     0.046 C 
HETATM   10  C8  UNL     1      34.303  52.967  14.802  1.00  0.00    -0.015 C 
HETATM   11  C9  UNL     1      34.281  54.100  15.836  1.00  0.00     0.020 C 
HETATM   12  C12 UNL     1      35.309  53.275  13.748  1.00  0.00     0.049 C 
HETATM   13  C15 UNL     1      36.505  52.311  13.769  1.00  0.00     0.143 C 
BRANCH   8  14
HETATM   14  O2  UNL     1      33.830  49.974  14.165  1.00  0.00    -0.395 OA
ATOM     15  H2  UNL     1      33.928  49.037  14.047  1.00  0.00     0.210 HD
ENDBRANCH   8  14
BRANCH  10  16
HETATM   16  C10 UNL     1      32.920  52.854  14.270  1.00  0.00    -0.027 C 
HETATM   17  C11 UNL     1      31.847  52.843  15.048  1.00  0.00     0.007 C 
ENDBRANCH  10  16
BRANCH  12  18
HETATM   18  C13 UNL     1      34.652  53.300  12.420  1.00  0.00    -0.029 C 
HETATM   19  C14 UNL     1      35.017  54.192  11.518  1.00  0.00     0.007 C 
ENDBRANCH  12  18
BRANCH  13  20
HETATM   20  O3  UNL     1      37.204  52.580  14.919  1.00  0.00    -0.353 OA
BRANCH  20  21
HETATM   21  C16 UNL     1      38.171  53.573  14.776  1.00  0.00     0.284 C 
HETATM   22  O4  UNL     1      37.791  54.720  15.423  1.00  0.00    -0.352 OA
HETATM   23  C17 UNL     1      38.520  55.776  14.948  1.00  0.00     0.151 C 
HETATM   24  C18 UNL     1      39.890  55.898  15.600  1.00  0.00     0.042 C 
HETATM   25  C19 UNL     1      38.625  55.480  13.470  1.00  0.00     0.173 C 
HETATM   26  C20 UNL     1      38.333  53.999  13.339  1.00  0.00     0.192 C 
BRANCH  25  27
HETATM   27  O5  UNL     1      37.735  56.248  12.718  1.00  0.00    -0.391 OA
ATOM     28  H5  UNL     1      37.012  55.731  12.385  1.00  0.00     0.210 HD
ENDBRANCH  25  27
BRANCH  26  29
HETATM   29  N1  UNL     1      39.538  53.404  12.738  1.00  0.00    -0.087 NA
BRANCH  29  30
HETATM   30  O6  UNL     1      40.116  54.364  12.018  1.00  0.00    -0.273 OA
BRANCH  30  31
HETATM   31  C21 UNL     1      40.259  54.094  10.682  1.00  0.00     0.098 C 
HETATM   32  C22 UNL     1      38.966  54.056   9.926  1.00  0.00     0.050 C 
HETATM   33  C23 UNL     1      41.245  55.028   9.997  1.00  0.00     0.050 C 
BRANCH  31  34
HETATM   34  C24 UNL     1      40.876  52.693  10.572  1.00  0.00     0.203 C 
BRANCH  34  35
HETATM   35  O7  UNL     1      41.900  52.513  11.489  1.00  0.00    -0.398 OA
ATOM     36  H7  UNL     1      42.510  53.243  11.480  1.00  0.00     0.209 HD
ENDBRANCH  34  35
ENDBRANCH  31  34
ENDBRANCH  30  31
ENDBRANCH  29  30
ENDBRANCH  26  29
ENDBRANCH  20  21
ENDBRANCH  13  20
ENDBRANCH   3   7
TORSDOF 13
ENDMDL
MODEL 3
REMARK VINA RESULT: -5.518716224      2.910      5.909
REMARK  13 active torsions:
REMARK  status: ('A' for Active; 'I' for Inactive)
REMARK    1  A    between atoms: C3_3  and  O1_5 
REMARK    2  A    between atoms: C3_3  and  C5_7 
REMARK    3  A    between atoms: C6_8  and  O2_9 
REMARK    4  A    between atoms: C8_12  and  C10_14 
REMARK    5  A    between atoms: C12_16  and  C13_17 
REMARK    6  A    between atoms: C15_19  and  O3_20 
REMARK    7  A    between atoms: O3_20  and  C16_21 
REMARK    8  A    between atoms: C19_25  and  O5_26 
REMARK    9  A    between atoms: C20_28  and  N1_29 
REMARK   10  A    between atoms: N1_29  and  O6_30 
REMARK   11  A    between atoms: O6_30  and  C21_31 
REMARK   12  A    between atoms: C21_31  and  C24_34 
REMARK   13  A    between atoms: C24_34  and  O7_35 
ROOT
HETATM    1  C1  UNL     1      38.829  49.373  11.156  1.00  0.00     0.015 C 
HETATM    2  C2  UNL     1      38.595  50.423  11.701  1.00  0.00    -0.079 C 
HETATM    3  C3  UNL     1      38.293  51.725  12.353  1.00  0.00     0.125 C 
HETATM    4  C4  UNL     1      38.604  52.787  11.360  1.00  0.00     0.061 C 
ENDROOT
BRANCH   3   5
HETATM    5  O1  UNL     1      39.160  51.750  13.472  1.00  0.00    -0.377 OA
ATOM      6  H1  UNL     1      39.290  52.678  13.636  1.00  0.00     0.211 HD
ENDBRANCH   3   5
BRANCH   3   7
HETATM    7  C5  UNL     1      36.871  51.656  12.796  1.00  0.00     0.090 C 
HETATM    8  C6  UNL     1      36.728  50.496  13.742  1.00  0.00     0.129 C 
HETATM    9  C7  UNL     1      35.878  50.790  14.933  1.00  0.00     0.046 C 
HETATM   10  C8  UNL     1      34.610  51.530  14.591  1.00  0.00    -0.015 C 
HETATM   11  C9  UNL     1      34.058  52.064  15.919  1.00  0.00     0.020 C 
HETATM   12  C12 UNL     1      34.815  52.662  13.645  1.00  0.00     0.049 C 
HETATM   13  C15 UNL     1      36.298  52.914  13.334  1.00  0.00     0.143 C 
BRANCH   8  14
HETATM   14  O2  UNL     1      36.222  49.350  13.097  1.00  0.00    -0.395 OA
ATOM     15  H2  UNL     1      36.910  48.731  12.881  1.00  0.00     0.210 HD
ENDBRANCH   8  14
BRANCH  10  16
HETATM   16  C10 UNL     1      33.627  50.531  14.097  1.00  0.00    -0.027 C 
HETATM   17  C11 UNL     1      32.526  50.213  14.763  1.00  0.00     0.007 C 
ENDBRANCH  10  16
BRANCH  12  18
HETATM   18  C13 UNL     1      34.030  52.432  12.410  1.00  0.00    -0.029 C 
HETATM   19  C14 UNL     1      33.573  53.457  11.715  1.00  0.00     0.007 C 
ENDBRANCH  12  18
BRANCH  13  20
HETATM   20  O3  UNL     1      36.863  53.399  14.488  1.00  0.00    -0.353 OA
BRANCH  20  21
HETATM   21  C16 UNL     1      37.261  54.731  14.407  1.00  0.00     0.284 C 
HETATM   22  O4  UNL     1      37.077  55.219  13.139  1.00  0.00    -0.352 OA
HETATM   23  C17 UNL     1      37.826  56.351  12.972  1.00  0.00     0.151 C 
HETATM   24  C18 UNL     1      37.151  57.601  13.519  1.00  0.00     0.042 C 
HETATM   25  C19 UNL     1      39.101  56.030  13.718  1.00  0.00     0.173 C 
HETATM   26  C20 UNL     1      38.740  54.894  14.652  1.00  0.00     0.192 C 
BRANCH  25  27
HETATM   27  O5  UNL     1      40.138  55.676  12.853  1.00  0.00    -0.391 OA
ATOM     28  H5  UNL     1      40.632  56.433  12.561  1.00  0.00     0.210 HD
ENDBRANCH  25  27
BRANCH  26  29
HETATM   29  N1  UNL     1      39.006  55.392  16.011  1.00  0.00    -0.087 NA
BRANCH  29  30
HETATM   30  O6  UNL     1      39.508  54.369  16.699  1.00  0.00    -0.273 OA
BRANCH  30  31
HETATM   31  C21 UNL     1      38.810  54.016  17.824  1.00  0.00     0.098 C 
HETATM   32  C22 UNL     1      39.640  53.991  19.072  1.00  0.00     0.050 C 
HETATM   33  C23 UNL     1      37.566  54.866  18.034  1.00  0.00     0.050 C 
BRANCH  31  34
HETATM   34  C24 UNL     1      38.299  52.586  17.605  1.00  0.00     0.203 C 
BRANCH  34  35
HETATM   35  O7  UNL     1      38.786  52.045  16.425  1.00  0.00    -0.398 OA
ATOM     36  H7  UNL     1      38.292  52.348  15.672  1.00  0.00     0.209 HD
ENDBRANCH  34  35
ENDBRANCH  31  34
ENDBRANCH  30  31
ENDBRANCH  29  30
ENDBRANCH  26  29
ENDBRANCH  20  21
ENDBRANCH  13  20
ENDBRANCH   3   7
TORSDOF 13
ENDMDL
MODEL 4
REMARK VINA RESULT: -5.503478031      3.065      6.066
REMARK  13 active torsions:
REMARK  status: ('A' for Active; 'I' for Inactive)
REMARK    1  A    between atoms: C3_3  and  O1_5 
REMARK    2  A    between atoms: C3_3  and  C5_7 
REMARK    3  A    between atoms: C6_8  and  O2_9 
REMARK    4  A    between atoms: C8_12  and  C10_14 
REMARK    5  A    between atoms: C12_16  and  C13_17 
REMARK    6  A    between atoms: C15_19  and  O3_20 
REMARK    7  A    between atoms: O3_20  and  C16_21 
REMARK    8  A    between atoms: C19_25  and  O5_26 
REMARK    9  A    between atoms: C20_28  and  N1_29 
REMARK   10  A    between atoms: N1_29  and  O6_30 
REMARK   11  A    between atoms: O6_30  and  C21_31 
REMARK   12  A    between atoms: C21_31  and  C24_34 
REMARK   13  A    between atoms: C24_34  and  O7_35 
ROOT
HETATM    1  C1  UNL     1      38.602  49.130  11.149  1.00  0.00     0.015 C 
HETATM    2  C2  UNL     1      38.430  50.213  11.652  1.00  0.00    -0.079 C 
HETATM    3  C3  UNL     1      38.205  51.555  12.251  1.00  0.00     0.125 C 
HETATM    4  C4  UNL     1      38.508  52.556  11.193  1.00  0.00     0.061 C 
ENDROOT
BRANCH   3   5
HETATM    5  O1  UNL     1      39.122  51.601  13.328  1.00  0.00    -0.377 OA
ATOM      6  H1  UNL     1      39.882  52.036  12.959  1.00  0.00     0.211 HD
ENDBRANCH   3   5
BRANCH   3   7
HETATM    7  C5  UNL     1      36.803  51.562  12.758  1.00  0.00     0.090 C 
HETATM    8  C6  UNL     1      36.644  50.413  13.717  1.00  0.00     0.129 C 
HETATM    9  C7  UNL     1      35.866  50.756  14.944  1.00  0.00     0.046 C 
HETATM   10  C8  UNL     1      34.623  51.559  14.655  1.00  0.00    -0.015 C 
HETATM   11  C9  UNL     1      34.161  52.126  16.003  1.00  0.00     0.020 C 
HETATM   12  C12 UNL     1      34.843  52.676  13.694  1.00  0.00     0.049 C 
HETATM   13  C15 UNL     1      36.321  52.849  13.314  1.00  0.00     0.143 C 
BRANCH   8  14
HETATM   14  O2  UNL     1      36.051  49.293  13.102  1.00  0.00    -0.395 OA
ATOM     15  H2  UNL     1      36.556  48.501  13.243  1.00  0.00     0.210 HD
ENDBRANCH   8  14
BRANCH  10  16
HETATM   16  C10 UNL     1      33.568  50.610  14.212  1.00  0.00    -0.027 C 
HETATM   17  C11 UNL     1      32.470  50.375  14.915  1.00  0.00     0.007 C 
ENDBRANCH  10  16
BRANCH  12  18
HETATM   18  C13 UNL     1      33.991  52.481  12.497  1.00  0.00    -0.029 C 
HETATM   19  C14 UNL     1      33.721  53.502  11.704  1.00  0.00     0.007 C 
ENDBRANCH  12  18
BRANCH  13  20
HETATM   20  O3  UNL     1      36.962  53.308  14.437  1.00  0.00    -0.353 OA
BRANCH  20  21
HETATM   21  C16 UNL     1      37.448  54.609  14.321  1.00  0.00     0.284 C 
HETATM   22  O4  UNL     1      37.107  55.150  13.108  1.00  0.00    -0.352 OA
HETATM   23  C17 UNL     1      37.909  56.227  12.847  1.00  0.00     0.151 C 
HETATM   24  C18 UNL     1      37.430  57.506  13.518  1.00  0.00     0.042 C 
HETATM   25  C19 UNL     1      39.255  55.786  13.374  1.00  0.00     0.173 C 
HETATM   26  C20 UNL     1      38.955  54.651  14.331  1.00  0.00     0.192 C 
BRANCH  25  27
HETATM   27  O5  UNL     1      40.112  55.382  12.349  1.00  0.00    -0.391 OA
ATOM     28  H5  UNL     1      41.026  55.462  12.597  1.00  0.00     0.210 HD
ENDBRANCH  25  27
BRANCH  26  29
HETATM   29  N1  UNL     1      39.469  55.084  15.641  1.00  0.00    -0.087 NA
BRANCH  29  30
HETATM   30  O6  UNL     1      40.373  56.031  15.399  1.00  0.00    -0.273 OA
BRANCH  30  31
HETATM   31  C21 UNL     1      40.541  56.954  16.398  1.00  0.00     0.098 C 
HETATM   32  C22 UNL     1      41.565  58.005  16.090  1.00  0.00     0.050 C 
HETATM   33  C23 UNL     1      39.233  57.601  16.826  1.00  0.00     0.050 C 
BRANCH  31  34
HETATM   34  C24 UNL     1      41.047  56.193  17.630  1.00  0.00     0.203 C 
BRANCH  34  35
HETATM   35  O7  UNL     1      42.120  55.372  17.319  1.00  0.00    -0.398 OA
ATOM     36  H7  UNL     1      42.948  55.828  17.413  1.00  0.00     0.209 HD
ENDBRANCH  34  35
ENDBRANCH  31  34
ENDBRANCH  30  31
ENDBRANCH  29  30
ENDBRANCH  26  29
ENDBRANCH  20  21
ENDBRANCH  13  20
ENDBRANCH   3   7
TORSDOF 13
ENDMDL
MODEL 5
REMARK VINA RESULT: -5.473856228      2.621      5.589
REMARK  13 active torsions:
REMARK  status: ('A' for Active; 'I' for Inactive)
REMARK    1  A    between atoms: C3_3  and  O1_5 
REMARK    2  A    between atoms: C3_3  and  C5_7 
REMARK    3  A    between atoms: C6_8  and  O2_9 
REMARK    4  A    between atoms: C8_12  and  C10_14 
REMARK    5  A    between atoms: C12_16  and  C13_17 
REMARK    6  A    between atoms: C15_19  and  O3_20 
REMARK    7  A    between atoms: O3_20  and  C16_21 
REMARK    8  A    between atoms: C19_25  and  O5_26 
REMARK    9  A    between atoms: C20_28  and  N1_29 
REMARK   10  A    between atoms: N1_29  and  O6_30 
REMARK   11  A    between atoms: O6_30  and  C21_31 
REMARK   12  A    between atoms: C21_31  and  C24_34 
REMARK   13  A    between atoms: C24_34  and  O7_35 
ROOT
HETATM    1  C1  UNL     1      39.108  49.658  11.005  1.00  0.00     0.015 C 
HETATM    2  C2  UNL     1      38.891  50.791  11.355  1.00  0.00    -0.079 C 
HETATM    3  C3  UNL     1      38.607  52.192  11.766  1.00  0.00     0.125 C 
HETATM    4  C4  UNL     1      38.725  53.032  10.545  1.00  0.00     0.061 C 
ENDROOT
BRANCH   3   5
HETATM    5  O1  UNL     1      39.612  52.472  12.723  1.00  0.00    -0.377 OA
ATOM      6  H1  UNL     1      39.180  53.049  13.342  1.00  0.00     0.211 HD
ENDBRANCH   3   5
BRANCH   3   7
HETATM    7  C5  UNL     1      37.263  52.179  12.410  1.00  0.00     0.090 C 
HETATM    8  C6  UNL     1      37.326  51.281  13.616  1.00  0.00     0.129 C 
HETATM    9  C7  UNL     1      36.617  51.826  14.811  1.00  0.00     0.046 C 
HETATM   10  C8  UNL     1      35.265  52.409  14.486  1.00  0.00    -0.015 C 
HETATM   11  C9  UNL     1      34.851  53.231  15.713  1.00  0.00     0.020 C 
HETATM   12  C12 UNL     1      35.265  53.281  13.279  1.00  0.00     0.049 C 
HETATM   13  C15 UNL     1      36.674  53.507  12.709  1.00  0.00     0.143 C 
BRANCH   8  14
HETATM   14  O2  UNL     1      36.826  49.993  13.340  1.00  0.00    -0.395 OA
ATOM     15  H2  UNL     1      36.417  49.600  14.102  1.00  0.00     0.210 HD
ENDBRANCH   8  14
BRANCH  10  16
HETATM   16  C10 UNL     1      34.302  51.282  14.388  1.00  0.00    -0.027 C 
HETATM   17  C11 UNL     1      33.174  51.235  15.083  1.00  0.00     0.007 C 
ENDBRANCH  10  16
BRANCH  12  18
HETATM   18  C13 UNL     1      34.346  52.724  12.258  1.00  0.00    -0.029 C 
HETATM   19  C14 UNL     1      33.471  53.509  11.658  1.00  0.00     0.007 C 
ENDBRANCH  12  18
BRANCH  13  20
HETATM   20  O3  UNL     1      37.345  54.281  13.622  1.00  0.00    -0.353 OA
BRANCH  20  21
HETATM   21  C16 UNL     1      37.555  55.594  13.206  1.00  0.00     0.284 C 
HETATM   22  O4  UNL     1      37.010  55.805  11.966  1.00  0.00    -0.352 OA
HETATM   23  C17 UNL     1      37.559  56.928  11.411  1.00  0.00     0.151 C 
HETATM   24  C18 UNL     1      36.899  58.215  11.886  1.00  0.00     0.042 C 
HETATM   25  C19 UNL     1      39.007  56.848  11.839  1.00  0.00     0.173 C 
HETATM   26  C20 UNL     1      39.020  55.900  13.020  1.00  0.00     0.192 C 
BRANCH  25  27
HETATM   27  O5  UNL     1      39.833  56.397  10.808  1.00  0.00    -0.391 OA
ATOM     28  H5  UNL     1      40.049  57.091  10.196  1.00  0.00     0.210 HD
ENDBRANCH  25  27
BRANCH  26  29
HETATM   29  N1  UNL     1      39.552  56.677  14.152  1.00  0.00    -0.087 NA
BRANCH  29  30
HETATM   30  O6  UNL     1      40.318  55.846  14.855  1.00  0.00    -0.273 OA
BRANCH  30  31
HETATM   31  C21 UNL     1      40.034  55.771  16.193  1.00  0.00     0.098 C 
HETATM   32  C22 UNL     1      41.243  55.816  17.077  1.00  0.00     0.050 C 
HETATM   33  C23 UNL     1      39.017  56.813  16.636  1.00  0.00     0.050 C 
BRANCH  31  34
HETATM   34  C24 UNL     1      39.362  54.413  16.433  1.00  0.00     0.203 C 
BRANCH  34  35
HETATM   35  O7  UNL     1      39.625  53.524  15.403  1.00  0.00    -0.398 OA
ATOM     36  H7  UNL     1      38.850  53.031  15.159  1.00  0.00     0.209 HD
ENDBRANCH  34  35
ENDBRANCH  31  34
ENDBRANCH  30  31
ENDBRANCH  29  30
ENDBRANCH  26  29
ENDBRANCH  20  21
ENDBRANCH  13  20
ENDBRANCH   3   7
TORSDOF 13
ENDMDL
