MODEL 1
REMARK VINA RESULT: -7.467630426      0.000      0.000
REMARK  16 active torsions:
REMARK  status: ('A' for Active; 'I' for Inactive)
REMARK    1  A    between atoms: C2_2  and  C3_3 
REMARK    2  A    between atoms: C3_3  and  C4_4 
REMARK    3  A    between atoms: C4_4  and  C5_5 
REMARK    4  A    between atoms: C5_5  and  C6_6 
REMARK    5  A    between atoms: C6_6  and  C7_7 
REMARK    6  A    between atoms: C8_9  and  O2_10 
REMARK    7  A    between atoms: O2_10  and  C9_11 
REMARK    8  A    between atoms: C9_11  and  C10_12 
REMARK    9  A    between atoms: C10_12  and  C11_13 
REMARK   10  A    between atoms: C11_13  and  O3_14 
REMARK   11  A    between atoms: O3_14  and  C12_15 
REMARK   12  A    between atoms: C17_21  and  O5_22 
REMARK   13  A    between atoms: C18_24  and  O6_25 
REMARK   14  A    between atoms: C19_27  and  O7_28 
REMARK   15  A    between atoms: C22_32  and  O8_33 
REMARK   16  A    between atoms: C23_35  and  O9_36 
ROOT
HETATM    1  C10 UNL     1      38.540  51.648  12.072  1.00  0.00     0.007 C 
HETATM    2  C14 UNL     1      37.182  52.380  11.858  1.00  0.00     0.014 C 
HETATM    3  C15 UNL     1      36.918  53.015  13.190  1.00  0.00     0.009 C 
HETATM    4  C16 UNL     1      37.816  52.379  14.195  1.00  0.00     0.022 C 
HETATM    5  C17 UNL     1      37.041  51.980  15.435  1.00  0.00     0.153 C 
HETATM    6  C18 UNL     1      37.581  50.652  15.908  1.00  0.00     0.175 C 
HETATM    7  C19 UNL     1      37.068  49.606  14.948  1.00  0.00     0.149 C 
HETATM    8  C20 UNL     1      37.264  50.118  13.522  1.00  0.00     0.040 C 
HETATM    9  C21 UNL     1      38.364  51.159  13.448  1.00  0.00     0.007 C 
ENDROOT
BRANCH   1  10
HETATM   10  C9  UNL     1      38.723  50.643  10.978  1.00  0.00     0.183 C 
BRANCH  10  11
HETATM   11  O2  UNL     1      39.939  50.174  10.838  1.00  0.00    -0.358 OA
BRANCH  11  12
HETATM   12  C8  UNL     1      40.826  50.241   9.893  1.00  0.00     0.291 C 
HETATM   13  O1  UNL     1      40.517  49.729   8.650  1.00  0.00    -0.351 OA
HETATM   14  C7  UNL     1      40.705  48.378   8.757  1.00  0.00     0.156 C 
HETATM   15  C23 UNL     1      41.748  48.126   9.825  1.00  0.00     0.180 C 
HETATM   16  C22 UNL     1      42.160  49.537  10.193  1.00  0.00     0.204 C 
BRANCH  14  17
HETATM   17  C6  UNL     1      39.464  47.572   9.054  1.00  0.00     0.035 C 
BRANCH  17  18
HETATM   18  C5  UNL     1      39.107  46.708   7.891  1.00  0.00     0.003 C 
BRANCH  18  19
HETATM   19  C4  UNL     1      39.110  45.242   8.284  1.00  0.00     0.004 C 
BRANCH  19  20
HETATM   20  C3  UNL     1      40.372  44.840   9.017  1.00  0.00     0.026 C 
BRANCH  20  21
HETATM   21  C2  UNL     1      40.205  43.477   9.586  1.00  0.00    -0.037 C 
HETATM   22  C1  UNL     1      39.527  42.572   8.901  1.00  0.00     0.007 C 
ENDBRANCH  20  21
ENDBRANCH  19  20
ENDBRANCH  18  19
ENDBRANCH  17  18
ENDBRANCH  14  17
BRANCH  15  23
HETATM   23  O9  UNL     1      41.176  47.446  10.897  1.00  0.00    -0.390 OA
ATOM     24  H9  UNL     1      41.067  46.528  10.679  1.00  0.00     0.210 HD
ENDBRANCH  15  23
BRANCH  16  25
HETATM   25  O8  UNL     1      43.147  49.945   9.331  1.00  0.00    -0.388 OA
ATOM     26  H8  UNL     1      43.918  50.240   9.802  1.00  0.00     0.210 HD
ENDBRANCH  16  25
ENDBRANCH  11  12
ENDBRANCH  10  11
ENDBRANCH   1  10
BRANCH   1  27
HETATM   27  C11 UNL     1      39.589  52.742  11.931  1.00  0.00     0.191 C 
BRANCH  27  28
HETATM   28  O3  UNL     1      39.444  53.391  10.677  1.00  0.00    -0.321 OA
BRANCH  28  29
HETATM   29  C12 UNL     1      40.560  53.858  10.006  1.00  0.00     0.254 C 
HETATM   30  C13 UNL     1      40.722  53.836   8.531  1.00  0.00     0.126 C 
HETATM   31  O4  UNL     1      41.521  54.345  10.693  1.00  0.00    -0.266 OA
ENDBRANCH  28  29
ENDBRANCH  27  28
ENDBRANCH   1  27
BRANCH   5  32
HETATM   32  O5  UNL     1      35.683  51.808  15.193  1.00  0.00    -0.393 OA
ATOM     33  H5  UNL     1      35.190  51.608  15.980  1.00  0.00     0.210 HD
ENDBRANCH   5  32
BRANCH   7  34
HETATM   34  O7  UNL     1      37.628  48.360  15.140  1.00  0.00    -0.393 OA
ATOM     35  H7  UNL     1      38.001  47.985  14.350  1.00  0.00     0.210 HD
ENDBRANCH   7  34
BRANCH   6  36
HETATM   36  O6  UNL     1      37.019  50.367  17.167  1.00  0.00    -0.390 OA
ATOM     37  H6  UNL     1      36.577  49.528  17.114  1.00  0.00     0.210 HD
ENDBRANCH   6  36
TORSDOF 16
ENDMDL
MODEL 2
REMARK VINA RESULT: -7.437481787      1.024      1.551
REMARK  16 active torsions:
REMARK  status: ('A' for Active; 'I' for Inactive)
REMARK    1  A    between atoms: C2_2  and  C3_3 
REMARK    2  A    between atoms: C3_3  and  C4_4 
REMARK    3  A    between atoms: C4_4  and  C5_5 
REMARK    4  A    between atoms: C5_5  and  C6_6 
REMARK    5  A    between atoms: C6_6  and  C7_7 
REMARK    6  A    between atoms: C8_9  and  O2_10 
REMARK    7  A    between atoms: O2_10  and  C9_11 
REMARK    8  A    between atoms: C9_11  and  C10_12 
REMARK    9  A    between atoms: C10_12  and  C11_13 
REMARK   10  A    between atoms: C11_13  and  O3_14 
REMARK   11  A    between atoms: O3_14  and  C12_15 
REMARK   12  A    between atoms: C17_21  and  O5_22 
REMARK   13  A    between atoms: C18_24  and  O6_25 
REMARK   14  A    between atoms: C19_27  and  O7_28 
REMARK   15  A    between atoms: C22_32  and  O8_33 
REMARK   16  A    between atoms: C23_35  and  O9_36 
ROOT
HETATM    1  C10 UNL     1      38.678  51.569  11.985  1.00  0.00     0.007 C 
HETATM    2  C14 UNL     1      37.302  52.250  11.720  1.00  0.00     0.014 C 
HETATM    3  C15 UNL     1      36.996  52.929  13.021  1.00  0.00     0.009 C 
HETATM    4  C16 UNL     1      37.895  52.361  14.065  1.00  0.00     0.022 C 
HETATM    5  C17 UNL     1      37.111  51.990  15.308  1.00  0.00     0.153 C 
HETATM    6  C18 UNL     1      37.683  50.698  15.842  1.00  0.00     0.175 C 
HETATM    7  C19 UNL     1      37.218  49.599  14.918  1.00  0.00     0.149 C 
HETATM    8  C20 UNL     1      37.423  50.060  13.475  1.00  0.00     0.040 C 
HETATM    9  C21 UNL     1      38.493  51.130  13.377  1.00  0.00     0.007 C 
ENDROOT
BRANCH   1  10
HETATM   10  C9  UNL     1      38.910  50.528  10.936  1.00  0.00     0.183 C 
BRANCH  10  11
HETATM   11  O2  UNL     1      39.909  50.759  10.119  1.00  0.00    -0.358 OA
BRANCH  11  12
HETATM   12  C8  UNL     1      40.140  50.464   8.877  1.00  0.00     0.291 C 
HETATM   13  O1  UNL     1      40.287  49.140   8.520  1.00  0.00    -0.351 OA
HETATM   14  C7  UNL     1      41.571  48.813   8.857  1.00  0.00     0.156 C 
HETATM   15  C23 UNL     1      42.413  50.069   8.800  1.00  0.00     0.180 C 
HETATM   16  C22 UNL     1      41.416  51.086   8.282  1.00  0.00     0.204 C 
BRANCH  14  17
HETATM   17  C6  UNL     1      41.739  48.147  10.203  1.00  0.00     0.035 C 
BRANCH  17  18
HETATM   18  C5  UNL     1      40.695  47.099  10.405  1.00  0.00     0.003 C 
BRANCH  18  19
HETATM   19  C4  UNL     1      41.330  45.737  10.617  1.00  0.00     0.004 C 
BRANCH  19  20
HETATM   20  C3  UNL     1      40.723  44.669   9.733  1.00  0.00     0.026 C 
BRANCH  20  21
HETATM   21  C2  UNL     1      39.833  45.302   8.725  1.00  0.00    -0.037 C 
HETATM   22  C1  UNL     1      39.067  44.533   7.970  1.00  0.00     0.007 C 
ENDBRANCH  20  21
ENDBRANCH  19  20
ENDBRANCH  18  19
ENDBRANCH  17  18
ENDBRANCH  14  17
BRANCH  15  23
HETATM   23  O9  UNL     1      42.880  50.388  10.072  1.00  0.00    -0.390 OA
ATOM     24  H9  UNL     1      42.963  49.599  10.595  1.00  0.00     0.210 HD
ENDBRANCH  15  23
BRANCH  16  25
HETATM   25  O8  UNL     1      41.406  51.033   6.911  1.00  0.00    -0.388 OA
ATOM     26  H8  UNL     1      41.238  51.888   6.533  1.00  0.00     0.210 HD
ENDBRANCH  16  25
ENDBRANCH  11  12
ENDBRANCH  10  11
ENDBRANCH   1  10
BRANCH   1  27
HETATM   27  C11 UNL     1      39.695  52.688  11.817  1.00  0.00     0.191 C 
BRANCH  27  28
HETATM   28  O3  UNL     1      39.231  53.622  10.854  1.00  0.00    -0.321 OA
BRANCH  28  29
HETATM   29  C12 UNL     1      40.106  54.147   9.919  1.00  0.00     0.254 C 
HETATM   30  C13 UNL     1      39.705  54.640   8.579  1.00  0.00     0.126 C 
HETATM   31  O4  UNL     1      41.346  54.216  10.222  1.00  0.00    -0.266 OA
ENDBRANCH  28  29
ENDBRANCH  27  28
ENDBRANCH   1  27
BRANCH   5  32
HETATM   32  O5  UNL     1      35.764  51.766  15.051  1.00  0.00    -0.393 OA
ATOM     33  H5  UNL     1      35.620  51.140  14.350  1.00  0.00     0.210 HD
ENDBRANCH   5  32
BRANCH   7  34
HETATM   34  O7  UNL     1      37.811  48.380  15.168  1.00  0.00    -0.393 OA
ATOM     35  H7  UNL     1      37.195  47.657  15.203  1.00  0.00     0.210 HD
ENDBRANCH   7  34
BRANCH   6  36
HETATM   36  O6  UNL     1      37.108  50.447  17.103  1.00  0.00    -0.390 OA
ATOM     37  H6  UNL     1      37.354  49.571  17.374  1.00  0.00     0.210 HD
ENDBRANCH   6  36
TORSDOF 16
ENDMDL
MODEL 3
REMARK VINA RESULT: -7.385138888      1.539      2.178
REMARK  16 active torsions:
REMARK  status: ('A' for Active; 'I' for Inactive)
REMARK    1  A    between atoms: C2_2  and  C3_3 
REMARK    2  A    between atoms: C3_3  and  C4_4 
REMARK    3  A    between atoms: C4_4  and  C5_5 
REMARK    4  A    between atoms: C5_5  and  C6_6 
REMARK    5  A    between atoms: C6_6  and  C7_7 
REMARK    6  A    between atoms: C8_9  and  O2_10 
REMARK    7  A    between atoms: O2_10  and  C9_11 
REMARK    8  A    between atoms: C9_11  and  C10_12 
REMARK    9  A    between atoms: C10_12  and  C11_13 
REMARK   10  A    between atoms: C11_13  and  O3_14 
REMARK   11  A    between atoms: O3_14  and  C12_15 
REMARK   12  A    between atoms: C17_21  and  O5_22 
REMARK   13  A    between atoms: C18_24  and  O6_25 
REMARK   14  A    between atoms: C19_27  and  O7_28 
REMARK   15  A    between atoms: C22_32  and  O8_33 
REMARK   16  A    between atoms: C23_35  and  O9_36 
ROOT
HETATM    1  C10 UNL     1      39.892  53.001  10.573  1.00  0.00     0.007 C 
HETATM    2  C14 UNL     1      38.791  54.102  10.554  1.00  0.00     0.014 C 
HETATM    3  C15 UNL     1      38.453  54.277  12.004  1.00  0.00     0.009 C 
HETATM    4  C16 UNL     1      38.998  53.110  12.754  1.00  0.00     0.022 C 
HETATM    5  C17 UNL     1      37.953  52.531  13.686  1.00  0.00     0.153 C 
HETATM    6  C18 UNL     1      38.091  51.028  13.653  1.00  0.00     0.175 C 
HETATM    7  C19 UNL     1      37.528  50.565  12.332  1.00  0.00     0.149 C 
HETATM    8  C20 UNL     1      38.075  51.471  11.228  1.00  0.00     0.040 C 
HETATM    9  C21 UNL     1      39.377  52.129  11.640  1.00  0.00     0.007 C 
ENDROOT
BRANCH   1  10
HETATM   10  C9  UNL     1      40.029  52.433   9.195  1.00  0.00     0.183 C 
BRANCH  10  11
HETATM   11  O2  UNL     1      40.460  51.197   9.133  1.00  0.00    -0.358 OA
BRANCH  11  12
HETATM   12  C8  UNL     1      41.616  50.660   8.887  1.00  0.00     0.291 C 
HETATM   13  O1  UNL     1      41.695  49.641   7.961  1.00  0.00    -0.351 OA
HETATM   14  C7  UNL     1      41.292  48.514   8.624  1.00  0.00     0.156 C 
HETATM   15  C23 UNL     1      41.599  48.693  10.096  1.00  0.00     0.180 C 
HETATM   16  C22 UNL     1      42.318  50.027  10.102  1.00  0.00     0.204 C 
BRANCH  14  17
HETATM   17  C6  UNL     1      39.838  48.143   8.447  1.00  0.00     0.035 C 
BRANCH  17  18
HETATM   18  C5  UNL     1      39.712  46.835   7.740  1.00  0.00     0.003 C 
BRANCH  18  19
HETATM   19  C4  UNL     1      38.973  45.825   8.599  1.00  0.00     0.004 C 
BRANCH  19  20
HETATM   20  C3  UNL     1      39.700  44.501   8.693  1.00  0.00     0.026 C 
BRANCH  20  21
HETATM   21  C2  UNL     1      41.023  44.702   9.340  1.00  0.00    -0.037 C 
HETATM   22  C1  UNL     1      41.069  45.097  10.602  1.00  0.00     0.007 C 
ENDBRANCH  20  21
ENDBRANCH  19  20
ENDBRANCH  18  19
ENDBRANCH  17  18
ENDBRANCH  14  17
BRANCH  15  23
HETATM   23  O9  UNL     1      40.415  48.728  10.828  1.00  0.00    -0.390 OA
ATOM     24  H9  UNL     1      40.454  48.097  11.538  1.00  0.00     0.210 HD
ENDBRANCH  15  23
BRANCH  16  25
HETATM   25  O8  UNL     1      43.649  49.810   9.853  1.00  0.00    -0.388 OA
ATOM     26  H8  UNL     1      43.968  49.045  10.318  1.00  0.00     0.210 HD
ENDBRANCH  16  25
ENDBRANCH  11  12
ENDBRANCH  10  11
ENDBRANCH   1  10
BRANCH   1  27
HETATM   27  C11 UNL     1      41.168  53.744  10.940  1.00  0.00     0.191 C 
BRANCH  27  28
HETATM   28  O3  UNL     1      41.536  54.619   9.885  1.00  0.00    -0.321 OA
BRANCH  28  29
HETATM   29  C12 UNL     1      42.026  55.882  10.172  1.00  0.00     0.254 C 
HETATM   30  C13 UNL     1      41.337  56.872  11.035  1.00  0.00     0.126 C 
HETATM   31  O4  UNL     1      43.147  56.227   9.666  1.00  0.00    -0.266 OA
ENDBRANCH  28  29
ENDBRANCH  27  28
ENDBRANCH   1  27
BRANCH   5  32
HETATM   32  O5  UNL     1      36.653  52.832  13.295  1.00  0.00    -0.393 OA
ATOM     33  H5  UNL     1      36.385  52.363  12.513  1.00  0.00     0.210 HD
ENDBRANCH   5  32
BRANCH   7  34
HETATM   34  O7  UNL     1      37.751  49.229  12.073  1.00  0.00    -0.393 OA
ATOM     35  H7  UNL     1      37.959  49.047  11.164  1.00  0.00     0.210 HD
ENDBRANCH   7  34
BRANCH   6  36
HETATM   36  O6  UNL     1      37.272  50.485  14.662  1.00  0.00    -0.390 OA
ATOM     37  H6  UNL     1      37.384  49.542  14.664  1.00  0.00     0.210 HD
ENDBRANCH   6  36
TORSDOF 16
ENDMDL
MODEL 4
REMARK VINA RESULT: -7.188222708      1.969      4.445
REMARK  16 active torsions:
REMARK  status: ('A' for Active; 'I' for Inactive)
REMARK    1  A    between atoms: C2_2  and  C3_3 
REMARK    2  A    between atoms: C3_3  and  C4_4 
REMARK    3  A    between atoms: C4_4  and  C5_5 
REMARK    4  A    between atoms: C5_5  and  C6_6 
REMARK    5  A    between atoms: C6_6  and  C7_7 
REMARK    6  A    between atoms: C8_9  and  O2_10 
REMARK    7  A    between atoms: O2_10  and  C9_11 
REMARK    8  A    between atoms: C9_11  and  C10_12 
REMARK    9  A    between atoms: C10_12  and  C11_13 
REMARK   10  A    between atoms: C11_13  and  O3_14 
REMARK   11  A    between atoms: O3_14  and  C12_15 
REMARK   12  A    between atoms: C17_21  and  O5_22 
REMARK   13  A    between atoms: C18_24  and  O6_25 
REMARK   14  A    between atoms: C19_27  and  O7_28 
REMARK   15  A    between atoms: C22_32  and  O8_33 
REMARK   16  A    between atoms: C23_35  and  O9_36 
ROOT
HETATM    1  C10 UNL     1      38.510  52.122  12.048  1.00  0.00     0.007 C 
HETATM    2  C14 UNL     1      38.536  52.755  13.471  1.00  0.00     0.014 C 
HETATM    3  C15 UNL     1      37.100  53.113  13.716  1.00  0.00     0.009 C 
HETATM    4  C16 UNL     1      36.382  53.074  12.411  1.00  0.00     0.022 C 
HETATM    5  C17 UNL     1      35.543  54.322  12.220  1.00  0.00     0.153 C 
HETATM    6  C18 UNL     1      35.644  54.726  10.769  1.00  0.00     0.175 C 
HETATM    7  C19 UNL     1      37.018  55.319  10.575  1.00  0.00     0.149 C 
HETATM    8  C20 UNL     1      38.040  54.407  11.254  1.00  0.00     0.040 C 
HETATM    9  C21 UNL     1      37.520  52.989  11.390  1.00  0.00     0.007 C 
ENDROOT
BRANCH   1  10
HETATM   10  C9  UNL     1      39.904  52.097  11.507  1.00  0.00     0.183 C 
BRANCH  10  11
HETATM   11  O2  UNL     1      40.194  51.079  10.734  1.00  0.00    -0.358 OA
BRANCH  11  12
HETATM   12  C8  UNL     1      40.064  50.849   9.463  1.00  0.00     0.291 C 
HETATM   13  O1  UNL     1      39.947  49.546   9.029  1.00  0.00    -0.351 OA
HETATM   14  C7  UNL     1      41.223  49.054   9.007  1.00  0.00     0.156 C 
HETATM   15  C23 UNL     1      42.175  50.210   8.782  1.00  0.00     0.180 C 
HETATM   16  C22 UNL     1      41.215  51.365   8.582  1.00  0.00     0.204 C 
BRANCH  14  17
HETATM   17  C6  UNL     1      41.642  48.280  10.234  1.00  0.00     0.035 C 
BRANCH  17  18
HETATM   18  C5  UNL     1      40.669  47.186  10.523  1.00  0.00     0.003 C 
BRANCH  18  19
HETATM   19  C4  UNL     1      41.367  45.839  10.571  1.00  0.00     0.004 C 
BRANCH  19  20
HETATM   20  C3  UNL     1      40.612  44.765   9.818  1.00  0.00     0.026 C 
BRANCH  20  21
HETATM   21  C2  UNL     1      39.822  45.387   8.722  1.00  0.00    -0.037 C 
HETATM   22  C1  UNL     1      39.104  44.611   7.928  1.00  0.00     0.007 C 
ENDBRANCH  20  21
ENDBRANCH  19  20
ENDBRANCH  18  19
ENDBRANCH  17  18
ENDBRANCH  14  17
BRANCH  15  23
HETATM   23  O9  UNL     1      42.985  50.384   9.900  1.00  0.00    -0.390 OA
ATOM     24  H9  UNL     1      42.450  50.450  10.682  1.00  0.00     0.210 HD
ENDBRANCH  15  23
BRANCH  16  25
HETATM   25  O8  UNL     1      40.851  51.411   7.260  1.00  0.00    -0.388 OA
ATOM     26  H8  UNL     1      41.337  52.078   6.790  1.00  0.00     0.210 HD
ENDBRANCH  16  25
ENDBRANCH  11  12
ENDBRANCH  10  11
ENDBRANCH   1  10
BRANCH   1  27
HETATM   27  C11 UNL     1      38.031  50.696  12.275  1.00  0.00     0.191 C 
BRANCH  27  28
HETATM   28  O3  UNL     1      38.505  50.221  13.526  1.00  0.00    -0.321 OA
BRANCH  28  29
HETATM   29  C12 UNL     1      37.683  49.453  14.332  1.00  0.00     0.254 C 
HETATM   30  C13 UNL     1      36.200  49.473  14.277  1.00  0.00     0.126 C 
HETATM   31  O4  UNL     1      38.226  48.671  15.183  1.00  0.00    -0.266 OA
ENDBRANCH  28  29
ENDBRANCH  27  28
ENDBRANCH   1  27
BRANCH   5  32
HETATM   32  O5  UNL     1      35.992  55.397  12.977  1.00  0.00    -0.393 OA
ATOM     33  H5  UNL     1      36.329  56.109  12.444  1.00  0.00     0.210 HD
ENDBRANCH   5  32
BRANCH   7  34
HETATM   34  O7  UNL     1      37.331  55.568   9.255  1.00  0.00    -0.393 OA
ATOM     35  H7  UNL     1      37.082  56.437   8.962  1.00  0.00     0.210 HD
ENDBRANCH   7  34
BRANCH   6  36
HETATM   36  O6  UNL     1      34.713  55.755  10.528  1.00  0.00    -0.390 OA
ATOM     37  H6  UNL     1      34.192  55.515   9.772  1.00  0.00     0.210 HD
ENDBRANCH   6  36
TORSDOF 16
ENDMDL
MODEL 5
REMARK VINA RESULT: -7.091733655      1.408      4.439
REMARK  16 active torsions:
REMARK  status: ('A' for Active; 'I' for Inactive)
REMARK    1  A    between atoms: C2_2  and  C3_3 
REMARK    2  A    between atoms: C3_3  and  C4_4 
REMARK    3  A    between atoms: C4_4  and  C5_5 
REMARK    4  A    between atoms: C5_5  and  C6_6 
REMARK    5  A    between atoms: C6_6  and  C7_7 
REMARK    6  A    between atoms: C8_9  and  O2_10 
REMARK    7  A    between atoms: O2_10  and  C9_11 
REMARK    8  A    between atoms: C9_11  and  C10_12 
REMARK    9  A    between atoms: C10_12  and  C11_13 
REMARK   10  A    between atoms: C11_13  and  O3_14 
REMARK   11  A    between atoms: O3_14  and  C12_15 
REMARK   12  A    between atoms: C17_21  and  O5_22 
REMARK   13  A    between atoms: C18_24  and  O6_25 
REMARK   14  A    between atoms: C19_27  and  O7_28 
REMARK   15  A    between atoms: C22_32  and  O8_33 
REMARK   16  A    between atoms: C23_35  and  O9_36 
ROOT
HETATM    1  C10 UNL     1      38.298  51.279  12.015  1.00  0.00     0.007 C 
HETATM    2  C14 UNL     1      38.753  52.034  13.299  1.00  0.00     0.014 C 
HETATM    3  C15 UNL     1      37.883  53.255  13.308  1.00  0.00     0.009 C 
HETATM    4  C16 UNL     1      37.278  53.406  11.955  1.00  0.00     0.022 C 
HETATM    5  C17 UNL     1      37.425  54.828  11.453  1.00  0.00     0.153 C 
HETATM    6  C18 UNL     1      37.731  54.764   9.976  1.00  0.00     0.175 C 
HETATM    7  C19 UNL     1      39.162  54.305   9.844  1.00  0.00     0.149 C 
HETATM    8  C20 UNL     1      39.380  53.120  10.786  1.00  0.00     0.040 C 
HETATM    9  C21 UNL     1      38.077  52.414  11.105  1.00  0.00     0.007 C 
ENDROOT
BRANCH   1  10
HETATM   10  C9  UNL     1      39.343  50.271  11.654  1.00  0.00     0.183 C 
BRANCH  10  11
HETATM   11  O2  UNL     1      39.450  50.000  10.376  1.00  0.00    -0.358 OA
BRANCH  11  12
HETATM   12  C8  UNL     1      40.440  50.004   9.536  1.00  0.00     0.291 C 
HETATM   13  O1  UNL     1      40.307  49.323   8.344  1.00  0.00    -0.351 OA
HETATM   14  C7  UNL     1      40.543  48.010   8.647  1.00  0.00     0.156 C 
HETATM   15  C23 UNL     1      41.460  47.957   9.850  1.00  0.00     0.180 C 
HETATM   16  C22 UNL     1      41.760  49.425  10.075  1.00  0.00     0.204 C 
BRANCH  14  17
HETATM   17  C6  UNL     1      39.313  47.172   8.904  1.00  0.00     0.035 C 
BRANCH  17  18
HETATM   18  C5  UNL     1      39.336  45.935   8.070  1.00  0.00     0.003 C 
BRANCH  18  19
HETATM   19  C4  UNL     1      40.006  44.794   8.813  1.00  0.00     0.004 C 
BRANCH  19  20
HETATM   20  C3  UNL     1      39.451  43.441   8.422  1.00  0.00     0.026 C 
BRANCH  20  21
HETATM   21  C2  UNL     1      39.629  42.484   9.546  1.00  0.00    -0.037 C 
HETATM   22  C1  UNL     1      39.224  41.234   9.397  1.00  0.00     0.007 C 
ENDBRANCH  20  21
ENDBRANCH  19  20
ENDBRANCH  18  19
ENDBRANCH  17  18
ENDBRANCH  14  17
BRANCH  15  23
HETATM   23  O9  UNL     1      40.796  47.382  10.930  1.00  0.00    -0.390 OA
ATOM     24  H9  UNL     1      41.247  47.593  11.739  1.00  0.00     0.210 HD
ENDBRANCH  15  23
BRANCH  16  25
HETATM   25  O8  UNL     1      42.822  49.783   9.284  1.00  0.00    -0.388 OA
ATOM     26  H8  UNL     1      43.414  49.052   9.148  1.00  0.00     0.210 HD
ENDBRANCH  16  25
ENDBRANCH  11  12
ENDBRANCH  10  11
ENDBRANCH   1  10
BRANCH   1  27
HETATM   27  C11 UNL     1      37.024  50.558  12.428  1.00  0.00     0.191 C 
BRANCH  27  28
HETATM   28  O3  UNL     1      37.344  49.442  13.244  1.00  0.00    -0.321 OA
BRANCH  28  29
HETATM   29  C12 UNL     1      36.843  49.358  14.532  1.00  0.00     0.254 C 
HETATM   30  C13 UNL     1      35.907  50.340  15.132  1.00  0.00     0.126 C 
HETATM   31  O4  UNL     1      37.204  48.373  15.261  1.00  0.00    -0.266 OA
ENDBRANCH  28  29
ENDBRANCH  27  28
ENDBRANCH   1  27
BRANCH   5  32
HETATM   32  O5  UNL     1      38.474  55.509  12.059  1.00  0.00    -0.393 OA
ATOM     33  H5  UNL     1      38.860  56.171  11.496  1.00  0.00     0.210 HD
ENDBRANCH   5  32
BRANCH   7  34
HETATM   34  O7  UNL     1      39.534  54.019   8.548  1.00  0.00    -0.393 OA
ATOM     35  H7  UNL     1      38.808  53.756   7.993  1.00  0.00     0.210 HD
ENDBRANCH   7  34
BRANCH   6  36
HETATM   36  O6  UNL     1      37.667  56.070   9.453  1.00  0.00    -0.390 OA
ATOM     37  H6  UNL     1      38.551  56.412   9.396  1.00  0.00     0.210 HD
ENDBRANCH   6  36
TORSDOF 16
ENDMDL
