MODEL 1
REMARK VINA RESULT: -6.501494171      0.000      0.000
REMARK  9 active torsions:
REMARK  status: ('A' for Active; 'I' for Inactive)
REMARK    1  A    between atoms: C2_2  and  N1_3 
REMARK    2  A    between atoms: N1_3  and  C3_4 
REMARK    3  A    between atoms: N1_3  and  C5_6 
REMARK    4  A    between atoms: C5_6  and  C6_7 
REMARK    5  A    between atoms: C5_6  and  C20_28 
REMARK    6  A    between atoms: C6_7  and  N2_8 
REMARK    7  A    between atoms: N2_8  and  C7_10 
REMARK    8  A    between atoms: C7_10  and  C10_18 
REMARK       I    between atoms: N3_11  and  C8_13 
REMARK       I    between atoms: C8_13  and  N4_15 
REMARK    9  A    between atoms: C20_28  and  N5_29 
ROOT
HETATM    1  C7  UNL     1      18.171   9.863   5.842  1.00  0.00     0.090 C 
HETATM    2  N3  UNL     1      17.362  10.243   5.003  1.00  0.00    -0.298 N 
ATOM      3  H3  UNL     1      16.658   9.520   4.855  1.00  0.00     0.172 HD
HETATM    4  C8  UNL     1      17.094  11.319   4.198  1.00  0.00     0.321 C 
HETATM    5  O1  UNL     1      16.288  12.204   4.667  1.00  0.00    -0.247 OA
HETATM    6  N4  UNL     1      17.609  11.562   2.906  1.00  0.00    -0.347 N 
ATOM      7  H4  UNL     1      18.255  10.901   2.475  1.00  0.00     0.163 HD
HETATM    8  C9  UNL     1      17.210  12.759   2.203  1.00  0.00     0.151 C 
ENDROOT
BRANCH   1   9
HETATM    9  N2  UNL     1      17.918   8.518   6.392  1.00  0.00    -0.374 N 
ATOM     10  H2  UNL     1      18.660   7.998   6.862  1.00  0.00     0.161 HD
BRANCH   9  11
HETATM   11  C6  UNL     1      16.601   7.958   6.251  1.00  0.00     0.173 C 
BRANCH  11  12
HETATM   12  C5  UNL     1      15.693   8.194   7.423  1.00  0.00     0.016 C 
BRANCH  12  13
HETATM   13  N1  UNL     1      14.330   8.289   7.163  1.00  0.00    -0.285 NA
BRANCH  13  14
HETATM   14  C2  UNL     1      14.066   9.573   6.434  1.00  0.00     0.091 C 
HETATM   15  C1  UNL     1      13.088   9.392   5.327  1.00  0.00     0.021 C 
ENDBRANCH  13  14
BRANCH  13  16
HETATM   16  C3  UNL     1      13.311   8.164   8.134  1.00  0.00     0.091 C 
HETATM   17  C4  UNL     1      13.122   6.828   8.790  1.00  0.00     0.021 C 
ENDBRANCH  13  16
ENDBRANCH  12  13
BRANCH  12  18
HETATM   18  C20 UNL     1      16.199   8.919   8.581  1.00  0.00     0.080 C 
BRANCH  18  19
HETATM   19  N5  UNL     1      17.142   8.530   9.504  1.00  0.00    -0.291 NA
HETATM   20  C21 UNL     1      18.025   9.401  10.172  1.00  0.00     0.095 C 
HETATM   21  C22 UNL     1      17.155  10.139  11.209  1.00  0.00     0.016 C 
HETATM   22  C23 UNL     1      16.112   9.088  11.502  1.00  0.00     0.016 C 
HETATM   23  C24 UNL     1      16.478   7.877  10.638  1.00  0.00     0.095 C 
ENDBRANCH  18  19
ENDBRANCH  12  18
ENDBRANCH  11  12
ENDBRANCH   9  11
ENDBRANCH   1   9
BRANCH   1  24
HETATM   24  C10 UNL     1      19.338  10.577   6.351  1.00  0.00     0.019 C 
HETATM   25  C11 UNL     1      20.200   9.605   7.160  1.00  0.00     0.022 C 
HETATM   26  C12 UNL     1      21.365  10.312   7.762  1.00  0.00    -0.013 C 
HETATM   27  C13 UNL     1      20.854  11.391   8.693  1.00  0.00     0.009 C 
HETATM   28  C17 UNL     1      22.248  10.947   6.690  1.00  0.00     0.009 C 
HETATM   29  C14 UNL     1      19.999  12.377   7.935  1.00  0.00    -0.013 C 
HETATM   30  C15 UNL     1      20.860  12.998   6.865  1.00  0.00     0.009 C 
HETATM   31  C19 UNL     1      18.851  11.643   7.310  1.00  0.00     0.022 C 
HETATM   32  C16 UNL     1      21.383  11.924   5.969  1.00  0.00    -0.013 C 
HETATM   33  C18 UNL     1      20.232  11.179   5.307  1.00  0.00     0.022 C 
ENDBRANCH   1  24
TORSDOF 9
ENDMDL
MODEL 2
REMARK VINA RESULT: -6.387770274     13.076     14.570
REMARK  9 active torsions:
REMARK  status: ('A' for Active; 'I' for Inactive)
REMARK    1  A    between atoms: C2_2  and  N1_3 
REMARK    2  A    between atoms: N1_3  and  C3_4 
REMARK    3  A    between atoms: N1_3  and  C5_6 
REMARK    4  A    between atoms: C5_6  and  C6_7 
REMARK    5  A    between atoms: C5_6  and  C20_28 
REMARK    6  A    between atoms: C6_7  and  N2_8 
REMARK    7  A    between atoms: N2_8  and  C7_10 
REMARK    8  A    between atoms: C7_10  and  C10_18 
REMARK       I    between atoms: N3_11  and  C8_13 
REMARK       I    between atoms: C8_13  and  N4_15 
REMARK    9  A    between atoms: C20_28  and  N5_29 
ROOT
HETATM    1  C7  UNL     1      10.437  20.713  12.365  1.00  0.00     0.090 C 
HETATM    2  N3  UNL     1      11.349  20.460  11.586  1.00  0.00    -0.298 N 
ATOM      3  H3  UNL     1      11.730  19.536  11.794  1.00  0.00     0.172 HD
HETATM    4  C8  UNL     1      12.025  21.008  10.527  1.00  0.00     0.321 C 
HETATM    5  O1  UNL     1      11.593  20.717   9.353  1.00  0.00    -0.247 OA
HETATM    6  N4  UNL     1      13.148  21.862  10.588  1.00  0.00    -0.347 N 
ATOM      7  H4  UNL     1      13.542  22.133  11.489  1.00  0.00     0.163 HD
HETATM    8  C9  UNL     1      13.733  22.345   9.360  1.00  0.00     0.151 C 
ENDROOT
BRANCH   1   9
HETATM    9  N2  UNL     1      10.145  19.659  13.353  1.00  0.00    -0.374 N 
ATOM     10  H2  UNL     1       9.621  19.870  14.203  1.00  0.00     0.161 HD
BRANCH   9  11
HETATM   11  C6  UNL     1      10.616  18.326  13.090  1.00  0.00     0.173 C 
BRANCH  11  12
HETATM   12  C5  UNL     1       9.540  17.342  12.730  1.00  0.00     0.016 C 
BRANCH  12  13
HETATM   13  N1  UNL     1       9.875  16.330  11.839  1.00  0.00    -0.285 NA
BRANCH  13  14
HETATM   14  C2  UNL     1      11.259  15.847  12.154  1.00  0.00     0.091 C 
HETATM   15  C1  UNL     1      11.273  14.410  12.539  1.00  0.00     0.021 C 
ENDBRANCH  13  14
BRANCH  13  16
HETATM   16  C3  UNL     1       9.800  16.434  10.431  1.00  0.00     0.091 C 
HETATM   17  C4  UNL     1       8.968  15.427   9.693  1.00  0.00     0.021 C 
ENDBRANCH  13  16
ENDBRANCH  12  13
BRANCH  12  18
HETATM   18  C20 UNL     1       8.148  17.771  12.754  1.00  0.00     0.080 C 
BRANCH  18  19
HETATM   19  N5  UNL     1       7.561  18.848  12.133  1.00  0.00    -0.291 NA
HETATM   20  C21 UNL     1       7.399  18.986  10.740  1.00  0.00     0.095 C 
HETATM   21  C22 UNL     1       6.265  18.012  10.366  1.00  0.00     0.016 C 
HETATM   22  C23 UNL     1       5.453  18.022  11.639  1.00  0.00     0.016 C 
HETATM   23  C24 UNL     1       6.173  18.982  12.591  1.00  0.00     0.095 C 
ENDBRANCH  18  19
ENDBRANCH  12  18
ENDBRANCH  11  12
ENDBRANCH   9  11
ENDBRANCH   1   9
BRANCH   1  24
HETATM   24  C10 UNL     1       9.620  21.921  12.425  1.00  0.00     0.019 C 
HETATM   25  C11 UNL     1      10.521  23.114  12.754  1.00  0.00     0.022 C 
HETATM   26  C12 UNL     1       9.715  24.358  12.899  1.00  0.00    -0.013 C 
HETATM   27  C13 UNL     1       8.730  24.171  14.034  1.00  0.00     0.009 C 
HETATM   28  C17 UNL     1       8.952  24.682  11.618  1.00  0.00     0.009 C 
HETATM   29  C14 UNL     1       7.816  23.005  13.751  1.00  0.00    -0.013 C 
HETATM   30  C15 UNL     1       7.069  23.312  12.478  1.00  0.00     0.009 C 
HETATM   31  C19 UNL     1       8.646  21.769  13.575  1.00  0.00     0.022 C 
HETATM   32  C16 UNL     1       8.049  23.522  11.371  1.00  0.00    -0.013 C 
HETATM   33  C18 UNL     1       8.889  22.270  11.161  1.00  0.00     0.022 C 
ENDBRANCH   1  24
TORSDOF 9
ENDMDL
MODEL 3
REMARK VINA RESULT: -6.360684587      2.209      5.641
REMARK  9 active torsions:
REMARK  status: ('A' for Active; 'I' for Inactive)
REMARK    1  A    between atoms: C2_2  and  N1_3 
REMARK    2  A    between atoms: N1_3  and  C3_4 
REMARK    3  A    between atoms: N1_3  and  C5_6 
REMARK    4  A    between atoms: C5_6  and  C6_7 
REMARK    5  A    between atoms: C5_6  and  C20_28 
REMARK    6  A    between atoms: C6_7  and  N2_8 
REMARK    7  A    between atoms: N2_8  and  C7_10 
REMARK    8  A    between atoms: C7_10  and  C10_18 
REMARK       I    between atoms: N3_11  and  C8_13 
REMARK       I    between atoms: C8_13  and  N4_15 
REMARK    9  A    between atoms: C20_28  and  N5_29 
ROOT
HETATM    1  C7  UNL     1      17.453  10.401   8.095  1.00  0.00     0.090 C 
HETATM    2  N3  UNL     1      18.436  10.941   7.600  1.00  0.00    -0.298 N 
ATOM      3  H3  UNL     1      18.827  11.612   8.261  1.00  0.00     0.172 HD
HETATM    4  C8  UNL     1      19.182  10.939   6.450  1.00  0.00     0.321 C 
HETATM    5  O1  UNL     1      20.203  10.159   6.426  1.00  0.00    -0.247 OA
HETATM    6  N4  UNL     1      18.949  11.704   5.286  1.00  0.00    -0.347 N 
ATOM      7  H4  UNL     1      18.155  12.342   5.238  1.00  0.00     0.163 HD
HETATM    8  C9  UNL     1      19.848  11.570   4.164  1.00  0.00     0.151 C 
ENDROOT
BRANCH   1   9
HETATM    9  N2  UNL     1      17.113  10.847   9.459  1.00  0.00    -0.374 N 
ATOM     10  H2  UNL     1      16.161  10.760   9.815  1.00  0.00     0.161 HD
BRANCH   9  11
HETATM   11  C6  UNL     1      18.157  11.406  10.275  1.00  0.00     0.173 C 
BRANCH  11  12
HETATM   12  C5  UNL     1      18.876  10.411  11.140  1.00  0.00     0.016 C 
BRANCH  12  13
HETATM   13  N1  UNL     1      20.255  10.319  10.992  1.00  0.00    -0.285 NA
BRANCH  13  14
HETATM   14  C2  UNL     1      20.746  11.540  10.274  1.00  0.00     0.091 C 
HETATM   15  C1  UNL     1      21.893  11.234   9.377  1.00  0.00     0.021 C 
ENDBRANCH  13  14
BRANCH  13  16
HETATM   16  C3  UNL     1      20.935   9.219  10.421  1.00  0.00     0.091 C 
HETATM   17  C4  UNL     1      21.477   8.168  11.345  1.00  0.00     0.021 C 
ENDBRANCH  13  16
ENDBRANCH  12  13
BRANCH  12  18
HETATM   18  C20 UNL     1      18.174   9.212  11.578  1.00  0.00     0.080 C 
BRANCH  18  19
HETATM   19  N5  UNL     1      17.519   8.975  12.764  1.00  0.00    -0.291 NA
HETATM   20  C21 UNL     1      16.182   9.329  13.033  1.00  0.00     0.095 C 
HETATM   21  C22 UNL     1      15.330   8.323  12.235  1.00  0.00     0.016 C 
HETATM   22  C23 UNL     1      16.238   7.118  12.238  1.00  0.00     0.016 C 
HETATM   23  C24 UNL     1      17.486   7.532  13.026  1.00  0.00     0.095 C 
ENDBRANCH  18  19
ENDBRANCH  12  18
ENDBRANCH  11  12
ENDBRANCH   9  11
ENDBRANCH   1   9
BRANCH   1  24
HETATM   24  C10 UNL     1      16.593   9.383   7.498  1.00  0.00     0.019 C 
HETATM   25  C11 UNL     1      15.391  10.071   6.846  1.00  0.00     0.022 C 
HETATM   26  C12 UNL     1      14.448   9.061   6.289  1.00  0.00    -0.013 C 
HETATM   27  C13 UNL     1      13.947   8.185   7.418  1.00  0.00     0.009 C 
HETATM   28  C17 UNL     1      15.122   8.188   5.234  1.00  0.00     0.009 C 
HETATM   29  C14 UNL     1      15.101   7.483   8.090  1.00  0.00    -0.013 C 
HETATM   30  C15 UNL     1      15.782   6.630   7.050  1.00  0.00     0.009 C 
HETATM   31  C19 UNL     1      16.056   8.513   8.615  1.00  0.00     0.022 C 
HETATM   32  C16 UNL     1      16.246   7.498   5.928  1.00  0.00    -0.013 C 
HETATM   33  C18 UNL     1      17.235   8.539   6.437  1.00  0.00     0.022 C 
ENDBRANCH   1  24
TORSDOF 9
ENDMDL
MODEL 4
REMARK VINA RESULT: -6.360284592      1.489      2.117
REMARK  9 active torsions:
REMARK  status: ('A' for Active; 'I' for Inactive)
REMARK    1  A    between atoms: C2_2  and  N1_3 
REMARK    2  A    between atoms: N1_3  and  C3_4 
REMARK    3  A    between atoms: N1_3  and  C5_6 
REMARK    4  A    between atoms: C5_6  and  C6_7 
REMARK    5  A    between atoms: C5_6  and  C20_28 
REMARK    6  A    between atoms: C6_7  and  N2_8 
REMARK    7  A    between atoms: N2_8  and  C7_10 
REMARK    8  A    between atoms: C7_10  and  C10_18 
REMARK       I    between atoms: N3_11  and  C8_13 
REMARK       I    between atoms: C8_13  and  N4_15 
REMARK    9  A    between atoms: C20_28  and  N5_29 
ROOT
HETATM    1  C7  UNL     1      18.015   9.908   6.821  1.00  0.00     0.090 C 
HETATM    2  N3  UNL     1      17.137   9.909   5.966  1.00  0.00    -0.298 N 
ATOM      3  H3  UNL     1      16.383   9.283   6.249  1.00  0.00     0.172 HD
HETATM    4  C8  UNL     1      16.835  10.475   4.755  1.00  0.00     0.321 C 
HETATM    5  O1  UNL     1      16.135  11.553   4.779  1.00  0.00    -0.247 OA
HETATM    6  N4  UNL     1      17.210   9.999   3.479  1.00  0.00    -0.347 N 
ATOM      7  H4  UNL     1      17.766   9.149   3.388  1.00  0.00     0.163 HD
HETATM    8  C9  UNL     1      16.797  10.732   2.305  1.00  0.00     0.151 C 
ENDROOT
BRANCH   1   9
HETATM    9  N2  UNL     1      17.757   9.039   7.984  1.00  0.00    -0.374 N 
ATOM     10  H2  UNL     1      18.522   8.725   8.581  1.00  0.00     0.161 HD
BRANCH   9  11
HETATM   11  C6  UNL     1      16.401   8.647   8.256  1.00  0.00     0.173 C 
BRANCH  11  12
HETATM   12  C5  UNL     1      16.041   8.612   9.714  1.00  0.00     0.016 C 
BRANCH  12  13
HETATM   13  N1  UNL     1      14.893   7.913  10.069  1.00  0.00    -0.285 NA
BRANCH  13  14
HETATM   14  C2  UNL     1      13.916   7.979   8.933  1.00  0.00     0.091 C 
HETATM   15  C1  UNL     1      13.068   6.759   8.859  1.00  0.00     0.021 C 
ENDBRANCH  13  14
BRANCH  13  16
HETATM   16  C3  UNL     1      14.147   8.130  11.251  1.00  0.00     0.091 C 
HETATM   17  C4  UNL     1      14.358   7.190  12.400  1.00  0.00     0.021 C 
ENDBRANCH  13  16
ENDBRANCH  12  13
BRANCH  12  18
HETATM   18  C20 UNL     1      16.432   9.724  10.569  1.00  0.00     0.080 C 
BRANCH  18  19
HETATM   19  N5  UNL     1      17.156   9.706  11.739  1.00  0.00    -0.291 NA
HETATM   20  C21 UNL     1      18.218   8.824  12.017  1.00  0.00     0.095 C 
HETATM   21  C22 UNL     1      19.398   9.333  11.166  1.00  0.00     0.016 C 
HETATM   22  C23 UNL     1      19.095  10.810  11.116  1.00  0.00     0.016 C 
HETATM   23  C24 UNL     1      17.811  11.005  11.930  1.00  0.00     0.095 C 
ENDBRANCH  18  19
ENDBRANCH  12  18
ENDBRANCH  11  12
ENDBRANCH   9  11
ENDBRANCH   1   9
BRANCH   1  24
HETATM   24  C10 UNL     1      19.268  10.656   6.819  1.00  0.00     0.019 C 
HETATM   25  C11 UNL     1      20.321   9.861   7.595  1.00  0.00     0.022 C 
HETATM   26  C12 UNL     1      21.597  10.625   7.683  1.00  0.00    -0.013 C 
HETATM   27  C13 UNL     1      21.339  11.925   8.415  1.00  0.00     0.009 C 
HETATM   28  C17 UNL     1      22.162  10.930   6.298  1.00  0.00     0.009 C 
HETATM   29  C14 UNL     1      20.307  12.746   7.681  1.00  0.00    -0.013 C 
HETATM   30  C15 UNL     1      20.851  13.038   6.307  1.00  0.00     0.009 C 
HETATM   31  C19 UNL     1      19.041  11.949   7.574  1.00  0.00     0.022 C 
HETATM   32  C16 UNL     1      21.130  11.751   5.603  1.00  0.00    -0.013 C 
HETATM   33  C18 UNL     1      19.851  10.935   5.465  1.00  0.00     0.022 C 
ENDBRANCH   1  24
TORSDOF 9
ENDMDL
MODEL 5
REMARK VINA RESULT: -6.338252276      1.998      4.190
REMARK  9 active torsions:
REMARK  status: ('A' for Active; 'I' for Inactive)
REMARK    1  A    between atoms: C2_2  and  N1_3 
REMARK    2  A    between atoms: N1_3  and  C3_4 
REMARK    3  A    between atoms: N1_3  and  C5_6 
REMARK    4  A    between atoms: C5_6  and  C6_7 
REMARK    5  A    between atoms: C5_6  and  C20_28 
REMARK    6  A    between atoms: C6_7  and  N2_8 
REMARK    7  A    between atoms: N2_8  and  C7_10 
REMARK    8  A    between atoms: C7_10  and  C10_18 
REMARK       I    between atoms: N3_11  and  C8_13 
REMARK       I    between atoms: C8_13  and  N4_15 
REMARK    9  A    between atoms: C20_28  and  N5_29 
ROOT
HETATM    1  C7  UNL     1      18.429   9.792   7.314  1.00  0.00     0.090 C 
HETATM    2  N3  UNL     1      17.813   9.473   8.325  1.00  0.00    -0.298 N 
ATOM      3  H3  UNL     1      16.992   8.925   8.067  1.00  0.00     0.172 HD
HETATM    4  C8  UNL     1      17.864   9.610   9.687  1.00  0.00     0.321 C 
HETATM    5  O1  UNL     1      18.455   8.674  10.340  1.00  0.00    -0.247 OA
HETATM    6  N4  UNL     1      17.337  10.672  10.454  1.00  0.00    -0.347 N 
ATOM      7  H4  UNL     1      16.856  11.448   9.999  1.00  0.00     0.163 HD
HETATM    8  C9  UNL     1      17.486  10.646  11.890  1.00  0.00     0.151 C 
ENDROOT
BRANCH   1   9
HETATM    9  N2  UNL     1      17.844   9.317   6.047  1.00  0.00    -0.374 N 
ATOM     10  H2  UNL     1      18.270   8.546   5.532  1.00  0.00     0.161 HD
BRANCH   9  11
HETATM   11  C6  UNL     1      16.659   9.967   5.554  1.00  0.00     0.173 C 
BRANCH  11  12
HETATM   12  C5  UNL     1      15.528   9.036   5.224  1.00  0.00     0.016 C 
BRANCH  12  13
HETATM   13  N1  UNL     1      14.870   9.239   4.016  1.00  0.00    -0.285 NA
BRANCH  13  14
HETATM   14  C2  UNL     1      15.802   9.931   3.068  1.00  0.00     0.091 C 
HETATM   15  C1  UNL     1      16.210   9.047   1.944  1.00  0.00     0.021 C 
ENDBRANCH  13  14
BRANCH  13  16
HETATM   16  C3  UNL     1      13.614   9.871   3.876  1.00  0.00     0.091 C 
HETATM   17  C4  UNL     1      13.537  11.350   4.120  1.00  0.00     0.021 C 
ENDBRANCH  13  16
ENDBRANCH  12  13
BRANCH  12  18
HETATM   18  C20 UNL     1      14.758   8.441   6.308  1.00  0.00     0.080 C 
BRANCH  18  19
HETATM   19  N5  UNL     1      14.903   8.602   7.666  1.00  0.00    -0.291 NA
HETATM   20  C21 UNL     1      14.003   9.298   8.497  1.00  0.00     0.095 C 
HETATM   21  C22 UNL     1      12.777   8.373   8.626  1.00  0.00     0.016 C 
HETATM   22  C23 UNL     1      13.428   7.018   8.494  1.00  0.00     0.016 C 
HETATM   23  C24 UNL     1      14.927   7.287   8.316  1.00  0.00     0.095 C 
ENDBRANCH  18  19
ENDBRANCH  12  18
ENDBRANCH  11  12
ENDBRANCH   9  11
ENDBRANCH   1   9
BRANCH   1  24
HETATM   24  C10 UNL     1      19.656  10.578   7.223  1.00  0.00     0.019 C 
HETATM   25  C11 UNL     1      19.403  11.964   7.821  1.00  0.00     0.022 C 
HETATM   26  C12 UNL     1      20.610  12.825   7.680  1.00  0.00    -0.013 C 
HETATM   27  C13 UNL     1      20.926  12.986   6.208  1.00  0.00     0.009 C 
HETATM   28  C17 UNL     1      21.816  12.218   8.391  1.00  0.00     0.009 C 
HETATM   29  C14 UNL     1      21.187  11.641   5.576  1.00  0.00    -0.013 C 
HETATM   30  C15 UNL     1      22.368  11.028   6.283  1.00  0.00     0.009 C 
HETATM   31  C19 UNL     1      19.975  10.777   5.757  1.00  0.00     0.022 C 
HETATM   32  C16 UNL     1      22.059  10.900   7.739  1.00  0.00    -0.013 C 
HETATM   33  C18 UNL     1      20.842  10.008   7.945  1.00  0.00     0.022 C 
ENDBRANCH   1  24
TORSDOF 9
ENDMDL
