MODEL 1
REMARK VINA RESULT: -8.310876313      0.000      0.000
REMARK  11 active torsions:
REMARK  status: ('A' for Active; 'I' for Inactive)
REMARK    1  A    between atoms: C1_4  and  N2_5 
REMARK    2  A    between atoms: C1_4  and  O3_20 
REMARK    3  A    between atoms: N2_5  and  N3_7 
REMARK    4  A    between atoms: N4_9  and  C2_11 
REMARK    5  A    between atoms: C5_14  and  N5_15 
REMARK    6  A    between atoms: O3_20  and  C8_21 
REMARK    7  A    between atoms: C8_21  and  C9_22 
REMARK    8  A    between atoms: C9_22  and  C10_26 
REMARK    9  A    between atoms: C10_26  and  O4_27 
REMARK   10  A    between atoms: C10_26  and  C11_29 
REMARK       I    between atoms: C11_29  and  N7_31 
REMARK   11  A    between atoms: N7_31  and  N8_33 
ROOT
HETATM    1  N1  UNL     1      14.641  18.658  13.955  1.00  0.00    -0.364 N 
ATOM      2  H11 UNL     1      15.469  19.216  14.162  1.00  0.00     0.159 HD
ATOM      3  H12 UNL     1      14.698  18.025  13.158  1.00  0.00     0.159 HD
HETATM    4  C1  UNL     1      13.559  18.746  14.669  1.00  0.00     0.233 C 
ENDROOT
BRANCH   4   5
HETATM    5  N2  UNL     1      12.402  17.968  14.381  1.00  0.00    -0.251 N 
ATOM      6  H2  UNL     1      12.478  17.014  14.026  1.00  0.00     0.192 HD
BRANCH   5   7
HETATM    7  N3  UNL     1      11.158  18.565  14.606  1.00  0.00    -0.239 N 
HETATM    8  N4  UNL     1      10.140  17.963  14.141  1.00  0.00    -0.286 N 
ATOM      9  H4  UNL     1      10.234  17.085  13.630  1.00  0.00     0.188 HD
ATOM     10  H3  UNL     1      11.071  19.442  15.118  1.00  0.00     0.208 HD
BRANCH   8  11
HETATM   11  C2  UNL     1       8.864  18.555  14.359  1.00  0.00     0.049 A 
HETATM   12  C3  UNL     1       8.587  19.068  15.626  1.00  0.00     0.033 A 
HETATM   13  C4  UNL     1       7.364  19.635  15.832  1.00  0.00     0.038 A 
HETATM   14  C5  UNL     1       6.402  19.722  14.849  1.00  0.00     0.103 A 
HETATM   15  C6  UNL     1       6.694  19.211  13.604  1.00  0.00     0.038 A 
HETATM   16  C7  UNL     1       7.917  18.630  13.355  1.00  0.00     0.033 A 
BRANCH  14  17
HETATM   17  N5  UNL     1       5.161  20.322  15.134  1.00  0.00    -0.116 N 
HETATM   18  O1  UNL     1       4.208  20.141  14.339  1.00  0.00    -0.532 OA
HETATM   19  O2  UNL     1       5.003  21.090  16.260  1.00  0.00    -0.532 OA
ENDBRANCH  14  17
ENDBRANCH   8  11
ENDBRANCH   5   7
ENDBRANCH   4   5
BRANCH   4  20
HETATM   20  O3  UNL     1      13.481  19.607  15.754  1.00  0.00    -0.316 OA
BRANCH  20  21
HETATM   21  C8  UNL     1      13.696  21.011  15.525  1.00  0.00     0.234 C 
BRANCH  21  22
HETATM   22  C9  UNL     1      14.490  21.527  16.648  1.00  0.00     0.043 C 
HETATM   23  N6  UNL     1      15.754  21.614  16.551  1.00  0.00    -0.401 N 
ATOM     24  H62 UNL     1      16.197  21.319  15.681  1.00  0.00     0.155 HD
ATOM     25  H61 UNL     1      16.305  21.972  17.332  1.00  0.00     0.155 HD
BRANCH  22  26
HETATM   26  C10 UNL     1      13.843  21.956  17.917  1.00  0.00     0.258 C 
BRANCH  26  27
HETATM   27  O4  UNL     1      12.755  21.091  18.186  1.00  0.00    -0.380 OA
ATOM     28  H4  UNL     1      12.128  21.553  18.731  1.00  0.00     0.211 HD
ENDBRANCH  26  27
BRANCH  26  29
HETATM   29  C11 UNL     1      14.838  21.872  19.013  1.00  0.00     0.270 C 
HETATM   30  O5  UNL     1      15.694  22.785  19.122  1.00  0.00    -0.268 OA
HETATM   31  N7  UNL     1      14.821  20.786  19.909  1.00  0.00    -0.274 N 
ATOM     32  H7  UNL     1      14.117  20.056  19.792  1.00  0.00     0.189 HD
BRANCH  31  33
HETATM   33  N8  UNL     1      15.754  20.678  20.968  1.00  0.00    -0.343 N 
ATOM     34  H82 UNL     1      16.309  21.500  21.204  1.00  0.00     0.176 HD
ATOM     35  H81 UNL     1      15.878  19.811  21.489  1.00  0.00     0.176 HD
ENDBRANCH  31  33
ENDBRANCH  26  29
ENDBRANCH  22  26
ENDBRANCH  21  22
ENDBRANCH  20  21
ENDBRANCH   4  20
TORSDOF 11
ENDMDL
MODEL 2
REMARK VINA RESULT: -8.281039642      1.896      2.519
REMARK  11 active torsions:
REMARK  status: ('A' for Active; 'I' for Inactive)
REMARK    1  A    between atoms: C1_4  and  N2_5 
REMARK    2  A    between atoms: C1_4  and  O3_20 
REMARK    3  A    between atoms: N2_5  and  N3_7 
REMARK    4  A    between atoms: N4_9  and  C2_11 
REMARK    5  A    between atoms: C5_14  and  N5_15 
REMARK    6  A    between atoms: O3_20  and  C8_21 
REMARK    7  A    between atoms: C8_21  and  C9_22 
REMARK    8  A    between atoms: C9_22  and  C10_26 
REMARK    9  A    between atoms: C10_26  and  O4_27 
REMARK   10  A    between atoms: C10_26  and  C11_29 
REMARK       I    between atoms: C11_29  and  N7_31 
REMARK   11  A    between atoms: N7_31  and  N8_33 
ROOT
HETATM    1  N1  UNL     1      12.304  18.091  12.948  1.00  0.00    -0.364 N 
ATOM      2  H11 UNL     1      13.212  18.489  12.707  1.00  0.00     0.159 HD
ATOM      3  H12 UNL     1      11.771  17.667  12.188  1.00  0.00     0.159 HD
HETATM    4  C1  UNL     1      11.842  18.119  14.161  1.00  0.00     0.233 C 
ENDROOT
BRANCH   4   5
HETATM    5  N2  UNL     1      10.575  17.563  14.497  1.00  0.00    -0.251 N 
ATOM      6  H2  UNL     1      10.492  16.787  15.154  1.00  0.00     0.192 HD
BRANCH   5   7
HETATM    7  N3  UNL     1       9.448  18.125  13.889  1.00  0.00    -0.239 N 
HETATM    8  N4  UNL     1       8.535  18.554  14.661  1.00  0.00    -0.286 N 
ATOM      9  H4  UNL     1       8.626  18.488  15.675  1.00  0.00     0.188 HD
ATOM     10  H3  UNL     1       9.363  18.189  12.875  1.00  0.00     0.208 HD
BRANCH   8  11
HETATM   11  C2  UNL     1       7.379  19.130  14.061  1.00  0.00     0.049 A 
HETATM   12  C3  UNL     1       7.175  18.923  12.697  1.00  0.00     0.033 A 
HETATM   13  C4  UNL     1       6.067  19.476  12.125  1.00  0.00     0.038 A 
HETATM   14  C5  UNL     1       5.151  20.221  12.833  1.00  0.00     0.103 A 
HETATM   15  C6  UNL     1       5.368  20.415  14.179  1.00  0.00     0.038 A 
HETATM   16  C7  UNL     1       6.475  19.875  14.795  1.00  0.00     0.033 A 
BRANCH  14  17
HETATM   17  N5  UNL     1       4.029  20.762  12.176  1.00  0.00    -0.116 N 
HETATM   18  O1  UNL     1       4.207  21.424  11.126  1.00  0.00    -0.532 OA
HETATM   19  O2  UNL     1       2.769  20.568  12.681  1.00  0.00    -0.532 OA
ENDBRANCH  14  17
ENDBRANCH   8  11
ENDBRANCH   5   7
ENDBRANCH   4   5
BRANCH   4  20
HETATM   20  O3  UNL     1      12.567  18.694  15.194  1.00  0.00    -0.316 OA
BRANCH  20  21
HETATM   21  C8  UNL     1      13.791  19.377  14.867  1.00  0.00     0.234 C 
BRANCH  21  22
HETATM   22  C9  UNL     1      13.513  20.820  14.891  1.00  0.00     0.043 C 
HETATM   23  N6  UNL     1      13.668  21.518  13.841  1.00  0.00    -0.401 N 
ATOM     24  H62 UNL     1      13.988  21.055  12.990  1.00  0.00     0.155 HD
ATOM     25  H61 UNL     1      13.475  22.520  13.857  1.00  0.00     0.155 HD
BRANCH  22  26
HETATM   26  C10 UNL     1      13.047  21.495  16.131  1.00  0.00     0.258 C 
BRANCH  26  27
HETATM   27  O4  UNL     1      11.811  20.924  16.520  1.00  0.00    -0.380 OA
ATOM     28  H4  UNL     1      11.893  20.598  17.409  1.00  0.00     0.211 HD
ENDBRANCH  26  27
BRANCH  26  29
HETATM   29  C11 UNL     1      14.056  21.287  17.197  1.00  0.00     0.270 C 
HETATM   30  O5  UNL     1      15.272  21.281  16.882  1.00  0.00    -0.268 OA
HETATM   31  N7  UNL     1      13.653  21.097  18.532  1.00  0.00    -0.274 N 
ATOM     32  H7  UNL     1      12.658  21.101  18.757  1.00  0.00     0.189 HD
BRANCH  31  33
HETATM   33  N8  UNL     1      14.592  20.901  19.574  1.00  0.00    -0.343 N 
ATOM     34  H82 UNL     1      15.205  21.678  19.820  1.00  0.00     0.176 HD
ATOM     35  H81 UNL     1      14.665  20.014  20.072  1.00  0.00     0.176 HD
ENDBRANCH  31  33
ENDBRANCH  26  29
ENDBRANCH  22  26
ENDBRANCH  21  22
ENDBRANCH  20  21
ENDBRANCH   4  20
TORSDOF 11
ENDMDL
MODEL 3
REMARK VINA RESULT: -8.259135729      2.411      3.098
REMARK  11 active torsions:
REMARK  status: ('A' for Active; 'I' for Inactive)
REMARK    1  A    between atoms: C1_4  and  N2_5 
REMARK    2  A    between atoms: C1_4  and  O3_20 
REMARK    3  A    between atoms: N2_5  and  N3_7 
REMARK    4  A    between atoms: N4_9  and  C2_11 
REMARK    5  A    between atoms: C5_14  and  N5_15 
REMARK    6  A    between atoms: O3_20  and  C8_21 
REMARK    7  A    between atoms: C8_21  and  C9_22 
REMARK    8  A    between atoms: C9_22  and  C10_26 
REMARK    9  A    between atoms: C10_26  and  O4_27 
REMARK   10  A    between atoms: C10_26  and  C11_29 
REMARK       I    between atoms: C11_29  and  N7_31 
REMARK   11  A    between atoms: N7_31  and  N8_33 
ROOT
HETATM    1  N1  UNL     1      11.896  17.719  12.714  1.00  0.00    -0.364 N 
ATOM      2  H11 UNL     1      12.782  17.834  12.222  1.00  0.00     0.159 HD
ATOM      3  H12 UNL     1      11.076  17.515  12.144  1.00  0.00     0.159 HD
HETATM    4  C1  UNL     1      11.809  17.829  14.005  1.00  0.00     0.233 C 
ENDROOT
BRANCH   4   5
HETATM    5  N2  UNL     1      10.572  17.670  14.692  1.00  0.00    -0.251 N 
ATOM      6  H2  UNL     1      10.522  17.186  15.589  1.00  0.00     0.192 HD
BRANCH   5   7
HETATM    7  N3  UNL     1       9.431  18.204  14.087  1.00  0.00    -0.239 N 
HETATM    8  N4  UNL     1       8.532  18.659  14.860  1.00  0.00    -0.286 N 
ATOM      9  H4  UNL     1       8.644  18.634  15.874  1.00  0.00     0.188 HD
ATOM     10  H3  UNL     1       9.324  18.226  13.073  1.00  0.00     0.208 HD
BRANCH   8  11
HETATM   11  C2  UNL     1       7.361  19.207  14.262  1.00  0.00     0.049 A 
HETATM   12  C3  UNL     1       7.133  18.951  12.910  1.00  0.00     0.033 A 
HETATM   13  C4  UNL     1       6.011  19.476  12.341  1.00  0.00     0.038 A 
HETATM   14  C5  UNL     1       5.103  20.240  13.039  1.00  0.00     0.103 A 
HETATM   15  C6  UNL     1       5.343  20.482  14.373  1.00  0.00     0.038 A 
HETATM   16  C7  UNL     1       6.465  19.971  14.987  1.00  0.00     0.033 A 
BRANCH  14  17
HETATM   17  N5  UNL     1       3.965  20.750  12.385  1.00  0.00    -0.116 N 
HETATM   18  O1  UNL     1       4.122  21.397  11.322  1.00  0.00    -0.532 OA
HETATM   19  O2  UNL     1       2.714  20.543  12.906  1.00  0.00    -0.532 OA
ENDBRANCH  14  17
ENDBRANCH   8  11
ENDBRANCH   5   7
ENDBRANCH   4   5
BRANCH   4  20
HETATM   20  O3  UNL     1      12.925  18.107  14.780  1.00  0.00    -0.316 OA
BRANCH  20  21
HETATM   21  C8  UNL     1      13.989  18.877  14.189  1.00  0.00     0.234 C 
BRANCH  21  22
HETATM   22  C9  UNL     1      13.643  20.297  14.338  1.00  0.00     0.043 C 
HETATM   23  N6  UNL     1      13.839  21.106  13.378  1.00  0.00    -0.401 N 
ATOM     24  H62 UNL     1      14.238  20.747  12.511  1.00  0.00     0.155 HD
ATOM     25  H61 UNL     1      13.599  22.093  13.481  1.00  0.00     0.155 HD
BRANCH  22  26
HETATM   26  C10 UNL     1      13.062  20.821  15.602  1.00  0.00     0.258 C 
BRANCH  26  27
HETATM   27  O4  UNL     1      13.604  20.091  16.687  1.00  0.00    -0.380 OA
ATOM     28  H4  UNL     1      13.424  19.168  16.552  1.00  0.00     0.211 HD
ENDBRANCH  26  27
BRANCH  26  29
HETATM   29  C11 UNL     1      13.415  22.255  15.733  1.00  0.00     0.270 C 
HETATM   30  O5  UNL     1      12.665  23.111  15.200  1.00  0.00    -0.268 OA
HETATM   31  N7  UNL     1      14.569  22.644  16.438  1.00  0.00    -0.274 N 
ATOM     32  H7  UNL     1      15.162  21.926  16.855  1.00  0.00     0.189 HD
BRANCH  31  33
HETATM   33  N8  UNL     1      14.932  24.005  16.584  1.00  0.00    -0.343 N 
ATOM     34  H82 UNL     1      14.666  24.654  15.843  1.00  0.00     0.176 HD
ATOM     35  H81 UNL     1      15.443  24.341  17.399  1.00  0.00     0.176 HD
ENDBRANCH  31  33
ENDBRANCH  26  29
ENDBRANCH  22  26
ENDBRANCH  21  22
ENDBRANCH  20  21
ENDBRANCH   4  20
TORSDOF 11
ENDMDL
MODEL 4
REMARK VINA RESULT: -8.186484821      2.655      3.325
REMARK  11 active torsions:
REMARK  status: ('A' for Active; 'I' for Inactive)
REMARK    1  A    between atoms: C1_4  and  N2_5 
REMARK    2  A    between atoms: C1_4  and  O3_20 
REMARK    3  A    between atoms: N2_5  and  N3_7 
REMARK    4  A    between atoms: N4_9  and  C2_11 
REMARK    5  A    between atoms: C5_14  and  N5_15 
REMARK    6  A    between atoms: O3_20  and  C8_21 
REMARK    7  A    between atoms: C8_21  and  C9_22 
REMARK    8  A    between atoms: C9_22  and  C10_26 
REMARK    9  A    between atoms: C10_26  and  O4_27 
REMARK   10  A    between atoms: C10_26  and  C11_29 
REMARK       I    between atoms: C11_29  and  N7_31 
REMARK   11  A    between atoms: N7_31  and  N8_33 
ROOT
HETATM    1  N1  UNL     1      12.069  17.787  12.774  1.00  0.00    -0.364 N 
ATOM      2  H11 UNL     1      12.970  18.023  12.360  1.00  0.00     0.159 HD
ATOM      3  H12 UNL     1      11.357  17.412  12.146  1.00  0.00     0.159 HD
HETATM    4  C1  UNL     1      11.830  17.954  14.039  1.00  0.00     0.233 C 
ENDROOT
BRANCH   4   5
HETATM    5  N2  UNL     1      10.571  17.624  14.618  1.00  0.00    -0.251 N 
ATOM      6  H2  UNL     1      10.505  17.017  15.435  1.00  0.00     0.192 HD
BRANCH   5   7
HETATM    7  N3  UNL     1       9.430  18.168  14.020  1.00  0.00    -0.239 N 
HETATM    8  N4  UNL     1       8.529  18.609  14.799  1.00  0.00    -0.286 N 
ATOM      9  H4  UNL     1       8.640  18.566  15.812  1.00  0.00     0.188 HD
ATOM     10  H3  UNL     1       9.326  18.208  13.006  1.00  0.00     0.208 HD
BRANCH   8  11
HETATM   11  C2  UNL     1       7.360  19.166  14.209  1.00  0.00     0.049 A 
HETATM   12  C3  UNL     1       7.126  18.919  12.856  1.00  0.00     0.033 A 
HETATM   13  C4  UNL     1       6.004  19.454  12.294  1.00  0.00     0.038 A 
HETATM   14  C5  UNL     1       5.102  20.219  13.000  1.00  0.00     0.103 A 
HETATM   15  C6  UNL     1       5.349  20.452  14.334  1.00  0.00     0.038 A 
HETATM   16  C7  UNL     1       6.471  19.931  14.941  1.00  0.00     0.033 A 
BRANCH  14  17
HETATM   17  N5  UNL     1       3.966  20.739  12.353  1.00  0.00    -0.116 N 
HETATM   18  O1  UNL     1       4.122  21.403  11.300  1.00  0.00    -0.532 OA
HETATM   19  O2  UNL     1       2.714  20.523  12.869  1.00  0.00    -0.532 OA
ENDBRANCH  14  17
ENDBRANCH   8  11
ENDBRANCH   5   7
ENDBRANCH   4   5
BRANCH   4  20
HETATM   20  O3  UNL     1      12.797  18.463  14.893  1.00  0.00    -0.316 OA
BRANCH  20  21
HETATM   21  C8  UNL     1      13.007  19.887  14.911  1.00  0.00     0.234 C 
BRANCH  21  22
HETATM   22  C9  UNL     1      14.453  20.122  14.793  1.00  0.00     0.043 C 
HETATM   23  N6  UNL     1      15.133  19.503  13.917  1.00  0.00    -0.401 N 
ATOM     24  H62 UNL     1      14.652  18.844  13.304  1.00  0.00     0.155 HD
ATOM     25  H61 UNL     1      16.137  19.667  13.835  1.00  0.00     0.155 HD
BRANCH  22  26
HETATM   26  C10 UNL     1      15.153  21.083  15.687  1.00  0.00     0.258 C 
BRANCH  26  27
HETATM   27  O4  UNL     1      16.536  20.782  15.681  1.00  0.00    -0.380 OA
ATOM     28  H4  UNL     1      17.002  21.502  15.271  1.00  0.00     0.211 HD
ENDBRANCH  26  27
BRANCH  26  29
HETATM   29  C11 UNL     1      14.933  22.458  15.178  1.00  0.00     0.270 C 
HETATM   30  O5  UNL     1      15.228  22.712  13.984  1.00  0.00    -0.268 OA
HETATM   31  N7  UNL     1      14.407  23.455  16.021  1.00  0.00    -0.274 N 
ATOM     32  H7  UNL     1      14.182  23.220  16.988  1.00  0.00     0.189 HD
BRANCH  31  33
HETATM   33  N8  UNL     1      14.182  24.776  15.564  1.00  0.00    -0.343 N 
ATOM     34  H82 UNL     1      13.503  24.915  14.816  1.00  0.00     0.176 HD
ATOM     35  H81 UNL     1      14.676  25.574  15.962  1.00  0.00     0.176 HD
ENDBRANCH  31  33
ENDBRANCH  26  29
ENDBRANCH  22  26
ENDBRANCH  21  22
ENDBRANCH  20  21
ENDBRANCH   4  20
TORSDOF 11
ENDMDL
MODEL 5
REMARK VINA RESULT: -8.149200749      2.269      3.407
REMARK  11 active torsions:
REMARK  status: ('A' for Active; 'I' for Inactive)
REMARK    1  A    between atoms: C1_4  and  N2_5 
REMARK    2  A    between atoms: C1_4  and  O3_20 
REMARK    3  A    between atoms: N2_5  and  N3_7 
REMARK    4  A    between atoms: N4_9  and  C2_11 
REMARK    5  A    between atoms: C5_14  and  N5_15 
REMARK    6  A    between atoms: O3_20  and  C8_21 
REMARK    7  A    between atoms: C8_21  and  C9_22 
REMARK    8  A    between atoms: C9_22  and  C10_26 
REMARK    9  A    between atoms: C10_26  and  O4_27 
REMARK   10  A    between atoms: C10_26  and  C11_29 
REMARK       I    between atoms: C11_29  and  N7_31 
REMARK   11  A    between atoms: N7_31  and  N8_33 
ROOT
HETATM    1  N1  UNL     1      12.437  18.030   9.588  1.00  0.00    -0.364 N 
ATOM      2  H11 UNL     1      13.104  18.669   9.156  1.00  0.00     0.159 HD
ATOM      3  H12 UNL     1      12.034  17.310   8.988  1.00  0.00     0.159 HD
HETATM    4  C1  UNL     1      12.109  18.123  10.841  1.00  0.00     0.233 C 
ENDROOT
BRANCH   4   5
HETATM    5  N2  UNL     1      11.178  17.231  11.444  1.00  0.00    -0.251 N 
ATOM      6  H2  UNL     1      11.366  16.230  11.511  1.00  0.00     0.192 HD
BRANCH   5   7
HETATM    7  N3  UNL     1       9.993  17.784  11.941  1.00  0.00    -0.239 N 
HETATM    8  N4  UNL     1       9.916  17.935  13.200  1.00  0.00    -0.286 N 
ATOM      9  H4  UNL     1      10.686  17.665  13.813  1.00  0.00     0.188 HD
ATOM     10  H3  UNL     1       9.228  18.052  11.323  1.00  0.00     0.208 HD
BRANCH   8  11
HETATM   11  C2  UNL     1       8.718  18.496  13.726  1.00  0.00     0.049 A 
HETATM   12  C3  UNL     1       7.681  18.780  12.838  1.00  0.00     0.033 A 
HETATM   13  C4  UNL     1       6.534  19.317  13.344  1.00  0.00     0.038 A 
HETATM   14  C5  UNL     1       6.360  19.586  14.684  1.00  0.00     0.103 A 
HETATM   15  C6  UNL     1       7.394  19.299  15.547  1.00  0.00     0.038 A 
HETATM   16  C7  UNL     1       8.569  18.757  15.075  1.00  0.00     0.033 A 
BRANCH  14  17
HETATM   17  N5  UNL     1       5.148  20.142  15.136  1.00  0.00    -0.116 N 
HETATM   18  O1  UNL     1       4.146  20.095  14.383  1.00  0.00    -0.532 OA
HETATM   19  O2  UNL     1       5.071  20.724  16.375  1.00  0.00    -0.532 OA
ENDBRANCH  14  17
ENDBRANCH   8  11
ENDBRANCH   5   7
ENDBRANCH   4   5
BRANCH   4  20
HETATM   20  O3  UNL     1      12.658  19.101  11.658  1.00  0.00    -0.316 OA
BRANCH  20  21
HETATM   21  C8  UNL     1      14.063  19.024  11.961  1.00  0.00     0.234 C 
BRANCH  21  22
HETATM   22  C9  UNL     1      14.219  19.273  13.401  1.00  0.00     0.043 C 
HETATM   23  N6  UNL     1      15.369  19.222  13.938  1.00  0.00    -0.401 N 
ATOM     24  H62 UNL     1      16.173  19.006  13.348  1.00  0.00     0.155 HD
ATOM     25  H61 UNL     1      15.478  19.395  14.937  1.00  0.00     0.155 HD
BRANCH  22  26
HETATM   26  C10 UNL     1      13.047  19.588  14.261  1.00  0.00     0.258 C 
BRANCH  26  27
HETATM   27  O4  UNL     1      12.536  18.378  14.791  1.00  0.00    -0.380 OA
ATOM     28  H4  UNL     1      11.662  18.241  14.446  1.00  0.00     0.211 HD
ENDBRANCH  26  27
BRANCH  26  29
HETATM   29  C11 UNL     1      13.487  20.476  15.363  1.00  0.00     0.270 C 
HETATM   30  O5  UNL     1      13.748  19.965  16.481  1.00  0.00    -0.268 OA
HETATM   31  N7  UNL     1      13.606  21.863  15.157  1.00  0.00    -0.274 N 
ATOM     32  H7  UNL     1      13.382  22.250  14.240  1.00  0.00     0.189 HD
BRANCH  31  33
HETATM   33  N8  UNL     1      14.028  22.737  16.188  1.00  0.00    -0.343 N 
ATOM     34  H82 UNL     1      13.557  23.638  16.276  1.00  0.00     0.176 HD
ATOM     35  H81 UNL     1      14.779  22.488  16.831  1.00  0.00     0.176 HD
ENDBRANCH  31  33
ENDBRANCH  26  29
ENDBRANCH  22  26
ENDBRANCH  21  22
ENDBRANCH  20  21
ENDBRANCH   4  20
TORSDOF 11
ENDMDL
