MODEL 1
REMARK VINA RESULT: -7.805895049      0.000      0.000
REMARK  5 active torsions:
REMARK  status: ('A' for Active; 'I' for Inactive)
REMARK    1  A    between atoms: C5_7  and  C6_8 
REMARK    2  A    between atoms: C9_11  and  C10_12 
REMARK    3  A    between atoms: C10_12  and  C11_13 
REMARK    4  A    between atoms: C12_14  and  C13_15 
REMARK       I    between atoms: C13_15  and  N2_17 
REMARK    5  A    between atoms: N2_17  and  C14_19 
ROOT
HETATM    1  C11 UNL     1       2.732  28.250  -6.465  1.00  0.00     0.041 A 
HETATM    2  C12 UNL     1       2.854  28.936  -7.692  1.00  0.00     0.118 A 
HETATM    3  N3  UNL     1       2.112  30.065  -7.921  1.00  0.00    -0.303 N 
ATOM      4  H3  UNL     1       2.196  30.567  -8.805  1.00  0.00     0.171 HD
HETATM    5  C19 UNL     1       1.271  30.506  -6.969  1.00  0.00     0.326 A 
HETATM    6  O2  UNL     1       0.603  31.540  -7.197  1.00  0.00    -0.247 OA
HETATM    7  N4  UNL     1       1.140  29.868  -5.803  1.00  0.00    -0.294 N 
ATOM      8  H4  UNL     1       0.492  30.227  -5.102  1.00  0.00     0.172 HD
HETATM    9  C20 UNL     1       1.864  28.740  -5.538  1.00  0.00     0.115 A 
HETATM   10  N5  UNL     1       1.685  28.160  -4.413  1.00  0.00    -0.385 N 
ATOM     11  H51 UNL     1       1.034  28.527  -3.718  1.00  0.00     0.157 HD
ATOM     12  H52 UNL     1       2.225  27.318  -4.214  1.00  0.00     0.157 HD
ENDROOT
BRANCH   1  13
HETATM   13  C10 UNL     1       3.543  27.078  -6.273  1.00  0.00     0.032 C 
BRANCH  13  14
HETATM   14  C9  UNL     1       4.931  27.138  -5.823  1.00  0.00     0.000 A 
HETATM   15  C5  UNL     1       6.125  26.793  -6.414  1.00  0.00     0.024 A 
HETATM   16  N1  UNL     1       7.124  27.013  -5.531  1.00  0.00    -0.358 N 
HETATM   17  C4  UNL     1       6.649  27.486  -4.377  1.00  0.00     0.044 A 
ATOM     18  H1  UNL     1       8.111  26.840  -5.720  1.00  0.00     0.166 HD
HETATM   19  C3  UNL     1       7.233  27.849  -3.181  1.00  0.00     0.037 A 
HETATM   20  C21 UNL     1       5.287  27.572  -4.535  1.00  0.00     0.003 A 
HETATM   21  C2  UNL     1       6.463  28.303  -2.120  1.00  0.00    -0.054 A 
HETATM   22  C1  UNL     1       7.049  28.702  -0.804  1.00  0.00     0.049 C 
HETATM   23  C23 UNL     1       5.093  28.398  -2.249  1.00  0.00    -0.055 A 
HETATM   24  C22 UNL     1       4.540  28.030  -3.455  1.00  0.00     0.022 A 
HETATM   25  C24 UNL     1       4.208  28.885  -1.135  1.00  0.00     0.049 C 
BRANCH  15  26
HETATM   26  C6  UNL     1       6.358  26.244  -7.765  1.00  0.00     0.028 C 
HETATM   27  C7  UNL     1       6.715  24.763  -7.758  1.00  0.00     0.016 C 
HETATM   28  C8  UNL     1       7.525  27.001  -8.411  1.00  0.00     0.016 C 
ENDBRANCH  15  26
ENDBRANCH  13  14
ENDBRANCH   1  13
BRANCH   2  29
HETATM   29  C13 UNL     1       3.701  28.407  -8.738  1.00  0.00     0.269 C 
HETATM   30  O1  UNL     1       4.863  28.761  -9.038  1.00  0.00    -0.266 OA
HETATM   31  N2  UNL     1       3.235  27.350  -9.579  1.00  0.00    -0.351 N 
ATOM     32  H2  UNL     1       2.292  27.000  -9.412  1.00  0.00     0.163 HD
BRANCH  31  33
HETATM   33  C14 UNL     1       3.992  26.736 -10.647  1.00  0.00     0.084 C 
HETATM   34  C15 UNL     1       4.204  25.257 -10.470  1.00  0.00     0.025 C 
HETATM   35  C16 UNL     1       4.170  24.673 -11.849  1.00  0.00     0.002 C 
HETATM   36  C17 UNL     1       4.176  25.824 -12.807  1.00  0.00     0.002 C 
HETATM   37  C18 UNL     1       3.449  26.887 -12.011  1.00  0.00     0.025 C 
ENDBRANCH  31  33
ENDBRANCH   2  29
TORSDOF 5
ENDMDL
MODEL 2
REMARK VINA RESULT: -7.641118683      5.817      9.395
REMARK  5 active torsions:
REMARK  status: ('A' for Active; 'I' for Inactive)
REMARK    1  A    between atoms: C5_7  and  C6_8 
REMARK    2  A    between atoms: C9_11  and  C10_12 
REMARK    3  A    between atoms: C10_12  and  C11_13 
REMARK    4  A    between atoms: C12_14  and  C13_15 
REMARK       I    between atoms: C13_15  and  N2_17 
REMARK    5  A    between atoms: N2_17  and  C14_19 
ROOT
HETATM    1  C11 UNL     1       0.148  35.330  -8.941  1.00  0.00     0.041 A 
HETATM    2  C12 UNL     1       0.411  36.716  -8.948  1.00  0.00     0.118 A 
HETATM    3  N3  UNL     1      -0.400  37.562  -9.660  1.00  0.00    -0.303 N 
ATOM      4  H3  UNL     1      -0.216  38.566  -9.669  1.00  0.00     0.171 HD
HETATM    5  C19 UNL     1      -1.438  37.057 -10.348  1.00  0.00     0.326 A 
HETATM    6  O2  UNL     1      -2.167  37.847 -10.991  1.00  0.00    -0.247 OA
HETATM    7  N4  UNL     1      -1.700  35.748 -10.356  1.00  0.00    -0.294 N 
ATOM      8  H4  UNL     1      -2.495  35.396 -10.889  1.00  0.00     0.172 HD
HETATM    9  C20 UNL     1      -0.916  34.873  -9.657  1.00  0.00     0.115 A 
HETATM   10  N5  UNL     1      -1.203  33.629  -9.715  1.00  0.00    -0.385 N 
ATOM     11  H51 UNL     1      -2.000  33.286 -10.252  1.00  0.00     0.157 HD
ATOM     12  H52 UNL     1      -0.618  32.976  -9.194  1.00  0.00     0.157 HD
ENDROOT
BRANCH   1  13
HETATM   13  C10 UNL     1       1.023  34.490  -8.168  1.00  0.00     0.032 C 
BRANCH  13  14
HETATM   14  C9  UNL     1       0.614  33.858  -6.916  1.00  0.00     0.000 A 
HETATM   15  C5  UNL     1       0.002  34.337  -5.779  1.00  0.00     0.024 A 
HETATM   16  N1  UNL     1      -0.108  33.326  -4.890  1.00  0.00    -0.358 N 
HETATM   17  C4  UNL     1       0.404  32.196  -5.381  1.00  0.00     0.044 A 
ATOM     18  H1  UNL     1      -0.527  33.414  -3.965  1.00  0.00     0.166 HD
HETATM   19  C3  UNL     1       0.549  30.918  -4.883  1.00  0.00     0.037 A 
HETATM   20  C21 UNL     1       0.859  32.502  -6.641  1.00  0.00     0.003 A 
HETATM   21  C2  UNL     1       1.154  29.923  -5.638  1.00  0.00    -0.054 A 
HETATM   22  C1  UNL     1       1.338  28.526  -5.140  1.00  0.00     0.049 C 
HETATM   23  C23 UNL     1       1.622  30.202  -6.905  1.00  0.00    -0.055 A 
HETATM   24  C22 UNL     1       1.462  31.487  -7.373  1.00  0.00     0.022 A 
HETATM   25  C24 UNL     1       2.283  29.164  -7.769  1.00  0.00     0.049 C 
BRANCH  15  26
HETATM   26  C6  UNL     1      -0.457  35.711  -5.491  1.00  0.00     0.028 C 
HETATM   27  C7  UNL     1       0.339  36.390  -4.384  1.00  0.00     0.016 C 
HETATM   28  C8  UNL     1      -1.923  35.657  -5.045  1.00  0.00     0.016 C 
ENDBRANCH  15  26
ENDBRANCH  13  14
ENDBRANCH   1  13
BRANCH   2  29
HETATM   29  C13 UNL     1       1.577  37.237  -8.270  1.00  0.00     0.269 C 
HETATM   30  O1  UNL     1       1.621  37.853  -7.182  1.00  0.00    -0.266 OA
HETATM   31  N2  UNL     1       2.876  37.074  -8.840  1.00  0.00    -0.351 N 
ATOM     32  H2  UNL     1       2.937  36.587  -9.735  1.00  0.00     0.163 HD
BRANCH  31  33
HETATM   33  C14 UNL     1       4.112  37.541  -8.253  1.00  0.00     0.084 C 
HETATM   34  C15 UNL     1       4.962  36.445  -7.671  1.00  0.00     0.025 C 
HETATM   35  C16 UNL     1       6.382  36.858  -7.912  1.00  0.00     0.002 C 
HETATM   36  C17 UNL     1       6.343  38.271  -8.409  1.00  0.00     0.002 C 
HETATM   37  C18 UNL     1       5.016  38.302  -9.138  1.00  0.00     0.025 C 
ENDBRANCH  31  33
ENDBRANCH   2  29
TORSDOF 5
ENDMDL
MODEL 3
REMARK VINA RESULT: -7.565329972      6.355     10.292
REMARK  5 active torsions:
REMARK  status: ('A' for Active; 'I' for Inactive)
REMARK    1  A    between atoms: C5_7  and  C6_8 
REMARK    2  A    between atoms: C9_11  and  C10_12 
REMARK    3  A    between atoms: C10_12  and  C11_13 
REMARK    4  A    between atoms: C12_14  and  C13_15 
REMARK       I    between atoms: C13_15  and  N2_17 
REMARK    5  A    between atoms: N2_17  and  C14_19 
ROOT
HETATM    1  C11 UNL     1       2.004  36.815  -5.271  1.00  0.00     0.041 A 
HETATM    2  C12 UNL     1       0.831  36.317  -4.665  1.00  0.00     0.118 A 
HETATM    3  N3  UNL     1       0.245  37.010  -3.638  1.00  0.00    -0.303 N 
ATOM      4  H3  UNL     1      -0.604  36.657  -3.196  1.00  0.00     0.171 HD
HETATM    5  C19 UNL     1       0.799  38.160  -3.218  1.00  0.00     0.326 A 
HETATM    6  O2  UNL     1       0.248  38.779  -2.280  1.00  0.00    -0.247 OA
HETATM    7  N4  UNL     1       1.911  38.645  -3.778  1.00  0.00    -0.294 N 
ATOM      8  H4  UNL     1       2.307  39.520  -3.434  1.00  0.00     0.172 HD
HETATM    9  C20 UNL     1       2.523  37.983  -4.804  1.00  0.00     0.115 A 
HETATM   10  N5  UNL     1       3.595  38.484  -5.289  1.00  0.00    -0.385 N 
ATOM     11  H51 UNL     1       3.984  39.360  -4.939  1.00  0.00     0.157 HD
ATOM     12  H52 UNL     1       4.052  37.990  -6.056  1.00  0.00     0.157 HD
ENDROOT
BRANCH   1  13
HETATM   13  C10 UNL     1       2.571  36.053  -6.352  1.00  0.00     0.032 C 
BRANCH  13  14
HETATM   14  C9  UNL     1       2.370  36.399  -7.757  1.00  0.00     0.000 A 
HETATM   15  C5  UNL     1       2.910  37.369  -8.570  1.00  0.00     0.024 A 
HETATM   16  N1  UNL     1       2.337  37.277  -9.791  1.00  0.00    -0.358 N 
HETATM   17  C4  UNL     1       1.439  36.291  -9.827  1.00  0.00     0.044 A 
ATOM     18  H1  UNL     1       2.561  37.881 -10.581  1.00  0.00     0.166 HD
HETATM   19  C3  UNL     1       0.592  35.805 -10.801  1.00  0.00     0.037 A 
HETATM   20  C21 UNL     1       1.441  35.730  -8.572  1.00  0.00     0.003 A 
HETATM   21  C2  UNL     1      -0.269  34.750 -10.537  1.00  0.00    -0.054 A 
HETATM   22  C1  UNL     1      -1.208  34.193 -11.558  1.00  0.00     0.049 C 
HETATM   23  C23 UNL     1      -0.289  34.168  -9.286  1.00  0.00    -0.055 A 
HETATM   24  C22 UNL     1       0.568  34.675  -8.335  1.00  0.00     0.022 A 
HETATM   25  C24 UNL     1      -1.199  33.021  -8.942  1.00  0.00     0.049 C 
BRANCH  15  26
HETATM   26  C6  UNL     1       3.922  38.391  -8.237  1.00  0.00     0.028 C 
HETATM   27  C7  UNL     1       3.910  39.581  -9.188  1.00  0.00     0.016 C 
HETATM   28  C8  UNL     1       5.313  37.750  -8.310  1.00  0.00     0.016 C 
ENDBRANCH  15  26
ENDBRANCH  13  14
ENDBRANCH   1  13
BRANCH   2  29
HETATM   29  C13 UNL     1       0.290  35.039  -5.072  1.00  0.00     0.269 C 
HETATM   30  O1  UNL     1      -0.853  34.795  -5.516  1.00  0.00    -0.266 OA
HETATM   31  N2  UNL     1       1.090  33.858  -4.991  1.00  0.00    -0.351 N 
ATOM     32  H2  UNL     1       2.039  33.959  -4.631  1.00  0.00     0.163 HD
BRANCH  31  33
HETATM   33  C14 UNL     1       0.664  32.531  -5.376  1.00  0.00     0.084 C 
HETATM   34  C15 UNL     1       1.560  31.874  -6.390  1.00  0.00     0.025 C 
HETATM   35  C16 UNL     1       1.559  30.415  -6.050  1.00  0.00     0.002 C 
HETATM   36  C17 UNL     1       0.497  30.213  -5.012  1.00  0.00     0.002 C 
HETATM   37  C18 UNL     1       0.522  31.543  -4.288  1.00  0.00     0.025 C 
ENDBRANCH  31  33
ENDBRANCH   2  29
TORSDOF 5
ENDMDL
MODEL 4
REMARK VINA RESULT: -7.543584553      6.106     10.750
REMARK  5 active torsions:
REMARK  status: ('A' for Active; 'I' for Inactive)
REMARK    1  A    between atoms: C5_7  and  C6_8 
REMARK    2  A    between atoms: C9_11  and  C10_12 
REMARK    3  A    between atoms: C10_12  and  C11_13 
REMARK    4  A    between atoms: C12_14  and  C13_15 
REMARK       I    between atoms: C13_15  and  N2_17 
REMARK    5  A    between atoms: N2_17  and  C14_19 
ROOT
HETATM    1  C11 UNL     1       0.185  32.166  -7.062  1.00  0.00     0.041 A 
HETATM    2  C12 UNL     1      -0.750  32.505  -6.060  1.00  0.00     0.118 A 
HETATM    3  N3  UNL     1      -0.554  32.081  -4.771  1.00  0.00    -0.303 N 
ATOM      4  H3  UNL     1      -1.225  32.324  -4.042  1.00  0.00     0.171 HD
HETATM    5  C19 UNL     1       0.529  31.343  -4.477  1.00  0.00     0.326 A 
HETATM    6  O2  UNL     1       0.690  30.967  -3.293  1.00  0.00    -0.247 OA
HETATM    7  N4  UNL     1       1.423  31.010  -5.412  1.00  0.00    -0.294 N 
ATOM      8  H4  UNL     1       2.234  30.447  -5.156  1.00  0.00     0.172 HD
HETATM    9  C20 UNL     1       1.263  31.414  -6.707  1.00  0.00     0.115 A 
HETATM   10  N5  UNL     1       2.140  31.051  -7.564  1.00  0.00    -0.385 N 
ATOM     11  H51 UNL     1       2.948  30.487  -7.299  1.00  0.00     0.157 HD
ATOM     12  H52 UNL     1       2.021  31.353  -8.531  1.00  0.00     0.157 HD
ENDROOT
BRANCH   1  13
HETATM   13  C10 UNL     1      -0.063  32.646  -8.394  1.00  0.00     0.032 C 
BRANCH  13  14
HETATM   14  C9  UNL     1       0.150  34.037  -8.789  1.00  0.00     0.000 A 
HETATM   15  C5  UNL     1       1.001  35.019  -8.338  1.00  0.00     0.024 A 
HETATM   16  N1  UNL     1       0.754  36.155  -9.029  1.00  0.00    -0.358 N 
HETATM   17  C4  UNL     1      -0.224  35.973  -9.918  1.00  0.00     0.044 A 
ATOM     18  H1  UNL     1       1.250  37.034  -8.890  1.00  0.00     0.166 HD
HETATM   19  C3  UNL     1      -0.848  36.795 -10.833  1.00  0.00     0.037 A 
HETATM   20  C21 UNL     1      -0.617  34.662  -9.787  1.00  0.00     0.003 A 
HETATM   21  C2  UNL     1      -1.877  36.320 -11.634  1.00  0.00    -0.054 A 
HETATM   22  C1  UNL     1      -2.586  37.173 -12.635  1.00  0.00     0.049 C 
HETATM   23  C23 UNL     1      -2.292  35.010 -11.523  1.00  0.00    -0.055 A 
HETATM   24  C22 UNL     1      -1.650  34.214 -10.601  1.00  0.00     0.022 A 
HETATM   25  C24 UNL     1      -3.400  34.439 -12.365  1.00  0.00     0.049 C 
BRANCH  15  26
HETATM   26  C6  UNL     1       2.017  34.938  -7.270  1.00  0.00     0.028 C 
HETATM   27  C7  UNL     1       1.498  35.394  -5.912  1.00  0.00     0.016 C 
HETATM   28  C8  UNL     1       3.199  35.840  -7.643  1.00  0.00     0.016 C 
ENDBRANCH  15  26
ENDBRANCH  13  14
ENDBRANCH   1  13
BRANCH   2  29
HETATM   29  C13 UNL     1      -1.952  33.231  -6.405  1.00  0.00     0.269 C 
HETATM   30  O1  UNL     1      -2.996  32.783  -6.929  1.00  0.00    -0.266 OA
HETATM   31  N2  UNL     1      -2.046  34.633  -6.151  1.00  0.00    -0.351 N 
ATOM     32  H2  UNL     1      -1.236  35.088  -5.730  1.00  0.00     0.163 HD
BRANCH  31  33
HETATM   33  C14 UNL     1      -3.196  35.461  -6.442  1.00  0.00     0.084 C 
HETATM   34  C15 UNL     1      -3.471  36.508  -5.398  1.00  0.00     0.025 C 
HETATM   35  C16 UNL     1      -3.998  37.697  -6.143  1.00  0.00     0.002 C 
HETATM   36  C17 UNL     1      -4.240  37.251  -7.553  1.00  0.00     0.002 C 
HETATM   37  C18 UNL     1      -3.174  36.191  -7.725  1.00  0.00     0.025 C 
ENDBRANCH  31  33
ENDBRANCH   2  29
TORSDOF 5
ENDMDL
MODEL 5
REMARK VINA RESULT: -7.490509002      5.786      9.532
REMARK  5 active torsions:
REMARK  status: ('A' for Active; 'I' for Inactive)
REMARK    1  A    between atoms: C5_7  and  C6_8 
REMARK    2  A    between atoms: C9_11  and  C10_12 
REMARK    3  A    between atoms: C10_12  and  C11_13 
REMARK    4  A    between atoms: C12_14  and  C13_15 
REMARK       I    between atoms: C13_15  and  N2_17 
REMARK    5  A    between atoms: N2_17  and  C14_19 
ROOT
HETATM    1  C11 UNL     1      -0.019  34.372  -9.226  1.00  0.00     0.041 A 
HETATM    2  C12 UNL     1      -1.068  33.436  -9.103  1.00  0.00     0.118 A 
HETATM    3  N3  UNL     1      -2.001  33.320 -10.100  1.00  0.00    -0.303 N 
ATOM      4  H3  UNL     1      -2.761  32.644 -10.018  1.00  0.00     0.171 HD
HETATM    5  C19 UNL     1      -1.905  34.103 -11.188  1.00  0.00     0.326 A 
HETATM    6  O2  UNL     1      -2.766  33.980 -12.089  1.00  0.00    -0.247 OA
HETATM    7  N4  UNL     1      -0.921  34.997 -11.321  1.00  0.00    -0.294 N 
ATOM      8  H4  UNL     1      -0.877  35.578 -12.158  1.00  0.00     0.172 HD
HETATM    9  C20 UNL     1       0.028  35.142 -10.349  1.00  0.00     0.115 A 
HETATM   10  N5  UNL     1       0.936  36.025 -10.520  1.00  0.00    -0.385 N 
ATOM     11  H51 UNL     1       0.971  36.602 -11.361  1.00  0.00     0.157 HD
ATOM     12  H52 UNL     1       1.645  36.133  -9.795  1.00  0.00     0.157 HD
ENDROOT
BRANCH   1  13
HETATM   13  C10 UNL     1       0.939  34.445  -8.156  1.00  0.00     0.032 C 
BRANCH  13  14
HETATM   14  C9  UNL     1       1.081  35.619  -7.297  1.00  0.00     0.000 A 
HETATM   15  C5  UNL     1       0.179  36.366  -6.573  1.00  0.00     0.024 A 
HETATM   16  N1  UNL     1       0.841  37.386  -5.982  1.00  0.00    -0.358 N 
HETATM   17  C4  UNL     1       2.140  37.353  -6.281  1.00  0.00     0.044 A 
ATOM     18  H1  UNL     1       0.404  38.088  -5.386  1.00  0.00     0.166 HD
HETATM   19  C3  UNL     1       3.216  38.153  -5.955  1.00  0.00     0.037 A 
HETATM   20  C21 UNL     1       2.314  36.263  -7.099  1.00  0.00     0.003 A 
HETATM   21  C2  UNL     1       4.485  37.876  -6.443  1.00  0.00    -0.054 A 
HETATM   22  C1  UNL     1       5.679  38.715  -6.121  1.00  0.00     0.049 C 
HETATM   23  C23 UNL     1       4.689  36.788  -7.266  1.00  0.00    -0.055 A 
HETATM   24  C22 UNL     1       3.595  36.009  -7.573  1.00  0.00     0.022 A 
HETATM   25  C24 UNL     1       6.041  36.437  -7.822  1.00  0.00     0.049 C 
BRANCH  15  26
HETATM   26  C6  UNL     1      -1.278  36.171  -6.437  1.00  0.00     0.028 C 
HETATM   27  C7  UNL     1      -2.045  37.476  -6.268  1.00  0.00     0.016 C 
HETATM   28  C8  UNL     1      -1.546  35.309  -5.198  1.00  0.00     0.016 C 
ENDBRANCH  15  26
ENDBRANCH  13  14
ENDBRANCH   1  13
BRANCH   2  29
HETATM   29  C13 UNL     1      -1.206  32.656  -7.893  1.00  0.00     0.269 C 
HETATM   30  O1  UNL     1      -2.216  32.540  -7.165  1.00  0.00    -0.266 OA
HETATM   31  N2  UNL     1      -0.104  31.894  -7.397  1.00  0.00    -0.351 N 
ATOM     32  H2  UNL     1       0.768  31.934  -7.924  1.00  0.00     0.163 HD
BRANCH  31  33
HETATM   33  C14 UNL     1      -0.125  31.071  -6.208  1.00  0.00     0.084 C 
HETATM   34  C15 UNL     1       0.657  29.793  -6.339  1.00  0.00     0.025 C 
HETATM   35  C16 UNL     1       1.249  29.536  -4.986  1.00  0.00     0.002 C 
HETATM   36  C17 UNL     1       0.622  30.521  -4.047  1.00  0.00     0.002 C 
HETATM   37  C18 UNL     1       0.365  31.698  -4.964  1.00  0.00     0.025 C 
ENDBRANCH  31  33
ENDBRANCH   2  29
TORSDOF 5
ENDMDL
