MODEL 1
REMARK VINA RESULT: -6.930672088      0.000      0.000
REMARK  7 active torsions:
REMARK  status: ('A' for Active; 'I' for Inactive)
REMARK    1  A    between atoms: N1_1  and  S1_4 
REMARK    2  A    between atoms: S1_4  and  C1_7 
REMARK    3  A    between atoms: C4_10  and  N2_11 
REMARK    4  A    between atoms: N2_11  and  C5_13 
REMARK    5  A    between atoms: N4_20  and  C9_22 
REMARK    6  A    between atoms: C9_22  and  C10_23 
REMARK    7  A    between atoms: C10_23  and  C11_24 
ROOT
HETATM    1  C5  UNL     1     -26.186  -8.529 -10.981  1.00  0.00     0.684 A 
HETATM    2  N3  UNL     1     -26.343  -8.946  -9.716  1.00  0.00    -0.200 N 
ATOM      3  H3  UNL     1     -25.863  -9.781  -9.379  1.00  0.00     0.183 HD
HETATM    4  C6  UNL     1     -27.141  -8.242  -8.906  1.00  0.00     0.133 A 
HETATM    5  C7  UNL     1     -27.813  -7.093  -9.342  1.00  0.00     0.094 A 
HETATM    6 CL1  UNL     1     -28.826  -6.263  -8.188  1.00  0.00    -0.079 Cl
HETATM    7  C8  UNL     1     -27.650  -6.671 -10.636  1.00  0.00     0.140 A 
HETATM    8  N4  UNL     1     -28.196  -5.662 -11.146  1.00  0.00    -0.374 N 
ATOM      9  H4  UNL     1     -27.914  -5.565 -12.121  1.00  0.00     0.161 HD
HETATM   10  N5  UNL     1     -26.809  -7.454 -11.398  1.00  0.00    -0.175 N 
ATOM     11  H5  UNL     1     -26.661  -7.174 -12.367  1.00  0.00     0.186 HD
ENDROOT
BRANCH   1  12
HETATM   12  N2  UNL     1     -25.401  -9.221 -11.774  1.00  0.00    -0.192 N 
ATOM     13  H2  UNL     1     -25.530  -9.167 -12.784  1.00  0.00     0.184 HD
BRANCH  12  14
HETATM   14  C4  UNL     1     -24.386 -10.032 -11.248  1.00  0.00     0.049 A 
HETATM   15  C3  UNL     1     -24.462 -11.425 -11.248  1.00  0.00     0.031 A 
HETATM   16  C2  UNL     1     -23.459 -12.216 -10.729  1.00  0.00     0.027 A 
HETATM   17  C1  UNL     1     -22.331 -11.635 -10.183  1.00  0.00     0.079 A 
HETATM   18  C18 UNL     1     -22.268 -10.266 -10.187  1.00  0.00     0.027 A 
HETATM   19  C17 UNL     1     -23.257  -9.461 -10.701  1.00  0.00     0.031 A 
BRANCH  17  20
HETATM   20  S1  UNL     1     -21.023 -12.571  -9.508  1.00  0.00     0.256 S 
HETATM   21  O1  UNL     1     -20.338 -13.420 -10.521  1.00  0.00    -0.201 OA
HETATM   22  O2  UNL     1     -20.020 -11.603  -8.933  1.00  0.00    -0.201 OA
BRANCH  20  23
HETATM   23  N1  UNL     1     -21.661 -13.514  -8.204  1.00  0.00    -0.324 N 
ATOM     24  H12 UNL     1     -21.449 -14.503  -8.073  1.00  0.00     0.169 HD
ATOM     25  H11 UNL     1     -22.267 -12.961  -7.597  1.00  0.00     0.169 HD
ENDBRANCH  20  23
ENDBRANCH  17  20
ENDBRANCH  12  14
ENDBRANCH   1  12
BRANCH   8  26
HETATM   26  C9  UNL     1     -29.060  -4.644 -10.795  1.00  0.00     0.126 C 
BRANCH  26  27
HETATM   27  C10 UNL     1     -30.114  -4.491 -11.908  1.00  0.00     0.058 C 
BRANCH  27  28
HETATM   28  C11 UNL     1     -31.184  -3.631 -11.376  1.00  0.00    -0.057 A 
HETATM   29  C12 UNL     1     -32.061  -2.993 -12.218  1.00  0.00     0.007 A 
HETATM   30  C13 UNL     1     -33.069  -2.183 -11.722  1.00  0.00     0.001 A 
HETATM   31  C14 UNL     1     -33.222  -1.994 -10.369  1.00  0.00     0.000 A 
HETATM   32  C15 UNL     1     -32.344  -2.632  -9.517  1.00  0.00     0.001 A 
HETATM   33  C16 UNL     1     -31.324  -3.452 -10.021  1.00  0.00     0.007 A 
ENDBRANCH  27  28
ENDBRANCH  26  27
ENDBRANCH   8  26
TORSDOF 7
ENDMDL
MODEL 2
REMARK VINA RESULT: -6.905121203      0.139      1.292
REMARK  7 active torsions:
REMARK  status: ('A' for Active; 'I' for Inactive)
REMARK    1  A    between atoms: N1_1  and  S1_4 
REMARK    2  A    between atoms: S1_4  and  C1_7 
REMARK    3  A    between atoms: C4_10  and  N2_11 
REMARK    4  A    between atoms: N2_11  and  C5_13 
REMARK    5  A    between atoms: N4_20  and  C9_22 
REMARK    6  A    between atoms: C9_22  and  C10_23 
REMARK    7  A    between atoms: C10_23  and  C11_24 
ROOT
HETATM    1  C5  UNL     1     -26.219  -8.583 -11.059  1.00  0.00     0.684 A 
HETATM    2  N3  UNL     1     -26.389  -9.001  -9.796  1.00  0.00    -0.200 N 
ATOM      3  H3  UNL     1     -25.929  -9.847  -9.461  1.00  0.00     0.183 HD
HETATM    4  C6  UNL     1     -27.174  -8.282  -8.986  1.00  0.00     0.133 A 
HETATM    5  C7  UNL     1     -27.819  -7.117  -9.421  1.00  0.00     0.094 A 
HETATM    6 CL1  UNL     1     -28.817  -6.268  -8.266  1.00  0.00    -0.079 Cl
HETATM    7  C8  UNL     1     -27.643  -6.694 -10.713  1.00  0.00     0.140 A 
HETATM    8  N4  UNL     1     -28.165  -5.672 -11.221  1.00  0.00    -0.374 N 
ATOM      9  H4  UNL     1     -27.878  -5.578 -12.195  1.00  0.00     0.161 HD
HETATM   10  N5  UNL     1     -26.818  -7.494 -11.474  1.00  0.00    -0.175 N 
ATOM     11  H5  UNL     1     -26.660  -7.214 -12.442  1.00  0.00     0.186 HD
ENDROOT
BRANCH   1  12
HETATM   12  N2  UNL     1     -25.447  -9.290 -11.852  1.00  0.00    -0.192 N 
ATOM     13  H2  UNL     1     -25.605  -9.269 -12.860  1.00  0.00     0.184 HD
BRANCH  12  14
HETATM   14  C4  UNL     1     -24.409 -10.073 -11.330  1.00  0.00     0.049 A 
HETATM   15  C3  UNL     1     -23.248  -9.520 -10.792  1.00  0.00     0.031 A 
HETATM   16  C2  UNL     1     -22.230 -10.298 -10.282  1.00  0.00     0.027 A 
HETATM   17  C1  UNL     1     -22.340 -11.675 -10.291  1.00  0.00     0.079 A 
HETATM   18  C18 UNL     1     -23.485 -12.207 -10.822  1.00  0.00     0.027 A 
HETATM   19  C17 UNL     1     -24.510 -11.449 -11.336  1.00  0.00     0.031 A 
BRANCH  17  20
HETATM   20  S1  UNL     1     -21.095 -12.723  -9.662  1.00  0.00     0.256 S 
HETATM   21  O1  UNL     1     -20.410 -13.508 -10.726  1.00  0.00    -0.201 OA
HETATM   22  O2  UNL     1     -20.074 -11.853  -8.973  1.00  0.00    -0.201 OA
BRANCH  20  23
HETATM   23  N1  UNL     1     -21.816 -13.747  -8.468  1.00  0.00    -0.324 N 
ATOM     24  H12 UNL     1     -21.489 -14.693  -8.272  1.00  0.00     0.169 HD
ATOM     25  H11 UNL     1     -22.595 -13.289  -7.995  1.00  0.00     0.169 HD
ENDBRANCH  20  23
ENDBRANCH  17  20
ENDBRANCH  12  14
ENDBRANCH   1  12
BRANCH   8  26
HETATM   26  C9  UNL     1     -29.007  -4.636 -10.870  1.00  0.00     0.126 C 
BRANCH  26  27
HETATM   27  C10 UNL     1     -30.073  -4.477 -11.969  1.00  0.00     0.058 C 
BRANCH  27  28
HETATM   28  C11 UNL     1     -31.152  -3.644 -11.410  1.00  0.00    -0.057 A 
HETATM   29  C12 UNL     1     -31.330  -3.539 -10.053  1.00  0.00     0.007 A 
HETATM   30  C13 UNL     1     -32.342  -2.757  -9.523  1.00  0.00     0.001 A 
HETATM   31  C14 UNL     1     -33.201  -2.062 -10.342  1.00  0.00     0.000 A 
HETATM   32  C15 UNL     1     -33.027  -2.164 -11.706  1.00  0.00     0.001 A 
HETATM   33  C16 UNL     1     -32.002  -2.956 -12.242  1.00  0.00     0.007 A 
ENDBRANCH  27  28
ENDBRANCH  26  27
ENDBRANCH   8  26
TORSDOF 7
ENDMDL
MODEL 3
REMARK VINA RESULT: -6.626143568      0.471      1.021
REMARK  7 active torsions:
REMARK  status: ('A' for Active; 'I' for Inactive)
REMARK    1  A    between atoms: N1_1  and  S1_4 
REMARK    2  A    between atoms: S1_4  and  C1_7 
REMARK    3  A    between atoms: C4_10  and  N2_11 
REMARK    4  A    between atoms: N2_11  and  C5_13 
REMARK    5  A    between atoms: N4_20  and  C9_22 
REMARK    6  A    between atoms: C9_22  and  C10_23 
REMARK    7  A    between atoms: C10_23  and  C11_24 
ROOT
HETATM    1  C5  UNL     1     -26.078  -8.350 -11.044  1.00  0.00     0.684 A 
HETATM    2  N3  UNL     1     -25.872  -8.417  -9.720  1.00  0.00    -0.200 N 
ATOM      3  H3  UNL     1     -25.071  -8.924  -9.342  1.00  0.00     0.183 HD
HETATM    4  C6  UNL     1     -26.740  -7.805  -8.907  1.00  0.00     0.133 A 
HETATM    5  C7  UNL     1     -27.848  -7.103  -9.398  1.00  0.00     0.094 A 
HETATM    6 CL1  UNL     1     -28.906  -6.346  -8.233  1.00  0.00    -0.079 Cl
HETATM    7  C8  UNL     1     -28.055  -7.037 -10.751  1.00  0.00     0.140 A 
HETATM    8  N4  UNL     1     -29.008  -6.444 -11.313  1.00  0.00    -0.374 N 
ATOM      9  H4  UNL     1     -28.936  -6.544 -12.326  1.00  0.00     0.161 HD
HETATM   10  N5  UNL     1     -27.112  -7.695 -11.512  1.00  0.00    -0.175 N 
ATOM     11  H5  UNL     1     -27.229  -7.670 -12.525  1.00  0.00     0.186 HD
ENDROOT
BRANCH   1  12
HETATM   12  N2  UNL     1     -25.225  -8.951 -11.840  1.00  0.00    -0.192 N 
ATOM     13  H2  UNL     1     -25.275  -8.791 -12.846  1.00  0.00     0.184 HD
BRANCH  12  14
HETATM   14  C4  UNL     1     -24.245  -9.810 -11.323  1.00  0.00     0.049 A 
HETATM   15  C3  UNL     1     -23.071  -9.343 -10.733  1.00  0.00     0.031 A 
HETATM   16  C2  UNL     1     -22.112 -10.194 -10.228  1.00  0.00     0.027 A 
HETATM   17  C1  UNL     1     -22.295 -11.562 -10.296  1.00  0.00     0.079 A 
HETATM   18  C18 UNL     1     -23.452 -12.010 -10.879  1.00  0.00     0.027 A 
HETATM   19  C17 UNL     1     -24.420 -11.176 -11.388  1.00  0.00     0.031 A 
BRANCH  17  20
HETATM   20  S1  UNL     1     -21.127 -12.700  -9.678  1.00  0.00     0.256 S 
HETATM   21  O1  UNL     1     -20.434 -13.458 -10.757  1.00  0.00    -0.201 OA
HETATM   22  O2  UNL     1     -20.097 -11.919  -8.901  1.00  0.00    -0.201 OA
BRANCH  20  23
HETATM   23  N1  UNL     1     -21.943 -13.753  -8.574  1.00  0.00    -0.324 N 
ATOM     24  H12 UNL     1     -21.945 -14.769  -8.667  1.00  0.00     0.169 HD
ATOM     25  H11 UNL     1     -22.414 -13.234  -7.832  1.00  0.00     0.169 HD
ENDBRANCH  20  23
ENDBRANCH  17  20
ENDBRANCH  12  14
ENDBRANCH   1  12
BRANCH   8  26
HETATM   26  C9  UNL     1     -30.123  -5.699 -10.985  1.00  0.00     0.126 C 
BRANCH  26  27
HETATM   27  C10 UNL     1     -30.159  -4.449 -11.883  1.00  0.00     0.058 C 
BRANCH  27  28
HETATM   28  C11 UNL     1     -31.232  -3.579 -11.374  1.00  0.00    -0.057 A 
HETATM   29  C12 UNL     1     -32.033  -2.869 -12.234  1.00  0.00     0.007 A 
HETATM   30  C13 UNL     1     -33.043  -2.050 -11.759  1.00  0.00     0.001 A 
HETATM   31  C14 UNL     1     -33.276  -1.924 -10.410  1.00  0.00     0.000 A 
HETATM   32  C15 UNL     1     -32.475  -2.635  -9.541  1.00  0.00     0.001 A 
HETATM   33  C16 UNL     1     -31.452  -3.464 -10.023  1.00  0.00     0.007 A 
ENDBRANCH  27  28
ENDBRANCH  26  27
ENDBRANCH   8  26
TORSDOF 7
ENDMDL
MODEL 4
REMARK VINA RESULT: -6.551026888      5.908      8.844
REMARK  7 active torsions:
REMARK  status: ('A' for Active; 'I' for Inactive)
REMARK    1  A    between atoms: N1_1  and  S1_4 
REMARK    2  A    between atoms: S1_4  and  C1_7 
REMARK    3  A    between atoms: C4_10  and  N2_11 
REMARK    4  A    between atoms: N2_11  and  C5_13 
REMARK    5  A    between atoms: N4_20  and  C9_22 
REMARK    6  A    between atoms: C9_22  and  C10_23 
REMARK    7  A    between atoms: C10_23  and  C11_24 
ROOT
HETATM    1  C5  UNL     1     -23.883  -8.665 -10.955  1.00  0.00     0.684 A 
HETATM    2  N3  UNL     1     -23.823  -9.491 -12.009  1.00  0.00    -0.200 N 
ATOM      3  H3  UNL     1     -24.512 -10.234 -12.131  1.00  0.00     0.183 HD
HETATM    4  C6  UNL     1     -22.839  -9.321 -12.899  1.00  0.00     0.133 A 
HETATM    5  C7  UNL     1     -21.879  -8.311 -12.757  1.00  0.00     0.094 A 
HETATM    6 CL1  UNL     1     -20.645  -8.191 -13.988  1.00  0.00    -0.079 Cl
HETATM    7  C8  UNL     1     -21.944  -7.469 -11.678  1.00  0.00     0.140 A 
HETATM    8  N4  UNL     1     -21.145  -6.531 -11.438  1.00  0.00    -0.374 N 
ATOM      9  H4  UNL     1     -21.410  -6.055 -10.575  1.00  0.00     0.161 HD
HETATM   10  N5  UNL     1     -22.989  -7.717 -10.815  1.00  0.00    -0.175 N 
ATOM     11  H5  UNL     1     -23.075  -7.112  -9.998  1.00  0.00     0.186 HD
ENDROOT
BRANCH   1  12
HETATM   12  N2  UNL     1     -24.851  -8.835 -10.084  1.00  0.00    -0.192 N 
ATOM     13  H2  UNL     1     -24.768  -9.563  -9.374  1.00  0.00     0.184 HD
BRANCH  12  14
HETATM   14  C4  UNL     1     -25.995  -8.027 -10.116  1.00  0.00     0.049 A 
HETATM   15  C3  UNL     1     -26.773  -7.780  -8.986  1.00  0.00     0.031 A 
HETATM   16  C2  UNL     1     -27.899  -6.984  -9.026  1.00  0.00     0.027 A 
HETATM   17  C1  UNL     1     -28.291  -6.400 -10.215  1.00  0.00     0.079 A 
HETATM   18  C18 UNL     1     -27.520  -6.651 -11.320  1.00  0.00     0.027 A 
HETATM   19  C17 UNL     1     -26.395  -7.441 -11.299  1.00  0.00     0.031 A 
BRANCH  17  20
HETATM   20  S1  UNL     1     -29.702  -5.382 -10.343  1.00  0.00     0.256 S 
HETATM   21  O1  UNL     1     -30.012  -4.664  -9.077  1.00  0.00    -0.201 OA
HETATM   22  O2  UNL     1     -29.431  -4.363 -11.422  1.00  0.00    -0.201 OA
BRANCH  20  23
HETATM   23  N1  UNL     1     -31.024  -6.370 -10.864  1.00  0.00    -0.324 N 
ATOM     24  H12 UNL     1     -31.991  -6.205 -10.582  1.00  0.00     0.169 HD
ATOM     25  H11 UNL     1     -30.717  -7.125 -11.477  1.00  0.00     0.169 HD
ENDBRANCH  20  23
ENDBRANCH  17  20
ENDBRANCH  12  14
ENDBRANCH   1  12
BRANCH   8  26
HETATM   26  C9  UNL     1     -20.020  -5.943 -11.980  1.00  0.00     0.126 C 
BRANCH  26  27
HETATM   27  C10 UNL     1     -20.365  -4.497 -12.380  1.00  0.00     0.058 C 
BRANCH  27  28
HETATM   28  C11 UNL     1     -20.957  -4.550 -13.727  1.00  0.00    -0.057 A 
HETATM   29  C12 UNL     1     -20.163  -4.673 -14.842  1.00  0.00     0.007 A 
HETATM   30  C13 UNL     1     -20.715  -4.723 -16.110  1.00  0.00     0.001 A 
HETATM   31  C14 UNL     1     -22.076  -4.650 -16.293  1.00  0.00     0.000 A 
HETATM   32  C15 UNL     1     -22.878  -4.525 -15.178  1.00  0.00     0.001 A 
HETATM   33  C16 UNL     1     -22.319  -4.475 -13.893  1.00  0.00     0.007 A 
ENDBRANCH  27  28
ENDBRANCH  26  27
ENDBRANCH   8  26
TORSDOF 7
ENDMDL
MODEL 5
REMARK VINA RESULT: -6.549898715      5.567     10.633
REMARK  7 active torsions:
REMARK  status: ('A' for Active; 'I' for Inactive)
REMARK    1  A    between atoms: N1_1  and  S1_4 
REMARK    2  A    between atoms: S1_4  and  C1_7 
REMARK    3  A    between atoms: C4_10  and  N2_11 
REMARK    4  A    between atoms: N2_11  and  C5_13 
REMARK    5  A    between atoms: N4_20  and  C9_22 
REMARK    6  A    between atoms: C9_22  and  C10_23 
REMARK    7  A    between atoms: C10_23  and  C11_24 
ROOT
HETATM    1  C5  UNL     1     -26.663  -7.441 -10.232  1.00  0.00     0.684 A 
HETATM    2  N3  UNL     1     -26.745  -7.031 -11.506  1.00  0.00    -0.200 N 
ATOM      3  H3  UNL     1     -27.553  -6.499 -11.832  1.00  0.00     0.183 HD
HETATM    4  C6  UNL     1     -25.744  -7.333 -12.340  1.00  0.00     0.133 A 
HETATM    5  C7  UNL     1     -24.624  -8.061 -11.920  1.00  0.00     0.094 A 
HETATM    6 CL1  UNL     1     -23.384  -8.391 -13.105  1.00  0.00    -0.079 Cl
HETATM    7  C8  UNL     1     -24.544  -8.479 -10.617  1.00  0.00     0.140 A 
HETATM    8  N4  UNL     1     -23.598  -9.138 -10.121  1.00  0.00    -0.374 N 
ATOM      9  H4  UNL     1     -23.778  -9.324  -9.134  1.00  0.00     0.161 HD
HETATM   10  N5  UNL     1     -25.618  -8.122  -9.830  1.00  0.00    -0.175 N 
ATOM     11  H5  UNL     1     -25.598  -8.413  -8.853  1.00  0.00     0.186 HD
ENDROOT
BRANCH   1  12
HETATM   12  N2  UNL     1     -27.647  -7.142  -9.415  1.00  0.00    -0.192 N 
ATOM     13  H2  UNL     1     -27.638  -7.505  -8.462  1.00  0.00     0.184 HD
BRANCH  12  14
HETATM   14  C4  UNL     1     -28.708  -6.331  -9.838  1.00  0.00     0.049 A 
HETATM   15  C3  UNL     1     -28.762  -4.963  -9.570  1.00  0.00     0.031 A 
HETATM   16  C2  UNL     1     -29.810  -4.172  -9.989  1.00  0.00     0.027 A 
HETATM   17  C1  UNL     1     -30.856  -4.728 -10.700  1.00  0.00     0.079 A 
HETATM   18  C18 UNL     1     -30.793  -6.072 -10.957  1.00  0.00     0.027 A 
HETATM   19  C17 UNL     1     -29.756  -6.877 -10.548  1.00  0.00     0.031 A 
BRANCH  17  20
HETATM   20  S1  UNL     1     -32.215  -3.790 -11.263  1.00  0.00     0.256 S 
HETATM   21  O1  UNL     1     -32.881  -3.027 -10.172  1.00  0.00    -0.201 OA
HETATM   22  O2  UNL     1     -31.700  -2.812 -12.290  1.00  0.00    -0.201 OA
BRANCH  20  23
HETATM   23  N1  UNL     1     -33.312  -4.868 -12.057  1.00  0.00    -0.324 N 
ATOM     24  H12 UNL     1     -34.142  -5.252 -11.607  1.00  0.00     0.169 HD
ATOM     25  H11 UNL     1     -33.024  -5.064 -13.016  1.00  0.00     0.169 HD
ENDBRANCH  20  23
ENDBRANCH  17  20
ENDBRANCH  12  14
ENDBRANCH   1  12
BRANCH   8  26
HETATM   26  C9  UNL     1     -22.389  -9.688 -10.497  1.00  0.00     0.126 C 
BRANCH  26  27
HETATM   27  C10 UNL     1     -22.597 -11.191 -10.763  1.00  0.00     0.058 C 
BRANCH  27  28
HETATM   28  C11 UNL     1     -21.995 -11.919  -9.632  1.00  0.00    -0.057 A 
HETATM   29  C12 UNL     1     -22.501 -13.128  -9.222  1.00  0.00     0.007 A 
HETATM   30  C13 UNL     1     -21.938 -13.815  -8.160  1.00  0.00     0.001 A 
HETATM   31  C14 UNL     1     -20.855 -13.306  -7.483  1.00  0.00     0.000 A 
HETATM   32  C15 UNL     1     -20.342 -12.092  -7.890  1.00  0.00     0.001 A 
HETATM   33  C16 UNL     1     -20.913 -11.397  -8.966  1.00  0.00     0.007 A 
ENDBRANCH  27  28
ENDBRANCH  26  27
ENDBRANCH   8  26
TORSDOF 7
ENDMDL
