MODEL 1
REMARK VINA RESULT: -4.637894367      0.000      0.000
REMARK  4 active torsions:
REMARK  status: ('A' for Active; 'I' for Inactive)
REMARK    1  A    between atoms: N1_2  and  C2_3 
REMARK    2  A    between atoms: N1_2  and  S1_16 
REMARK    3  A    between atoms: C4_10  and  N4_11 
REMARK    4  A    between atoms: S1_16  and  N6_17 
ROOT
HETATM    1  C2  UNL     1      14.072  21.381  -8.654  1.00  0.00     0.713 A 
HETATM    2  N2  UNL     1      14.007  20.202  -8.010  1.00  0.00    -0.139 N 
ATOM      3  H2  UNL     1      13.488  20.152  -7.133  1.00  0.00     0.189 HD
HETATM    4  C3  UNL     1      14.598  19.089  -8.476  1.00  0.00     0.352 A 
HETATM    5  O1  UNL     1      14.521  17.981  -7.845  1.00  0.00    -0.246 OA
HETATM    6  N3  UNL     1      15.274  19.178  -9.632  1.00  0.00    -0.141 N 
ATOM      7  H3  UNL     1      15.729  18.346 -10.006  1.00  0.00     0.189 HD
HETATM    8  C4  UNL     1      15.367  20.345 -10.316  1.00  0.00     0.694 A 
HETATM    9  N5  UNL     1      14.758  21.437  -9.809  1.00  0.00    -0.021 N 
ATOM     10  H5  UNL     1      14.818  22.322 -10.313  1.00  0.00     0.203 HD
ENDROOT
BRANCH   1  11
HETATM   11  N1  UNL     1      13.458  22.572  -8.186  1.00  0.00    -0.095 N 
HETATM   12  C1  UNL     1      14.091  23.326  -7.095  1.00  0.00     0.191 C 
BRANCH  11  13
HETATM   13  S1  UNL     1      12.001  23.198  -8.824  1.00  0.00     0.332 S 
HETATM   14  O2  UNL     1      11.957  23.097 -10.329  1.00  0.00    -0.182 OA
HETATM   15  O3  UNL     1      10.833  22.499  -8.202  1.00  0.00    -0.182 OA
BRANCH  13  16
HETATM   16  N6  UNL     1      11.907  24.871  -8.367  1.00  0.00    -0.311 N 
ATOM     17  H62 UNL     1      11.051  25.373  -8.127  1.00  0.00     0.170 HD
ATOM     18  H61 UNL     1      12.855  25.247  -8.386  1.00  0.00     0.170 HD
ENDBRANCH  13  16
ENDBRANCH  11  13
ENDBRANCH   1  11
BRANCH   8  19
HETATM   19  N4  UNL     1      16.018  20.430 -11.428  1.00  0.00    -0.234 N 
ATOM     20  H42 UNL     1      17.037  20.478 -11.418  1.00  0.00     0.174 HD
ATOM     21  H41 UNL     1      15.540  20.452 -12.329  1.00  0.00     0.174 HD
ENDBRANCH   8  19
TORSDOF 4
ENDMDL
MODEL 2
REMARK VINA RESULT: -4.611342047      1.373      2.137
REMARK  4 active torsions:
REMARK  status: ('A' for Active; 'I' for Inactive)
REMARK    1  A    between atoms: N1_2  and  C2_3 
REMARK    2  A    between atoms: N1_2  and  S1_16 
REMARK    3  A    between atoms: C4_10  and  N4_11 
REMARK    4  A    between atoms: S1_16  and  N6_17 
ROOT
HETATM    1  C2  UNL     1      14.090  21.431  -8.780  1.00  0.00     0.713 A 
HETATM    2  N2  UNL     1      14.842  21.447  -9.895  1.00  0.00    -0.139 N 
ATOM      3  H2  UNL     1      14.977  22.333 -10.383  1.00  0.00     0.189 HD
HETATM    4  C3  UNL     1      15.422  20.341 -10.391  1.00  0.00     0.352 A 
HETATM    5  O1  UNL     1      16.133  20.382 -11.453  1.00  0.00    -0.246 OA
HETATM    6  N3  UNL     1      15.233  19.187  -9.734  1.00  0.00    -0.141 N 
ATOM      7  H3  UNL     1      15.665  18.335 -10.091  1.00  0.00     0.189 HD
HETATM    8  C4  UNL     1      14.482  19.123  -8.606  1.00  0.00     0.694 A 
HETATM    9  N5  UNL     1      13.919  20.259  -8.145  1.00  0.00    -0.021 N 
ATOM     10  H5  UNL     1      13.353  20.227  -7.297  1.00  0.00     0.203 HD
ENDROOT
BRANCH   1  11
HETATM   11  N1  UNL     1      13.465  22.583  -8.233  1.00  0.00    -0.095 N 
HETATM   12  C1  UNL     1      14.098  23.273  -7.101  1.00  0.00     0.191 C 
BRANCH  11  13
HETATM   13  S1  UNL     1      11.995  23.228  -8.818  1.00  0.00     0.332 S 
HETATM   14  O2  UNL     1      11.901  23.138 -10.322  1.00  0.00    -0.182 OA
HETATM   15  O3  UNL     1      10.840  22.537  -8.164  1.00  0.00    -0.182 OA
BRANCH  13  16
HETATM   16  N6  UNL     1      11.934  24.899  -8.347  1.00  0.00    -0.311 N 
ATOM     17  H62 UNL     1      12.642  25.602  -8.564  1.00  0.00     0.170 HD
ATOM     18  H61 UNL     1      11.071  25.038  -7.822  1.00  0.00     0.170 HD
ENDBRANCH  13  16
ENDBRANCH  11  13
ENDBRANCH   1  11
BRANCH   8  19
HETATM   19  N4  UNL     1      14.301  18.012  -7.974  1.00  0.00    -0.234 N 
ATOM     20  H42 UNL     1      14.125  17.153  -8.496  1.00  0.00     0.174 HD
ATOM     21  H41 UNL     1      14.326  17.964  -6.955  1.00  0.00     0.174 HD
ENDBRANCH   8  19
TORSDOF 4
ENDMDL
MODEL 3
REMARK VINA RESULT: -4.271211082      2.723      5.129
REMARK  4 active torsions:
REMARK  status: ('A' for Active; 'I' for Inactive)
REMARK    1  A    between atoms: N1_2  and  C2_3 
REMARK    2  A    between atoms: N1_2  and  S1_16 
REMARK    3  A    between atoms: C4_10  and  N4_11 
REMARK    4  A    between atoms: S1_16  and  N6_17 
ROOT
HETATM    1  C2  UNL     1      15.065  18.899  -8.956  1.00  0.00     0.713 A 
HETATM    2  N2  UNL     1      14.036  19.623  -8.482  1.00  0.00    -0.139 N 
ATOM      3  H2  UNL     1      13.452  19.223  -7.748  1.00  0.00     0.189 HD
HETATM    4  C3  UNL     1      13.746  20.854  -8.939  1.00  0.00     0.352 A 
HETATM    5  O1  UNL     1      12.763  21.523  -8.473  1.00  0.00    -0.246 OA
HETATM    6  N3  UNL     1      14.528  21.361  -9.905  1.00  0.00    -0.141 N 
ATOM      7  H3  UNL     1      14.329  22.294 -10.266  1.00  0.00     0.189 HD
HETATM    8  C4  UNL     1      15.576  20.668 -10.413  1.00  0.00     0.694 A 
HETATM    9  N5  UNL     1      15.828  19.436  -9.924  1.00  0.00    -0.021 N 
ATOM     10  H5  UNL     1      16.614  18.902 -10.295  1.00  0.00     0.203 HD
ENDROOT
BRANCH   1  11
HETATM   11  N1  UNL     1      15.394  17.598  -8.493  1.00  0.00    -0.095 N 
HETATM   12  C1  UNL     1      16.699  17.020  -8.842  1.00  0.00     0.191 C 
BRANCH  11  13
HETATM   13  S1  UNL     1      14.348  16.642  -7.536  1.00  0.00     0.332 S 
HETATM   14  O2  UNL     1      13.452  17.489  -6.666  1.00  0.00    -0.182 OA
HETATM   15  O3  UNL     1      13.546  15.733  -8.414  1.00  0.00    -0.182 OA
BRANCH  13  16
HETATM   16  N6  UNL     1      15.340  15.642  -6.520  1.00  0.00    -0.311 N 
ATOM     17  H62 UNL     1      16.360  15.644  -6.499  1.00  0.00     0.170 HD
ATOM     18  H61 UNL     1      14.715  15.062  -5.958  1.00  0.00     0.170 HD
ENDBRANCH  13  16
ENDBRANCH  11  13
ENDBRANCH   1  11
BRANCH   8  19
HETATM   19  N4  UNL     1      16.328  21.156 -11.342  1.00  0.00    -0.234 N 
ATOM     20  H42 UNL     1      17.339  21.191 -11.212  1.00  0.00     0.174 HD
ATOM     21  H41 UNL     1      15.938  21.516 -12.214  1.00  0.00     0.174 HD
ENDBRANCH   8  19
TORSDOF 4
ENDMDL
MODEL 4
REMARK VINA RESULT: -4.268984105      5.930      8.854
REMARK  4 active torsions:
REMARK  status: ('A' for Active; 'I' for Inactive)
REMARK    1  A    between atoms: N1_2  and  C2_3 
REMARK    2  A    between atoms: N1_2  and  S1_16 
REMARK    3  A    between atoms: C4_10  and  N4_11 
REMARK    4  A    between atoms: S1_16  and  N6_17 
ROOT
HETATM    1  C2  UNL     1       9.574  25.938  -4.076  1.00  0.00     0.713 A 
HETATM    2  N2  UNL     1       9.470  25.174  -2.974  1.00  0.00    -0.139 N 
ATOM      3  H2  UNL     1      10.111  24.388  -2.860  1.00  0.00     0.189 HD
HETATM    4  C3  UNL     1       8.554  25.404  -2.018  1.00  0.00     0.352 A 
HETATM    5  O1  UNL     1       8.475  24.662  -0.980  1.00  0.00    -0.246 OA
HETATM    6  N3  UNL     1       7.721  26.442  -2.188  1.00  0.00    -0.141 N 
ATOM      7  H3  UNL     1       7.019  26.637  -1.474  1.00  0.00     0.189 HD
HETATM    8  C4  UNL     1       7.789  27.240  -3.282  1.00  0.00     0.694 A 
HETATM    9  N5  UNL     1       8.725  26.971  -4.216  1.00  0.00    -0.021 N 
ATOM     10  H5  UNL     1       8.789  27.562  -5.044  1.00  0.00     0.203 HD
ENDROOT
BRANCH   1  11
HETATM   11  N1  UNL     1      10.531  25.719  -5.102  1.00  0.00    -0.095 N 
HETATM   12  C1  UNL     1      11.962  25.786  -4.775  1.00  0.00     0.191 C 
BRANCH  11  13
HETATM   13  S1  UNL     1      10.116  25.376  -6.724  1.00  0.00     0.332 S 
HETATM   14  O2  UNL     1       9.679  23.942  -6.901  1.00  0.00    -0.182 OA
HETATM   15  O3  UNL     1       9.054  26.324  -7.187  1.00  0.00    -0.182 OA
BRANCH  13  16
HETATM   16  N6  UNL     1      11.527  25.660  -7.696  1.00  0.00    -0.311 N 
ATOM     17  H62 UNL     1      12.342  26.205  -7.412  1.00  0.00     0.170 HD
ATOM     18  H61 UNL     1      11.385  25.187  -8.588  1.00  0.00     0.170 HD
ENDBRANCH  13  16
ENDBRANCH  11  13
ENDBRANCH   1  11
BRANCH   8  19
HETATM   19  N4  UNL     1       6.987  28.239  -3.445  1.00  0.00    -0.234 N 
ATOM     20  H42 UNL     1       7.353  29.191  -3.429  1.00  0.00     0.174 HD
ATOM     21  H41 UNL     1       5.986  28.106  -3.589  1.00  0.00     0.174 HD
ENDBRANCH   8  19
TORSDOF 4
ENDMDL
MODEL 5
REMARK VINA RESULT: -4.253883903      3.006      5.476
REMARK  4 active torsions:
REMARK  status: ('A' for Active; 'I' for Inactive)
REMARK    1  A    between atoms: N1_2  and  C2_3 
REMARK    2  A    between atoms: N1_2  and  S1_16 
REMARK    3  A    between atoms: C4_10  and  N4_11 
REMARK    4  A    between atoms: S1_16  and  N6_17 
ROOT
HETATM    1  C2  UNL     1      13.064  23.980  -9.238  1.00  0.00     0.713 A 
HETATM    2  N2  UNL     1      13.345  25.039  -8.459  1.00  0.00    -0.139 N 
ATOM      3  H2  UNL     1      14.310  25.367  -8.407  1.00  0.00     0.189 HD
HETATM    4  C3  UNL     1      12.405  25.684  -7.747  1.00  0.00     0.352 A 
HETATM    5  O1  UNL     1      12.698  26.688  -7.013  1.00  0.00    -0.246 OA
HETATM    6  N3  UNL     1      11.142  25.237  -7.831  1.00  0.00    -0.141 N 
ATOM      7  H3  UNL     1      10.412  25.712  -7.301  1.00  0.00     0.189 HD
HETATM    8  C4  UNL     1      10.811  24.173  -8.603  1.00  0.00     0.694 A 
HETATM    9  N5  UNL     1      11.788  23.558  -9.300  1.00  0.00    -0.021 N 
ATOM     10  H5  UNL     1      11.555  22.756  -9.886  1.00  0.00     0.203 HD
ENDROOT
BRANCH   1  11
HETATM   11  N1  UNL     1      14.035  23.280 -10.002  1.00  0.00    -0.095 N 
HETATM   12  C1  UNL     1      14.708  23.968 -11.111  1.00  0.00     0.191 C 
BRANCH  11  13
HETATM   13  S1  UNL     1      14.479  21.657  -9.705  1.00  0.00     0.332 S 
HETATM   14  O2  UNL     1      13.277  20.788  -9.424  1.00  0.00    -0.182 OA
HETATM   15  O3  UNL     1      15.269  21.127 -10.861  1.00  0.00    -0.182 OA
BRANCH  13  16
HETATM   16  N6  UNL     1      15.521  21.646  -8.315  1.00  0.00    -0.311 N 
ATOM     17  H62 UNL     1      16.092  22.429  -7.997  1.00  0.00     0.170 HD
ATOM     18  H61 UNL     1      15.453  20.722  -7.888  1.00  0.00     0.170 HD
ENDBRANCH  13  16
ENDBRANCH  11  13
ENDBRANCH   1  11
BRANCH   8  19
HETATM   19  N4  UNL     1       9.596  23.744  -8.683  1.00  0.00    -0.234 N 
ATOM     20  H42 UNL     1       8.905  24.045  -7.996  1.00  0.00     0.174 HD
ATOM     21  H41 UNL     1       9.301  23.105  -9.421  1.00  0.00     0.174 HD
ENDBRANCH   8  19
TORSDOF 4
ENDMDL
