MODEL 1
REMARK VINA RESULT: -7.543853156      0.000      0.000
REMARK  14 active torsions:
REMARK  status: ('A' for Active; 'I' for Inactive)
REMARK    1  A    between atoms: C2_2  and  O2_4 
REMARK    2  A    between atoms: O2_4  and  C3_5 
REMARK    3  A    between atoms: C3_5  and  O3_6 
REMARK    4  A    between atoms: C3_5  and  C4_8 
REMARK    5  A    between atoms: C3_5  and  C9_15 
REMARK    6  A    between atoms: C4_8  and  O5_10 
REMARK    7  A    between atoms: O5_10  and  C5_11 
REMARK    8  A    between atoms: C9_15  and  C10_23 
REMARK    9  A    between atoms: N1_16  and  N2_18 
REMARK   10  A    between atoms: N2_18  and  N3_20 
REMARK       I    between atoms: C10_23  and  N4_25 
REMARK   11  A    between atoms: C12_30  and  O7_31 
REMARK   12  A    between atoms: C13_33  and  C14_34 
REMARK   13  A    between atoms: C14_34  and  O8_35 
REMARK   14  A    between atoms: C14_34  and  O9_37 
ROOT
HETATM    1  C9  UNL     1     -19.096   4.061  12.628  1.00  0.00     0.168 C 
HETATM    2  N1  UNL     1     -19.088   4.435  13.826  1.00  0.00    -0.280 N 
ATOM      3  H1  UNL     1     -19.888   4.083  14.351  1.00  0.00     0.188 HD
ENDROOT
BRANCH   1   4
HETATM    4  C3  UNL     1     -20.206   3.178  12.083  1.00  0.00     0.312 C 
BRANCH   4   5
HETATM    5  O2  UNL     1     -20.403   3.302  10.734  1.00  0.00    -0.268 OA
BRANCH   5   6
HETATM    6  C2  UNL     1     -20.377   2.363   9.748  1.00  0.00     0.258 C 
HETATM    7  C1  UNL     1     -21.623   1.751   9.184  1.00  0.00     0.126 C 
HETATM    8  O1  UNL     1     -19.238   2.033   9.333  1.00  0.00    -0.266 OA
ENDBRANCH   5   6
ENDBRANCH   4   5
BRANCH   4   9
HETATM    9  O3  UNL     1     -19.658   1.870  12.222  1.00  0.00    -0.352 OA
ATOM     10  H3  UNL     1     -19.774   1.676  13.145  1.00  0.00     0.214 HD
ENDBRANCH   4   9
BRANCH   4  11
HETATM   11  C4  UNL     1     -21.352   3.266  12.958  1.00  0.00     0.330 C 
HETATM   12  O4  UNL     1     -22.069   4.300  12.921  1.00  0.00    -0.258 OA
BRANCH  11  13
HETATM   13  O5  UNL     1     -21.794   2.328  13.872  1.00  0.00    -0.307 OA
BRANCH  13  14
HETATM   14  C5  UNL     1     -21.623   2.373  15.242  1.00  0.00     0.060 C 
HETATM   15  C6  UNL     1     -20.257   1.859  15.696  1.00  0.00     0.045 C 
HETATM   16  C7  UNL     1     -22.704   1.494  15.878  1.00  0.00     0.045 C 
HETATM   17  C8  UNL     1     -21.766   3.739  15.862  1.00  0.00     0.045 C 
ENDBRANCH  13  14
ENDBRANCH  11  13
ENDBRANCH   4  11
ENDBRANCH   1   4
BRANCH   1  18
HETATM   18  C10 UNL     1     -18.004   4.491  11.754  1.00  0.00     0.277 C 
HETATM   19  O6  UNL     1     -17.656   5.710  11.889  1.00  0.00    -0.266 OA
HETATM   20  N4  UNL     1     -17.398   3.641  10.850  1.00  0.00    -0.303 N 
HETATM   21  C11 UNL     1     -16.284   3.057  11.033  1.00  0.00     0.187 A 
ATOM     22  H4  UNL     1     -17.882   3.468   9.969  1.00  0.00     0.171 HD
HETATM   23  N5  UNL     1     -15.856   2.254  10.010  1.00  0.00    -0.316 N 
HETATM   24  C15 UNL     1     -15.548   3.201  12.176  1.00  0.00     0.333 A 
HETATM   25  C12 UNL     1     -14.702   1.617  10.159  1.00  0.00     0.177 A 
ATOM     26  H5  UNL     1     -16.407   2.150   9.158  1.00  0.00     0.169 HD
HETATM   27  C13 UNL     1     -13.984   1.794  11.341  1.00  0.00     0.162 A 
HETATM   28  O10 UNL     1     -14.411   2.559  12.295  1.00  0.00    -0.267 OA
HETATM   29  O11 UNL     1     -15.901   3.917  13.128  1.00  0.00    -0.255 OA
BRANCH  25  30
HETATM   30  O7  UNL     1     -14.242   0.799   9.143  1.00  0.00    -0.344 OA
ATOM     31  H7  UNL     1     -13.324   0.555   9.121  1.00  0.00     0.219 HD
ENDBRANCH  25  30
BRANCH  27  32
HETATM   32  C14 UNL     1     -12.708   1.081  11.488  1.00  0.00     0.317 C 
BRANCH  32  33
HETATM   33  O8  UNL     1     -12.977  -0.283  11.543  1.00  0.00    -0.365 OA
ATOM     34  H8  UNL     1     -12.250  -0.745  11.144  1.00  0.00     0.213 HD
ENDBRANCH  32  33
BRANCH  32  35
HETATM   35  O9  UNL     1     -11.890   1.336  10.408  1.00  0.00    -0.365 OA
ATOM     36  H9  UNL     1     -12.400   1.665   9.678  1.00  0.00     0.213 HD
ENDBRANCH  32  35
ENDBRANCH  27  32
ENDBRANCH   1  18
BRANCH   2  37
HETATM   37  N2  UNL     1     -18.267   5.195  14.579  1.00  0.00    -0.249 N 
ATOM     38  H2  UNL     1     -17.656   4.722  15.246  1.00  0.00     0.207 HD
BRANCH  37  39
HETATM   39  N3  UNL     1     -18.197   6.596  14.503  1.00  0.00    -0.331 N 
ATOM     40  H32 UNL     1     -18.894   7.061  13.922  1.00  0.00     0.178 HD
ATOM     41  H31 UNL     1     -17.500   7.162  14.988  1.00  0.00     0.178 HD
ENDBRANCH  37  39
ENDBRANCH   2  37
TORSDOF 14
ENDMDL
MODEL 2
REMARK VINA RESULT: -7.233216289      3.496      6.799
REMARK  14 active torsions:
REMARK  status: ('A' for Active; 'I' for Inactive)
REMARK    1  A    between atoms: C2_2  and  O2_4 
REMARK    2  A    between atoms: O2_4  and  C3_5 
REMARK    3  A    between atoms: C3_5  and  O3_6 
REMARK    4  A    between atoms: C3_5  and  C4_8 
REMARK    5  A    between atoms: C3_5  and  C9_15 
REMARK    6  A    between atoms: C4_8  and  O5_10 
REMARK    7  A    between atoms: O5_10  and  C5_11 
REMARK    8  A    between atoms: C9_15  and  C10_23 
REMARK    9  A    between atoms: N1_16  and  N2_18 
REMARK   10  A    between atoms: N2_18  and  N3_20 
REMARK       I    between atoms: C10_23  and  N4_25 
REMARK   11  A    between atoms: C12_30  and  O7_31 
REMARK   12  A    between atoms: C13_33  and  C14_34 
REMARK   13  A    between atoms: C14_34  and  O8_35 
REMARK   14  A    between atoms: C14_34  and  O9_37 
ROOT
HETATM    1  C9  UNL     1     -14.509   2.641  10.725  1.00  0.00     0.168 C 
HETATM    2  N1  UNL     1     -13.508   1.928  10.471  1.00  0.00    -0.280 N 
ATOM      3  H1  UNL     1     -13.076   1.546  11.312  1.00  0.00     0.188 HD
ENDROOT
BRANCH   1   4
HETATM    4  C3  UNL     1     -14.976   2.870  12.153  1.00  0.00     0.312 C 
BRANCH   4   5
HETATM    5  O2  UNL     1     -15.735   3.997  12.316  1.00  0.00    -0.268 OA
BRANCH   5   6
HETATM    6  C2  UNL     1     -17.056   4.135  12.619  1.00  0.00     0.258 C 
HETATM    7  C1  UNL     1     -17.534   4.910  13.807  1.00  0.00     0.126 C 
HETATM    8  O1  UNL     1     -17.861   3.569  11.837  1.00  0.00    -0.266 OA
ENDBRANCH   5   6
ENDBRANCH   4   5
BRANCH   4   9
HETATM    9  O3  UNL     1     -15.906   1.808  12.348  1.00  0.00    -0.352 OA
ATOM     10  H3  UNL     1     -15.782   1.259  11.582  1.00  0.00     0.214 HD
ENDBRANCH   4   9
BRANCH   4  11
HETATM   11  C4  UNL     1     -13.868   2.649  13.052  1.00  0.00     0.330 C 
HETATM   12  O4  UNL     1     -12.861   3.401  12.975  1.00  0.00    -0.258 OA
BRANCH  11  13
HETATM   13  O5  UNL     1     -13.752   1.684  14.034  1.00  0.00    -0.307 OA
BRANCH  13  14
HETATM   14  C5  UNL     1     -12.899   0.597  14.023  1.00  0.00     0.060 C 
HETATM   15  C6  UNL     1     -13.226  -0.414  12.925  1.00  0.00     0.045 C 
HETATM   16  C7  UNL     1     -13.018  -0.107  15.378  1.00  0.00     0.045 C 
HETATM   17  C8  UNL     1     -11.440   0.931  13.844  1.00  0.00     0.045 C 
ENDBRANCH  13  14
ENDBRANCH  11  13
ENDBRANCH   4  11
ENDBRANCH   1   4
BRANCH   1  18
HETATM   18  C10 UNL     1     -15.231   3.255   9.609  1.00  0.00     0.277 C 
HETATM   19  O6  UNL     1     -14.529   4.023   8.873  1.00  0.00    -0.266 OA
HETATM   20  N4  UNL     1     -16.571   3.019   9.375  1.00  0.00    -0.303 N 
HETATM   21  C11 UNL     1     -17.028   2.214   8.505  1.00  0.00     0.187 A 
ATOM     22  H4  UNL     1     -17.246   3.532   9.943  1.00  0.00     0.171 HD
HETATM   23  N5  UNL     1     -18.393   2.127   8.429  1.00  0.00    -0.316 N 
HETATM   24  C15 UNL     1     -16.225   1.463   7.691  1.00  0.00     0.333 A 
HETATM   25  C12 UNL     1     -18.916   1.292   7.542  1.00  0.00     0.177 A 
ATOM     26  H5  UNL     1     -18.989   2.689   9.037  1.00  0.00     0.169 HD
HETATM   27  C13 UNL     1     -18.059   0.547   6.732  1.00  0.00     0.162 A 
HETATM   28  O10 UNL     1     -16.771   0.647   6.823  1.00  0.00    -0.267 OA
HETATM   29  O11 UNL     1     -14.985   1.510   7.729  1.00  0.00    -0.255 OA
BRANCH  25  30
HETATM   30  O7  UNL     1     -20.291   1.182   7.440  1.00  0.00    -0.344 OA
ATOM     31  H7  UNL     1     -20.669   0.408   7.040  1.00  0.00     0.219 HD
ENDBRANCH  25  30
BRANCH  27  32
HETATM   32  C14 UNL     1     -18.656  -0.372   5.754  1.00  0.00     0.317 C 
BRANCH  32  33
HETATM   33  O8  UNL     1     -17.631  -0.908   4.980  1.00  0.00    -0.365 OA
ATOM     34  H8  UNL     1     -16.807  -0.561   5.301  1.00  0.00     0.213 HD
ENDBRANCH  32  33
BRANCH  32  35
HETATM   35  O9  UNL     1     -19.316  -1.396   6.401  1.00  0.00    -0.365 OA
ATOM     36  H9  UNL     1     -20.030  -1.051   6.923  1.00  0.00     0.213 HD
ENDBRANCH  32  35
ENDBRANCH  27  32
ENDBRANCH   1  18
BRANCH   2  37
HETATM   37  N2  UNL     1     -12.872   1.550   9.344  1.00  0.00    -0.249 N 
ATOM     38  H2  UNL     1     -13.188   1.949   8.460  1.00  0.00     0.207 HD
BRANCH  37  39
HETATM   39  N3  UNL     1     -11.800   0.643   9.309  1.00  0.00    -0.331 N 
ATOM     40  H32 UNL     1     -11.966  -0.281   9.710  1.00  0.00     0.178 HD
ATOM     41  H31 UNL     1     -10.884   0.852   8.912  1.00  0.00     0.178 HD
ENDBRANCH  37  39
ENDBRANCH   2  37
TORSDOF 14
ENDMDL
MODEL 3
REMARK VINA RESULT: -7.180717135      3.002      4.683
REMARK  14 active torsions:
REMARK  status: ('A' for Active; 'I' for Inactive)
REMARK    1  A    between atoms: C2_2  and  O2_4 
REMARK    2  A    between atoms: O2_4  and  C3_5 
REMARK    3  A    between atoms: C3_5  and  O3_6 
REMARK    4  A    between atoms: C3_5  and  C4_8 
REMARK    5  A    between atoms: C3_5  and  C9_15 
REMARK    6  A    between atoms: C4_8  and  O5_10 
REMARK    7  A    between atoms: O5_10  and  C5_11 
REMARK    8  A    between atoms: C9_15  and  C10_23 
REMARK    9  A    between atoms: N1_16  and  N2_18 
REMARK   10  A    between atoms: N2_18  and  N3_20 
REMARK       I    between atoms: C10_23  and  N4_25 
REMARK   11  A    between atoms: C12_30  and  O7_31 
REMARK   12  A    between atoms: C13_33  and  C14_34 
REMARK   13  A    between atoms: C14_34  and  O8_35 
REMARK   14  A    between atoms: C14_34  and  O9_37 
ROOT
HETATM    1  C9  UNL     1     -15.325   2.992  10.381  1.00  0.00     0.168 C 
HETATM    2  N1  UNL     1     -14.714   4.013   9.982  1.00  0.00    -0.280 N 
ATOM      3  H1  UNL     1     -15.242   4.871  10.138  1.00  0.00     0.188 HD
ENDROOT
BRANCH   1   4
HETATM    4  C3  UNL     1     -16.699   3.092  11.020  1.00  0.00     0.312 C 
BRANCH   4   5
HETATM    5  O2  UNL     1     -17.717   3.277  10.123  1.00  0.00    -0.268 OA
BRANCH   5   6
HETATM    6  C2  UNL     1     -18.677   2.416   9.686  1.00  0.00     0.258 C 
HETATM    7  C1  UNL     1     -20.098   2.487  10.153  1.00  0.00     0.126 C 
HETATM    8  O1  UNL     1     -18.299   1.546   8.860  1.00  0.00    -0.266 OA
ENDBRANCH   5   6
ENDBRANCH   4   5
BRANCH   4   9
HETATM    9  O3  UNL     1     -16.914   1.767  11.500  1.00  0.00    -0.352 OA
ATOM     10  H3  UNL     1     -17.032   1.886  12.436  1.00  0.00     0.214 HD
ENDBRANCH   4   9
BRANCH   4  11
HETATM   11  C4  UNL     1     -16.624   3.965  12.168  1.00  0.00     0.330 C 
HETATM   12  O4  UNL     1     -15.787   3.710  13.073  1.00  0.00    -0.258 OA
BRANCH  11  13
HETATM   13  O5  UNL     1     -17.376   5.096  12.424  1.00  0.00    -0.307 OA
BRANCH  13  14
HETATM   14  C5  UNL     1     -18.558   5.153  13.136  1.00  0.00     0.060 C 
HETATM   15  C6  UNL     1     -19.696   5.823  12.366  1.00  0.00     0.045 C 
HETATM   16  C7  UNL     1     -18.299   5.960  14.412  1.00  0.00     0.045 C 
HETATM   17  C8  UNL     1     -19.103   3.820  13.580  1.00  0.00     0.045 C 
ENDBRANCH  13  14
ENDBRANCH  11  13
ENDBRANCH   4  11
ENDBRANCH   1   4
BRANCH   1  18
HETATM   18  C10 UNL     1     -14.682   1.687  10.221  1.00  0.00     0.277 C 
HETATM   19  O6  UNL     1     -14.227   1.451   9.053  1.00  0.00    -0.266 OA
HETATM   20  N4  UNL     1     -14.580   0.779  11.256  1.00  0.00    -0.303 N 
HETATM   21  C11 UNL     1     -13.537   0.589  11.958  1.00  0.00     0.187 A 
ATOM     22  H4  UNL     1     -15.403   0.219  11.475  1.00  0.00     0.171 HD
HETATM   23  N5  UNL     1     -13.642  -0.362  12.938  1.00  0.00    -0.316 N 
HETATM   24  C15 UNL     1     -12.376   1.285  11.769  1.00  0.00     0.333 A 
HETATM   25  C12 UNL     1     -12.582  -0.589  13.702  1.00  0.00     0.177 A 
ATOM     26  H5  UNL     1     -14.510  -0.880  13.076  1.00  0.00     0.169 HD
HETATM   27  C13 UNL     1     -11.419   0.144  13.473  1.00  0.00     0.162 A 
HETATM   28  O10 UNL     1     -11.344   1.039  12.539  1.00  0.00    -0.267 OA
HETATM   29  O11 UNL     1     -12.239   2.156  10.894  1.00  0.00    -0.255 OA
BRANCH  25  30
HETATM   30  O7  UNL     1     -12.656  -1.543  14.700  1.00  0.00    -0.344 OA
ATOM     31  H7  UNL     1     -12.440  -1.301  15.593  1.00  0.00     0.219 HD
ENDBRANCH  25  30
BRANCH  27  32
HETATM   32  C14 UNL     1     -10.254  -0.121  14.328  1.00  0.00     0.317 C 
BRANCH  32  33
HETATM   33  O8  UNL     1     -10.042  -1.497  14.358  1.00  0.00    -0.365 OA
ATOM     34  H8  UNL     1     -10.220  -1.843  13.492  1.00  0.00     0.213 HD
ENDBRANCH  32  33
BRANCH  32  35
HETATM   35  O9  UNL     1      -9.133   0.496  13.816  1.00  0.00    -0.365 OA
ATOM     36  H9  UNL     1      -8.380   0.324  14.368  1.00  0.00     0.213 HD
ENDBRANCH  32  35
ENDBRANCH  27  32
ENDBRANCH   1  18
BRANCH   2  37
HETATM   37  N2  UNL     1     -13.521   4.239   9.395  1.00  0.00    -0.249 N 
ATOM     38  H2  UNL     1     -12.939   3.431   9.169  1.00  0.00     0.207 HD
BRANCH  37  39
HETATM   39  N3  UNL     1     -13.027   5.514   9.073  1.00  0.00    -0.331 N 
ATOM     40  H32 UNL     1     -13.275   6.276   9.705  1.00  0.00     0.178 HD
ATOM     41  H31 UNL     1     -12.447   5.716   8.259  1.00  0.00     0.178 HD
ENDBRANCH  37  39
ENDBRANCH   2  37
TORSDOF 14
ENDMDL
MODEL 4
REMARK VINA RESULT: -7.137014879      0.971      1.225
REMARK  14 active torsions:
REMARK  status: ('A' for Active; 'I' for Inactive)
REMARK    1  A    between atoms: C2_2  and  O2_4 
REMARK    2  A    between atoms: O2_4  and  C3_5 
REMARK    3  A    between atoms: C3_5  and  O3_6 
REMARK    4  A    between atoms: C3_5  and  C4_8 
REMARK    5  A    between atoms: C3_5  and  C9_15 
REMARK    6  A    between atoms: C4_8  and  O5_10 
REMARK    7  A    between atoms: O5_10  and  C5_11 
REMARK    8  A    between atoms: C9_15  and  C10_23 
REMARK    9  A    between atoms: N1_16  and  N2_18 
REMARK   10  A    between atoms: N2_18  and  N3_20 
REMARK       I    between atoms: C10_23  and  N4_25 
REMARK   11  A    between atoms: C12_30  and  O7_31 
REMARK   12  A    between atoms: C13_33  and  C14_34 
REMARK   13  A    between atoms: C14_34  and  O8_35 
REMARK   14  A    between atoms: C14_34  and  O9_37 
ROOT
HETATM    1  C9  UNL     1     -18.816   3.754  12.712  1.00  0.00     0.168 C 
HETATM    2  N1  UNL     1     -18.737   4.142  13.903  1.00  0.00    -0.280 N 
ATOM      3  H1  UNL     1     -19.412   3.678  14.511  1.00  0.00     0.188 HD
ENDROOT
BRANCH   1   4
HETATM    4  C3  UNL     1     -19.828   2.703  12.288  1.00  0.00     0.312 C 
BRANCH   4   5
HETATM    5  O2  UNL     1     -20.640   3.097  11.259  1.00  0.00    -0.268 OA
BRANCH   5   6
HETATM    6  C2  UNL     1     -20.841   2.543  10.031  1.00  0.00     0.258 C 
HETATM    7  C1  UNL     1     -22.005   1.650   9.730  1.00  0.00     0.126 C 
HETATM    8  O1  UNL     1     -19.986   2.824   9.154  1.00  0.00    -0.266 OA
ENDBRANCH   5   6
ENDBRANCH   4   5
BRANCH   4   9
HETATM    9  O3  UNL     1     -19.004   1.700  11.699  1.00  0.00    -0.352 OA
ATOM     10  H3  UNL     1     -18.201   1.746  12.205  1.00  0.00     0.214 HD
ENDBRANCH   4   9
BRANCH   4  11
HETATM   11  C4  UNL     1     -20.437   2.131  13.466  1.00  0.00     0.330 C 
HETATM   12  O4  UNL     1     -19.769   1.327  14.167  1.00  0.00    -0.258 OA
BRANCH  11  13
HETATM   13  O5  UNL     1     -21.710   2.355  13.956  1.00  0.00    -0.307 OA
BRANCH  13  14
HETATM   14  C5  UNL     1     -22.079   3.315  14.878  1.00  0.00     0.060 C 
HETATM   15  C6  UNL     1     -21.162   3.361  16.100  1.00  0.00     0.045 C 
HETATM   16  C7  UNL     1     -23.498   2.989  15.353  1.00  0.00     0.045 C 
HETATM   17  C8  UNL     1     -22.120   4.726  14.352  1.00  0.00     0.045 C 
ENDBRANCH  13  14
ENDBRANCH  11  13
ENDBRANCH   4  11
ENDBRANCH   1   4
BRANCH   1  18
HETATM   18  C10 UNL     1     -17.903   4.335  11.727  1.00  0.00     0.277 C 
HETATM   19  O6  UNL     1     -17.600   5.557  11.929  1.00  0.00    -0.266 OA
HETATM   20  N4  UNL     1     -17.410   3.614  10.657  1.00  0.00    -0.303 N 
HETATM   21  C11 UNL     1     -16.253   3.091  10.602  1.00  0.00     0.187 A 
ATOM     22  H4  UNL     1     -18.021   3.491   9.850  1.00  0.00     0.171 HD
HETATM   23  N5  UNL     1     -15.957   2.416   9.448  1.00  0.00    -0.316 N 
HETATM   24  C15 UNL     1     -15.349   3.177  11.624  1.00  0.00     0.333 A 
HETATM   25  C12 UNL     1     -14.764   1.846   9.348  1.00  0.00     0.177 A 
ATOM     26  H5  UNL     1     -16.633   2.355   8.687  1.00  0.00     0.169 HD
HETATM   27  C13 UNL     1     -13.873   1.960  10.415  1.00  0.00     0.162 A 
HETATM   28  O10 UNL     1     -14.177   2.603  11.497  1.00  0.00    -0.267 OA
HETATM   29  O11 UNL     1     -15.578   3.776  12.687  1.00  0.00    -0.255 OA
BRANCH  25  30
HETATM   30  O7  UNL     1     -14.434   1.158   8.195  1.00  0.00    -0.344 OA
ATOM     31  H7  UNL     1     -14.028   0.302   8.263  1.00  0.00     0.219 HD
ENDBRANCH  25  30
BRANCH  27  32
HETATM   32  C14 UNL     1     -12.555   1.322  10.287  1.00  0.00     0.317 C 
BRANCH  32  33
HETATM   33  O8  UNL     1     -11.855   1.533  11.471  1.00  0.00    -0.365 OA
ATOM     34  H8  UNL     1     -10.962   1.770  11.249  1.00  0.00     0.213 HD
ENDBRANCH  32  33
BRANCH  32  35
HETATM   35  O9  UNL     1     -12.698  -0.033  10.081  1.00  0.00    -0.365 OA
ATOM     36  H9  UNL     1     -12.239  -0.298   9.292  1.00  0.00     0.213 HD
ENDBRANCH  32  35
ENDBRANCH  27  32
ENDBRANCH   1  18
BRANCH   2  37
HETATM   37  N2  UNL     1     -17.967   5.030  14.565  1.00  0.00    -0.249 N 
ATOM     38  H2  UNL     1     -17.193   4.668  15.123  1.00  0.00     0.207 HD
BRANCH  37  39
HETATM   39  N3  UNL     1     -18.162   6.420  14.536  1.00  0.00    -0.331 N 
ATOM     40  H32 UNL     1     -19.025   6.773  14.952  1.00  0.00     0.178 HD
ATOM     41  H31 UNL     1     -17.503   7.083  14.129  1.00  0.00     0.178 HD
ENDBRANCH  37  39
ENDBRANCH   2  37
TORSDOF 14
ENDMDL
MODEL 5
REMARK VINA RESULT: -7.023953353      2.515      3.742
REMARK  14 active torsions:
REMARK  status: ('A' for Active; 'I' for Inactive)
REMARK    1  A    between atoms: C2_2  and  O2_4 
REMARK    2  A    between atoms: O2_4  and  C3_5 
REMARK    3  A    between atoms: C3_5  and  O3_6 
REMARK    4  A    between atoms: C3_5  and  C4_8 
REMARK    5  A    between atoms: C3_5  and  C9_15 
REMARK    6  A    between atoms: C4_8  and  O5_10 
REMARK    7  A    between atoms: O5_10  and  C5_11 
REMARK    8  A    between atoms: C9_15  and  C10_23 
REMARK    9  A    between atoms: N1_16  and  N2_18 
REMARK   10  A    between atoms: N2_18  and  N3_20 
REMARK       I    between atoms: C10_23  and  N4_25 
REMARK   11  A    between atoms: C12_30  and  O7_31 
REMARK   12  A    between atoms: C13_33  and  C14_34 
REMARK   13  A    between atoms: C14_34  and  O8_35 
REMARK   14  A    between atoms: C14_34  and  O9_37 
ROOT
HETATM    1  C9  UNL     1     -17.829   3.142  10.797  1.00  0.00     0.168 C 
HETATM    2  N1  UNL     1     -18.544   2.472  10.013  1.00  0.00    -0.280 N 
ATOM      3  H1  UNL     1     -19.528   2.477  10.279  1.00  0.00     0.188 HD
ENDROOT
BRANCH   1   4
HETATM    4  C3  UNL     1     -18.428   3.860  11.995  1.00  0.00     0.312 C 
BRANCH   4   5
HETATM    5  O2  UNL     1     -17.862   5.080  12.251  1.00  0.00    -0.268 OA
BRANCH   5   6
HETATM    6  C2  UNL     1     -18.433   6.253  12.642  1.00  0.00     0.258 C 
HETATM    7  C1  UNL     1     -18.396   6.735  14.059  1.00  0.00     0.126 C 
HETATM    8  O1  UNL     1     -18.999   6.917  11.737  1.00  0.00    -0.266 OA
ENDBRANCH   5   6
ENDBRANCH   4   5
BRANCH   4   9
HETATM    9  O3  UNL     1     -19.737   4.188  11.535  1.00  0.00    -0.352 OA
ATOM     10  H3  UNL     1     -19.650   4.176  10.588  1.00  0.00     0.214 HD
ENDBRANCH   4   9
BRANCH   4  11
HETATM   11  C4  UNL     1     -18.571   2.923  13.084  1.00  0.00     0.330 C 
HETATM   12  O4  UNL     1     -18.350   1.703  12.870  1.00  0.00    -0.258 OA
BRANCH  11  13
HETATM   13  O5  UNL     1     -18.932   3.191  14.391  1.00  0.00    -0.307 OA
BRANCH  13  14
HETATM   14  C5  UNL     1     -20.186   3.031  14.947  1.00  0.00     0.060 C 
HETATM   15  C6  UNL     1     -20.874   4.355  15.276  1.00  0.00     0.045 C 
HETATM   16  C7  UNL     1     -20.025   2.235  16.245  1.00  0.00     0.045 C 
HETATM   17  C8  UNL     1     -21.169   2.265  14.098  1.00  0.00     0.045 C 
ENDBRANCH  13  14
ENDBRANCH  11  13
ENDBRANCH   4  11
ENDBRANCH   1   4
BRANCH   1  18
HETATM   18  C10 UNL     1     -16.391   3.223  10.535  1.00  0.00     0.277 C 
HETATM   19  O6  UNL     1     -15.953   4.397  10.299  1.00  0.00    -0.266 OA
HETATM   20  N4  UNL     1     -15.573   2.111  10.541  1.00  0.00    -0.303 N 
HETATM   21  C11 UNL     1     -14.817   1.767  11.503  1.00  0.00     0.187 A 
ATOM     22  H4  UNL     1     -15.575   1.520   9.709  1.00  0.00     0.171 HD
HETATM   23  N5  UNL     1     -14.082   0.629  11.308  1.00  0.00    -0.316 N 
HETATM   24  C15 UNL     1     -14.736   2.471  12.673  1.00  0.00     0.333 A 
HETATM   25  C12 UNL     1     -13.285   0.226  12.288  1.00  0.00     0.177 A 
ATOM     26  H5  UNL     1     -14.145   0.107  10.434  1.00  0.00     0.169 HD
HETATM   27  C13 UNL     1     -13.233   0.974  13.463  1.00  0.00     0.162 A 
HETATM   28  O10 UNL     1     -13.939   2.048  13.624  1.00  0.00    -0.267 OA
HETATM   29  O11 UNL     1     -15.387   3.505  12.891  1.00  0.00    -0.255 OA
BRANCH  25  30
HETATM   30  O7  UNL     1     -12.529  -0.920  12.122  1.00  0.00    -0.344 OA
ATOM     31  H7  UNL     1     -11.719  -0.877  11.626  1.00  0.00     0.219 HD
ENDBRANCH  25  30
BRANCH  27  32
HETATM   32  C14 UNL     1     -12.345   0.513  14.539  1.00  0.00     0.317 C 
BRANCH  32  33
HETATM   33  O8  UNL     1     -12.750  -0.763  14.918  1.00  0.00    -0.365 OA
ATOM     34  H8  UNL     1     -13.597  -0.691  15.342  1.00  0.00     0.213 HD
ENDBRANCH  32  33
BRANCH  32  35
HETATM   35  O9  UNL     1     -11.041   0.459  14.093  1.00  0.00    -0.365 OA
ATOM     36  H9  UNL     1     -10.442   0.434  14.829  1.00  0.00     0.213 HD
ENDBRANCH  32  35
ENDBRANCH  27  32
ENDBRANCH   1  18
BRANCH   2  37
HETATM   37  N2  UNL     1     -18.312   1.746   8.900  1.00  0.00    -0.249 N 
ATOM     38  H2  UNL     1     -17.832   0.852   9.004  1.00  0.00     0.207 HD
BRANCH  37  39
HETATM   39  N3  UNL     1     -18.689   2.143   7.606  1.00  0.00    -0.331 N 
ATOM     40  H32 UNL     1     -18.742   3.146   7.429  1.00  0.00     0.178 HD
ATOM     41  H31 UNL     1     -18.909   1.495   6.849  1.00  0.00     0.178 HD
ENDBRANCH  37  39
ENDBRANCH   2  37
TORSDOF 14
ENDMDL
