MODEL 1
REMARK VINA RESULT: -8.464698048      0.000      0.000
REMARK  12 active torsions:
REMARK  status: ('A' for Active; 'I' for Inactive)
REMARK    1  A    between atoms: C2_2  and  N1_3 
REMARK    2  A    between atoms: C2_2  and  C13_44 
REMARK    3  A    between atoms: N1_3  and  N2_5 
REMARK    4  A    between atoms: N2_5  and  N3_7 
REMARK    5  A    between atoms: N3_7  and  N4_9 
REMARK       I    between atoms: N4_9  and  C3_11 
REMARK    6  A    between atoms: C3_11  and  C4_13 
REMARK    7  A    between atoms: C5_14  and  O2_15 
REMARK    8  A    between atoms: C6_17  and  O3_18 
REMARK    9  A    between atoms: C8_23  and  C9_24 
REMARK   10  A    between atoms: C10_27  and  C11_28 
REMARK   11  A    between atoms: C11_28  and  N7_29 
REMARK   12  A    between atoms: N9_35  and  N10_36 
ROOT
HETATM    1  C4  UNL     1     -15.727   2.621  11.177  1.00  0.00     0.139 A 
HETATM    2  C5  UNL     1     -15.226   2.125  10.016  1.00  0.00     0.124 A 
HETATM    3  C6  UNL     1     -14.034   1.380  10.051  1.00  0.00     0.146 A 
HETATM    4  C7  UNL     1     -13.347   1.125  11.215  1.00  0.00     0.169 A 
HETATM    5  N5  UNL     1     -12.213   0.463  11.519  1.00  0.00    -0.320 N 
ATOM      6  H5  UNL     1     -11.610  -0.019  10.852  1.00  0.00     0.169 HD
HETATM    7  C8  UNL     1     -12.007   0.541  12.845  1.00  0.00     0.171 A 
HETATM    8  N11 UNL     1     -13.026   1.255  13.333  1.00  0.00    -0.271 N 
ATOM      9  H11 UNL     1     -13.150   1.487  14.318  1.00  0.00     0.189 HD
HETATM   10  N12 UNL     1     -13.866   1.627  12.349  1.00  0.00    -0.198 N 
HETATM   11  C12 UNL     1     -14.994   2.338  12.348  1.00  0.00     0.287 A 
HETATM   12  O4  UNL     1     -15.420   2.775  13.437  1.00  0.00    -0.265 OA
ENDROOT
BRANCH   1  13
HETATM   13  C3  UNL     1     -16.938   3.420  11.306  1.00  0.00     0.279 C 
HETATM   14  N4  UNL     1     -18.109   2.994  11.932  1.00  0.00    -0.250 N 
ATOM     15  H4  UNL     1     -18.147   2.062  12.345  1.00  0.00     0.192 HD
HETATM   16  O1  UNL     1     -16.937   4.603  10.807  1.00  0.00    -0.266 OA
BRANCH  14  17
HETATM   17  N3  UNL     1     -19.207   3.802  12.002  1.00  0.00    -0.225 N 
ATOM     18  H3  UNL     1     -19.936   3.194  12.375  1.00  0.00     0.210 HD
BRANCH  17  19
HETATM   19  N2  UNL     1     -19.732   4.807  11.860  1.00  0.00    -0.228 N 
ATOM     20  H2  UNL     1     -19.960   4.975  10.880  1.00  0.00     0.210 HD
BRANCH  19  21
HETATM   21  N1  UNL     1     -20.131   5.828  12.643  1.00  0.00    -0.283 N 
ATOM     22  H1  UNL     1     -20.705   6.565  12.231  1.00  0.00     0.188 HD
BRANCH  21  23
HETATM   23  C2  UNL     1     -19.822   5.915  13.886  1.00  0.00     0.099 C 
HETATM   24  C1  UNL     1     -20.865   5.811  14.950  1.00  0.00     0.077 C 
BRANCH  23  25
HETATM   25  C13 UNL     1     -18.451   6.117  14.277  1.00  0.00     0.223 C 
HETATM   26  O5  UNL     1     -17.637   5.148  14.294  1.00  0.00    -0.643 OA
HETATM   27  O6  UNL     1     -17.988   7.368  14.645  1.00  0.00    -0.643 OA
ENDBRANCH  23  25
ENDBRANCH  21  23
ENDBRANCH  19  21
ENDBRANCH  17  19
ENDBRANCH  14  17
ENDBRANCH   1  13
BRANCH   2  28
HETATM   28  O2  UNL     1     -15.843   2.325   8.793  1.00  0.00    -0.357 OA
ATOM     29  H2  UNL     1     -15.360   2.555   8.008  1.00  0.00     0.218 HD
ENDBRANCH   2  28
BRANCH   3  30
HETATM   30  O3  UNL     1     -13.551   0.892   8.872  1.00  0.00    -0.355 OA
ATOM     31  H3  UNL     1     -13.727   1.388   8.081  1.00  0.00     0.218 HD
ENDBRANCH   3  30
BRANCH   7  32
HETATM   32  C9  UNL     1     -10.878  -0.036  13.595  1.00  0.00     0.192 A 
HETATM   33  N6  UNL     1      -9.626   0.447  13.671  1.00  0.00    -0.324 N 
HETATM   34  C10 UNL     1      -8.872  -0.342  14.450  1.00  0.00     0.125 A 
ATOM     35  H6  UNL     1      -9.298   1.292  13.203  1.00  0.00     0.169 HD
HETATM   36  N8  UNL     1      -9.672  -1.333  14.865  1.00  0.00    -0.265 N 
HETATM   37  N9  UNL     1     -10.898  -1.152  14.346  1.00  0.00    -0.181 N 
ATOM     38  H8  UNL     1      -9.396  -2.101  15.475  1.00  0.00     0.190 HD
BRANCH  34  39
HETATM   39  C11 UNL     1      -7.426  -0.193  14.826  1.00  0.00     0.307 C 
BRANCH  39  40
HETATM   40  N7  UNL     1      -6.710   0.166  13.628  1.00  0.00    -0.073 N 
ATOM     41  H73 UNL     1      -7.281   0.096  12.785  1.00  0.00     0.274 HD
ATOM     42  H72 UNL     1      -6.508   1.164  13.566  1.00  0.00     0.274 HD
ATOM     43  H71 UNL     1      -5.873  -0.416  13.592  1.00  0.00     0.274 HD
ENDBRANCH  39  40
ENDBRANCH  34  39
BRANCH  37  44
HETATM   44  N10 UNL     1     -12.029  -1.945  14.523  1.00  0.00    -0.322 N 
ATOM     45 2H10 UNL     1     -12.948  -1.832  14.096  1.00  0.00     0.179 HD
ATOM     46 1H10 UNL     1     -12.057  -2.765  15.129  1.00  0.00     0.179 HD
ENDBRANCH  37  44
ENDBRANCH   7  32
TORSDOF 12
ENDMDL
MODEL 2
REMARK VINA RESULT: -8.426477584      0.871      1.071
REMARK  12 active torsions:
REMARK  status: ('A' for Active; 'I' for Inactive)
REMARK    1  A    between atoms: C2_2  and  N1_3 
REMARK    2  A    between atoms: C2_2  and  C13_44 
REMARK    3  A    between atoms: N1_3  and  N2_5 
REMARK    4  A    between atoms: N2_5  and  N3_7 
REMARK    5  A    between atoms: N3_7  and  N4_9 
REMARK       I    between atoms: N4_9  and  C3_11 
REMARK    6  A    between atoms: C3_11  and  C4_13 
REMARK    7  A    between atoms: C5_14  and  O2_15 
REMARK    8  A    between atoms: C6_17  and  O3_18 
REMARK    9  A    between atoms: C8_23  and  C9_24 
REMARK   10  A    between atoms: C10_27  and  C11_28 
REMARK   11  A    between atoms: C11_28  and  N7_29 
REMARK   12  A    between atoms: N9_35  and  N10_36 
ROOT
HETATM    1  C4  UNL     1     -15.775   2.618  11.150  1.00  0.00     0.139 A 
HETATM    2  C5  UNL     1     -15.253   2.152   9.986  1.00  0.00     0.124 A 
HETATM    3  C6  UNL     1     -14.051   1.422  10.022  1.00  0.00     0.146 A 
HETATM    4  C7  UNL     1     -13.374   1.156  11.189  1.00  0.00     0.169 A 
HETATM    5  N5  UNL     1     -12.235   0.504  11.495  1.00  0.00    -0.320 N 
ATOM      6  H5  UNL     1     -11.617   0.043  10.826  1.00  0.00     0.169 HD
HETATM    7  C8  UNL     1     -12.046   0.561  12.824  1.00  0.00     0.171 A 
HETATM    8  N11 UNL     1     -13.081   1.251  13.313  1.00  0.00    -0.271 N 
ATOM      9  H11 UNL     1     -13.221   1.462  14.301  1.00  0.00     0.189 HD
HETATM   10  N12 UNL     1     -13.914   1.629  12.326  1.00  0.00    -0.198 N 
HETATM   11  C12 UNL     1     -15.052   2.324  12.324  1.00  0.00     0.287 A 
HETATM   12  O4  UNL     1     -15.498   2.734  13.416  1.00  0.00    -0.265 OA
ENDROOT
BRANCH   1  13
HETATM   13  C3  UNL     1     -16.998   3.397  11.278  1.00  0.00     0.279 C 
HETATM   14  N4  UNL     1     -18.203   2.909  11.785  1.00  0.00    -0.250 N 
ATOM     15  H4  UNL     1     -18.258   1.942  12.103  1.00  0.00     0.192 HD
HETATM   16  O1  UNL     1     -16.978   4.623  10.897  1.00  0.00    -0.266 OA
BRANCH  14  17
HETATM   17  N3  UNL     1     -19.310   3.704  11.863  1.00  0.00    -0.225 N 
ATOM     18  H3  UNL     1     -20.088   3.047  11.797  1.00  0.00     0.210 HD
BRANCH  17  19
HETATM   19  N2  UNL     1     -19.817   4.723  11.964  1.00  0.00    -0.228 N 
ATOM     20  H2  UNL     1     -20.756   4.715  11.566  1.00  0.00     0.210 HD
BRANCH  19  21
HETATM   21  N1  UNL     1     -19.503   5.932  12.470  1.00  0.00    -0.283 N 
ATOM     22  H1  UNL     1     -19.325   6.701  11.823  1.00  0.00     0.188 HD
BRANCH  21  23
HETATM   23  C2  UNL     1     -19.419   6.160  13.730  1.00  0.00     0.099 C 
HETATM   24  C1  UNL     1     -18.215   6.823  14.316  1.00  0.00     0.077 C 
BRANCH  23  25
HETATM   25  C13 UNL     1     -20.492   5.773  14.608  1.00  0.00     0.223 C 
HETATM   26  O5  UNL     1     -20.765   4.551  14.791  1.00  0.00    -0.643 OA
HETATM   27  O6  UNL     1     -21.252   6.721  15.272  1.00  0.00    -0.643 OA
ENDBRANCH  23  25
ENDBRANCH  21  23
ENDBRANCH  19  21
ENDBRANCH  17  19
ENDBRANCH  14  17
ENDBRANCH   1  13
BRANCH   2  28
HETATM   28  O2  UNL     1     -15.857   2.366   8.759  1.00  0.00    -0.357 OA
ATOM     29  H2  UNL     1     -15.900   3.224   8.353  1.00  0.00     0.218 HD
ENDBRANCH   2  28
BRANCH   3  30
HETATM   30  O3  UNL     1     -13.547   0.964   8.840  1.00  0.00    -0.355 OA
ATOM     31  H3  UNL     1     -12.746   1.359   8.515  1.00  0.00     0.218 HD
ENDBRANCH   3  30
BRANCH   7  32
HETATM   32  C9  UNL     1     -10.918  -0.015  13.578  1.00  0.00     0.192 A 
HETATM   33  N6  UNL     1      -9.667   0.470  13.655  1.00  0.00    -0.324 N 
HETATM   34  C10 UNL     1      -8.914  -0.318  14.437  1.00  0.00     0.125 A 
ATOM     35  H6  UNL     1      -9.338   1.314  13.187  1.00  0.00     0.169 HD
HETATM   36  N8  UNL     1      -9.714  -1.308  14.852  1.00  0.00    -0.265 N 
HETATM   37  N9  UNL     1     -10.939  -1.129  14.331  1.00  0.00    -0.181 N 
ATOM     38  H8  UNL     1      -9.438  -2.075  15.465  1.00  0.00     0.190 HD
BRANCH  34  39
HETATM   39  C11 UNL     1      -7.468  -0.167  14.815  1.00  0.00     0.307 C 
BRANCH  39  40
HETATM   40  N7  UNL     1      -6.750   0.186  13.617  1.00  0.00    -0.073 N 
ATOM     41  H73 UNL     1      -5.817   0.552  13.804  1.00  0.00     0.274 HD
ATOM     42  H72 UNL     1      -6.465  -0.625  13.068  1.00  0.00     0.274 HD
ATOM     43  H71 UNL     1      -7.337   0.836  13.095  1.00  0.00     0.274 HD
ENDBRANCH  39  40
ENDBRANCH  34  39
BRANCH  37  44
HETATM   44  N10 UNL     1     -12.069  -1.922  14.508  1.00  0.00    -0.322 N 
ATOM     45 2H10 UNL     1     -13.031  -1.619  14.659  1.00  0.00     0.179 HD
ATOM     46 1H10 UNL     1     -12.053  -2.942  14.501  1.00  0.00     0.179 HD
ENDBRANCH  37  44
ENDBRANCH   7  32
TORSDOF 12
ENDMDL
MODEL 3
REMARK VINA RESULT: -8.298455833      0.967      1.056
REMARK  12 active torsions:
REMARK  status: ('A' for Active; 'I' for Inactive)
REMARK    1  A    between atoms: C2_2  and  N1_3 
REMARK    2  A    between atoms: C2_2  and  C13_44 
REMARK    3  A    between atoms: N1_3  and  N2_5 
REMARK    4  A    between atoms: N2_5  and  N3_7 
REMARK    5  A    between atoms: N3_7  and  N4_9 
REMARK       I    between atoms: N4_9  and  C3_11 
REMARK    6  A    between atoms: C3_11  and  C4_13 
REMARK    7  A    between atoms: C5_14  and  O2_15 
REMARK    8  A    between atoms: C6_17  and  O3_18 
REMARK    9  A    between atoms: C8_23  and  C9_24 
REMARK   10  A    between atoms: C10_27  and  C11_28 
REMARK   11  A    between atoms: C11_28  and  N7_29 
REMARK   12  A    between atoms: N9_35  and  N10_36 
ROOT
HETATM    1  C4  UNL     1     -15.770   2.542  11.023  1.00  0.00     0.139 A 
HETATM    2  C5  UNL     1     -15.201   2.104   9.871  1.00  0.00     0.124 A 
HETATM    3  C6  UNL     1     -13.988   1.396   9.936  1.00  0.00     0.146 A 
HETATM    4  C7  UNL     1     -13.346   1.123  11.121  1.00  0.00     0.169 A 
HETATM    5  N5  UNL     1     -12.205   0.486  11.454  1.00  0.00    -0.320 N 
ATOM      6  H5  UNL     1     -11.557   0.047  10.800  1.00  0.00     0.169 HD
HETATM    7  C8  UNL     1     -12.062   0.524  12.790  1.00  0.00     0.171 A 
HETATM    8  N11 UNL     1     -13.126   1.188  13.255  1.00  0.00    -0.271 N 
ATOM      9  H11 UNL     1     -13.302   1.380  14.240  1.00  0.00     0.189 HD
HETATM   10  N12 UNL     1     -13.932   1.568  12.246  1.00  0.00    -0.198 N 
HETATM   11  C12 UNL     1     -15.082   2.242  12.216  1.00  0.00     0.287 A 
HETATM   12  O4  UNL     1     -15.571   2.626  13.299  1.00  0.00    -0.265 OA
ENDROOT
BRANCH   1  13
HETATM   13  C3  UNL     1     -17.011   3.298  11.122  1.00  0.00     0.279 C 
HETATM   14  N4  UNL     1     -17.193   4.429  11.918  1.00  0.00    -0.250 N 
ATOM     15  H4  UNL     1     -16.414   4.780  12.476  1.00  0.00     0.192 HD
HETATM   16  O1  UNL     1     -18.019   2.899  10.433  1.00  0.00    -0.266 OA
BRANCH  14  17
HETATM   17  N3  UNL     1     -18.394   5.076  11.962  1.00  0.00    -0.225 N 
ATOM     18  H3  UNL     1     -18.157   6.047  11.758  1.00  0.00     0.210 HD
BRANCH  17  19
HETATM   19  N2  UNL     1     -19.527   5.094  12.110  1.00  0.00    -0.228 N 
ATOM     20  H2  UNL     1     -19.997   5.582  11.348  1.00  0.00     0.210 HD
BRANCH  19  21
HETATM   21  N1  UNL     1     -20.407   4.641  13.026  1.00  0.00    -0.283 N 
ATOM     22  H1  UNL     1     -21.184   4.060  12.710  1.00  0.00     0.188 HD
BRANCH  21  23
HETATM   23  C2  UNL     1     -20.310   4.909  14.277  1.00  0.00     0.099 C 
HETATM   24  C1  UNL     1     -20.443   3.837  15.309  1.00  0.00     0.077 C 
BRANCH  23  25
HETATM   25  C13 UNL     1     -20.072   6.261  14.711  1.00  0.00     0.223 C 
HETATM   26  O5  UNL     1     -18.929   6.789  14.573  1.00  0.00    -0.643 OA
HETATM   27  O6  UNL     1     -21.077   7.017  15.287  1.00  0.00    -0.643 OA
ENDBRANCH  23  25
ENDBRANCH  21  23
ENDBRANCH  19  21
ENDBRANCH  17  19
ENDBRANCH  14  17
ENDBRANCH   1  13
BRANCH   2  28
HETATM   28  O2  UNL     1     -15.768   2.328   8.628  1.00  0.00    -0.357 OA
ATOM     29  H2  UNL     1     -15.862   1.642   7.978  1.00  0.00     0.218 HD
ENDBRANCH   2  28
BRANCH   3  30
HETATM   30  O3  UNL     1     -13.436   0.966   8.764  1.00  0.00    -0.355 OA
ATOM     31  H3  UNL     1     -12.503   0.788   8.751  1.00  0.00     0.218 HD
ENDBRANCH   3  30
BRANCH   7  32
HETATM   32  C9  UNL     1     -10.950  -0.043  13.572  1.00  0.00     0.192 A 
HETATM   33  N6  UNL     1      -9.699   0.439  13.665  1.00  0.00    -0.324 N 
HETATM   34  C10 UNL     1      -8.962  -0.340  14.472  1.00  0.00     0.125 A 
ATOM     35  H6  UNL     1      -9.359   1.275  13.191  1.00  0.00     0.169 HD
HETATM   36  N8  UNL     1      -9.773  -1.322  14.887  1.00  0.00    -0.265 N 
HETATM   37  N9  UNL     1     -10.988  -1.146  14.341  1.00  0.00    -0.181 N 
ATOM     38  H8  UNL     1      -9.510  -2.081  15.515  1.00  0.00     0.190 HD
BRANCH  34  39
HETATM   39  C11 UNL     1      -7.523  -0.187  14.874  1.00  0.00     0.307 C 
BRANCH  39  40
HETATM   40  N7  UNL     1      -6.789   0.184  13.691  1.00  0.00    -0.073 N 
ATOM     41  H73 UNL     1      -5.867  -0.248  13.641  1.00  0.00     0.274 HD
ATOM     42  H72 UNL     1      -7.171  -0.224  12.838  1.00  0.00     0.274 HD
ATOM     43  H71 UNL     1      -6.754   1.203  13.667  1.00  0.00     0.274 HD
ENDBRANCH  39  40
ENDBRANCH  34  39
BRANCH  37  44
HETATM   44  N10 UNL     1     -12.123  -1.934  14.508  1.00  0.00    -0.322 N 
ATOM     45 2H10 UNL     1     -13.018  -1.855  14.025  1.00  0.00     0.179 HD
ATOM     46 1H10 UNL     1     -12.181  -2.714  15.163  1.00  0.00     0.179 HD
ENDBRANCH  37  44
ENDBRANCH   7  32
TORSDOF 12
ENDMDL
MODEL 4
REMARK VINA RESULT: -8.235018555      1.556      1.736
REMARK  12 active torsions:
REMARK  status: ('A' for Active; 'I' for Inactive)
REMARK    1  A    between atoms: C2_2  and  N1_3 
REMARK    2  A    between atoms: C2_2  and  C13_44 
REMARK    3  A    between atoms: N1_3  and  N2_5 
REMARK    4  A    between atoms: N2_5  and  N3_7 
REMARK    5  A    between atoms: N3_7  and  N4_9 
REMARK       I    between atoms: N4_9  and  C3_11 
REMARK    6  A    between atoms: C3_11  and  C4_13 
REMARK    7  A    between atoms: C5_14  and  O2_15 
REMARK    8  A    between atoms: C6_17  and  O3_18 
REMARK    9  A    between atoms: C8_23  and  C9_24 
REMARK   10  A    between atoms: C10_27  and  C11_28 
REMARK   11  A    between atoms: C11_28  and  N7_29 
REMARK   12  A    between atoms: N9_35  and  N10_36 
ROOT
HETATM    1  C4  UNL     1     -15.795   2.481  11.045  1.00  0.00     0.139 A 
HETATM    2  C5  UNL     1     -15.215   2.066   9.889  1.00  0.00     0.124 A 
HETATM    3  C6  UNL     1     -13.990   1.377   9.950  1.00  0.00     0.146 A 
HETATM    4  C7  UNL     1     -13.347   1.102  11.134  1.00  0.00     0.169 A 
HETATM    5  N5  UNL     1     -12.197   0.480  11.463  1.00  0.00    -0.320 N 
ATOM      6  H5  UNL     1     -11.540   0.060  10.806  1.00  0.00     0.169 HD
HETATM    7  C8  UNL     1     -12.058   0.506  12.800  1.00  0.00     0.171 A 
HETATM    8  N11 UNL     1     -13.134   1.146  13.269  1.00  0.00    -0.271 N 
ATOM      9  H11 UNL     1     -13.317   1.324  14.256  1.00  0.00     0.189 HD
HETATM   10  N12 UNL     1     -13.944   1.523  12.262  1.00  0.00    -0.198 N 
HETATM   11  C12 UNL     1     -15.105   2.178  12.237  1.00  0.00     0.287 A 
HETATM   12  O4  UNL     1     -15.604   2.542  13.322  1.00  0.00    -0.265 OA
ENDROOT
BRANCH   1  13
HETATM   13  C3  UNL     1     -17.049   3.214  11.149  1.00  0.00     0.279 C 
HETATM   14  N4  UNL     1     -17.249   4.340  11.948  1.00  0.00    -0.250 N 
ATOM     15  H4  UNL     1     -16.475   4.702  12.506  1.00  0.00     0.192 HD
HETATM   16  O1  UNL     1     -18.051   2.800  10.460  1.00  0.00    -0.266 OA
BRANCH  14  17
HETATM   17  N3  UNL     1     -18.461   4.965  11.997  1.00  0.00    -0.225 N 
ATOM     18  H3  UNL     1     -18.243   5.938  11.781  1.00  0.00     0.210 HD
BRANCH  17  19
HETATM   19  N2  UNL     1     -19.593   4.964  12.155  1.00  0.00    -0.228 N 
ATOM     20  H2  UNL     1     -19.912   5.833  12.582  1.00  0.00     0.210 HD
BRANCH  19  21
HETATM   21  N1  UNL     1     -20.617   4.119  11.926  1.00  0.00    -0.283 N 
ATOM     22  H1  UNL     1     -21.227   4.296  11.128  1.00  0.00     0.188 HD
BRANCH  21  23
HETATM   23  C2  UNL     1     -20.858   3.099  12.667  1.00  0.00     0.099 C 
HETATM   24  C1  UNL     1     -22.204   2.450  12.673  1.00  0.00     0.077 C 
BRANCH  23  25
HETATM   25  C13 UNL     1     -19.827   2.561  13.515  1.00  0.00     0.223 C 
HETATM   26  O5  UNL     1     -19.529   1.332  13.465  1.00  0.00    -0.643 OA
HETATM   27  O6  UNL     1     -19.135   3.367  14.403  1.00  0.00    -0.643 OA
ENDBRANCH  23  25
ENDBRANCH  21  23
ENDBRANCH  19  21
ENDBRANCH  17  19
ENDBRANCH  14  17
ENDBRANCH   1  13
BRANCH   2  28
HETATM   28  O2  UNL     1     -15.783   2.294   8.648  1.00  0.00    -0.357 OA
ATOM     29  H2  UNL     1     -16.304   1.641   8.196  1.00  0.00     0.218 HD
ENDBRANCH   2  28
BRANCH   3  30
HETATM   30  O3  UNL     1     -13.428   0.970   8.775  1.00  0.00    -0.355 OA
ATOM     31  H3  UNL     1     -13.328   0.037   8.630  1.00  0.00     0.218 HD
ENDBRANCH   3  30
BRANCH   7  32
HETATM   32  C9  UNL     1     -10.938  -0.052  13.579  1.00  0.00     0.192 A 
HETATM   33  N6  UNL     1      -9.690   0.438  13.663  1.00  0.00    -0.324 N 
HETATM   34  C10 UNL     1      -8.945  -0.333  14.469  1.00  0.00     0.125 A 
ATOM     35  H6  UNL     1      -9.357   1.273  13.183  1.00  0.00     0.169 HD
HETATM   36  N8  UNL     1      -9.748  -1.318  14.893  1.00  0.00    -0.265 N 
HETATM   37  N9  UNL     1     -10.967  -1.151  14.353  1.00  0.00    -0.181 N 
ATOM     38  H8  UNL     1      -9.478  -2.072  15.524  1.00  0.00     0.190 HD
BRANCH  34  39
HETATM   39  C11 UNL     1      -7.505  -0.171  14.863  1.00  0.00     0.307 C 
BRANCH  39  40
HETATM   40  N7  UNL     1      -6.771   0.155  13.666  1.00  0.00    -0.073 N 
ATOM     41  H73 UNL     1      -7.065  -0.391  12.857  1.00  0.00     0.274 HD
ATOM     42  H72 UNL     1      -7.002   1.076  13.294  1.00  0.00     0.274 HD
ATOM     43  H71 UNL     1      -5.780   0.047  13.883  1.00  0.00     0.274 HD
ENDBRANCH  39  40
ENDBRANCH  34  39
BRANCH  37  44
HETATM   44  N10 UNL     1     -12.097  -1.945  14.530  1.00  0.00    -0.322 N 
ATOM     45 2H10 UNL     1     -12.796  -2.204  13.835  1.00  0.00     0.179 HD
ATOM     46 1H10 UNL     1     -12.356  -2.373  15.419  1.00  0.00     0.179 HD
ENDBRANCH  37  44
ENDBRANCH   7  32
TORSDOF 12
ENDMDL
MODEL 5
REMARK VINA RESULT: -8.002123234      3.764      6.524
REMARK  12 active torsions:
REMARK  status: ('A' for Active; 'I' for Inactive)
REMARK    1  A    between atoms: C2_2  and  N1_3 
REMARK    2  A    between atoms: C2_2  and  C13_44 
REMARK    3  A    between atoms: N1_3  and  N2_5 
REMARK    4  A    between atoms: N2_5  and  N3_7 
REMARK    5  A    between atoms: N3_7  and  N4_9 
REMARK       I    between atoms: N4_9  and  C3_11 
REMARK    6  A    between atoms: C3_11  and  C4_13 
REMARK    7  A    between atoms: C5_14  and  O2_15 
REMARK    8  A    between atoms: C6_17  and  O3_18 
REMARK    9  A    between atoms: C8_23  and  C9_24 
REMARK   10  A    between atoms: C10_27  and  C11_28 
REMARK   11  A    between atoms: C11_28  and  N7_29 
REMARK   12  A    between atoms: N9_35  and  N10_36 
ROOT
HETATM    1  C4  UNL     1     -20.178   3.996  14.055  1.00  0.00     0.139 A 
HETATM    2  C5  UNL     1     -20.016   5.210  13.467  1.00  0.00     0.124 A 
HETATM    3  C6  UNL     1     -19.055   5.352  12.450  1.00  0.00     0.146 A 
HETATM    4  C7  UNL     1     -18.265   4.312  12.019  1.00  0.00     0.169 A 
HETATM    5  N5  UNL     1     -17.294   4.182  11.093  1.00  0.00    -0.320 N 
ATOM      6  H5  UNL     1     -16.949   4.926  10.486  1.00  0.00     0.169 HD
HETATM    7  C8  UNL     1     -16.855   2.912  11.100  1.00  0.00     0.171 A 
HETATM    8  N11 UNL     1     -17.571   2.281  12.037  1.00  0.00    -0.271 N 
ATOM      9  H11 UNL     1     -17.467   1.296  12.279  1.00  0.00     0.189 HD
HETATM   10  N12 UNL     1     -18.447   3.122  12.618  1.00  0.00    -0.198 N 
HETATM   11  C12 UNL     1     -19.350   2.956  13.585  1.00  0.00     0.287 A 
HETATM   12  O4  UNL     1     -19.467   1.824  14.098  1.00  0.00    -0.265 OA
ENDROOT
BRANCH   1  13
HETATM   13  C3  UNL     1     -21.116   3.691  15.126  1.00  0.00     0.279 C 
HETATM   14  N4  UNL     1     -20.766   3.516  16.465  1.00  0.00    -0.250 N 
ATOM     15  H4  UNL     1     -19.789   3.609  16.744  1.00  0.00     0.192 HD
HETATM   16  O1  UNL     1     -22.359   3.571  14.826  1.00  0.00    -0.266 OA
BRANCH  14  17
HETATM   17  N3  UNL     1     -21.707   3.222  17.408  1.00  0.00    -0.225 N 
ATOM     18  H3  UNL     1     -21.591   2.221  17.566  1.00  0.00     0.210 HD
BRANCH  17  19
HETATM   19  N2  UNL     1     -22.557   3.515  18.113  1.00  0.00    -0.228 N 
ATOM     20  H2  UNL     1     -23.329   2.850  18.067  1.00  0.00     0.210 HD
BRANCH  19  21
HETATM   21  N1  UNL     1     -22.811   4.508  18.990  1.00  0.00    -0.283 N 
ATOM     22  H1  UNL     1     -22.569   4.366  19.971  1.00  0.00     0.188 HD
BRANCH  21  23
HETATM   23  C2  UNL     1     -23.341   5.624  18.644  1.00  0.00     0.099 C 
HETATM   24  C1  UNL     1     -23.717   6.649  19.664  1.00  0.00     0.077 C 
BRANCH  23  25
HETATM   25  C13 UNL     1     -23.588   5.907  17.255  1.00  0.00     0.223 C 
HETATM   26  O5  UNL     1     -24.748   5.772  16.766  1.00  0.00    -0.643 OA
HETATM   27  O6  UNL     1     -22.571   6.332  16.418  1.00  0.00    -0.643 OA
ENDBRANCH  23  25
ENDBRANCH  21  23
ENDBRANCH  19  21
ENDBRANCH  17  19
ENDBRANCH  14  17
ENDBRANCH   1  13
BRANCH   2  28
HETATM   28  O2  UNL     1     -20.761   6.318  13.829  1.00  0.00    -0.357 OA
ATOM     29  H2  UNL     1     -20.593   6.810  14.625  1.00  0.00     0.218 HD
ENDBRANCH   2  28
BRANCH   3  30
HETATM   30  O3  UNL     1     -18.912   6.581  11.875  1.00  0.00    -0.355 OA
ATOM     31  H3  UNL     1     -19.159   6.676  10.963  1.00  0.00     0.218 HD
ENDBRANCH   3  30
BRANCH   7  32
HETATM   32  C9  UNL     1     -15.792   2.343  10.253  1.00  0.00     0.192 A 
HETATM   33  N6  UNL     1     -14.568   1.953  10.645  1.00  0.00    -0.324 N 
HETATM   34  C10 UNL     1     -13.875   1.482   9.597  1.00  0.00     0.125 A 
ATOM     35  H6  UNL     1     -14.216   2.008  11.600  1.00  0.00     0.169 HD
HETATM   36  N8  UNL     1     -14.687   1.581   8.537  1.00  0.00    -0.265 N 
HETATM   37  N9  UNL     1     -15.859   2.106   8.930  1.00  0.00    -0.181 N 
ATOM     38  H8  UNL     1     -14.453   1.303   7.584  1.00  0.00     0.190 HD
BRANCH  34  39
HETATM   39  C11 UNL     1     -12.478   0.932   9.560  1.00  0.00     0.307 C 
BRANCH  39  40
HETATM   40  N7  UNL     1     -12.366  -0.016  10.640  1.00  0.00    -0.073 N 
ATOM     41  H73 UNL     1     -12.464   0.413  11.559  1.00  0.00     0.274 HD
ATOM     42  H72 UNL     1     -13.165  -0.646  10.703  1.00  0.00     0.274 HD
ATOM     43  H71 UNL     1     -11.478  -0.504  10.520  1.00  0.00     0.274 HD
ENDBRANCH  39  40
ENDBRANCH  34  39
BRANCH  37  44
HETATM   44  N10 UNL     1     -16.981   2.377   8.151  1.00  0.00    -0.322 N 
ATOM     45 2H10 UNL     1     -17.415   3.282   7.970  1.00  0.00     0.179 HD
ATOM     46 1H10 UNL     1     -17.512   1.663   7.653  1.00  0.00     0.179 HD
ENDBRANCH  37  44
ENDBRANCH   7  32
TORSDOF 12
ENDMDL
