MODEL 1
REMARK VINA RESULT: -4.323188269      0.000      0.000
REMARK  2 active torsions:
REMARK  status: ('A' for Active; 'I' for Inactive)
REMARK    1  A    between atoms: C2_3  and  C3_4 
REMARK    2  A    between atoms: C3_4  and  O1_5 
ROOT
HETATM    1  N1  UNL     1      11.876  22.263  16.960  1.00  0.00    -0.197 NA
HETATM    2  C1  UNL     1      12.273  21.176  17.079  1.00  0.00     0.062 C 
HETATM    3  C2  UNL     1      12.799  19.807  17.223  1.00  0.00     0.162 C 
ENDROOT
BRANCH   3   4
HETATM    4  C3  UNL     1      14.323  19.897  17.394  1.00  0.00     0.078 C 
HETATM    5  C4  UNL     1      14.952  19.843  16.067  1.00  0.00     0.040 C 
HETATM    6  C5  UNL     1      16.310  19.323  15.938  1.00  0.00     0.013 C 
HETATM    7  C6  UNL     1      17.221  19.463  17.101  1.00  0.00     0.074 C 
HETATM    8  S1  UNL     1      16.481  18.594  18.514  1.00  0.00    -0.166 SA
HETATM    9  C7  UNL     1      14.690  18.818  18.358  1.00  0.00     0.112 C 
BRANCH   4  10
HETATM   10  O1  UNL     1      14.584  21.136  17.978  1.00  0.00    -0.388 OA
ATOM     11  H1  UNL     1      14.682  21.756  17.265  1.00  0.00     0.210 HD
ENDBRANCH   4  10
ENDBRANCH   3   4
TORSDOF 2
ENDMDL
MODEL 2
REMARK VINA RESULT: -4.115454424      3.521      4.884
REMARK  2 active torsions:
REMARK  status: ('A' for Active; 'I' for Inactive)
REMARK    1  A    between atoms: C2_3  and  C3_4 
REMARK    2  A    between atoms: C3_4  and  O1_5 
ROOT
HETATM    1  N1  UNL     1      14.649  20.016  18.265  1.00  0.00    -0.197 NA
HETATM    2  C1  UNL     1      13.593  20.308  17.874  1.00  0.00     0.062 C 
HETATM    3  C2  UNL     1      12.265  20.700  17.369  1.00  0.00     0.162 C 
ENDROOT
BRANCH   3   4
HETATM    4  C3  UNL     1      12.464  21.765  16.281  1.00  0.00     0.078 C 
HETATM    5  C4  UNL     1      12.534  23.087  16.918  1.00  0.00     0.040 C 
HETATM    6  C5  UNL     1      12.130  24.270  16.164  1.00  0.00     0.013 C 
HETATM    7  C6  UNL     1      12.274  24.235  14.688  1.00  0.00     0.074 C 
HETATM    8  S1  UNL     1      11.271  22.863  14.048  1.00  0.00    -0.166 SA
HETATM    9  C7  UNL     1      11.363  21.551  15.295  1.00  0.00     0.112 C 
BRANCH   4  10
HETATM   10  O1  UNL     1      13.683  21.484  15.668  1.00  0.00    -0.388 OA
ATOM     11  H1  UNL     1      13.832  20.552  15.775  1.00  0.00     0.210 HD
ENDBRANCH   4  10
ENDBRANCH   3   4
TORSDOF 2
ENDMDL
MODEL 3
REMARK VINA RESULT: -3.947397686      4.553      6.076
REMARK  2 active torsions:
REMARK  status: ('A' for Active; 'I' for Inactive)
REMARK    1  A    between atoms: C2_3  and  C3_4 
REMARK    2  A    between atoms: C3_4  and  O1_5 
ROOT
HETATM    1  N1  UNL     1      12.434  19.938  15.837  1.00  0.00    -0.197 NA
HETATM    2  C1  UNL     1      12.277  20.995  16.295  1.00  0.00     0.062 C 
HETATM    3  C2  UNL     1      12.086  22.346  16.852  1.00  0.00     0.162 C 
ENDROOT
BRANCH   3   4
HETATM    4  C3  UNL     1      11.955  23.331  15.682  1.00  0.00     0.078 C 
HETATM    5  C4  UNL     1      12.381  24.663  16.134  1.00  0.00     0.040 C 
HETATM    6  C5  UNL     1      11.830  25.850  15.486  1.00  0.00     0.013 C 
HETATM    7  C6  UNL     1      11.404  25.733  14.070  1.00  0.00     0.074 C 
HETATM    8  S1  UNL     1      10.113  24.460  13.965  1.00  0.00    -0.166 SA
HETATM    9  C7  UNL     1      10.550  23.202  15.195  1.00  0.00     0.112 C 
BRANCH   4  10
HETATM   10  O1  UNL     1      12.823  22.884  14.687  1.00  0.00    -0.388 OA
ATOM     11  H1  UNL     1      12.986  23.625  14.116  1.00  0.00     0.210 HD
ENDBRANCH   4  10
ENDBRANCH   3   4
TORSDOF 2
ENDMDL
MODEL 4
REMARK VINA RESULT: -3.736380929      3.539      4.631
REMARK  2 active torsions:
REMARK  status: ('A' for Active; 'I' for Inactive)
REMARK    1  A    between atoms: C2_3  and  C3_4 
REMARK    2  A    between atoms: C3_4  and  O1_5 
ROOT
HETATM    1  N1  UNL     1      19.558  19.704  14.196  1.00  0.00    -0.197 NA
HETATM    2  C1  UNL     1      18.645  19.059  14.517  1.00  0.00     0.062 C 
HETATM    3  C2  UNL     1      17.490  18.251  14.948  1.00  0.00     0.162 C 
ENDROOT
BRANCH   3   4
HETATM    4  C3  UNL     1      16.961  18.839  16.264  1.00  0.00     0.078 C 
HETATM    5  C4  UNL     1      17.115  17.836  17.327  1.00  0.00     0.040 C 
HETATM    6  C5  UNL     1      16.209  17.859  18.471  1.00  0.00     0.013 C 
HETATM    7  C6  UNL     1      15.625  19.164  18.868  1.00  0.00     0.074 C 
HETATM    8  S1  UNL     1      14.676  19.815  17.463  1.00  0.00    -0.166 SA
HETATM    9  C7  UNL     1      15.572  19.305  15.974  1.00  0.00     0.112 C 
BRANCH   4  10
HETATM   10  O1  UNL     1      17.759  19.944  16.555  1.00  0.00    -0.388 OA
ATOM     11  H1  UNL     1      17.225  20.536  17.072  1.00  0.00     0.210 HD
ENDBRANCH   4  10
ENDBRANCH   3   4
TORSDOF 2
ENDMDL
MODEL 5
REMARK VINA RESULT: -3.541521271      7.882      8.917
REMARK  2 active torsions:
REMARK  status: ('A' for Active; 'I' for Inactive)
REMARK    1  A    between atoms: C2_3  and  C3_4 
REMARK    2  A    between atoms: C3_4  and  O1_5 
ROOT
HETATM    1  N1  UNL     1       8.953  14.513  12.041  1.00  0.00    -0.197 NA
HETATM    2  C1  UNL     1       8.215  15.410  11.965  1.00  0.00     0.062 C 
HETATM    3  C2  UNL     1       7.293  16.557  11.888  1.00  0.00     0.162 C 
ENDROOT
BRANCH   3   4
HETATM    4  C3  UNL     1       7.964  17.755  12.575  1.00  0.00     0.078 C 
HETATM    5  C4  UNL     1       6.924  18.706  12.991  1.00  0.00     0.040 C 
HETATM    6  C5  UNL     1       7.253  20.123  13.107  1.00  0.00     0.013 C 
HETATM    7  C6  UNL     1       8.654  20.486  13.433  1.00  0.00     0.074 C 
HETATM    8  S1  UNL     1       9.733  19.826  12.129  1.00  0.00    -0.166 SA
HETATM    9  C7  UNL     1       8.988  18.257  11.611  1.00  0.00     0.112 C 
BRANCH   4  10
HETATM   10  O1  UNL     1       8.610  17.255  13.704  1.00  0.00    -0.388 OA
ATOM     11  H1  UNL     1       8.957  18.005  14.172  1.00  0.00     0.210 HD
ENDBRANCH   4  10
ENDBRANCH   3   4
TORSDOF 2
ENDMDL
