MODEL 1
REMARK VINA RESULT: -6.880171925      0.000      0.000
REMARK  8 active torsions:
REMARK  status: ('A' for Active; 'I' for Inactive)
REMARK    1  A    between atoms: C13_17  and  S1_18 
REMARK    2  A    between atoms: C15_23  and  C16_24 
REMARK    3  A    between atoms: C16_24  and  C17_25 
REMARK    4  A    between atoms: C17_25  and  O8_26 
REMARK    5  A    between atoms: C17_25  and  C18_28 
REMARK    6  A    between atoms: C18_28  and  C19_32 
REMARK    7  A    between atoms: C19_32  and  O9_33 
REMARK    8  A    between atoms: N2_35  and  O10_37 
ROOT
HETATM    1  C1  UNL     1      11.786  76.898  -3.760  1.00  0.00     0.043 C 
HETATM    2  C2  UNL     1      12.854  76.454  -2.794  1.00  0.00    -0.080 C 
HETATM    3  C3  UNL     1      12.701  75.530  -1.904  1.00  0.00     0.009 C 
HETATM    4  C4  UNL     1      13.960  75.368  -1.146  1.00  0.00     0.163 C 
HETATM    5  O1  UNL     1      13.873  75.735   0.147  1.00  0.00    -0.346 OA
HETATM    6  C5  UNL     1      13.978  77.024   0.535  1.00  0.00     0.158 C 
HETATM    7  C6  UNL     1      12.630  77.765   0.537  1.00  0.00     0.078 C 
HETATM    8  C7  UNL     1      14.380  77.019   2.023  1.00  0.00     0.078 C 
HETATM    9  O2  UNL     1      14.933  77.633  -0.230  1.00  0.00    -0.347 OA
HETATM   10  C8  UNL     1      15.813  76.822  -0.919  1.00  0.00     0.164 C 
HETATM   11  C9  UNL     1      16.783  76.056  -0.125  1.00  0.00     0.204 C 
HETATM   12  O3  UNL     1      17.134  74.804  -0.610  1.00  0.00    -0.353 OA
HETATM   13  C10 UNL     1      17.959  74.884  -1.705  1.00  0.00     0.158 C 
HETATM   14  C11 UNL     1      18.751  73.590  -1.799  1.00  0.00     0.078 C 
HETATM   15  C12 UNL     1      19.035  75.979  -1.560  1.00  0.00     0.078 C 
HETATM   16  O4  UNL     1      17.235  75.222  -2.766  1.00  0.00    -0.332 OA
HETATM   17  C13 UNL     1      15.876  75.108  -2.780  1.00  0.00     0.283 C 
HETATM   18  C14 UNL     1      15.048  76.015  -1.985  1.00  0.00     0.068 C 
HETATM   19  C15 UNL     1      14.248  77.050  -2.734  1.00  0.00     0.034 C 
ENDROOT
BRANCH  19  20
HETATM   20  C16 UNL     1      14.560  77.408  -4.114  1.00  0.00     0.048 C 
BRANCH  20  21
HETATM   21  C17 UNL     1      14.804  78.813  -4.509  1.00  0.00     0.172 C 
BRANCH  21  22
HETATM   22  O8  UNL     1      16.191  78.841  -4.871  1.00  0.00    -0.389 OA
ATOM     23  H8  UNL     1      16.283  78.131  -5.496  1.00  0.00     0.210 HD
ENDBRANCH  21  22
BRANCH  21  24
HETATM   24  C18 UNL     1      14.126  79.196  -5.802  1.00  0.00     0.085 C 
HETATM   25  N1  UNL     1      13.014  79.838  -5.846  1.00  0.00    -0.397 N 
ATOM     26  H12 UNL     1      12.598  80.094  -4.950  1.00  0.00     0.156 HD
ATOM     27  H11 UNL     1      12.556  80.097  -6.720  1.00  0.00     0.156 HD
BRANCH  24  28
HETATM   28  C19 UNL     1      14.721  78.831  -7.081  1.00  0.00     0.185 C 
HETATM   29  N2  UNL     1      14.594  77.661  -7.577  1.00  0.00    -0.246 N 
ATOM     30  H2  UNL     1      14.065  76.942  -7.084  1.00  0.00     0.196 HD
BRANCH  28  31
HETATM   31  O9  UNL     1      15.449  79.815  -7.766  1.00  0.00    -0.343 OA
ATOM     32  H9  UNL     1      16.172  80.227  -7.309  1.00  0.00     0.219 HD
ENDBRANCH  28  31
BRANCH  29  33
HETATM   33  O10 UNL     1      15.181  77.388  -8.787  1.00  0.00    -0.288 OA
ATOM     34  H10 UNL     1      14.914  77.890  -9.549  1.00  0.00     0.244 HD
ENDBRANCH  29  33
ENDBRANCH  24  28
ENDBRANCH  21  24
ENDBRANCH  20  21
ENDBRANCH  19  20
BRANCH  17  35
HETATM   35  S1  UNL     1      15.376  73.426  -2.971  1.00  0.00     0.132 S 
HETATM   36  O5  UNL     1      14.057  73.285  -3.696  1.00  0.00    -0.593 OA
HETATM   37  O6  UNL     1      16.375  72.814  -3.962  1.00  0.00    -0.593 OA
HETATM   38  O7  UNL     1      15.408  72.470  -1.644  1.00  0.00    -0.593 OA
ENDBRANCH  17  35
TORSDOF 8
ENDMDL
MODEL 2
REMARK VINA RESULT: -6.846096558      0.790      1.224
REMARK  8 active torsions:
REMARK  status: ('A' for Active; 'I' for Inactive)
REMARK    1  A    between atoms: C13_17  and  S1_18 
REMARK    2  A    between atoms: C15_23  and  C16_24 
REMARK    3  A    between atoms: C16_24  and  C17_25 
REMARK    4  A    between atoms: C17_25  and  O8_26 
REMARK    5  A    between atoms: C17_25  and  C18_28 
REMARK    6  A    between atoms: C18_28  and  C19_32 
REMARK    7  A    between atoms: C19_32  and  O9_33 
REMARK    8  A    between atoms: N2_35  and  O10_37 
ROOT
HETATM    1  C1  UNL     1      11.806  76.850  -3.697  1.00  0.00     0.043 C 
HETATM    2  C2  UNL     1      12.893  76.413  -2.749  1.00  0.00    -0.080 C 
HETATM    3  C3  UNL     1      12.754  75.504  -1.841  1.00  0.00     0.009 C 
HETATM    4  C4  UNL     1      14.029  75.346  -1.110  1.00  0.00     0.163 C 
HETATM    5  O1  UNL     1      13.974  75.732   0.179  1.00  0.00    -0.346 OA
HETATM    6  C5  UNL     1      14.097  77.026   0.545  1.00  0.00     0.158 C 
HETATM    7  C6  UNL     1      12.754  77.777   0.566  1.00  0.00     0.078 C 
HETATM    8  C7  UNL     1      14.533  77.042   2.023  1.00  0.00     0.078 C 
HETATM    9  O2  UNL     1      15.038  77.617  -0.251  1.00  0.00    -0.347 OA
HETATM   10  C8  UNL     1      15.897  76.790  -0.947  1.00  0.00     0.164 C 
HETATM   11  C9  UNL     1      16.880  76.029  -0.164  1.00  0.00     0.204 C 
HETATM   12  O3  UNL     1      17.211  74.767  -0.637  1.00  0.00    -0.353 OA
HETATM   13  C10 UNL     1      18.011  74.824  -1.753  1.00  0.00     0.158 C 
HETATM   14  C11 UNL     1      18.792  73.524  -1.844  1.00  0.00     0.078 C 
HETATM   15  C12 UNL     1      19.097  75.915  -1.649  1.00  0.00     0.078 C 
HETATM   16  O4  UNL     1      17.264  75.152  -2.801  1.00  0.00    -0.332 OA
HETATM   17  C13 UNL     1      15.905  75.046  -2.782  1.00  0.00     0.283 C 
HETATM   18  C14 UNL     1      15.102  75.971  -1.984  1.00  0.00     0.068 C 
HETATM   19  C15 UNL     1      14.292  77.000  -2.730  1.00  0.00     0.034 C 
ENDROOT
BRANCH  19  20
HETATM   20  C16 UNL     1      14.574  77.334  -4.122  1.00  0.00     0.048 C 
BRANCH  20  21
HETATM   21  C17 UNL     1      14.904  78.718  -4.530  1.00  0.00     0.172 C 
BRANCH  21  22
HETATM   22  O8  UNL     1      16.336  78.733  -4.599  1.00  0.00    -0.389 OA
ATOM     23  H8  UNL     1      16.591  79.438  -4.015  1.00  0.00     0.210 HD
ENDBRANCH  21  22
BRANCH  21  24
HETATM   24  C18 UNL     1      14.510  79.030  -5.953  1.00  0.00     0.085 C 
HETATM   25  N1  UNL     1      13.581  78.399  -6.576  1.00  0.00    -0.397 N 
ATOM     26  H12 UNL     1      13.101  77.663  -6.059  1.00  0.00     0.156 HD
ATOM     27  H11 UNL     1      13.315  78.610  -7.539  1.00  0.00     0.156 HD
BRANCH  24  28
HETATM   28  C19 UNL     1      15.195  80.083  -6.693  1.00  0.00     0.185 C 
HETATM   29  N2  UNL     1      15.519  81.191  -6.148  1.00  0.00    -0.246 N 
ATOM     30  H2  UNL     1      15.304  81.371  -5.167  1.00  0.00     0.196 HD
BRANCH  28  31
HETATM   31  O9  UNL     1      15.494  79.842  -8.042  1.00  0.00    -0.343 OA
ATOM     32  H9  UNL     1      15.958  80.520  -8.519  1.00  0.00     0.219 HD
ENDBRANCH  28  31
BRANCH  29  33
HETATM   33  O10 UNL     1      16.163  82.137  -6.906  1.00  0.00    -0.288 OA
ATOM     34  H10 UNL     1      16.890  82.613  -6.522  1.00  0.00     0.244 HD
ENDBRANCH  29  33
ENDBRANCH  24  28
ENDBRANCH  21  24
ENDBRANCH  20  21
ENDBRANCH  19  20
BRANCH  17  35
HETATM   35  S1  UNL     1      15.390  73.365  -2.935  1.00  0.00     0.132 S 
HETATM   36  O5  UNL     1      14.062  73.221  -3.642  1.00  0.00    -0.593 OA
HETATM   37  O6  UNL     1      16.373  72.727  -3.926  1.00  0.00    -0.593 OA
HETATM   38  O7  UNL     1      15.430  72.434  -1.592  1.00  0.00    -0.593 OA
ENDBRANCH  17  35
TORSDOF 8
ENDMDL
MODEL 3
REMARK VINA RESULT: -6.693280544      2.734      5.784
REMARK  8 active torsions:
REMARK  status: ('A' for Active; 'I' for Inactive)
REMARK    1  A    between atoms: C13_17  and  S1_18 
REMARK    2  A    between atoms: C15_23  and  C16_24 
REMARK    3  A    between atoms: C16_24  and  C17_25 
REMARK    4  A    between atoms: C17_25  and  O8_26 
REMARK    5  A    between atoms: C17_25  and  C18_28 
REMARK    6  A    between atoms: C18_28  and  C19_32 
REMARK    7  A    between atoms: C19_32  and  O9_33 
REMARK    8  A    between atoms: N2_35  and  O10_37 
ROOT
HETATM    1  C1  UNL     1      18.494  78.351  -1.473  1.00  0.00     0.043 C 
HETATM    2  C2  UNL     1      17.014  78.144  -1.665  1.00  0.00    -0.080 C 
HETATM    3  C3  UNL     1      16.142  79.095  -1.735  1.00  0.00     0.009 C 
HETATM    4  C4  UNL     1      14.797  78.512  -1.928  1.00  0.00     0.163 C 
HETATM    5  O1  UNL     1      13.966  78.696  -0.885  1.00  0.00    -0.346 OA
HETATM    6  C5  UNL     1      13.994  77.897   0.204  1.00  0.00     0.158 C 
HETATM    7  C6  UNL     1      14.980  78.380   1.281  1.00  0.00     0.078 C 
HETATM    8  C7  UNL     1      12.624  78.025   0.899  1.00  0.00     0.078 C 
HETATM    9  O2  UNL     1      14.220  76.612  -0.204  1.00  0.00    -0.347 OA
HETATM   10  C8  UNL     1      14.004  76.317  -1.536  1.00  0.00     0.164 C 
HETATM   11  C9  UNL     1      12.615  76.339  -2.013  1.00  0.00     0.204 C 
HETATM   12  O3  UNL     1      12.413  76.763  -3.319  1.00  0.00    -0.353 OA
HETATM   13  C10 UNL     1      12.807  75.820  -4.238  1.00  0.00     0.158 C 
HETATM   14  C11 UNL     1      12.041  76.064  -5.527  1.00  0.00     0.078 C 
HETATM   15  C12 UNL     1      12.412  74.387  -3.825  1.00  0.00     0.078 C 
HETATM   16  O4  UNL     1      14.133  75.825  -4.316  1.00  0.00    -0.332 OA
HETATM   17  C13 UNL     1      14.882  76.862  -3.846  1.00  0.00     0.283 C 
HETATM   18  C14 UNL     1      15.015  77.087  -2.407  1.00  0.00     0.068 C 
HETATM   19  C15 UNL     1      16.354  76.783  -1.785  1.00  0.00     0.034 C 
ENDROOT
BRANCH  19  20
HETATM   20  C16 UNL     1      17.341  75.948  -2.461  1.00  0.00     0.048 C 
BRANCH  20  21
HETATM   21  C17 UNL     1      17.592  74.554  -2.034  1.00  0.00     0.172 C 
BRANCH  21  22
HETATM   22  O8  UNL     1      17.369  74.575  -0.617  1.00  0.00    -0.389 OA
ATOM     23  H8  UNL     1      16.423  74.544  -0.530  1.00  0.00     0.210 HD
ENDBRANCH  21  22
BRANCH  21  24
HETATM   24  C18 UNL     1      16.539  73.584  -2.511  1.00  0.00     0.085 C 
HETATM   25  N1  UNL     1      16.137  73.532  -3.730  1.00  0.00    -0.397 N 
ATOM     26  H12 UNL     1      16.572  74.183  -4.384  1.00  0.00     0.156 HD
ATOM     27  H11 UNL     1      15.424  72.876  -4.052  1.00  0.00     0.156 HD
BRANCH  24  28
HETATM   28  C19 UNL     1      15.917  72.654  -1.577  1.00  0.00     0.185 C 
HETATM   29  N2  UNL     1      16.588  71.748  -0.977  1.00  0.00    -0.246 N 
ATOM     30  H2  UNL     1      17.591  71.653  -1.137  1.00  0.00     0.196 HD
BRANCH  28  31
HETATM   31  O9  UNL     1      14.539  72.780  -1.352  1.00  0.00    -0.343 OA
ATOM     32  H9  UNL     1      14.202  72.507  -0.506  1.00  0.00     0.219 HD
ENDBRANCH  28  31
BRANCH  29  33
HETATM   33  O10 UNL     1      15.937  70.907  -0.111  1.00  0.00    -0.288 OA
ATOM     34  H10 UNL     1      15.010  70.742  -0.244  1.00  0.00     0.244 HD
ENDBRANCH  29  33
ENDBRANCH  24  28
ENDBRANCH  21  24
ENDBRANCH  20  21
ENDBRANCH  19  20
BRANCH  17  35
HETATM   35  S1  UNL     1      14.809  78.251  -4.934  1.00  0.00     0.132 S 
HETATM   36  O5  UNL     1      16.105  79.026  -4.983  1.00  0.00    -0.593 OA
HETATM   37  O6  UNL     1      14.715  77.657  -6.346  1.00  0.00    -0.593 OA
HETATM   38  O7  UNL     1      13.536  79.266  -4.784  1.00  0.00    -0.593 OA
ENDBRANCH  17  35
TORSDOF 8
ENDMDL
MODEL 4
REMARK VINA RESULT: -6.487787075      1.313      2.244
REMARK  8 active torsions:
REMARK  status: ('A' for Active; 'I' for Inactive)
REMARK    1  A    between atoms: C13_17  and  S1_18 
REMARK    2  A    between atoms: C15_23  and  C16_24 
REMARK    3  A    between atoms: C16_24  and  C17_25 
REMARK    4  A    between atoms: C17_25  and  O8_26 
REMARK    5  A    between atoms: C17_25  and  C18_28 
REMARK    6  A    between atoms: C18_28  and  C19_32 
REMARK    7  A    between atoms: C19_32  and  O9_33 
REMARK    8  A    between atoms: N2_35  and  O10_37 
ROOT
HETATM    1  C1  UNL     1      11.907  77.004  -3.896  1.00  0.00     0.043 C 
HETATM    2  C2  UNL     1      12.955  76.538  -2.918  1.00  0.00    -0.080 C 
HETATM    3  C3  UNL     1      12.748  75.684  -1.970  1.00  0.00     0.009 C 
HETATM    4  C4  UNL     1      14.004  75.473  -1.220  1.00  0.00     0.163 C 
HETATM    5  O1  UNL     1      13.967  75.922   0.048  1.00  0.00    -0.346 OA
HETATM    6  C5  UNL     1      14.176  77.220   0.355  1.00  0.00     0.158 C 
HETATM    7  C6  UNL     1      12.888  78.062   0.329  1.00  0.00     0.078 C 
HETATM    8  C7  UNL     1      14.603  77.276   1.836  1.00  0.00     0.078 C 
HETATM    9  O2  UNL     1      15.161  77.707  -0.458  1.00  0.00    -0.347 OA
HETATM   10  C8  UNL     1      15.966  76.792  -1.107  1.00  0.00     0.164 C 
HETATM   11  C9  UNL     1      16.889  76.003  -0.280  1.00  0.00     0.204 C 
HETATM   12  O3  UNL     1      17.135  74.701  -0.691  1.00  0.00    -0.353 OA
HETATM   13  C10 UNL     1      17.945  74.650  -1.800  1.00  0.00     0.158 C 
HETATM   14  C11 UNL     1      18.635  73.297  -1.823  1.00  0.00     0.078 C 
HETATM   15  C12 UNL     1      19.103  75.667  -1.736  1.00  0.00     0.078 C 
HETATM   16  O4  UNL     1      17.230  74.979  -2.870  1.00  0.00    -0.332 OA
HETATM   17  C13 UNL     1      15.866  74.968  -2.859  1.00  0.00     0.283 C 
HETATM   18  C14 UNL     1      15.124  75.982  -2.112  1.00  0.00     0.068 C 
HETATM   19  C15 UNL     1      14.391  77.028  -2.913  1.00  0.00     0.034 C 
ENDROOT
BRANCH  19  20
HETATM   20  C16 UNL     1      14.705  77.277  -4.316  1.00  0.00     0.048 C 
BRANCH  20  21
HETATM   21  C17 UNL     1      15.350  78.537  -4.749  1.00  0.00     0.172 C 
BRANCH  21  22
HETATM   22  O8  UNL     1      15.342  78.462  -6.181  1.00  0.00    -0.389 OA
ATOM     23  H8  UNL     1      15.084  79.333  -6.459  1.00  0.00     0.210 HD
ENDBRANCH  21  22
BRANCH  21  24
HETATM   24  C18 UNL     1      14.504  79.759  -4.486  1.00  0.00     0.085 C 
HETATM   25  N1  UNL     1      13.517  80.101  -5.234  1.00  0.00    -0.397 N 
ATOM     26  H12 UNL     1      13.315  79.496  -6.030  1.00  0.00     0.156 HD
ATOM     27  H11 UNL     1      12.946  80.927  -5.056  1.00  0.00     0.156 HD
BRANCH  24  28
HETATM   28  C19 UNL     1      14.793  80.624  -3.349  1.00  0.00     0.185 C 
HETATM   29  N2  UNL     1      14.300  81.798  -3.250  1.00  0.00    -0.246 N 
ATOM     30  H2  UNL     1      13.683  82.165  -3.975  1.00  0.00     0.196 HD
BRANCH  28  31
HETATM   31  O9  UNL     1      15.639  80.124  -2.349  1.00  0.00    -0.343 OA
ATOM     32  H9  UNL     1      16.341  80.686  -2.044  1.00  0.00     0.219 HD
ENDBRANCH  28  31
BRANCH  29  33
HETATM   33  O10 UNL     1      14.615  82.557  -2.151  1.00  0.00    -0.288 OA
ATOM     34  H10 UNL     1      13.910  82.886  -1.606  1.00  0.00     0.244 HD
ENDBRANCH  29  33
ENDBRANCH  24  28
ENDBRANCH  21  24
ENDBRANCH  20  21
ENDBRANCH  19  20
BRANCH  17  35
HETATM   35  S1  UNL     1      15.237  73.321  -2.939  1.00  0.00     0.132 S 
HETATM   36  O5  UNL     1      13.903  73.236  -3.644  1.00  0.00    -0.593 OA
HETATM   37  O6  UNL     1      16.175  72.573  -3.897  1.00  0.00    -0.593 OA
HETATM   38  O7  UNL     1      15.213  72.450  -1.556  1.00  0.00    -0.593 OA
ENDBRANCH  17  35
TORSDOF 8
ENDMDL
MODEL 5
REMARK VINA RESULT: -6.381878916      2.419      4.188
REMARK  8 active torsions:
REMARK  status: ('A' for Active; 'I' for Inactive)
REMARK    1  A    between atoms: C13_17  and  S1_18 
REMARK    2  A    between atoms: C15_23  and  C16_24 
REMARK    3  A    between atoms: C16_24  and  C17_25 
REMARK    4  A    between atoms: C17_25  and  O8_26 
REMARK    5  A    between atoms: C17_25  and  C18_28 
REMARK    6  A    between atoms: C18_28  and  C19_32 
REMARK    7  A    between atoms: C19_32  and  O9_33 
REMARK    8  A    between atoms: N2_35  and  O10_37 
ROOT
HETATM    1  C1  UNL     1      15.093  82.217  -1.297  1.00  0.00     0.043 C 
HETATM    2  C2  UNL     1      15.510  80.770  -1.227  1.00  0.00    -0.080 C 
HETATM    3  C3  UNL     1      15.939  80.180  -0.160  1.00  0.00     0.009 C 
HETATM    4  C4  UNL     1      16.248  78.769  -0.473  1.00  0.00     0.163 C 
HETATM    5  O1  UNL     1      17.557  78.464  -0.393  1.00  0.00    -0.346 OA
HETATM    6  C5  UNL     1      18.416  78.721  -1.403  1.00  0.00     0.158 C 
HETATM    7  C6  UNL     1      19.038  80.126  -1.323  1.00  0.00     0.078 C 
HETATM    8  C7  UNL     1      19.629  77.788  -1.218  1.00  0.00     0.078 C 
HETATM    9  O2  UNL     1      17.781  78.473  -2.588  1.00  0.00    -0.347 OA
HETATM   10  C8  UNL     1      16.634  77.705  -2.551  1.00  0.00     0.164 C 
HETATM   11  C9  UNL     1      16.787  76.284  -2.211  1.00  0.00     0.204 C 
HETATM   12  O3  UNL     1      15.755  75.702  -1.489  1.00  0.00    -0.353 OA
HETATM   13  C10 UNL     1      14.637  75.489  -2.259  1.00  0.00     0.158 C 
HETATM   14  C11 UNL     1      13.830  74.368  -1.626  1.00  0.00     0.078 C 
HETATM   15  C12 UNL     1      14.979  74.964  -3.669  1.00  0.00     0.078 C 
HETATM   16  O4  UNL     1      14.015  76.648  -2.443  1.00  0.00    -0.332 OA
HETATM   17  C13 UNL     1      14.265  77.736  -1.660  1.00  0.00     0.283 C 
HETATM   18  C14 UNL     1      15.533  78.455  -1.776  1.00  0.00     0.068 C 
HETATM   19  C15 UNL     1      15.494  79.821  -2.410  1.00  0.00     0.034 C 
ENDROOT
BRANCH  19  20
HETATM   20  C16 UNL     1      14.361  80.256  -3.221  1.00  0.00     0.048 C 
BRANCH  20  21
HETATM   21  C17 UNL     1      14.444  80.302  -4.698  1.00  0.00     0.172 C 
BRANCH  21  22
HETATM   22  O8  UNL     1      15.819  80.008  -4.982  1.00  0.00    -0.389 OA
ATOM     23  H8  UNL     1      16.271  80.202  -4.169  1.00  0.00     0.210 HD
ENDBRANCH  21  22
BRANCH  21  24
HETATM   24  C18 UNL     1      13.724  79.160  -5.372  1.00  0.00     0.085 C 
HETATM   25  N1  UNL     1      12.861  78.424  -4.770  1.00  0.00    -0.397 N 
ATOM     26  H12 UNL     1      12.669  78.650  -3.793  1.00  0.00     0.156 HD
ATOM     27  H11 UNL     1      12.374  77.651  -5.225  1.00  0.00     0.156 HD
BRANCH  24  28
HETATM   28  C19 UNL     1      13.999  78.836  -6.767  1.00  0.00     0.185 C 
HETATM   29  N2  UNL     1      14.883  77.977  -7.100  1.00  0.00    -0.246 N 
ATOM     30  H2  UNL     1      15.427  77.489  -6.389  1.00  0.00     0.196 HD
BRANCH  28  31
HETATM   31  O9  UNL     1      13.254  79.504  -7.749  1.00  0.00    -0.343 OA
ATOM     32  H9  UNL     1      13.189  80.450  -7.688  1.00  0.00     0.219 HD
ENDBRANCH  28  31
BRANCH  29  33
HETATM   33  O10 UNL     1      15.088  77.723  -8.433  1.00  0.00    -0.288 OA
ATOM     34  H10 UNL     1      14.872  78.398  -9.066  1.00  0.00     0.244 HD
ENDBRANCH  29  33
ENDBRANCH  24  28
ENDBRANCH  21  24
ENDBRANCH  20  21
ENDBRANCH  19  20
BRANCH  17  35
HETATM   35  S1  UNL     1      13.505  77.574  -0.075  1.00  0.00     0.132 S 
HETATM   36  O5  UNL     1      13.077  78.901   0.508  1.00  0.00    -0.593 OA
HETATM   37  O6  UNL     1      12.167  76.869  -0.335  1.00  0.00    -0.593 OA
HETATM   38  O7  UNL     1      14.281  76.675   1.050  1.00  0.00    -0.593 OA
ENDBRANCH  17  35
TORSDOF 8
ENDMDL
