MODEL 1
REMARK VINA RESULT: -4.695413438      0.000      0.000
REMARK  5 active torsions:
REMARK  status: ('A' for Active; 'I' for Inactive)
REMARK    1  A    between atoms: C3_3  and  C4_4 
REMARK    2  A    between atoms: C6_8  and  S1_9 
REMARK    3  A    between atoms: S1_9  and  N2_10 
REMARK    4  A    between atoms: C7_16  and  C8_17 
REMARK    5  A    between atoms: N3_25  and  C15_26 
ROOT
HETATM    1  C15 UNL     1      26.735 -54.901 -39.259  1.00  0.00     0.040 A 
HETATM    2  C16 UNL     1      25.426 -55.149 -39.566  1.00  0.00     0.031 A 
HETATM    3  C17 UNL     1      25.068 -55.803 -40.739  1.00  0.00     0.026 A 
HETATM    4  C18 UNL     1      26.048 -56.228 -41.635  1.00  0.00     0.062 A 
HETATM    5  C19 UNL     1      25.734 -56.907 -42.854  1.00  0.00     0.101 C 
HETATM    6  N4  UNL     1      25.466 -57.463 -43.830  1.00  0.00    -0.191 NA
HETATM    7  C20 UNL     1      27.362 -55.984 -41.334  1.00  0.00     0.033 A 
HETATM    8 BR1  UNL     1      28.737 -56.551 -42.534  1.00  0.00    -0.049 Br
HETATM    9  C21 UNL     1      27.690 -55.332 -40.167  1.00  0.00     0.050 A 
ENDROOT
BRANCH   1  10
HETATM   10  N3  UNL     1      27.177 -54.239 -38.067  1.00  0.00    -0.325 N 
HETATM   11  C2  UNL     1      27.339 -52.929 -37.850  1.00  0.00     0.026 A 
HETATM   12  C1  UNL     1      27.061 -51.868 -38.852  1.00  0.00     0.070 C 
HETATM   13  C3  UNL     1      27.793 -52.675 -36.585  1.00  0.00     0.033 A 
HETATM   14  C7  UNL     1      27.925 -53.896 -35.967  1.00  0.00     0.005 A 
HETATM   15  C14 UNL     1      27.534 -54.849 -36.910  1.00  0.00     0.110 A 
BRANCH  13  16
HETATM   16  C4  UNL     1      28.099 -51.381 -35.941  1.00  0.00     0.088 A 
HETATM   17  N1  UNL     1      29.219 -50.700 -35.941  1.00  0.00    -0.357 N 
HETATM   18  C5  UNL     1      29.304 -49.572 -35.318  1.00  0.00     0.121 A 
ATOM     19  H1  UNL     1      30.031 -51.064 -36.439  1.00  0.00     0.166 HD
HETATM   20  C6  UNL     1      28.192 -49.115 -34.662  1.00  0.00     0.137 A 
HETATM   21  S2  UNL     1      27.080 -50.370 -34.998  1.00  0.00    -0.057 SA
BRANCH  20  22
HETATM   22  S1  UNL     1      28.047 -47.631 -33.744  1.00  0.00     0.264 S 
HETATM   23  O1  UNL     1      28.943 -46.603 -34.346  1.00  0.00    -0.200 OA
HETATM   24  O2  UNL     1      28.423 -47.931 -32.307  1.00  0.00    -0.200 OA
BRANCH  22  25
HETATM   25  N2  UNL     1      26.435 -47.032 -33.852  1.00  0.00    -0.324 N 
ATOM     26  H22 UNL     1      25.649 -47.399 -33.316  1.00  0.00     0.169 HD
ATOM     27  H21 UNL     1      26.395 -46.266 -34.525  1.00  0.00     0.169 HD
ENDBRANCH  22  25
ENDBRANCH  20  22
ENDBRANCH  13  16
BRANCH  14  28
HETATM   28  C8  UNL     1      28.379 -54.215 -34.621  1.00  0.00    -0.023 A 
HETATM   29  C9  UNL     1      27.870 -53.542 -33.512  1.00  0.00     0.015 A 
HETATM   30  C10 UNL     1      28.250 -53.803 -32.231  1.00  0.00     0.043 A 
HETATM   31  C11 UNL     1      29.184 -54.776 -31.976  1.00  0.00     0.116 A 
HETATM   32  F1  UNL     1      29.575 -55.052 -30.713  1.00  0.00    -0.206 F 
HETATM   33  C12 UNL     1      29.709 -55.464 -33.064  1.00  0.00     0.043 A 
HETATM   34  C13 UNL     1      29.326 -55.200 -34.361  1.00  0.00     0.015 A 
ENDBRANCH  14  28
ENDBRANCH   1  10
TORSDOF 5
ENDMDL
MODEL 2
REMARK VINA RESULT: -3.954723367      0.903      1.006
REMARK  5 active torsions:
REMARK  status: ('A' for Active; 'I' for Inactive)
REMARK    1  A    between atoms: C3_3  and  C4_4 
REMARK    2  A    between atoms: C6_8  and  S1_9 
REMARK    3  A    between atoms: S1_9  and  N2_10 
REMARK    4  A    between atoms: C7_16  and  C8_17 
REMARK    5  A    between atoms: N3_25  and  C15_26 
ROOT
HETATM    1  C15 UNL     1      26.403 -54.998 -39.265  1.00  0.00     0.040 A 
HETATM    2  C16 UNL     1      25.140 -55.361 -39.642  1.00  0.00     0.031 A 
HETATM    3  C17 UNL     1      24.906 -56.046 -40.829  1.00  0.00     0.026 A 
HETATM    4  C18 UNL     1      25.967 -56.383 -41.668  1.00  0.00     0.062 A 
HETATM    5  C19 UNL     1      25.782 -57.087 -42.898  1.00  0.00     0.101 C 
HETATM    6  N4  UNL     1      25.618 -57.666 -43.884  1.00  0.00    -0.191 NA
HETATM    7  C20 UNL     1      27.236 -56.023 -41.296  1.00  0.00     0.033 A 
HETATM    8 BR1  UNL     1      28.719 -56.467 -42.417  1.00  0.00    -0.049 Br
HETATM    9  C21 UNL     1      27.441 -55.344 -40.118  1.00  0.00     0.050 A 
ENDROOT
BRANCH   1  10
HETATM   10  N3  UNL     1      26.718 -54.299 -38.055  1.00  0.00    -0.325 N 
HETATM   11  C2  UNL     1      26.504 -53.013 -37.752  1.00  0.00     0.026 A 
HETATM   12  C1  UNL     1      25.851 -52.032 -38.657  1.00  0.00     0.070 C 
HETATM   13  C3  UNL     1      26.956 -52.702 -36.500  1.00  0.00     0.033 A 
HETATM   14  C7  UNL     1      27.488 -53.860 -35.981  1.00  0.00     0.005 A 
HETATM   15  C14 UNL     1      27.325 -54.834 -36.967  1.00  0.00     0.110 A 
BRANCH  13  16
HETATM   16  C4  UNL     1      26.915 -51.412 -35.781  1.00  0.00     0.088 A 
HETATM   17  N1  UNL     1      25.879 -50.740 -35.344  1.00  0.00    -0.357 N 
HETATM   18  C5  UNL     1      26.036 -49.616 -34.726  1.00  0.00     0.121 A 
ATOM     19  H1  UNL     1      24.940 -51.107 -35.492  1.00  0.00     0.166 HD
HETATM   20  C6  UNL     1      27.313 -49.155 -34.545  1.00  0.00     0.137 A 
HETATM   21  S2  UNL     1      28.215 -50.401 -35.292  1.00  0.00    -0.057 SA
BRANCH  20  22
HETATM   22  S1  UNL     1      27.794 -47.670 -33.752  1.00  0.00     0.264 S 
HETATM   23  O1  UNL     1      28.866 -47.020 -34.559  1.00  0.00    -0.200 OA
HETATM   24  O2  UNL     1      28.274 -48.018 -32.357  1.00  0.00    -0.200 OA
BRANCH  22  25
HETATM   25  N2  UNL     1      26.463 -46.579 -33.695  1.00  0.00    -0.324 N 
ATOM     26  H22 UNL     1      25.679 -46.662 -33.047  1.00  0.00     0.169 HD
ATOM     27  H21 UNL     1      26.581 -45.851 -34.400  1.00  0.00     0.169 HD
ENDBRANCH  22  25
ENDBRANCH  20  22
ENDBRANCH  13  16
BRANCH  14  28
HETATM   28  C8  UNL     1      28.115 -54.099 -34.689  1.00  0.00    -0.023 A 
HETATM   29  C9  UNL     1      27.656 -53.464 -33.537  1.00  0.00     0.015 A 
HETATM   30  C10 UNL     1      28.197 -53.655 -32.303  1.00  0.00     0.043 A 
HETATM   31  C11 UNL     1      29.255 -54.515 -32.142  1.00  0.00     0.116 A 
HETATM   32  F1  UNL     1      29.807 -54.720 -30.927  1.00  0.00    -0.206 F 
HETATM   33  C12 UNL     1      29.735 -55.163 -33.274  1.00  0.00     0.043 A 
HETATM   34  C13 UNL     1      29.188 -54.969 -34.525  1.00  0.00     0.015 A 
ENDBRANCH  14  28
ENDBRANCH   1  10
TORSDOF 5
ENDMDL
MODEL 3
REMARK VINA RESULT: -1.226939128      2.498      2.917
REMARK  5 active torsions:
REMARK  status: ('A' for Active; 'I' for Inactive)
REMARK    1  A    between atoms: C3_3  and  C4_4 
REMARK    2  A    between atoms: C6_8  and  S1_9 
REMARK    3  A    between atoms: S1_9  and  N2_10 
REMARK    4  A    between atoms: C7_16  and  C8_17 
REMARK    5  A    between atoms: N3_25  and  C15_26 
ROOT
HETATM    1  C15 UNL     1      25.870 -54.696 -39.229  1.00  0.00     0.040 A 
HETATM    2  C16 UNL     1      24.697 -55.190 -39.728  1.00  0.00     0.031 A 
HETATM    3  C17 UNL     1      24.669 -55.962 -40.884  1.00  0.00     0.026 A 
HETATM    4  C18 UNL     1      25.850 -56.253 -41.565  1.00  0.00     0.062 A 
HETATM    5  C19 UNL     1      25.878 -57.043 -42.756  1.00  0.00     0.101 C 
HETATM    6  N4  UNL     1      25.885 -57.691 -43.712  1.00  0.00    -0.191 NA
HETATM    7  C20 UNL     1      27.030 -55.760 -41.071  1.00  0.00     0.033 A 
HETATM    8 BR1  UNL     1      28.672 -56.136 -41.973  1.00  0.00    -0.049 Br
HETATM    9  C21 UNL     1      27.031 -54.997 -39.926  1.00  0.00     0.050 A 
ENDROOT
BRANCH   1  10
HETATM   10  N3  UNL     1      25.975 -53.900 -38.042  1.00  0.00    -0.325 N 
HETATM   11  C2  UNL     1      26.901 -52.988 -37.726  1.00  0.00     0.026 A 
HETATM   12  C1  UNL     1      28.038 -52.603 -38.601  1.00  0.00     0.070 C 
HETATM   13  C3  UNL     1      26.678 -52.442 -36.492  1.00  0.00     0.033 A 
HETATM   14  C7  UNL     1      25.544 -53.045 -36.000  1.00  0.00     0.005 A 
HETATM   15  C14 UNL     1      25.129 -53.944 -36.984  1.00  0.00     0.110 A 
BRANCH  13  16
HETATM   16  C4  UNL     1      27.449 -51.409 -35.769  1.00  0.00     0.088 A 
HETATM   17  N1  UNL     1      28.595 -51.519 -35.143  1.00  0.00    -0.357 N 
HETATM   18  C5  UNL     1      29.128 -50.496 -34.562  1.00  0.00     0.121 A 
ATOM     19  H1  UNL     1      29.071 -52.420 -35.114  1.00  0.00     0.166 HD
HETATM   20  C6  UNL     1      28.461 -49.302 -34.623  1.00  0.00     0.137 A 
HETATM   21  S2  UNL     1      27.083 -49.748 -35.533  1.00  0.00    -0.057 SA
BRANCH  20  22
HETATM   22  S1  UNL     1      28.960 -47.779 -33.920  1.00  0.00     0.264 S 
HETATM   23  O1  UNL     1      27.981 -46.725 -34.309  1.00  0.00    -0.200 OA
HETATM   24  O2  UNL     1      30.354 -47.464 -34.426  1.00  0.00    -0.200 OA
BRANCH  22  25
HETATM   25  N2  UNL     1      28.935 -47.891 -32.201  1.00  0.00    -0.324 N 
ATOM     26  H22 UNL     1      28.599 -48.704 -31.684  1.00  0.00     0.169 HD
ATOM     27  H21 UNL     1      29.303 -47.032 -31.792  1.00  0.00     0.169 HD
ENDBRANCH  22  25
ENDBRANCH  20  22
ENDBRANCH  13  16
BRANCH  14  28
HETATM   28  C8  UNL     1      24.862 -52.850 -34.728  1.00  0.00    -0.023 A 
HETATM   29  C9  UNL     1      24.707 -53.901 -33.827  1.00  0.00     0.015 A 
HETATM   30  C10 UNL     1      24.088 -53.776 -32.621  1.00  0.00     0.043 A 
HETATM   31  C11 UNL     1      23.575 -52.563 -32.235  1.00  0.00     0.116 A 
HETATM   32  F1  UNL     1      22.957 -52.417 -31.043  1.00  0.00    -0.206 F 
HETATM   33  C12 UNL     1      23.716 -51.496 -33.114  1.00  0.00     0.043 A 
HETATM   34  C13 UNL     1      24.342 -51.621 -34.335  1.00  0.00     0.015 A 
ENDBRANCH  14  28
ENDBRANCH   1  10
TORSDOF 5
ENDMDL
MODEL 4
REMARK VINA RESULT: -0.983023970      4.436      5.367
REMARK  5 active torsions:
REMARK  status: ('A' for Active; 'I' for Inactive)
REMARK    1  A    between atoms: C3_3  and  C4_4 
REMARK    2  A    between atoms: C6_8  and  S1_9 
REMARK    3  A    between atoms: S1_9  and  N2_10 
REMARK    4  A    between atoms: C7_16  and  C8_17 
REMARK    5  A    between atoms: N3_25  and  C15_26 
ROOT
HETATM    1  C15 UNL     1      25.757 -54.416 -38.180  1.00  0.00     0.040 A 
HETATM    2  C16 UNL     1      24.798 -55.218 -38.733  1.00  0.00     0.031 A 
HETATM    3  C17 UNL     1      24.981 -55.817 -39.974  1.00  0.00     0.026 A 
HETATM    4  C18 UNL     1      26.161 -55.610 -40.688  1.00  0.00     0.062 A 
HETATM    5  C19 UNL     1      26.401 -56.203 -41.966  1.00  0.00     0.101 C 
HETATM    6  N4  UNL     1      26.584 -56.697 -42.994  1.00  0.00    -0.191 NA
HETATM    7  C20 UNL     1      27.127 -54.808 -40.139  1.00  0.00     0.033 A 
HETATM    8 BR1  UNL     1      28.760 -54.501 -41.084  1.00  0.00    -0.049 Br
HETATM    9  C21 UNL     1      26.921 -54.226 -38.910  1.00  0.00     0.050 A 
ENDROOT
BRANCH   1  10
HETATM   10  N3  UNL     1      25.640 -53.774 -36.904  1.00  0.00    -0.325 N 
HETATM   11  C2  UNL     1      24.742 -53.996 -35.935  1.00  0.00     0.026 A 
HETATM   12  C1  UNL     1      23.661 -55.012 -36.006  1.00  0.00     0.070 C 
HETATM   13  C3  UNL     1      24.939 -53.173 -34.861  1.00  0.00     0.033 A 
HETATM   14  C7  UNL     1      26.024 -52.385 -35.169  1.00  0.00     0.005 A 
HETATM   15  C14 UNL     1      26.438 -52.781 -36.442  1.00  0.00     0.110 A 
BRANCH  13  16
HETATM   16  C4  UNL     1      24.186 -53.090 -33.593  1.00  0.00     0.088 A 
HETATM   17  N1  UNL     1      23.846 -52.031 -32.900  1.00  0.00    -0.357 N 
HETATM   18  C5  UNL     1      23.177 -52.150 -31.802  1.00  0.00     0.121 A 
ATOM     19  H1  UNL     1      24.112 -51.104 -33.231  1.00  0.00     0.166 HD
HETATM   20  C6  UNL     1      22.836 -53.411 -31.389  1.00  0.00     0.137 A 
HETATM   21  S2  UNL     1      23.520 -54.355 -32.642  1.00  0.00    -0.057 SA
BRANCH  20  22
HETATM   22  S1  UNL     1      21.944 -53.843 -29.947  1.00  0.00     0.264 S 
HETATM   23  O1  UNL     1      22.713 -54.877 -29.198  1.00  0.00    -0.200 OA
HETATM   24  O2  UNL     1      20.583 -54.355 -30.373  1.00  0.00    -0.200 OA
BRANCH  22  25
HETATM   25  N2  UNL     1      21.796 -52.470 -28.917  1.00  0.00    -0.324 N 
ATOM     26  H22 UNL     1      22.249 -51.572 -29.089  1.00  0.00     0.169 HD
ATOM     27  H21 UNL     1      21.195 -52.694 -28.125  1.00  0.00     0.169 HD
ENDBRANCH  22  25
ENDBRANCH  20  22
ENDBRANCH  13  16
BRANCH  14  28
HETATM   28  C8  UNL     1      26.661 -51.332 -34.391  1.00  0.00    -0.023 A 
HETATM   29  C9  UNL     1      26.466 -49.988 -34.705  1.00  0.00     0.015 A 
HETATM   30  C10 UNL     1      27.027 -48.962 -34.009  1.00  0.00     0.043 A 
HETATM   31  C11 UNL     1      27.836 -49.223 -32.931  1.00  0.00     0.116 A 
HETATM   32  F1  UNL     1      28.402 -48.220 -32.226  1.00  0.00    -0.206 F 
HETATM   33  C12 UNL     1      28.048 -50.555 -32.595  1.00  0.00     0.043 A 
HETATM   34  C13 UNL     1      27.481 -51.595 -33.299  1.00  0.00     0.015 A 
ENDBRANCH  14  28
ENDBRANCH   1  10
TORSDOF 5
ENDMDL
MODEL 5
REMARK VINA RESULT: -0.834772315      1.003      1.179
REMARK  5 active torsions:
REMARK  status: ('A' for Active; 'I' for Inactive)
REMARK    1  A    between atoms: C3_3  and  C4_4 
REMARK    2  A    between atoms: C6_8  and  S1_9 
REMARK    3  A    between atoms: S1_9  and  N2_10 
REMARK    4  A    between atoms: C7_16  and  C8_17 
REMARK    5  A    between atoms: N3_25  and  C15_26 
ROOT
HETATM    1  C15 UNL     1      26.602 -55.002 -39.198  1.00  0.00     0.040 A 
HETATM    2  C16 UNL     1      25.310 -55.283 -39.546  1.00  0.00     0.031 A 
HETATM    3  C17 UNL     1      25.005 -55.932 -40.737  1.00  0.00     0.026 A 
HETATM    4  C18 UNL     1      26.022 -56.315 -41.610  1.00  0.00     0.062 A 
HETATM    5  C19 UNL     1      25.763 -56.986 -42.846  1.00  0.00     0.101 C 
HETATM    6  N4  UNL     1      25.540 -57.537 -43.836  1.00  0.00    -0.191 NA
HETATM    7  C20 UNL     1      27.319 -56.036 -41.268  1.00  0.00     0.033 A 
HETATM    8 BR1  UNL     1      28.744 -56.546 -42.436  1.00  0.00    -0.049 Br
HETATM    9  C21 UNL     1      27.595 -55.392 -40.084  1.00  0.00     0.050 A 
ENDROOT
BRANCH   1  10
HETATM   10  N3  UNL     1      26.989 -54.343 -37.986  1.00  0.00    -0.325 N 
HETATM   11  C2  UNL     1      26.884 -53.047 -37.668  1.00  0.00     0.026 A 
HETATM   12  C1  UNL     1      26.301 -52.007 -38.553  1.00  0.00     0.070 C 
HETATM   13  C3  UNL     1      27.377 -52.788 -36.419  1.00  0.00     0.033 A 
HETATM   14  C7  UNL     1      27.820 -53.990 -35.919  1.00  0.00     0.005 A 
HETATM   15  C14 UNL     1      27.566 -54.937 -36.913  1.00  0.00     0.110 A 
BRANCH  13  16
HETATM   16  C4  UNL     1      27.452 -51.507 -35.687  1.00  0.00     0.088 A 
HETATM   17  N1  UNL     1      28.330 -51.110 -34.799  1.00  0.00    -0.357 N 
HETATM   18  C5  UNL     1      28.238 -49.941 -34.259  1.00  0.00     0.121 A 
ATOM     19  H1  UNL     1      29.094 -51.730 -34.532  1.00  0.00     0.166 HD
HETATM   20  C6  UNL     1      27.199 -49.135 -34.643  1.00  0.00     0.137 A 
HETATM   21  S2  UNL     1      26.413 -50.142 -35.780  1.00  0.00    -0.057 SA
BRANCH  20  22
HETATM   22  S1  UNL     1      26.847 -47.521 -34.063  1.00  0.00     0.264 S 
HETATM   23  O1  UNL     1      26.084 -47.625 -32.786  1.00  0.00    -0.200 OA
HETATM   24  O2  UNL     1      26.053 -46.801 -35.134  1.00  0.00    -0.200 OA
BRANCH  22  25
HETATM   25  N2  UNL     1      28.316 -46.691 -33.716  1.00  0.00    -0.324 N 
ATOM     26  H22 UNL     1      28.745 -46.001 -34.332  1.00  0.00     0.169 HD
ATOM     27  H21 UNL     1      28.680 -46.994 -32.812  1.00  0.00     0.169 HD
ENDBRANCH  22  25
ENDBRANCH  20  22
ENDBRANCH  13  16
BRANCH  14  28
HETATM   28  C8  UNL     1      28.444 -54.294 -34.639  1.00  0.00    -0.023 A 
HETATM   29  C9  UNL     1      27.720 -54.225 -33.451  1.00  0.00     0.015 A 
HETATM   30  C10 UNL     1      28.247 -54.506 -32.228  1.00  0.00     0.043 A 
HETATM   31  C11 UNL     1      29.562 -54.882 -32.117  1.00  0.00     0.116 A 
HETATM   32  F1  UNL     1      30.106 -55.165 -30.913  1.00  0.00    -0.206 F 
HETATM   33  C12 UNL     1      30.310 -54.960 -33.286  1.00  0.00     0.043 A 
HETATM   34  C13 UNL     1      29.777 -54.675 -34.525  1.00  0.00     0.015 A 
ENDBRANCH  14  28
ENDBRANCH   1  10
TORSDOF 5
ENDMDL
