MODEL 1
REMARK VINA RESULT: -6.333107350      0.000      0.000
REMARK  3 active torsions:
REMARK  status: ('A' for Active; 'I' for Inactive)
REMARK    1  A    between atoms: C2_7  and  N3_8 
REMARK    2  A    between atoms: N3_8  and  C3_10 
REMARK    3  A    between atoms: C3_10  and  N4_12 
ROOT
HETATM    1  O1  UNL     1      28.901   4.903  54.523  1.00  0.00    -0.245 OA
HETATM    2  C1  UNL     1      29.914   4.897  55.297  1.00  0.00     0.353 A 
HETATM    3  N1  UNL     1      31.120   4.346  55.064  1.00  0.00    -0.237 N 
ATOM      4  H1  UNL     1      31.391   3.847  54.218  1.00  0.00     0.192 HD
HETATM    5  N2  UNL     1      31.905   4.562  56.130  1.00  0.00    -0.128 N 
ATOM      6  H2  UNL     1      32.872   4.254  56.227  1.00  0.00     0.205 HD
HETATM    7  C2  UNL     1      31.205   5.250  57.048  1.00  0.00     0.703 A 
HETATM    8  N5  UNL     1      29.987   5.447  56.519  1.00  0.00    -0.139 N 
ATOM      9  H5  UNL     1      29.225   5.944  56.981  1.00  0.00     0.189 HD
ENDROOT
BRANCH   7  10
HETATM   10  N3  UNL     1      31.572   5.668  58.219  1.00  0.00    -0.165 N 
ATOM     11  H3  UNL     1      30.981   5.440  59.019  1.00  0.00     0.186 HD
BRANCH  10  12
HETATM   12  C3  UNL     1      32.733   6.415  58.450  1.00  0.00     0.188 C 
HETATM   13  S1  UNL     1      32.793   7.990  58.042  1.00  0.00    -0.040 SA
BRANCH  12  14
HETATM   14  N4  UNL     1      33.902   5.844  59.044  1.00  0.00    -0.358 N 
HETATM   15  C4  UNL     1      34.329   4.440  58.976  1.00  0.00     0.125 C 
HETATM   16  C5  UNL     1      35.843   4.503  59.016  1.00  0.00     0.021 C 
HETATM   17  C6  UNL     1      36.186   5.983  59.187  1.00  0.00     0.021 C 
HETATM   18  C7  UNL     1      34.922   6.497  59.836  1.00  0.00     0.125 C 
ENDBRANCH  12  14
ENDBRANCH  10  12
ENDBRANCH   7  10
TORSDOF 3
ENDMDL
MODEL 2
REMARK VINA RESULT: -6.221341691      1.447      1.745
REMARK  3 active torsions:
REMARK  status: ('A' for Active; 'I' for Inactive)
REMARK    1  A    between atoms: C2_7  and  N3_8 
REMARK    2  A    between atoms: N3_8  and  C3_10 
REMARK    3  A    between atoms: C3_10  and  N4_12 
ROOT
HETATM    1  O1  UNL     1      26.932   5.034  56.209  1.00  0.00    -0.245 OA
HETATM    2  C1  UNL     1      28.145   5.104  55.826  1.00  0.00     0.353 A 
HETATM    3  N1  UNL     1      28.598   5.354  54.583  1.00  0.00    -0.237 N 
ATOM      4  H1  UNL     1      28.018   5.524  53.762  1.00  0.00     0.192 HD
HETATM    5  N2  UNL     1      29.939   5.340  54.603  1.00  0.00    -0.128 N 
ATOM      6  H2  UNL     1      30.548   5.500  53.800  1.00  0.00     0.205 HD
HETATM    7  C2  UNL     1      30.349   5.082  55.857  1.00  0.00     0.703 A 
HETATM    8  N5  UNL     1      29.235   4.941  56.592  1.00  0.00    -0.139 N 
ATOM      9  H5  UNL     1      29.219   4.738  57.592  1.00  0.00     0.189 HD
ENDROOT
BRANCH   7  10
HETATM   10  N3  UNL     1      31.554   4.978  56.324  1.00  0.00    -0.165 N 
ATOM     11  H3  UNL     1      32.128   4.196  56.007  1.00  0.00     0.186 HD
BRANCH  10  12
HETATM   12  C3  UNL     1      32.113   5.877  57.239  1.00  0.00     0.188 C 
HETATM   13  S1  UNL     1      31.737   7.460  57.173  1.00  0.00    -0.040 SA
BRANCH  12  14
HETATM   14  N4  UNL     1      33.025   5.460  58.259  1.00  0.00    -0.358 N 
HETATM   15  C4  UNL     1      33.435   4.083  58.564  1.00  0.00     0.125 C 
HETATM   16  C5  UNL     1      34.858   4.216  59.071  1.00  0.00     0.021 C 
HETATM   17  C6  UNL     1      35.145   5.718  59.093  1.00  0.00     0.021 C 
HETATM   18  C7  UNL     1      33.746   6.275  59.213  1.00  0.00     0.125 C 
ENDBRANCH  12  14
ENDBRANCH  10  12
ENDBRANCH   7  10
TORSDOF 3
ENDMDL
MODEL 3
REMARK VINA RESULT: -6.209537292      1.683      2.525
REMARK  3 active torsions:
REMARK  status: ('A' for Active; 'I' for Inactive)
REMARK    1  A    between atoms: C2_7  and  N3_8 
REMARK    2  A    between atoms: N3_8  and  C3_10 
REMARK    3  A    between atoms: C3_10  and  N4_12 
ROOT
HETATM    1  O1  UNL     1      26.463   4.552  55.183  1.00  0.00    -0.245 OA
HETATM    2  C1  UNL     1      27.554   5.073  55.584  1.00  0.00     0.353 A 
HETATM    3  N1  UNL     1      27.740   6.318  56.063  1.00  0.00    -0.237 N 
ATOM      4  H1  UNL     1      27.016   7.027  56.172  1.00  0.00     0.192 HD
HETATM    5  N2  UNL     1      29.037   6.470  56.373  1.00  0.00    -0.128 N 
ATOM      6  H2  UNL     1      29.460   7.314  56.758  1.00  0.00     0.205 HD
HETATM    7  C2  UNL     1      29.684   5.326  56.094  1.00  0.00     0.703 A 
HETATM    8  N5  UNL     1      28.759   4.481  55.612  1.00  0.00    -0.139 N 
ATOM      9  H5  UNL     1      28.944   3.525  55.309  1.00  0.00     0.189 HD
ENDROOT
BRANCH   7  10
HETATM   10  N3  UNL     1      30.939   5.034  56.237  1.00  0.00    -0.165 N 
ATOM     11  H3  UNL     1      31.332   4.298  55.650  1.00  0.00     0.186 HD
BRANCH  10  12
HETATM   12  C3  UNL     1      31.785   5.669  57.153  1.00  0.00     0.188 C 
HETATM   13  S1  UNL     1      32.190   7.233  56.951  1.00  0.00    -0.040 SA
BRANCH  12  14
HETATM   14  N4  UNL     1      32.326   4.991  58.290  1.00  0.00    -0.358 N 
HETATM   15  C4  UNL     1      33.537   4.162  58.327  1.00  0.00     0.125 C 
HETATM   16  C5  UNL     1      34.084   4.355  59.729  1.00  0.00     0.021 C 
HETATM   17  C6  UNL     1      33.072   5.251  60.443  1.00  0.00     0.021 C 
HETATM   18  C7  UNL     1      31.822   4.961  59.646  1.00  0.00     0.125 C 
ENDBRANCH  12  14
ENDBRANCH  10  12
ENDBRANCH   7  10
TORSDOF 3
ENDMDL
MODEL 4
REMARK VINA RESULT: -6.201029563      0.829      1.166
REMARK  3 active torsions:
REMARK  status: ('A' for Active; 'I' for Inactive)
REMARK    1  A    between atoms: C2_7  and  N3_8 
REMARK    2  A    between atoms: N3_8  and  C3_10 
REMARK    3  A    between atoms: C3_10  and  N4_12 
ROOT
HETATM    1  O1  UNL     1      30.857   3.846  54.323  1.00  0.00    -0.245 OA
HETATM    2  C1  UNL     1      30.758   4.688  55.275  1.00  0.00     0.353 A 
HETATM    3  N1  UNL     1      29.954   5.766  55.333  1.00  0.00    -0.237 N 
ATOM      4  H1  UNL     1      29.302   6.061  54.608  1.00  0.00     0.192 HD
HETATM    5  N2  UNL     1      30.154   6.389  56.505  1.00  0.00    -0.128 N 
ATOM      6  H2  UNL     1      29.677   7.235  56.817  1.00  0.00     0.205 HD
HETATM    7  C2  UNL     1      31.086   5.713  57.199  1.00  0.00     0.703 A 
HETATM    8  N5  UNL     1      31.443   4.673  56.429  1.00  0.00    -0.139 N 
ATOM      9  H5  UNL     1      32.138   3.971  56.684  1.00  0.00     0.189 HD
ENDROOT
BRANCH   7  10
HETATM   10  N3  UNL     1      31.579   5.960  58.372  1.00  0.00    -0.165 N 
ATOM     11  H3  UNL     1      31.054   5.650  59.190  1.00  0.00     0.186 HD
BRANCH  10  12
HETATM   12  C3  UNL     1      32.790   6.628  58.581  1.00  0.00     0.188 C 
HETATM   13  S1  UNL     1      32.932   8.210  58.217  1.00  0.00    -0.040 SA
BRANCH  12  14
HETATM   14  N4  UNL     1      33.943   5.970  59.114  1.00  0.00    -0.358 N 
HETATM   15  C4  UNL     1      34.293   4.552  58.968  1.00  0.00     0.125 C 
HETATM   16  C5  UNL     1      35.810   4.535  58.968  1.00  0.00     0.021 C 
HETATM   17  C6  UNL     1      36.234   5.985  59.198  1.00  0.00     0.021 C 
HETATM   18  C7  UNL     1      35.016   6.531  59.906  1.00  0.00     0.125 C 
ENDBRANCH  12  14
ENDBRANCH  10  12
ENDBRANCH   7  10
TORSDOF 3
ENDMDL
MODEL 5
REMARK VINA RESULT: -6.170650068      1.230      1.589
REMARK  3 active torsions:
REMARK  status: ('A' for Active; 'I' for Inactive)
REMARK    1  A    between atoms: C2_7  and  N3_8 
REMARK    2  A    between atoms: N3_8  and  C3_10 
REMARK    3  A    between atoms: C3_10  and  N4_12 
ROOT
HETATM    1  O1  UNL     1      28.797   4.583  54.831  1.00  0.00    -0.245 OA
HETATM    2  C1  UNL     1      29.856   4.779  55.512  1.00  0.00     0.353 A 
HETATM    3  N1  UNL     1      31.096   4.324  55.247  1.00  0.00    -0.237 N 
ATOM      4  H1  UNL     1      31.359   3.749  54.448  1.00  0.00     0.192 HD
HETATM    5  N2  UNL     1      31.926   4.754  56.209  1.00  0.00    -0.128 N 
ATOM      6  H2  UNL     1      32.926   4.560  56.261  1.00  0.00     0.205 HD
HETATM    7  C2  UNL     1      31.223   5.483  57.092  1.00  0.00     0.703 A 
HETATM    8  N5  UNL     1      29.956   5.488  56.647  1.00  0.00    -0.139 N 
ATOM      9  H5  UNL     1      29.179   5.962  57.107  1.00  0.00     0.189 HD
ENDROOT
BRANCH   7  10
HETATM   10  N3  UNL     1      31.624   6.084  58.168  1.00  0.00    -0.165 N 
ATOM     11  H3  UNL     1      31.315   7.043  58.327  1.00  0.00     0.186 HD
BRANCH  10  12
HETATM   12  C3  UNL     1      32.458   5.493  59.124  1.00  0.00     0.188 C 
HETATM   13  S1  UNL     1      31.822   4.765  60.434  1.00  0.00    -0.040 SA
BRANCH  12  14
HETATM   14  N4  UNL     1      33.883   5.497  59.000  1.00  0.00    -0.358 N 
HETATM   15  C4  UNL     1      34.764   6.673  59.002  1.00  0.00     0.125 C 
HETATM   16  C5  UNL     1      36.053   6.177  59.628  1.00  0.00     0.021 C 
HETATM   17  C6  UNL     1      35.839   4.684  59.878  1.00  0.00     0.021 C 
HETATM   18  C7  UNL     1      34.779   4.371  58.848  1.00  0.00     0.125 C 
ENDBRANCH  12  14
ENDBRANCH  10  12
ENDBRANCH   7  10
TORSDOF 3
ENDMDL
