MODEL 1
REMARK VINA RESULT: -6.819390808      0.000      0.000
REMARK  3 active torsions:
REMARK  status: ('A' for Active; 'I' for Inactive)
REMARK    1  A    between atoms: C2_2  and  C3_3 
REMARK    2  A    between atoms: C6_11  and  S1_12 
REMARK    3  A    between atoms: S1_12  and  N3_13 
ROOT
HETATM    1  C3  UNL     1      32.113   8.461  59.087  1.00  0.00     0.057 A 
HETATM    2  N1  UNL     1      33.130   7.591  59.030  1.00  0.00    -0.320 N 
ATOM      3  H1  UNL     1      33.970   7.742  59.589  1.00  0.00     0.169 HD
HETATM    4  C4  UNL     1      33.027   6.501  58.215  1.00  0.00     0.275 A 
HETATM    5  O1  UNL     1      34.003   5.720  58.199  1.00  0.00    -0.266 OA
HETATM    6  C5  UNL     1      31.912   6.262  57.444  1.00  0.00     0.131 A 
HETATM    7  N2  UNL     1      31.523   5.317  56.574  1.00  0.00    -0.325 N 
ATOM      8  H2  UNL     1      32.083   4.507  56.310  1.00  0.00     0.168 HD
HETATM    9  C6  UNL     1      30.295   5.587  56.098  1.00  0.00     0.225 A 
HETATM   10  N4  UNL     1      29.913   6.729  56.688  1.00  0.00    -0.328 N 
ATOM     11  H4  UNL     1      29.019   7.193  56.527  1.00  0.00     0.168 HD
HETATM   12  C7  UNL     1      30.867   7.181  57.519  1.00  0.00     0.090 A 
HETATM   13  C8  UNL     1      30.963   8.278  58.338  1.00  0.00     0.100 A 
HETATM   14  C9  UNL     1      29.873   9.239  58.418  1.00  0.00     0.104 C 
HETATM   15  N5  UNL     1      29.005  10.000  58.500  1.00  0.00    -0.191 NA
ENDROOT
BRANCH   1  16
HETATM   16  C2  UNL     1      32.161   9.646  59.940  1.00  0.00     0.021 C 
HETATM   17  C1  UNL     1      32.849  10.706  59.591  1.00  0.00     0.013 C 
ENDBRANCH   1  16
BRANCH   9  18
HETATM   18  S1  UNL     1      29.372   4.627  54.929  1.00  0.00     0.288 S 
HETATM   19  O2  UNL     1      30.088   3.348  54.610  1.00  0.00    -0.198 OA
HETATM   20  O3  UNL     1      29.211   5.427  53.665  1.00  0.00    -0.198 OA
BRANCH  18  21
HETATM   21  N3  UNL     1      27.788   4.331  55.552  1.00  0.00    -0.322 N 
ATOM     22  H32 UNL     1      27.495   4.538  56.506  1.00  0.00     0.169 HD
ATOM     23  H31 UNL     1      27.207   3.921  54.820  1.00  0.00     0.169 HD
ENDBRANCH  18  21
ENDBRANCH   9  18
TORSDOF 3
ENDMDL
MODEL 2
REMARK VINA RESULT: -6.800538729      2.388      3.713
REMARK  3 active torsions:
REMARK  status: ('A' for Active; 'I' for Inactive)
REMARK    1  A    between atoms: C2_2  and  C3_3 
REMARK    2  A    between atoms: C6_11  and  S1_12 
REMARK    3  A    between atoms: S1_12  and  N3_13 
ROOT
HETATM    1  C3  UNL     1      31.953  10.815  59.481  1.00  0.00     0.057 A 
HETATM    2  N1  UNL     1      30.615  10.774  59.532  1.00  0.00    -0.320 N 
ATOM      3  H1  UNL     1      30.090  11.540  59.955  1.00  0.00     0.169 HD
HETATM    4  C4  UNL     1      29.963   9.693  59.011  1.00  0.00     0.275 A 
HETATM    5  O1  UNL     1      28.716   9.704  59.084  1.00  0.00    -0.266 OA
HETATM    6  C5  UNL     1      30.633   8.638  58.434  1.00  0.00     0.131 A 
HETATM    7  N2  UNL     1      30.291   7.476  57.857  1.00  0.00    -0.325 N 
ATOM      8  H2  UNL     1      29.334   7.147  57.740  1.00  0.00     0.168 HD
HETATM    9  C6  UNL     1      31.386   6.806  57.454  1.00  0.00     0.225 A 
HETATM   10  N4  UNL     1      32.433   7.573  57.791  1.00  0.00    -0.328 N 
ATOM     11  H4  UNL     1      33.408   7.331  57.615  1.00  0.00     0.168 HD
HETATM   12  C7  UNL     1      32.025   8.703  58.393  1.00  0.00     0.090 A 
HETATM   13  C8  UNL     1      32.686   9.787  58.914  1.00  0.00     0.100 A 
HETATM   14  C9  UNL     1      34.139   9.858  58.872  1.00  0.00     0.104 C 
HETATM   15  N5  UNL     1      35.294   9.929  58.828  1.00  0.00    -0.191 NA
ENDROOT
BRANCH   1  16
HETATM   16  C2  UNL     1      32.709  11.943  60.019  1.00  0.00     0.021 C 
HETATM   17  C1  UNL     1      32.106  13.040  60.411  1.00  0.00     0.013 C 
ENDBRANCH   1  16
BRANCH   9  18
HETATM   18  S1  UNL     1      31.432   5.231  56.643  1.00  0.00     0.288 S 
HETATM   19  O2  UNL     1      31.879   5.381  55.218  1.00  0.00    -0.198 OA
HETATM   20  O3  UNL     1      30.050   4.636  56.663  1.00  0.00    -0.198 OA
BRANCH  18  21
HETATM   21  N3  UNL     1      32.463   4.161  57.524  1.00  0.00    -0.322 N 
ATOM     22  H32 UNL     1      33.346   3.791  57.172  1.00  0.00     0.169 HD
ATOM     23  H31 UNL     1      32.049   3.966  58.435  1.00  0.00     0.169 HD
ENDBRANCH  18  21
ENDBRANCH   9  18
TORSDOF 3
ENDMDL
MODEL 3
REMARK VINA RESULT: -6.586177598      2.542      3.691
REMARK  3 active torsions:
REMARK  status: ('A' for Active; 'I' for Inactive)
REMARK    1  A    between atoms: C2_2  and  C3_3 
REMARK    2  A    between atoms: C6_11  and  S1_12 
REMARK    3  A    between atoms: S1_12  and  N3_13 
ROOT
HETATM    1  C3  UNL     1      31.769  11.047  59.745  1.00  0.00     0.057 A 
HETATM    2  N1  UNL     1      30.433  11.087  59.848  1.00  0.00    -0.320 N 
ATOM      3  H1  UNL     1      29.977  11.839  60.365  1.00  0.00     0.169 HD
HETATM    4  C4  UNL     1      29.691  10.109  59.250  1.00  0.00     0.275 A 
HETATM    5  O1  UNL     1      28.451  10.193  59.375  1.00  0.00    -0.266 OA
HETATM    6  C5  UNL     1      30.267   9.078  58.544  1.00  0.00     0.131 A 
HETATM    7  N2  UNL     1      29.827   8.004  57.869  1.00  0.00    -0.325 N 
ATOM      8  H2  UNL     1      28.845   7.751  57.760  1.00  0.00     0.168 HD
HETATM    9  C6  UNL     1      30.859   7.310  57.356  1.00  0.00     0.225 A 
HETATM   10  N4  UNL     1      31.967   7.969  57.725  1.00  0.00    -0.328 N 
ATOM     11  H4  UNL     1      32.916   7.684  57.485  1.00  0.00     0.168 HD
HETATM   12  C7  UNL     1      31.658   9.056  58.452  1.00  0.00     0.090 A 
HETATM   13  C8  UNL     1      32.410  10.037  59.049  1.00  0.00     0.100 A 
HETATM   14  C9  UNL     1      33.862  10.018  58.954  1.00  0.00     0.104 C 
HETATM   15  N5  UNL     1      35.016  10.018  58.869  1.00  0.00    -0.191 NA
ENDROOT
BRANCH   1  16
HETATM   16  C2  UNL     1      32.618  12.064  60.360  1.00  0.00     0.021 C 
HETATM   17  C1  UNL     1      32.224  13.311  60.457  1.00  0.00     0.013 C 
ENDBRANCH   1  16
BRANCH   9  18
HETATM   18  S1  UNL     1      30.768   5.826  56.392  1.00  0.00     0.288 S 
HETATM   19  O2  UNL     1      31.271   4.651  57.179  1.00  0.00    -0.198 OA
HETATM   20  O3  UNL     1      31.620   5.994  55.163  1.00  0.00    -0.198 OA
BRANCH  18  21
HETATM   21  N3  UNL     1      29.142   5.585  55.860  1.00  0.00    -0.322 N 
ATOM     22  H32 UNL     1      28.635   6.223  55.246  1.00  0.00     0.169 HD
ATOM     23  H31 UNL     1      28.782   4.717  56.254  1.00  0.00     0.169 HD
ENDBRANCH  18  21
ENDBRANCH   9  18
TORSDOF 3
ENDMDL
MODEL 4
REMARK VINA RESULT: -6.529441034      1.782      2.903
REMARK  3 active torsions:
REMARK  status: ('A' for Active; 'I' for Inactive)
REMARK    1  A    between atoms: C2_2  and  C3_3 
REMARK    2  A    between atoms: C6_11  and  S1_12 
REMARK    3  A    between atoms: S1_12  and  N3_13 
ROOT
HETATM    1  C3  UNL     1      32.333   8.365  59.054  1.00  0.00     0.057 A 
HETATM    2  N1  UNL     1      31.255   9.154  58.954  1.00  0.00    -0.320 N 
ATOM      3  H1  UNL     1      31.197  10.020  59.489  1.00  0.00     0.169 HD
HETATM    4  C4  UNL     1      30.235   8.783  58.125  1.00  0.00     0.275 A 
HETATM    5  O1  UNL     1      29.254   9.554  58.066  1.00  0.00    -0.266 OA
HETATM    6  C5  UNL     1      30.274   7.622  57.386  1.00  0.00     0.131 A 
HETATM    7  N2  UNL     1      29.461   7.003  56.516  1.00  0.00    -0.325 N 
ATOM      8  H2  UNL     1      28.550   7.355  56.224  1.00  0.00     0.168 HD
HETATM    9  C6  UNL     1      30.015   5.857  56.082  1.00  0.00     0.225 A 
HETATM   10  N4  UNL     1      31.201   5.762  56.701  1.00  0.00    -0.328 N 
ATOM     11  H4  UNL     1      31.859   4.994  56.575  1.00  0.00     0.168 HD
HETATM   12  C7  UNL     1      31.405   6.816  57.508  1.00  0.00     0.090 A 
HETATM   13  C8  UNL     1      32.434   7.184  58.339  1.00  0.00     0.100 A 
HETATM   14  C9  UNL     1      33.616   6.345  58.468  1.00  0.00     0.104 C 
HETATM   15  N5  UNL     1      34.567   5.692  58.564  1.00  0.00    -0.191 NA
ENDROOT
BRANCH   1  16
HETATM   16  C2  UNL     1      33.457   8.706  59.923  1.00  0.00     0.021 C 
HETATM   17  C1  UNL     1      34.198   9.763  59.692  1.00  0.00     0.013 C 
ENDBRANCH   1  16
BRANCH   9  18
HETATM   18  S1  UNL     1      29.317   4.707  54.928  1.00  0.00     0.288 S 
HETATM   19  O2  UNL     1      30.215   3.519  54.754  1.00  0.00    -0.198 OA
HETATM   20  O3  UNL     1      29.150   5.395  53.600  1.00  0.00    -0.198 OA
BRANCH  18  21
HETATM   21  N3  UNL     1      27.742   4.241  55.464  1.00  0.00    -0.322 N 
ATOM     22  H32 UNL     1      27.465   3.282  55.676  1.00  0.00     0.169 HD
ATOM     23  H31 UNL     1      27.148   5.067  55.531  1.00  0.00     0.169 HD
ENDBRANCH  18  21
ENDBRANCH   9  18
TORSDOF 3
ENDMDL
MODEL 5
REMARK VINA RESULT: -6.509610258      2.256      2.908
REMARK  3 active torsions:
REMARK  status: ('A' for Active; 'I' for Inactive)
REMARK    1  A    between atoms: C2_2  and  C3_3 
REMARK    2  A    between atoms: C6_11  and  S1_12 
REMARK    3  A    between atoms: S1_12  and  N3_13 
ROOT
HETATM    1  C3  UNL     1      31.444  10.802  59.688  1.00  0.00     0.057 A 
HETATM    2  N1  UNL     1      32.758  10.817  59.422  1.00  0.00    -0.320 N 
ATOM      3  H1  UNL     1      33.333  11.610  59.705  1.00  0.00     0.169 HD
HETATM    4  C4  UNL     1      33.315   9.755  58.767  1.00  0.00     0.275 A 
HETATM    5  O1  UNL     1      34.542   9.817  58.545  1.00  0.00    -0.266 OA
HETATM    6  C5  UNL     1      32.573   8.667  58.367  1.00  0.00     0.131 A 
HETATM    7  N2  UNL     1      32.818   7.513  57.728  1.00  0.00    -0.325 N 
ATOM      8  H2  UNL     1      33.735   7.222  57.389  1.00  0.00     0.168 HD
HETATM    9  C6  UNL     1      31.689   6.794  57.597  1.00  0.00     0.225 A 
HETATM   10  N4  UNL     1      30.719   7.522  58.168  1.00  0.00    -0.328 N 
ATOM     11  H4  UNL     1      29.741   7.239  58.226  1.00  0.00     0.168 HD
HETATM   12  C7  UNL     1      31.208   8.675  58.653  1.00  0.00     0.090 A 
HETATM   13  C8  UNL     1      30.643   9.738  59.312  1.00  0.00     0.100 A 
HETATM   14  C9  UNL     1      29.219   9.749  59.613  1.00  0.00     0.104 C 
HETATM   15  N5  UNL     1      28.090   9.759  59.870  1.00  0.00    -0.191 NA
ENDROOT
BRANCH   1  16
HETATM   16  C2  UNL     1      30.789  11.906  60.385  1.00  0.00     0.021 C 
HETATM   17  C1  UNL     1      31.280  13.121  60.345  1.00  0.00     0.013 C 
ENDBRANCH   1  16
BRANCH   9  18
HETATM   18  S1  UNL     1      31.521   5.208  56.824  1.00  0.00     0.288 S 
HETATM   19  O2  UNL     1      31.844   5.293  55.362  1.00  0.00    -0.198 OA
HETATM   20  O3  UNL     1      30.101   4.738  56.987  1.00  0.00    -0.198 OA
BRANCH  18  21
HETATM   21  N3  UNL     1      32.534   4.065  57.633  1.00  0.00    -0.322 N 
ATOM     22  H32 UNL     1      33.514   3.899  57.405  1.00  0.00     0.169 HD
ATOM     23  H31 UNL     1      31.998   3.593  58.361  1.00  0.00     0.169 HD
ENDBRANCH  18  21
ENDBRANCH   9  18
TORSDOF 3
ENDMDL
