MODEL 1
REMARK VINA RESULT: -9.069204285      0.000      0.000
REMARK  7 active torsions:
REMARK  status: ('A' for Active; 'I' for Inactive)
REMARK    1  A    between atoms: C2_2  and  N1_4 
REMARK    2  A    between atoms: N1_4  and  C4_7 
REMARK    3  A    between atoms: C4_7  and  C5_8 
REMARK    4  A    between atoms: C5_8  and  C6_9 
REMARK    5  A    between atoms: C5_8  and  C19_22 
REMARK    6  A    between atoms: C7_10  and  C8_11 
REMARK    7  A    between atoms: C8_11  and  C9_12 
ROOT
HETATM    1  C6  UNL     1      63.149  47.182  30.102  1.00  0.00    -0.100 C 
HETATM    2  C7  UNL     1      64.061  47.492  30.832  1.00  0.00    -0.106 C 
ENDROOT
BRANCH   1   3
HETATM    3  C5  UNL     1      62.041  46.805  29.171  1.00  0.00     0.094 C 
BRANCH   3   4
HETATM    4  C4  UNL     1      60.783  46.743  29.940  1.00  0.00     0.250 C 
BRANCH   4   5
HETATM    5  N1  UNL     1      60.028  45.544  29.684  1.00  0.00    -0.070 N 
ATOM      6  H12 UNL     1      60.148  44.848  30.419  1.00  0.00     0.277 HD
ATOM      7  H11 UNL     1      60.412  45.005  28.908  1.00  0.00     0.277 HD
BRANCH   5   8
HETATM    8  C2  UNL     1      58.602  45.894  29.472  1.00  0.00     0.177 C 
HETATM    9  C1  UNL     1      58.461  47.127  28.641  1.00  0.00     0.039 C 
HETATM   10  C3  UNL     1      58.020  46.076  30.845  1.00  0.00     0.039 C 
ENDBRANCH   5   8
ENDBRANCH   4   5
ENDBRANCH   3   4
BRANCH   3  11
HETATM   11  C19 UNL     1      62.059  47.570  27.919  1.00  0.00    -0.006 C 
HETATM   12  C20 UNL     1      61.884  49.084  28.300  1.00  0.00     0.011 C 
HETATM   13  C21 UNL     1      63.429  47.539  27.215  1.00  0.00     0.011 C 
ENDBRANCH   3  11
ENDBRANCH   1   3
BRANCH   2  14
HETATM   14  C8  UNL     1      65.165  47.854  31.671  1.00  0.00     0.100 C 
BRANCH  14  15
HETATM   15  C9  UNL     1      65.137  47.239  33.015  1.00  0.00     0.012 C 
HETATM   16  C10 UNL     1      66.564  46.705  33.248  1.00  0.00    -0.043 C 
HETATM   17  C11 UNL     1      66.886  45.768  32.070  1.00  0.00     0.015 C 
HETATM   18  C12 UNL     1      67.599  47.776  33.220  1.00  0.00     0.015 C 
HETATM   19  C13 UNL     1      66.576  45.835  34.462  1.00  0.00     0.009 C 
HETATM   20  C14 UNL     1      65.887  46.445  35.646  1.00  0.00     0.001 C 
HETATM   21  C15 UNL     1      65.447  47.852  35.440  1.00  0.00     0.009 C 
HETATM   22  C16 UNL     1      64.637  48.035  34.148  1.00  0.00    -0.043 C 
HETATM   23  C17 UNL     1      64.535  49.514  33.936  1.00  0.00     0.015 C 
HETATM   24  C18 UNL     1      63.227  47.557  34.539  1.00  0.00     0.015 C 
ENDBRANCH  14  15
ENDBRANCH   2  14
TORSDOF 7
ENDMDL
MODEL 2
REMARK VINA RESULT: -8.649284726      1.026      1.239
REMARK  7 active torsions:
REMARK  status: ('A' for Active; 'I' for Inactive)
REMARK    1  A    between atoms: C2_2  and  N1_4 
REMARK    2  A    between atoms: N1_4  and  C4_7 
REMARK    3  A    between atoms: C4_7  and  C5_8 
REMARK    4  A    between atoms: C5_8  and  C6_9 
REMARK    5  A    between atoms: C5_8  and  C19_22 
REMARK    6  A    between atoms: C7_10  and  C8_11 
REMARK    7  A    between atoms: C8_11  and  C9_12 
ROOT
HETATM    1  C6  UNL     1      63.729  47.143  29.688  1.00  0.00    -0.100 C 
HETATM    2  C7  UNL     1      64.680  47.219  30.428  1.00  0.00    -0.106 C 
ENDROOT
BRANCH   1   3
HETATM    3  C5  UNL     1      62.571  47.046  28.745  1.00  0.00     0.094 C 
BRANCH   3   4
HETATM    4  C4  UNL     1      61.324  47.021  29.534  1.00  0.00     0.250 C 
BRANCH   4   5
HETATM    5  N1  UNL     1      60.750  45.705  29.632  1.00  0.00    -0.070 N 
ATOM      6  H12 UNL     1      61.067  45.206  30.462  1.00  0.00     0.277 HD
ATOM      7  H11 UNL     1      61.122  45.068  28.927  1.00  0.00     0.277 HD
BRANCH   5   8
HETATM    8  C2  UNL     1      59.271  45.806  29.571  1.00  0.00     0.177 C 
HETATM    9  C1  UNL     1      58.838  46.974  28.747  1.00  0.00     0.039 C 
HETATM   10  C3  UNL     1      58.813  45.928  30.997  1.00  0.00     0.039 C 
ENDBRANCH   5   8
ENDBRANCH   4   5
ENDBRANCH   3   4
BRANCH   3  11
HETATM   11  C19 UNL     1      62.670  47.983  27.620  1.00  0.00    -0.006 C 
HETATM   12  C20 UNL     1      61.942  49.304  28.054  1.00  0.00     0.011 C 
HETATM   13  C21 UNL     1      64.113  48.446  27.347  1.00  0.00     0.011 C 
ENDBRANCH   3  11
ENDBRANCH   1   3
BRANCH   2  14
HETATM   14  C8  UNL     1      65.831  47.293  31.281  1.00  0.00     0.100 C 
BRANCH  14  15
HETATM   15  C9  UNL     1      65.757  46.430  32.480  1.00  0.00     0.012 C 
HETATM   16  C10 UNL     1      66.960  45.473  32.368  1.00  0.00    -0.043 C 
HETATM   17  C11 UNL     1      66.840  44.767  31.005  1.00  0.00     0.015 C 
HETATM   18  C12 UNL     1      68.270  46.183  32.352  1.00  0.00     0.015 C 
HETATM   19  C13 UNL     1      66.829  44.391  33.388  1.00  0.00     0.009 C 
HETATM   20  C14 UNL     1      66.501  44.895  34.762  1.00  0.00     0.001 C 
HETATM   21  C15 UNL     1      66.506  46.379  34.886  1.00  0.00     0.009 C 
HETATM   22  C16 UNL     1      65.659  47.066  33.805  1.00  0.00    -0.043 C 
HETATM   23  C17 UNL     1      66.006  48.521  33.878  1.00  0.00     0.015 C 
HETATM   24  C18 UNL     1      64.222  46.937  34.340  1.00  0.00     0.015 C 
ENDBRANCH  14  15
ENDBRANCH   2  14
TORSDOF 7
ENDMDL
MODEL 3
REMARK VINA RESULT: -8.636482846      1.191      3.085
REMARK  7 active torsions:
REMARK  status: ('A' for Active; 'I' for Inactive)
REMARK    1  A    between atoms: C2_2  and  N1_4 
REMARK    2  A    between atoms: N1_4  and  C4_7 
REMARK    3  A    between atoms: C4_7  and  C5_8 
REMARK    4  A    between atoms: C5_8  and  C6_9 
REMARK    5  A    between atoms: C5_8  and  C19_22 
REMARK    6  A    between atoms: C7_10  and  C8_11 
REMARK    7  A    between atoms: C8_11  and  C9_12 
ROOT
HETATM    1  C6  UNL     1      62.586  47.399  30.477  1.00  0.00    -0.100 C 
HETATM    2  C7  UNL     1      63.641  47.518  31.052  1.00  0.00    -0.106 C 
ENDROOT
BRANCH   1   3
HETATM    3  C5  UNL     1      61.290  47.271  29.740  1.00  0.00     0.094 C 
BRANCH   3   4
HETATM    4  C4  UNL     1      61.535  47.540  28.310  1.00  0.00     0.250 C 
BRANCH   4   5
HETATM    5  N1  UNL     1      62.175  48.809  28.080  1.00  0.00    -0.070 N 
ATOM      6  H12 UNL     1      62.383  49.300  28.950  1.00  0.00     0.277 HD
ATOM      7  H11 UNL     1      61.539  49.494  27.674  1.00  0.00     0.277 HD
BRANCH   5   8
HETATM    8  C2  UNL     1      63.387  48.607  27.248  1.00  0.00     0.177 C 
HETATM    9  C1  UNL     1      63.805  47.174  27.232  1.00  0.00     0.039 C 
HETATM   10  C3  UNL     1      64.444  49.491  27.848  1.00  0.00     0.039 C 
ENDBRANCH   5   8
ENDBRANCH   4   5
ENDBRANCH   3   4
BRANCH   3  11
HETATM   11  C19 UNL     1      60.538  46.066  30.108  1.00  0.00    -0.006 C 
HETATM   12  C20 UNL     1      60.229  46.166  31.645  1.00  0.00     0.011 C 
HETATM   13  C21 UNL     1      59.139  46.011  29.468  1.00  0.00     0.011 C 
ENDBRANCH   3  11
ENDBRANCH   1   3
BRANCH   2  14
HETATM   14  C8  UNL     1      64.909  47.671  31.704  1.00  0.00     0.100 C 
BRANCH  14  15
HETATM   15  C9  UNL     1      64.942  47.177  33.098  1.00  0.00     0.012 C 
HETATM   16  C10 UNL     1      66.371  46.639  33.305  1.00  0.00    -0.043 C 
HETATM   17  C11 UNL     1      66.618  45.596  32.201  1.00  0.00     0.015 C 
HETATM   18  C12 UNL     1      67.419  47.683  33.130  1.00  0.00     0.015 C 
HETATM   19  C13 UNL     1      66.433  45.879  34.589  1.00  0.00     0.009 C 
HETATM   20  C14 UNL     1      65.815  46.604  35.748  1.00  0.00     0.001 C 
HETATM   21  C15 UNL     1      65.385  47.996  35.439  1.00  0.00     0.009 C 
HETATM   22  C16 UNL     1      64.512  48.080  34.179  1.00  0.00    -0.043 C 
HETATM   23  C17 UNL     1      64.422  49.536  33.842  1.00  0.00     0.015 C 
HETATM   24  C18 UNL     1      63.117  47.665  34.681  1.00  0.00     0.015 C 
ENDBRANCH  14  15
ENDBRANCH   2  14
TORSDOF 7
ENDMDL
MODEL 4
REMARK VINA RESULT: -8.483658271      1.110      1.313
REMARK  7 active torsions:
REMARK  status: ('A' for Active; 'I' for Inactive)
REMARK    1  A    between atoms: C2_2  and  N1_4 
REMARK    2  A    between atoms: N1_4  and  C4_7 
REMARK    3  A    between atoms: C4_7  and  C5_8 
REMARK    4  A    between atoms: C5_8  and  C6_9 
REMARK    5  A    between atoms: C5_8  and  C19_22 
REMARK    6  A    between atoms: C7_10  and  C8_11 
REMARK    7  A    between atoms: C8_11  and  C9_12 
ROOT
HETATM    1  C6  UNL     1      64.188  47.502  30.157  1.00  0.00    -0.100 C 
HETATM    2  C7  UNL     1      65.045  47.443  31.006  1.00  0.00    -0.106 C 
ENDROOT
BRANCH   1   3
HETATM    3  C5  UNL     1      63.147  47.595  29.087  1.00  0.00     0.094 C 
BRANCH   3   4
HETATM    4  C4  UNL     1      61.831  47.302  29.685  1.00  0.00     0.250 C 
BRANCH   4   5
HETATM    5  N1  UNL     1      61.400  45.948  29.457  1.00  0.00    -0.070 N 
ATOM      6  H12 UNL     1      61.872  45.284  30.070  1.00  0.00     0.277 HD
ATOM      7  H11 UNL     1      61.732  45.583  28.564  1.00  0.00     0.277 HD
BRANCH   5   8
HETATM    8  C2  UNL     1      59.924  45.872  29.580  1.00  0.00     0.177 C 
HETATM    9  C1  UNL     1      59.257  46.978  28.831  1.00  0.00     0.039 C 
HETATM   10  C3  UNL     1      59.635  45.941  31.053  1.00  0.00     0.039 C 
ENDBRANCH   5   8
ENDBRANCH   4   5
ENDBRANCH   3   4
BRANCH   3  11
HETATM   11  C19 UNL     1      63.288  48.795  28.254  1.00  0.00    -0.006 C 
HETATM   12  C20 UNL     1      64.688  48.707  27.550  1.00  0.00     0.011 C 
HETATM   13  C21 UNL     1      62.299  48.828  27.074  1.00  0.00     0.011 C 
ENDBRANCH   3  11
ENDBRANCH   1   3
BRANCH   2  14
HETATM   14  C8  UNL     1      66.088  47.380  31.988  1.00  0.00     0.100 C 
BRANCH  14  15
HETATM   15  C9  UNL     1      65.684  46.754  33.266  1.00  0.00     0.012 C 
HETATM   16  C10 UNL     1      66.852  45.824  33.651  1.00  0.00    -0.043 C 
HETATM   17  C11 UNL     1      67.072  44.874  32.461  1.00  0.00     0.015 C 
HETATM   18  C12 UNL     1      68.137  46.552  33.845  1.00  0.00     0.015 C 
HETATM   19  C13 UNL     1      66.434  44.949  34.786  1.00  0.00     0.009 C 
HETATM   20  C14 UNL     1      65.772  45.691  35.908  1.00  0.00     0.001 C 
HETATM   21  C15 UNL     1      65.781  47.172  35.750  1.00  0.00     0.009 C 
HETATM   22  C16 UNL     1      65.261  47.623  34.378  1.00  0.00    -0.043 C 
HETATM   23  C17 UNL     1      65.612  49.075  34.266  1.00  0.00     0.015 C 
HETATM   24  C18 UNL     1      63.731  47.560  34.535  1.00  0.00     0.015 C 
ENDBRANCH  14  15
ENDBRANCH   2  14
TORSDOF 7
ENDMDL
MODEL 5
REMARK VINA RESULT: -8.007206140      2.743      7.019
REMARK  7 active torsions:
REMARK  status: ('A' for Active; 'I' for Inactive)
REMARK    1  A    between atoms: C2_2  and  N1_4 
REMARK    2  A    between atoms: N1_4  and  C4_7 
REMARK    3  A    between atoms: C4_7  and  C5_8 
REMARK    4  A    between atoms: C5_8  and  C6_9 
REMARK    5  A    between atoms: C5_8  and  C19_22 
REMARK    6  A    between atoms: C7_10  and  C8_11 
REMARK    7  A    between atoms: C8_11  and  C9_12 
ROOT
HETATM    1  C6  UNL     1      64.554  47.820  32.905  1.00  0.00    -0.100 C 
HETATM    2  C7  UNL     1      64.248  48.240  31.815  1.00  0.00    -0.106 C 
ENDROOT
BRANCH   1   3
HETATM    3  C5  UNL     1      64.964  47.294  34.244  1.00  0.00     0.094 C 
BRANCH   3   4
HETATM    4  C4  UNL     1      66.406  46.984  34.205  1.00  0.00     0.250 C 
BRANCH   4   5
HETATM    5  N1  UNL     1      66.700  45.630  34.593  1.00  0.00    -0.070 N 
ATOM      6  H12 UNL     1      65.862  45.116  34.865  1.00  0.00     0.277 HD
ATOM      7  H11 UNL     1      67.195  45.582  35.484  1.00  0.00     0.277 HD
BRANCH   5   8
HETATM    8  C2  UNL     1      67.442  44.952  33.502  1.00  0.00     0.177 C 
HETATM    9  C1  UNL     1      67.984  45.937  32.519  1.00  0.00     0.039 C 
HETATM   10  C3  UNL     1      66.459  44.011  32.865  1.00  0.00     0.039 C 
ENDBRANCH   5   8
ENDBRANCH   4   5
ENDBRANCH   3   4
BRANCH   3  11
HETATM   11  C19 UNL     1      64.450  48.100  35.358  1.00  0.00    -0.006 C 
HETATM   12  C20 UNL     1      65.255  49.448  35.361  1.00  0.00     0.011 C 
HETATM   13  C21 UNL     1      62.995  48.556  35.148  1.00  0.00     0.011 C 
ENDBRANCH   3  11
ENDBRANCH   1   3
BRANCH   2  14
HETATM   14  C8  UNL     1      63.920  48.745  30.513  1.00  0.00     0.100 C 
BRANCH  14  15
HETATM   15  C9  UNL     1      63.712  47.700  29.488  1.00  0.00     0.012 C 
HETATM   16  C10 UNL     1      63.069  48.426  28.291  1.00  0.00    -0.043 C 
HETATM   17  C11 UNL     1      61.806  49.126  28.823  1.00  0.00     0.015 C 
HETATM   18  C12 UNL     1      63.933  49.501  27.728  1.00  0.00     0.015 C 
HETATM   19  C13 UNL     1      62.578  47.417  27.305  1.00  0.00     0.009 C 
HETATM   20  C14 UNL     1      63.583  46.352  26.982  1.00  0.00     0.001 C 
HETATM   21  C15 UNL     1      64.925  46.575  27.587  1.00  0.00     0.009 C 
HETATM   22  C16 UNL     1      64.855  46.857  29.094  1.00  0.00    -0.043 C 
HETATM   23  C17 UNL     1      66.216  47.348  29.482  1.00  0.00     0.015 C 
HETATM   24  C18 UNL     1      64.707  45.456  29.715  1.00  0.00     0.015 C 
ENDBRANCH  14  15
ENDBRANCH   2  14
TORSDOF 7
ENDMDL
