MODEL 1
REMARK VINA RESULT: -9.917041444      0.000      0.000
REMARK  5 active torsions:
REMARK  status: ('A' for Active; 'I' for Inactive)
REMARK    1  A    between atoms: C1_2  and  C2_3 
REMARK       I    between atoms: C1_2  and  N1_12 
REMARK    2  A    between atoms: C2_3  and  C3_4 
REMARK    3  A    between atoms: C3_4  and  C4_5 
REMARK    4  A    between atoms: C4_5  and  C5_6 
REMARK    5  A    between atoms: N1_12  and  C11_14 
ROOT
HETATM    1  O1  UNL     1      65.027  46.201  29.235  1.00  0.00    -0.274 OA
HETATM    2  C1  UNL     1      64.550  47.174  29.830  1.00  0.00     0.218 C 
HETATM    3  N1  UNL     1      64.919  47.498  31.147  1.00  0.00    -0.351 N 
ATOM      4  H1  UNL     1      64.452  48.319  31.533  1.00  0.00     0.163 HD
ENDROOT
BRANCH   3   5
HETATM    5  C11 UNL     1      65.837  46.866  32.027  1.00  0.00     0.037 C 
HETATM    6  C12 UNL     1      65.620  47.539  33.401  1.00  0.00     0.032 C 
HETATM    7  C13 UNL     1      66.399  46.863  34.481  1.00  0.00     0.007 C 
HETATM    8  C14 UNL     1      67.761  46.448  33.914  1.00  0.00    -0.014 C 
HETATM    9  C15 UNL     1      67.742  45.016  33.494  1.00  0.00     0.009 C 
HETATM   10  C19 UNL     1      68.120  47.424  32.842  1.00  0.00     0.011 C 
HETATM   11  C16 UNL     1      67.062  44.829  32.146  1.00  0.00    -0.011 C 
HETATM   12  C17 UNL     1      67.778  45.749  31.158  1.00  0.00     0.012 C 
HETATM   13  C20 UNL     1      65.684  45.398  32.194  1.00  0.00     0.036 C 
HETATM   14  C18 UNL     1      67.270  47.104  31.590  1.00  0.00     0.014 C 
ENDBRANCH   3   5
BRANCH   2  15
HETATM   15  C2  UNL     1      63.543  48.020  29.091  1.00  0.00     0.103 C 
BRANCH  15  16
HETATM   16  C3  UNL     1      62.502  47.153  28.457  1.00  0.00     0.010 C 
BRANCH  16  17
HETATM   17  C4  UNL     1      61.141  47.733  28.629  1.00  0.00     0.005 C 
BRANCH  17  18
HETATM   18  C5  UNL     1      60.151  46.645  28.982  1.00  0.00    -0.014 C 
HETATM   19  C6  UNL     1      60.304  46.413  30.480  1.00  0.00     0.004 C 
HETATM   20  C7  UNL     1      59.283  45.355  30.856  1.00  0.00     0.000 C 
HETATM   21  C8  UNL     1      57.917  45.998  30.682  1.00  0.00     0.000 C 
HETATM   22  C9  UNL     1      57.665  46.404  29.270  1.00  0.00     0.000 C 
HETATM   23  C10 UNL     1      58.786  47.122  28.609  1.00  0.00     0.004 C 
ENDBRANCH  17  18
ENDBRANCH  16  17
ENDBRANCH  15  16
ENDBRANCH   2  15
TORSDOF 5
ENDMDL
MODEL 2
REMARK VINA RESULT: -9.747380154      1.373      1.998
REMARK  5 active torsions:
REMARK  status: ('A' for Active; 'I' for Inactive)
REMARK    1  A    between atoms: C1_2  and  C2_3 
REMARK       I    between atoms: C1_2  and  N1_12 
REMARK    2  A    between atoms: C2_3  and  C3_4 
REMARK    3  A    between atoms: C3_4  and  C4_5 
REMARK    4  A    between atoms: C4_5  and  C5_6 
REMARK    5  A    between atoms: N1_12  and  C11_14 
ROOT
HETATM    1  O1  UNL     1      65.384  47.462  30.237  1.00  0.00    -0.274 OA
HETATM    2  C1  UNL     1      64.258  47.903  30.498  1.00  0.00     0.218 C 
HETATM    3  N1  UNL     1      63.793  48.028  31.819  1.00  0.00    -0.351 N 
ATOM      4  H1  UNL     1      62.847  48.397  31.907  1.00  0.00     0.163 HD
ENDROOT
BRANCH   3   5
HETATM    5  C11 UNL     1      64.432  47.723  33.050  1.00  0.00     0.037 C 
HETATM    6  C12 UNL     1      63.308  47.743  34.112  1.00  0.00     0.032 C 
HETATM    7  C13 UNL     1      63.791  47.273  35.443  1.00  0.00     0.007 C 
HETATM    8  C14 UNL     1      65.212  47.802  35.663  1.00  0.00    -0.014 C 
HETATM    9  C15 UNL     1      66.222  46.764  35.303  1.00  0.00     0.009 C 
HETATM   10  C19 UNL     1      65.332  49.093  34.921  1.00  0.00     0.011 C 
HETATM   11  C16 UNL     1      66.430  46.670  33.799  1.00  0.00    -0.011 C 
HETATM   12  C17 UNL     1      66.794  48.073  33.314  1.00  0.00     0.012 C 
HETATM   13  C20 UNL     1      65.124  46.411  33.126  1.00  0.00     0.036 C 
HETATM   14  C18 UNL     1      65.461  48.777  33.412  1.00  0.00     0.014 C 
ENDBRANCH   3   5
BRANCH   2  15
HETATM   15  C2  UNL     1      63.381  48.309  29.340  1.00  0.00     0.103 C 
BRANCH  15  16
HETATM   16  C3  UNL     1      62.512  47.166  28.921  1.00  0.00     0.010 C 
BRANCH  16  17
HETATM   17  C4  UNL     1      61.136  47.630  28.588  1.00  0.00     0.005 C 
BRANCH  17  18
HETATM   18  C5  UNL     1      60.122  46.577  28.975  1.00  0.00    -0.014 C 
HETATM   19  C6  UNL     1      60.281  46.377  30.477  1.00  0.00     0.004 C 
HETATM   20  C7  UNL     1      59.237  45.355  30.886  1.00  0.00     0.000 C 
HETATM   21  C8  UNL     1      57.885  46.029  30.706  1.00  0.00     0.000 C 
HETATM   22  C9  UNL     1      57.633  46.406  29.286  1.00  0.00     0.000 C 
HETATM   23  C10 UNL     1      58.767  47.080  28.600  1.00  0.00     0.004 C 
ENDBRANCH  17  18
ENDBRANCH  16  17
ENDBRANCH  15  16
ENDBRANCH   2  15
TORSDOF 5
ENDMDL
MODEL 3
REMARK VINA RESULT: -9.742453768      2.251      6.692
REMARK  5 active torsions:
REMARK  status: ('A' for Active; 'I' for Inactive)
REMARK    1  A    between atoms: C1_2  and  C2_3 
REMARK       I    between atoms: C1_2  and  N1_12 
REMARK    2  A    between atoms: C2_3  and  C3_4 
REMARK    3  A    between atoms: C3_4  and  C4_5 
REMARK    4  A    between atoms: C4_5  and  C5_6 
REMARK    5  A    between atoms: N1_12  and  C11_14 
ROOT
HETATM    1  O1  UNL     1      63.801  49.232  32.532  1.00  0.00    -0.274 OA
HETATM    2  C1  UNL     1      64.379  48.143  32.438  1.00  0.00     0.218 C 
HETATM    3  N1  UNL     1      64.457  47.442  31.222  1.00  0.00    -0.351 N 
ATOM      4  H1  UNL     1      64.953  46.553  31.271  1.00  0.00     0.163 HD
ENDROOT
BRANCH   3   5
HETATM    5  C11 UNL     1      63.957  47.775  29.935  1.00  0.00     0.037 C 
HETATM    6  C12 UNL     1      62.511  47.230  29.903  1.00  0.00     0.032 C 
HETATM    7  C13 UNL     1      61.784  47.651  28.668  1.00  0.00     0.007 C 
HETATM    8  C14 UNL     1      62.762  47.611  27.489  1.00  0.00    -0.014 C 
HETATM    9  C15 UNL     1      63.319  48.970  27.221  1.00  0.00     0.009 C 
HETATM   10  C19 UNL     1      63.774  46.552  27.777  1.00  0.00     0.011 C 
HETATM   11  C16 UNL     1      64.427  49.333  28.198  1.00  0.00    -0.011 C 
HETATM   12  C17 UNL     1      65.468  48.217  28.121  1.00  0.00     0.012 C 
HETATM   13  C20 UNL     1      63.920  49.221  29.597  1.00  0.00     0.036 C 
HETATM   14  C18 UNL     1      64.757  47.095  28.841  1.00  0.00     0.014 C 
ENDBRANCH   3   5
BRANCH   2  15
HETATM   15  C2  UNL     1      65.008  47.576  33.686  1.00  0.00     0.103 C 
BRANCH  15  16
HETATM   16  C3  UNL     1      66.498  47.687  33.614  1.00  0.00     0.010 C 
BRANCH  16  17
HETATM   17  C4  UNL     1      67.156  46.469  34.163  1.00  0.00     0.005 C 
BRANCH  17  18
HETATM   18  C5  UNL     1      67.492  45.508  33.044  1.00  0.00    -0.014 C 
HETATM   19  C6  UNL     1      66.277  44.600  32.896  1.00  0.00     0.004 C 
HETATM   20  C7  UNL     1      66.583  43.660  31.746  1.00  0.00     0.000 C 
HETATM   21  C8  UNL     1      66.607  44.515  30.489  1.00  0.00     0.000 C 
HETATM   22  C9  UNL     1      67.678  45.551  30.537  1.00  0.00     0.000 C 
HETATM   23  C10 UNL     1      67.768  46.308  31.814  1.00  0.00     0.004 C 
ENDBRANCH  17  18
ENDBRANCH  16  17
ENDBRANCH  15  16
ENDBRANCH   2  15
TORSDOF 5
ENDMDL
MODEL 4
REMARK VINA RESULT: -9.719252319      0.584      1.198
REMARK  5 active torsions:
REMARK  status: ('A' for Active; 'I' for Inactive)
REMARK    1  A    between atoms: C1_2  and  C2_3 
REMARK       I    between atoms: C1_2  and  N1_12 
REMARK    2  A    between atoms: C2_3  and  C3_4 
REMARK    3  A    between atoms: C3_4  and  C4_5 
REMARK    4  A    between atoms: C4_5  and  C5_6 
REMARK    5  A    between atoms: N1_12  and  C11_14 
ROOT
HETATM    1  O1  UNL     1      65.205  45.811  28.995  1.00  0.00    -0.274 OA
HETATM    2  C1  UNL     1      64.724  46.866  29.423  1.00  0.00     0.218 C 
HETATM    3  N1  UNL     1      65.003  47.345  30.714  1.00  0.00    -0.351 N 
ATOM      4  H1  UNL     1      64.542  48.222  30.956  1.00  0.00     0.163 HD
ENDROOT
BRANCH   3   5
HETATM    5  C11 UNL     1      65.826  46.803  31.737  1.00  0.00     0.037 C 
HETATM    6  C12 UNL     1      65.476  47.601  33.013  1.00  0.00     0.032 C 
HETATM    7  C13 UNL     1      66.139  47.035  34.225  1.00  0.00     0.007 C 
HETATM    8  C14 UNL     1      67.550  46.575  33.839  1.00  0.00    -0.014 C 
HETATM    9  C15 UNL     1      67.567  45.110  33.556  1.00  0.00     0.009 C 
HETATM   10  C19 UNL     1      68.018  47.447  32.721  1.00  0.00     0.011 C 
HETATM   11  C16 UNL     1      67.024  44.792  32.170  1.00  0.00    -0.011 C 
HETATM   12  C17 UNL     1      67.840  45.618  31.176  1.00  0.00     0.012 C 
HETATM   13  C20 UNL     1      65.651  45.356  32.026  1.00  0.00     0.036 C 
HETATM   14  C18 UNL     1      67.297  47.006  31.426  1.00  0.00     0.014 C 
ENDBRANCH   3   5
BRANCH   2  15
HETATM   15  C2  UNL     1      63.810  47.640  28.505  1.00  0.00     0.103 C 
BRANCH  15  16
HETATM   16  C3  UNL     1      62.492  47.884  29.168  1.00  0.00     0.010 C 
BRANCH  16  17
HETATM   17  C4  UNL     1      61.675  46.640  29.217  1.00  0.00     0.005 C 
BRANCH  17  18
HETATM   18  C5  UNL     1      60.251  46.965  29.613  1.00  0.00    -0.014 C 
HETATM   19  C6  UNL     1      59.442  46.931  28.323  1.00  0.00     0.004 C 
HETATM   20  C7  UNL     1      58.003  47.210  28.714  1.00  0.00     0.000 C 
HETATM   21  C8  UNL     1      57.536  46.008  29.519  1.00  0.00     0.000 C 
HETATM   22  C9  UNL     1      58.329  45.829  30.769  1.00  0.00     0.000 C 
HETATM   23  C10 UNL     1      59.802  45.943  30.604  1.00  0.00     0.004 C 
ENDBRANCH  17  18
ENDBRANCH  16  17
ENDBRANCH  15  16
ENDBRANCH   2  15
TORSDOF 5
ENDMDL
MODEL 5
REMARK VINA RESULT: -9.697986154      0.942      1.802
REMARK  5 active torsions:
REMARK  status: ('A' for Active; 'I' for Inactive)
REMARK    1  A    between atoms: C1_2  and  C2_3 
REMARK       I    between atoms: C1_2  and  N1_12 
REMARK    2  A    between atoms: C2_3  and  C3_4 
REMARK    3  A    between atoms: C3_4  and  C4_5 
REMARK    4  A    between atoms: C4_5  and  C5_6 
REMARK    5  A    between atoms: N1_12  and  C11_14 
ROOT
HETATM    1  O1  UNL     1      63.441  47.824  31.766  1.00  0.00    -0.274 OA
HETATM    2  C1  UNL     1      64.039  47.724  30.688  1.00  0.00     0.218 C 
HETATM    3  N1  UNL     1      65.332  47.180  30.600  1.00  0.00    -0.351 N 
ATOM      4  H1  UNL     1      65.724  47.156  29.658  1.00  0.00     0.163 HD
ENDROOT
BRANCH   3   5
HETATM    5  C11 UNL     1      66.180  46.657  31.612  1.00  0.00     0.037 C 
HETATM    6  C12 UNL     1      65.829  45.154  31.707  1.00  0.00     0.032 C 
HETATM    7  C13 UNL     1      66.759  44.421  32.616  1.00  0.00     0.007 C 
HETATM    8  C14 UNL     1      67.084  45.322  33.812  1.00  0.00    -0.014 C 
HETATM    9  C15 UNL     1      68.381  46.029  33.603  1.00  0.00     0.009 C 
HETATM   10  C19 UNL     1      65.904  46.209  34.043  1.00  0.00     0.011 C 
HETATM   11  C16 UNL     1      68.234  47.224  32.672  1.00  0.00    -0.011 C 
HETATM   12  C17 UNL     1      67.141  48.113  33.264  1.00  0.00     0.012 C 
HETATM   13  C20 UNL     1      67.642  46.783  31.376  1.00  0.00     0.036 C 
HETATM   14  C18 UNL     1      65.901  47.307  32.954  1.00  0.00     0.014 C 
ENDBRANCH   3   5
BRANCH   2  15
HETATM   15  C2  UNL     1      63.331  48.211  29.449  1.00  0.00     0.103 C 
BRANCH  15  16
HETATM   16  C3  UNL     1      62.463  47.130  28.887  1.00  0.00     0.010 C 
BRANCH  16  17
HETATM   17  C4  UNL     1      61.082  47.625  28.635  1.00  0.00     0.005 C 
BRANCH  17  18
HETATM   18  C5  UNL     1      60.070  46.569  29.023  1.00  0.00    -0.014 C 
HETATM   19  C6  UNL     1      60.223  46.377  30.526  1.00  0.00     0.004 C 
HETATM   20  C7  UNL     1      59.181  45.353  30.935  1.00  0.00     0.000 C 
HETATM   21  C8  UNL     1      57.828  46.019  30.746  1.00  0.00     0.000 C 
HETATM   22  C9  UNL     1      57.580  46.389  29.323  1.00  0.00     0.000 C 
HETATM   23  C10 UNL     1      58.715  47.064  28.638  1.00  0.00     0.004 C 
ENDBRANCH  17  18
ENDBRANCH  16  17
ENDBRANCH  15  16
ENDBRANCH   2  15
TORSDOF 5
ENDMDL
