MODEL 1
REMARK VINA RESULT: -6.508026038      0.000      0.000
REMARK  4 active torsions:
REMARK  status: ('A' for Active; 'I' for Inactive)
REMARK    1  A    between atoms: C2_2  and  S1_3 
REMARK    2  A    between atoms: S1_3  and  C3_4 
REMARK    3  A    between atoms: C7_10  and  C8_11 
REMARK    4  A    between atoms: C11_17  and  O3_18 
ROOT
HETATM    1  C3  UNL     1      22.888   6.006  48.810  1.00  0.00     0.215 C 
HETATM    2  O1  UNL     1      23.136   7.275  49.183  1.00  0.00    -0.338 OA
HETATM    3  C4  UNL     1      24.393   7.759  49.121  1.00  0.00     0.159 C 
HETATM    4  C5  UNL     1      24.267   9.292  49.213  1.00  0.00     0.078 C 
HETATM    5  C6  UNL     1      25.152   7.477  47.857  1.00  0.00     0.078 C 
HETATM    6  O2  UNL     1      25.225   7.408  50.187  1.00  0.00    -0.345 OA
HETATM    7  C7  UNL     1      24.598   6.535  51.071  1.00  0.00     0.172 C 
HETATM    8  C10 UNL     1      24.479   5.162  50.439  1.00  0.00     0.073 C 
HETATM    9  C11 UNL     1      23.015   5.039  49.998  1.00  0.00     0.160 C 
ENDROOT
BRANCH   7  10
HETATM   10  C8  UNL     1      25.393   6.386  52.293  1.00  0.00     0.005 C 
HETATM   11  C9  UNL     1      26.392   7.406  52.712  1.00  0.00     0.065 C 
HETATM   12  N1  UNL     1      25.234   5.357  53.027  1.00  0.00    -0.404 N 
ATOM     13  H12 UNL     1      24.549   4.657  52.740  1.00  0.00     0.155 HD
ATOM     14  H11 UNL     1      25.788   5.253  53.878  1.00  0.00     0.155 HD
ENDBRANCH   7  10
BRANCH   9  15
HETATM   15  O3  UNL     1      22.723   3.749  49.634  1.00  0.00    -0.392 OA
ATOM     16  H3  UNL     1      23.138   3.516  48.811  1.00  0.00     0.210 HD
ENDBRANCH   9  15
BRANCH   1  17
HETATM   17  S1  UNL     1      21.138   5.953  48.262  1.00  0.00    -0.135 SA
BRANCH  17  18
HETATM   18  C2  UNL     1      21.025   5.388  46.548  1.00  0.00     0.072 C 
HETATM   19  C1  UNL     1      20.183   6.347  45.776  1.00  0.00     0.016 C 
ENDBRANCH  17  18
ENDBRANCH   1  17
TORSDOF 4
ENDMDL
MODEL 2
REMARK VINA RESULT: -6.379991525      1.049      1.049
REMARK  4 active torsions:
REMARK  status: ('A' for Active; 'I' for Inactive)
REMARK    1  A    between atoms: C2_2  and  S1_3 
REMARK    2  A    between atoms: S1_3  and  C3_4 
REMARK    3  A    between atoms: C7_10  and  C8_11 
REMARK    4  A    between atoms: C11_17  and  O3_18 
ROOT
HETATM    1  C3  UNL     1      22.642   5.197  49.067  1.00  0.00     0.215 C 
HETATM    2  O1  UNL     1      22.790   6.514  49.298  1.00  0.00    -0.338 OA
HETATM    3  C4  UNL     1      23.991   7.097  49.109  1.00  0.00     0.159 C 
HETATM    4  C5  UNL     1      23.727   8.615  49.059  1.00  0.00     0.078 C 
HETATM    5  C6  UNL     1      24.702   6.755  47.833  1.00  0.00     0.078 C 
HETATM    6  O2  UNL     1      24.909   6.932  50.149  1.00  0.00    -0.345 OA
HETATM    7  C7  UNL     1      24.416   6.103  51.152  1.00  0.00     0.172 C 
HETATM    8  C10 UNL     1      24.392   4.667  50.665  1.00  0.00     0.073 C 
HETATM    9  C11 UNL     1      22.924   4.372  50.333  1.00  0.00     0.160 C 
ENDROOT
BRANCH   7  10
HETATM   10  C8  UNL     1      25.287   6.151  52.329  1.00  0.00     0.005 C 
HETATM   11  C9  UNL     1      26.200   7.297  52.588  1.00  0.00     0.065 C 
HETATM   12  N1  UNL     1      25.273   5.187  53.164  1.00  0.00    -0.404 N 
ATOM     13  H12 UNL     1      24.647   4.401  52.986  1.00  0.00     0.155 HD
ATOM     14  H11 UNL     1      25.879   5.221  53.983  1.00  0.00     0.155 HD
ENDBRANCH   7  10
BRANCH   9  15
HETATM   15  O3  UNL     1      22.734   3.031  50.115  1.00  0.00    -0.392 OA
ATOM     16  H3  UNL     1      23.516   2.530  50.317  1.00  0.00     0.210 HD
ENDBRANCH   9  15
BRANCH   1  17
HETATM   17  S1  UNL     1      20.877   4.935  48.639  1.00  0.00    -0.135 SA
BRANCH  17  18
HETATM   18  C2  UNL     1      20.239   6.331  47.685  1.00  0.00     0.072 C 
HETATM   19  C1  UNL     1      18.880   6.681  48.188  1.00  0.00     0.016 C 
ENDBRANCH  17  18
ENDBRANCH   1  17
TORSDOF 4
ENDMDL
MODEL 3
REMARK VINA RESULT: -6.105789974      3.194      5.170
REMARK  4 active torsions:
REMARK  status: ('A' for Active; 'I' for Inactive)
REMARK    1  A    between atoms: C2_2  and  S1_3 
REMARK    2  A    between atoms: S1_3  and  C3_4 
REMARK    3  A    between atoms: C7_10  and  C8_11 
REMARK    4  A    between atoms: C11_17  and  O3_18 
ROOT
HETATM    1  C3  UNL     1      25.602   7.459  50.351  1.00  0.00     0.215 C 
HETATM    2  O1  UNL     1      24.403   7.428  49.741  1.00  0.00    -0.338 OA
HETATM    3  C4  UNL     1      24.336   7.340  48.397  1.00  0.00     0.159 C 
HETATM    4  C5  UNL     1      22.890   6.922  48.067  1.00  0.00     0.078 C 
HETATM    5  C6  UNL     1      25.224   6.318  47.752  1.00  0.00     0.078 C 
HETATM    6  O2  UNL     1      24.522   8.542  47.708  1.00  0.00    -0.345 OA
HETATM    7  C7  UNL     1      24.836   9.591  48.566  1.00  0.00     0.172 C 
HETATM    8  C10 UNL     1      26.253   9.424  49.082  1.00  0.00     0.073 C 
HETATM    9  C11 UNL     1      26.107   8.901  50.516  1.00  0.00     0.160 C 
ENDROOT
BRANCH   7  10
HETATM   10  C8  UNL     1      24.779  10.869  47.853  1.00  0.00     0.005 C 
HETATM   11  C9  UNL     1      23.757  11.904  48.171  1.00  0.00     0.065 C 
HETATM   12  N1  UNL     1      25.622  11.115  46.929  1.00  0.00    -0.404 N 
ATOM     13  H12 UNL     1      26.323  10.406  46.711  1.00  0.00     0.155 HD
ATOM     14  H11 UNL     1      25.582  12.005  46.433  1.00  0.00     0.155 HD
ENDBRANCH   7  10
BRANCH   9  15
HETATM   15  O3  UNL     1      27.311   8.943  51.174  1.00  0.00    -0.392 OA
ATOM     16  H3  UNL     1      27.406   9.742  51.678  1.00  0.00     0.210 HD
ENDBRANCH   9  15
BRANCH   1  17
HETATM   17  S1  UNL     1      25.351   6.782  52.038  1.00  0.00    -0.135 SA
BRANCH  17  18
HETATM   18  C2  UNL     1      24.004   5.577  52.046  1.00  0.00     0.072 C 
HETATM   19  C1  UNL     1      24.387   4.416  51.193  1.00  0.00     0.016 C 
ENDBRANCH  17  18
ENDBRANCH   1  17
TORSDOF 4
ENDMDL
MODEL 4
REMARK VINA RESULT: -6.066119989      2.510      3.366
REMARK  4 active torsions:
REMARK  status: ('A' for Active; 'I' for Inactive)
REMARK    1  A    between atoms: C2_2  and  S1_3 
REMARK    2  A    between atoms: S1_3  and  C3_4 
REMARK    3  A    between atoms: C7_10  and  C8_11 
REMARK    4  A    between atoms: C11_17  and  O3_18 
ROOT
HETATM    1  C3  UNL     1      24.704   5.072  50.922  1.00  0.00     0.215 C 
HETATM    2  O1  UNL     1      24.182   5.852  49.958  1.00  0.00    -0.338 OA
HETATM    3  C4  UNL     1      25.000   6.524  49.123  1.00  0.00     0.159 C 
HETATM    4  C5  UNL     1      24.127   6.966  47.932  1.00  0.00     0.078 C 
HETATM    5  C6  UNL     1      26.140   5.742  48.538  1.00  0.00     0.078 C 
HETATM    6  O2  UNL     1      25.533   7.711  49.631  1.00  0.00    -0.345 OA
HETATM    7  C7  UNL     1      25.174   7.917  50.959  1.00  0.00     0.172 C 
HETATM    8  C10 UNL     1      25.931   6.950  51.850  1.00  0.00     0.073 C 
HETATM    9  C11 UNL     1      24.919   5.860  52.224  1.00  0.00     0.160 C 
ENDROOT
BRANCH   7  10
HETATM   10  C8  UNL     1      25.533   9.273  51.382  1.00  0.00     0.005 C 
HETATM   11  C9  UNL     1      25.864  10.342  50.401  1.00  0.00     0.065 C 
HETATM   12  N1  UNL     1      25.567   9.558  52.624  1.00  0.00    -0.404 N 
ATOM     13  H12 UNL     1      25.341   8.825  53.296  1.00  0.00     0.155 HD
ATOM     14  H11 UNL     1      25.817  10.502  52.918  1.00  0.00     0.155 HD
ENDBRANCH   7  10
BRANCH   9  15
HETATM   15  O3  UNL     1      25.413   5.060  53.223  1.00  0.00    -0.392 OA
ATOM     16  H3  UNL     1      25.163   5.380  54.082  1.00  0.00     0.210 HD
ENDBRANCH   9  15
BRANCH   1  17
HETATM   17  S1  UNL     1      23.456   3.775  51.281  1.00  0.00    -0.135 SA
BRANCH  17  18
HETATM   18  C2  UNL     1      22.400   3.492  49.841  1.00  0.00     0.072 C 
HETATM   19  C1  UNL     1      21.704   2.183  50.001  1.00  0.00     0.016 C 
ENDBRANCH  17  18
ENDBRANCH   1  17
TORSDOF 4
ENDMDL
MODEL 5
REMARK VINA RESULT: -6.063240853      3.930      6.824
REMARK  4 active torsions:
REMARK  status: ('A' for Active; 'I' for Inactive)
REMARK    1  A    between atoms: C2_2  and  S1_3 
REMARK    2  A    between atoms: S1_3  and  C3_4 
REMARK    3  A    between atoms: C7_10  and  C8_11 
REMARK    4  A    between atoms: C11_17  and  O3_18 
ROOT
HETATM    1  C3  UNL     1      21.008   6.160  48.211  1.00  0.00     0.215 C 
HETATM    2  O1  UNL     1      20.037   7.063  48.437  1.00  0.00    -0.338 OA
HETATM    3  C4  UNL     1      18.747   6.724  48.239  1.00  0.00     0.159 C 
HETATM    4  C5  UNL     1      17.907   7.798  48.957  1.00  0.00     0.078 C 
HETATM    5  C6  UNL     1      18.312   5.405  48.807  1.00  0.00     0.078 C 
HETATM    6  O2  UNL     1      18.312   6.765  46.912  1.00  0.00    -0.345 OA
HETATM    7  C7  UNL     1      19.349   7.066  46.034  1.00  0.00     0.172 C 
HETATM    8  C10 UNL     1      20.281   5.876  45.912  1.00  0.00     0.073 C 
HETATM    9  C11 UNL     1      21.509   6.229  46.759  1.00  0.00     0.160 C 
ENDROOT
BRANCH   7  10
HETATM   10  C8  UNL     1      18.820   7.346  44.696  1.00  0.00     0.005 C 
HETATM   11  C9  UNL     1      19.712   7.543  43.522  1.00  0.00     0.065 C 
HETATM   12  N1  UNL     1      17.560   7.426  44.520  1.00  0.00    -0.404 N 
ATOM     13  H12 UNL     1      16.948   7.291  45.325  1.00  0.00     0.155 HD
ATOM     14  H11 UNL     1      17.192   7.621  43.589  1.00  0.00     0.155 HD
ENDBRANCH   7  10
BRANCH   9  15
HETATM   15  O3  UNL     1      22.529   5.339  46.534  1.00  0.00    -0.392 OA
ATOM     16  H3  UNL     1      22.207   4.527  46.161  1.00  0.00     0.210 HD
ENDBRANCH   9  15
BRANCH   1  17
HETATM   17  S1  UNL     1      22.420   6.628  49.287  1.00  0.00    -0.135 SA
BRANCH  17  18
HETATM   18  C2  UNL     1      23.174   5.158  50.022  1.00  0.00     0.072 C 
HETATM   19  C1  UNL     1      24.657   5.313  50.001  1.00  0.00     0.016 C 
ENDBRANCH  17  18
ENDBRANCH   1  17
TORSDOF 4
ENDMDL
