MODEL 1
REMARK VINA RESULT: -8.996291531      0.000      0.000
REMARK  14 active torsions:
REMARK  status: ('A' for Active; 'I' for Inactive)
REMARK    1  A    between atoms: C2_2  and  C3_3 
REMARK    2  A    between atoms: C4_7  and  C5_8 
REMARK    3  A    between atoms: C5_8  and  C6_9 
REMARK    4  A    between atoms: C5_8  and  S2_11 
REMARK    5  A    between atoms: S2_11  and  C8_12 
REMARK    6  A    between atoms: C8_12  and  C9_13 
REMARK    7  A    between atoms: C9_13  and  O1_14 
REMARK    8  A    between atoms: C9_13  and  N2_16 
REMARK    9  A    between atoms: N2_16  and  C10_18 
REMARK   10  A    between atoms: C10_18  and  O2_19 
REMARK   11  A    between atoms: C10_18  and  N3_21 
REMARK   12  A    between atoms: N3_21  and  C11_23 
REMARK   13  A    between atoms: C13_28  and  N6_29 
REMARK   14  A    between atoms: C14_34  and  N8_35 
ROOT
HETATM    1  C10 UNL     1      17.292  34.924  -9.104  1.00  0.00     0.223 C 
ENDROOT
BRANCH   1   2
HETATM    2  N2  UNL     1      16.615  33.811  -8.653  1.00  0.00    -0.306 N 
ATOM      3  H2  UNL     1      16.173  33.969  -7.748  1.00  0.00     0.171 HD
BRANCH   2   4
HETATM    4  C9  UNL     1      16.389  32.525  -9.132  1.00  0.00     0.127 C 
BRANCH   4   5
HETATM    5  C8  UNL     1      15.098  31.922  -9.474  1.00  0.00     0.158 C 
BRANCH   5   6
HETATM    6  S2  UNL     1      14.045  31.486  -8.136  1.00  0.00    -0.149 SA
BRANCH   6   7
HETATM    7  C5  UNL     1      14.699  30.704  -6.706  1.00  0.00     0.105 C 
BRANCH   7   8
HETATM    8  C4  UNL     1      15.685  29.601  -6.934  1.00  0.00     0.083 A 
HETATM    9  S1  UNL     1      15.738  28.476  -8.250  1.00  0.00     0.002 SA
HETATM   10  N1  UNL     1      17.068  27.576  -7.749  1.00  0.00    -0.315 N 
HETATM   11  C3  UNL     1      17.413  28.173  -6.601  1.00  0.00     0.087 A 
ATOM     12  H1  UNL     1      17.503  26.775  -8.205  1.00  0.00     0.175 HD
HETATM   13  N9  UNL     1      16.709  29.185  -6.208  1.00  0.00    -0.341 N 
ATOM     14  H9  UNL     1      16.945  29.663  -5.338  1.00  0.00     0.167 HD
BRANCH  11  15
HETATM   15  C2  UNL     1      18.608  27.621  -5.835  1.00  0.00     0.072 C 
HETATM   16  C1  UNL     1      18.335  26.244  -5.329  1.00  0.00     0.013 C 
ENDBRANCH  11  15
ENDBRANCH   7   8
BRANCH   7  17
HETATM   17  C6  UNL     1      15.262  31.640  -5.669  1.00  0.00     0.017 C 
HETATM   18  C7  UNL     1      14.197  32.304  -4.851  1.00  0.00     0.006 C 
ENDBRANCH   7  17
ENDBRANCH   6   7
ENDBRANCH   5   6
ENDBRANCH   4   5
BRANCH   4  19
HETATM   19  O1  UNL     1      17.419  31.743  -9.309  1.00  0.00    -0.349 OA
ATOM     20  H1  UNL     1      18.235  32.076  -8.954  1.00  0.00     0.219 HD
ENDBRANCH   4  19
ENDBRANCH   2   4
ENDBRANCH   1   2
BRANCH   1  21
HETATM   21  O2  UNL     1      18.469  34.692  -9.619  1.00  0.00    -0.332 OA
ATOM     22  H2  UNL     1      19.040  35.447  -9.683  1.00  0.00     0.221 HD
ENDBRANCH   1  21
BRANCH   1  23
HETATM   23  N3  UNL     1      16.909  36.243  -9.088  1.00  0.00    -0.316 N 
ATOM     24  H3  UNL     1      16.359  36.623  -9.859  1.00  0.00     0.169 HD
BRANCH  23  25
HETATM   25  C11 UNL     1      17.287  37.096  -7.979  1.00  0.00     0.122 A 
HETATM   26  C12 UNL     1      16.530  37.070  -6.840  1.00  0.00     0.162 A 
HETATM   27  N4  UNL     1      15.392  36.242  -6.697  1.00  0.00    -0.080 NA
HETATM   28  N5  UNL     1      16.904  37.877  -5.810  1.00  0.00    -0.177 N 
HETATM   29  C13 UNL     1      17.968  38.681  -5.875  1.00  0.00     0.678 A 
ATOM     30  H5  UNL     1      16.349  37.867  -4.955  1.00  0.00     0.185 HD
HETATM   31  N7  UNL     1      18.702  38.697  -7.000  1.00  0.00    -0.175 N 
HETATM   32  C14 UNL     1      18.377  37.925  -8.036  1.00  0.00     0.145 A 
ATOM     33  H7  UNL     1      19.517  39.307  -7.061  1.00  0.00     0.186 HD
BRANCH  29  34
HETATM   34  N6  UNL     1      18.312  39.445  -4.883  1.00  0.00    -0.234 N 
ATOM     35  H62 UNL     1      18.552  39.020  -3.988  1.00  0.00     0.174 HD
ATOM     36  H61 UNL     1      18.350  40.460  -4.974  1.00  0.00     0.174 HD
ENDBRANCH  29  34
BRANCH  32  37
HETATM   37  N8  UNL     1      19.079  37.933  -9.129  1.00  0.00    -0.383 N 
ATOM     38  H82 UNL     1      20.042  37.596  -9.140  1.00  0.00     0.157 HD
ATOM     39  H81 UNL     1      18.638  38.288  -9.977  1.00  0.00     0.157 HD
ENDBRANCH  32  37
ENDBRANCH  23  25
ENDBRANCH   1  23
TORSDOF 14
ENDMDL
MODEL 2
REMARK VINA RESULT: -8.934140615      1.128      1.158
REMARK  14 active torsions:
REMARK  status: ('A' for Active; 'I' for Inactive)
REMARK    1  A    between atoms: C2_2  and  C3_3 
REMARK    2  A    between atoms: C4_7  and  C5_8 
REMARK    3  A    between atoms: C5_8  and  C6_9 
REMARK    4  A    between atoms: C5_8  and  S2_11 
REMARK    5  A    between atoms: S2_11  and  C8_12 
REMARK    6  A    between atoms: C8_12  and  C9_13 
REMARK    7  A    between atoms: C9_13  and  O1_14 
REMARK    8  A    between atoms: C9_13  and  N2_16 
REMARK    9  A    between atoms: N2_16  and  C10_18 
REMARK   10  A    between atoms: C10_18  and  O2_19 
REMARK   11  A    between atoms: C10_18  and  N3_21 
REMARK   12  A    between atoms: N3_21  and  C11_23 
REMARK   13  A    between atoms: C13_28  and  N6_29 
REMARK   14  A    between atoms: C14_34  and  N8_35 
ROOT
HETATM    1  C10 UNL     1      16.962  34.668  -9.582  1.00  0.00     0.223 C 
ENDROOT
BRANCH   1   2
HETATM    2  N2  UNL     1      15.838  34.136 -10.175  1.00  0.00    -0.306 N 
ATOM      3  H2  UNL     1      15.707  34.474 -11.128  1.00  0.00     0.171 HD
BRANCH   2   4
HETATM    4  C9  UNL     1      14.837  33.250  -9.789  1.00  0.00     0.127 C 
BRANCH   4   5
HETATM    5  C8  UNL     1      14.999  31.845  -9.402  1.00  0.00     0.158 C 
BRANCH   5   6
HETATM    6  S2  UNL     1      13.974  31.257  -8.101  1.00  0.00    -0.149 SA
BRANCH   6   7
HETATM    7  C5  UNL     1      14.682  30.517  -6.674  1.00  0.00     0.105 C 
BRANCH   7   8
HETATM    8  C4  UNL     1      15.687  29.432  -6.908  1.00  0.00     0.083 A 
HETATM    9  S1  UNL     1      15.777  28.335  -8.245  1.00  0.00     0.002 SA
HETATM   10  N1  UNL     1      17.112  27.443  -7.740  1.00  0.00    -0.315 N 
HETATM   11  C3  UNL     1      17.430  28.021  -6.575  1.00  0.00     0.087 A 
ATOM     12  H1  UNL     1      17.566  26.657  -8.205  1.00  0.00     0.175 HD
HETATM   13  N9  UNL     1      16.705  29.015  -6.174  1.00  0.00    -0.341 N 
ATOM     14  H9  UNL     1      16.920  29.479  -5.291  1.00  0.00     0.167 HD
BRANCH  11  15
HETATM   15  C2  UNL     1      18.620  27.471  -5.801  1.00  0.00     0.072 C 
HETATM   16  C1  UNL     1      18.615  25.979  -5.794  1.00  0.00     0.013 C 
ENDBRANCH  11  15
ENDBRANCH   7   8
BRANCH   7  17
HETATM   17  C6  UNL     1      15.250  31.484  -5.669  1.00  0.00     0.017 C 
HETATM   18  C7  UNL     1      14.187  32.184  -4.878  1.00  0.00     0.006 C 
ENDBRANCH   7  17
ENDBRANCH   6   7
ENDBRANCH   5   6
ENDBRANCH   4   5
BRANCH   4  19
HETATM   19  O1  UNL     1      13.607  33.684  -9.758  1.00  0.00    -0.349 OA
ATOM     20  H1  UNL     1      13.522  34.627  -9.674  1.00  0.00     0.219 HD
ENDBRANCH   4  19
ENDBRANCH   2   4
ENDBRANCH   1   2
BRANCH   1  21
HETATM   21  O2  UNL     1      17.578  33.879  -8.743  1.00  0.00    -0.332 OA
ATOM     22  H2  UNL     1      17.233  33.880  -7.858  1.00  0.00     0.221 HD
ENDBRANCH   1  21
BRANCH   1  23
HETATM   23  N3  UNL     1      17.530  35.908  -9.744  1.00  0.00    -0.316 N 
ATOM     24  H3  UNL     1      17.816  36.220 -10.672  1.00  0.00     0.169 HD
BRANCH  23  25
HETATM   25  C11 UNL     1      17.723  36.773  -8.597  1.00  0.00     0.122 A 
HETATM   26  C12 UNL     1      16.672  36.989  -7.749  1.00  0.00     0.162 A 
HETATM   27  N4  UNL     1      15.400  36.401  -7.943  1.00  0.00    -0.080 NA
HETATM   28  N5  UNL     1      16.876  37.803  -6.679  1.00  0.00    -0.177 N 
HETATM   29  C13 UNL     1      18.051  38.389  -6.434  1.00  0.00     0.678 A 
ATOM     30  H5  UNL     1      16.101  37.973  -6.038  1.00  0.00     0.185 HD
HETATM   31  N7  UNL     1      19.075  38.169  -7.274  1.00  0.00    -0.175 N 
HETATM   32  C14 UNL     1      18.924  37.380  -8.337  1.00  0.00     0.145 A 
ATOM     33  H7  UNL     1      19.977  38.611  -7.098  1.00  0.00     0.186 HD
BRANCH  29  34
HETATM   34  N6  UNL     1      18.230  39.164  -5.406  1.00  0.00    -0.234 N 
ATOM     35  H62 UNL     1      18.549  38.758  -4.527  1.00  0.00     0.174 HD
ATOM     36  H61 UNL     1      18.062  40.169  -5.454  1.00  0.00     0.174 HD
ENDBRANCH  29  34
BRANCH  32  37
HETATM   37  N8  UNL     1      19.907  37.161  -9.158  1.00  0.00    -0.383 N 
ATOM     38  H82 UNL     1      20.709  36.594  -8.881  1.00  0.00     0.157 HD
ATOM     39  H81 UNL     1      19.853  37.572 -10.089  1.00  0.00     0.157 HD
ENDBRANCH  32  37
ENDBRANCH  23  25
ENDBRANCH   1  23
TORSDOF 14
ENDMDL
MODEL 3
REMARK VINA RESULT: -8.790204635      1.720      2.388
REMARK  14 active torsions:
REMARK  status: ('A' for Active; 'I' for Inactive)
REMARK    1  A    between atoms: C2_2  and  C3_3 
REMARK    2  A    between atoms: C4_7  and  C5_8 
REMARK    3  A    between atoms: C5_8  and  C6_9 
REMARK    4  A    between atoms: C5_8  and  S2_11 
REMARK    5  A    between atoms: S2_11  and  C8_12 
REMARK    6  A    between atoms: C8_12  and  C9_13 
REMARK    7  A    between atoms: C9_13  and  O1_14 
REMARK    8  A    between atoms: C9_13  and  N2_16 
REMARK    9  A    between atoms: N2_16  and  C10_18 
REMARK   10  A    between atoms: C10_18  and  O2_19 
REMARK   11  A    between atoms: C10_18  and  N3_21 
REMARK   12  A    between atoms: N3_21  and  C11_23 
REMARK   13  A    between atoms: C13_28  and  N6_29 
REMARK   14  A    between atoms: C14_34  and  N8_35 
ROOT
HETATM    1  C10 UNL     1      16.133  34.011  -8.422  1.00  0.00     0.223 C 
ENDROOT
BRANCH   1   2
HETATM    2  N2  UNL     1      15.210  33.260  -7.727  1.00  0.00    -0.306 N 
ATOM      3  H2  UNL     1      14.622  32.701  -8.347  1.00  0.00     0.171 HD
BRANCH   2   4
HETATM    4  C9  UNL     1      14.885  33.077  -6.388  1.00  0.00     0.127 C 
BRANCH   4   5
HETATM    5  C8  UNL     1      15.252  31.944  -5.533  1.00  0.00     0.158 C 
BRANCH   5   6
HETATM    6  S2  UNL     1      15.113  30.340  -6.238  1.00  0.00    -0.149 SA
BRANCH   6   7
HETATM    7  C5  UNL     1      16.389  29.704  -7.263  1.00  0.00     0.105 C 
BRANCH   7   8
HETATM    8  C4  UNL     1      16.969  28.380  -6.873  1.00  0.00     0.083 A 
HETATM    9  S1  UNL     1      16.875  26.881  -7.736  1.00  0.00     0.002 SA
HETATM   10  N1  UNL     1      17.712  25.916  -6.640  1.00  0.00    -0.315 N 
HETATM   11  C3  UNL     1      18.026  26.779  -5.666  1.00  0.00     0.087 A 
ATOM     12  H1  UNL     1      17.925  24.921  -6.702  1.00  0.00     0.175 HD
HETATM   13  N9  UNL     1      17.646  28.009  -5.800  1.00  0.00    -0.341 N 
ATOM     14  H9  UNL     1      17.870  28.693  -5.076  1.00  0.00     0.167 HD
BRANCH  11  15
HETATM   15  C2  UNL     1      18.808  26.257  -4.469  1.00  0.00     0.072 C 
HETATM   16  C1  UNL     1      18.784  24.766  -4.417  1.00  0.00     0.013 C 
ENDBRANCH  11  15
ENDBRANCH   7   8
BRANCH   7  17
HETATM   17  C6  UNL     1      16.068  29.670  -8.734  1.00  0.00     0.017 C 
HETATM   18  C7  UNL     1      14.652  30.063  -9.025  1.00  0.00     0.006 C 
ENDBRANCH   7  17
ENDBRANCH   6   7
ENDBRANCH   5   6
ENDBRANCH   4   5
BRANCH   4  19
HETATM   19  O1  UNL     1      14.176  33.998  -5.793  1.00  0.00    -0.349 OA
ATOM     20  H1  UNL     1      13.370  34.228  -6.242  1.00  0.00     0.219 HD
ENDBRANCH   4  19
ENDBRANCH   2   4
ENDBRANCH   1   2
BRANCH   1  21
HETATM   21  O2  UNL     1      17.262  33.409  -8.679  1.00  0.00    -0.332 OA
ATOM     22  H2  UNL     1      17.558  32.800  -8.014  1.00  0.00     0.221 HD
ENDBRANCH   1  21
BRANCH   1  23
HETATM   23  N3  UNL     1      16.038  35.301  -8.883  1.00  0.00    -0.316 N 
ATOM     24  H3  UNL     1      15.377  35.530  -9.625  1.00  0.00     0.169 HD
BRANCH  23  25
HETATM   25  C11 UNL     1      16.878  36.338  -8.316  1.00  0.00     0.122 A 
HETATM   26  C12 UNL     1      16.510  36.910  -7.130  1.00  0.00     0.162 A 
HETATM   27  N4  UNL     1      15.341  36.530  -6.429  1.00  0.00    -0.080 NA
HETATM   28  N5  UNL     1      17.313  37.879  -6.615  1.00  0.00    -0.177 N 
HETATM   29  C13 UNL     1      18.431  38.284  -7.222  1.00  0.00     0.678 A 
ATOM     30  H5  UNL     1      17.050  38.314  -5.730  1.00  0.00     0.185 HD
HETATM   31  N7  UNL     1      18.781  37.715  -8.387  1.00  0.00    -0.175 N 
HETATM   32  C14 UNL     1      18.027  36.761  -8.931  1.00  0.00     0.145 A 
ATOM     33  H7  UNL     1      19.634  38.016  -8.859  1.00  0.00     0.186 HD
BRANCH  29  34
HETATM   34  N6  UNL     1      19.189  39.211  -6.717  1.00  0.00    -0.234 N 
ATOM     35  H62 UNL     1      18.919  39.649  -5.837  1.00  0.00     0.174 HD
ATOM     36  H61 UNL     1      20.047  39.514  -7.176  1.00  0.00     0.174 HD
ENDBRANCH  29  34
BRANCH  32  37
HETATM   37  N8  UNL     1      18.356  36.204 -10.058  1.00  0.00    -0.383 N 
ATOM     38  H82 UNL     1      17.647  35.822 -10.684  1.00  0.00     0.157 HD
ATOM     39  H81 UNL     1      19.346  36.160 -10.298  1.00  0.00     0.157 HD
ENDBRANCH  32  37
ENDBRANCH  23  25
ENDBRANCH   1  23
TORSDOF 14
ENDMDL
MODEL 4
REMARK VINA RESULT: -8.730780475      3.218      4.927
REMARK  14 active torsions:
REMARK  status: ('A' for Active; 'I' for Inactive)
REMARK    1  A    between atoms: C2_2  and  C3_3 
REMARK    2  A    between atoms: C4_7  and  C5_8 
REMARK    3  A    between atoms: C5_8  and  C6_9 
REMARK    4  A    between atoms: C5_8  and  S2_11 
REMARK    5  A    between atoms: S2_11  and  C8_12 
REMARK    6  A    between atoms: C8_12  and  C9_13 
REMARK    7  A    between atoms: C9_13  and  O1_14 
REMARK    8  A    between atoms: C9_13  and  N2_16 
REMARK    9  A    between atoms: N2_16  and  C10_18 
REMARK   10  A    between atoms: C10_18  and  O2_19 
REMARK   11  A    between atoms: C10_18  and  N3_21 
REMARK   12  A    between atoms: N3_21  and  C11_23 
REMARK   13  A    between atoms: C13_28  and  N6_29 
REMARK   14  A    between atoms: C14_34  and  N8_35 
ROOT
HETATM    1  C10 UNL     1      12.089  33.226  -5.957  1.00  0.00     0.223 C 
ENDROOT
BRANCH   1   2
HETATM    2  N2  UNL     1      13.095  32.968  -5.050  1.00  0.00    -0.306 N 
ATOM      3  H2  UNL     1      12.957  33.465  -4.170  1.00  0.00     0.171 HD
BRANCH   2   4
HETATM    4  C9  UNL     1      14.250  32.194  -5.042  1.00  0.00     0.127 C 
BRANCH   4   5
HETATM    5  C8  UNL     1      14.337  30.732  -4.977  1.00  0.00     0.158 C 
BRANCH   5   6
HETATM    6  S2  UNL     1      14.620  29.885  -6.491  1.00  0.00    -0.149 SA
BRANCH   6   7
HETATM    7  C5  UNL     1      16.252  29.681  -7.105  1.00  0.00     0.105 C 
BRANCH   7   8
HETATM    8  C4  UNL     1      16.930  28.381  -6.797  1.00  0.00     0.083 A 
HETATM    9  S1  UNL     1      16.844  26.899  -7.688  1.00  0.00     0.002 SA
HETATM   10  N1  UNL     1      17.815  25.957  -6.688  1.00  0.00    -0.315 N 
HETATM   11  C3  UNL     1      18.162  26.814  -5.720  1.00  0.00     0.087 A 
ATOM     12  H1  UNL     1      18.074  24.976  -6.792  1.00  0.00     0.175 HD
HETATM   13  N9  UNL     1      17.709  28.024  -5.790  1.00  0.00    -0.341 N 
ATOM     14  H9  UNL     1      17.955  28.703  -5.070  1.00  0.00     0.167 HD
BRANCH  11  15
HETATM   15  C2  UNL     1      19.064  26.308  -4.602  1.00  0.00     0.072 C 
HETATM   16  C1  UNL     1      18.462  25.129  -3.915  1.00  0.00     0.013 C 
ENDBRANCH  11  15
ENDBRANCH   7   8
BRANCH   7  17
HETATM   17  C6  UNL     1      16.422  29.971  -8.573  1.00  0.00     0.017 C 
HETATM   18  C7  UNL     1      15.121  29.970  -9.316  1.00  0.00     0.006 C 
ENDBRANCH   7  17
ENDBRANCH   6   7
ENDBRANCH   5   6
ENDBRANCH   4   5
BRANCH   4  19
HETATM   19  O1  UNL     1      15.402  32.805  -5.099  1.00  0.00    -0.349 OA
ATOM     20  H1  UNL     1      15.537  33.460  -4.422  1.00  0.00     0.219 HD
ENDBRANCH   4  19
ENDBRANCH   2   4
ENDBRANCH   1   2
BRANCH   1  21
HETATM   21  O2  UNL     1      10.962  32.608  -5.732  1.00  0.00    -0.332 OA
ATOM     22  H2  UNL     1      10.302  32.710  -6.407  1.00  0.00     0.221 HD
ENDBRANCH   1  21
BRANCH   1  23
HETATM   23  N3  UNL     1      12.101  34.038  -7.065  1.00  0.00    -0.316 N 
ATOM     24  H3  UNL     1      11.305  34.644  -7.261  1.00  0.00     0.169 HD
BRANCH  23  25
HETATM   25  C11 UNL     1      13.245  34.034  -7.956  1.00  0.00     0.122 A 
HETATM   26  C12 UNL     1      14.329  34.805  -7.641  1.00  0.00     0.162 A 
HETATM   27  N4  UNL     1      14.384  35.607  -6.477  1.00  0.00    -0.080 NA
HETATM   28  N5  UNL     1      15.392  34.785  -8.490  1.00  0.00    -0.177 N 
HETATM   29  C13 UNL     1      15.409  34.048  -9.604  1.00  0.00     0.678 A 
ATOM     30  H5  UNL     1      16.208  35.354  -8.267  1.00  0.00     0.185 HD
HETATM   31  N7  UNL     1      14.337  33.296  -9.902  1.00  0.00    -0.175 N 
HETATM   32  C14 UNL     1      13.272  33.282  -9.102  1.00  0.00     0.145 A 
ATOM     33  H7  UNL     1      14.338  32.729 -10.750  1.00  0.00     0.186 HD
BRANCH  29  34
HETATM   34  N6  UNL     1      16.431  34.039 -10.405  1.00  0.00    -0.234 N 
ATOM     35  H62 UNL     1      16.788  33.147 -10.746  1.00  0.00     0.174 HD
ATOM     36  H61 UNL     1      16.889  34.900 -10.704  1.00  0.00     0.174 HD
ENDBRANCH  29  34
BRANCH  32  37
HETATM   37  N8  UNL     1      12.229  32.559  -9.381  1.00  0.00    -0.383 N 
ATOM     38  H82 UNL     1      11.966  31.765  -8.798  1.00  0.00     0.157 HD
ATOM     39  H81 UNL     1      11.680  32.810 -10.202  1.00  0.00     0.157 HD
ENDBRANCH  32  37
ENDBRANCH  23  25
ENDBRANCH   1  23
TORSDOF 14
ENDMDL
MODEL 5
REMARK VINA RESULT: -8.716980662      1.523      1.739
REMARK  14 active torsions:
REMARK  status: ('A' for Active; 'I' for Inactive)
REMARK    1  A    between atoms: C2_2  and  C3_3 
REMARK    2  A    between atoms: C4_7  and  C5_8 
REMARK    3  A    between atoms: C5_8  and  C6_9 
REMARK    4  A    between atoms: C5_8  and  S2_11 
REMARK    5  A    between atoms: S2_11  and  C8_12 
REMARK    6  A    between atoms: C8_12  and  C9_13 
REMARK    7  A    between atoms: C9_13  and  O1_14 
REMARK    8  A    between atoms: C9_13  and  N2_16 
REMARK    9  A    between atoms: N2_16  and  C10_18 
REMARK   10  A    between atoms: C10_18  and  O2_19 
REMARK   11  A    between atoms: C10_18  and  N3_21 
REMARK   12  A    between atoms: N3_21  and  C11_23 
REMARK   13  A    between atoms: C13_28  and  N6_29 
REMARK   14  A    between atoms: C14_34  and  N8_35 
ROOT
HETATM    1  C10 UNL     1      18.377  36.684  -9.361  1.00  0.00     0.223 C 
ENDROOT
BRANCH   1   2
HETATM    2  N2  UNL     1      18.061  35.613 -10.169  1.00  0.00    -0.306 N 
ATOM      3  H2  UNL     1      18.747  35.474 -10.911  1.00  0.00     0.171 HD
BRANCH   2   4
HETATM    4  C9  UNL     1      17.034  34.676 -10.219  1.00  0.00     0.127 C 
BRANCH   4   5
HETATM    5  C8  UNL     1      16.878  33.487  -9.377  1.00  0.00     0.158 C 
BRANCH   5   6
HETATM    6  S2  UNL     1      15.235  33.001  -8.985  1.00  0.00    -0.149 SA
BRANCH   6   7
HETATM    7  C5  UNL     1      14.930  31.876  -7.671  1.00  0.00     0.105 C 
BRANCH   7   8
HETATM    8  C4  UNL     1      15.605  30.542  -7.755  1.00  0.00     0.083 A 
HETATM    9  S1  UNL     1      15.575  29.416  -9.071  1.00  0.00     0.002 SA
HETATM   10  N1  UNL     1      16.508  28.202  -8.373  1.00  0.00    -0.315 N 
HETATM   11  C3  UNL     1      16.802  28.709  -7.170  1.00  0.00     0.087 A 
ATOM     12  H1  UNL     1      16.782  27.303  -8.769  1.00  0.00     0.175 HD
HETATM   13  N9  UNL     1      16.341  29.882  -6.877  1.00  0.00    -0.341 N 
ATOM     14  H9  UNL     1      16.546  30.298  -5.969  1.00  0.00     0.167 HD
BRANCH  11  15
HETATM   15  C2  UNL     1      17.656  27.873  -6.227  1.00  0.00     0.072 C 
HETATM   16  C1  UNL     1      17.444  26.414  -6.457  1.00  0.00     0.013 C 
ENDBRANCH  11  15
ENDBRANCH   7   8
BRANCH   7  17
HETATM   17  C6  UNL     1      15.148  32.435  -6.289  1.00  0.00     0.017 C 
HETATM   18  C7  UNL     1      13.956  32.259  -5.400  1.00  0.00     0.006 C 
ENDBRANCH   7  17
ENDBRANCH   6   7
ENDBRANCH   5   6
ENDBRANCH   4   5
BRANCH   4  19
HETATM   19  O1  UNL     1      16.087  34.846 -11.102  1.00  0.00    -0.349 OA
ATOM     20  H1  UNL     1      16.306  34.551 -11.978  1.00  0.00     0.219 HD
ENDBRANCH   4  19
ENDBRANCH   2   4
ENDBRANCH   1   2
BRANCH   1  21
HETATM   21  O2  UNL     1      19.642  36.798  -9.056  1.00  0.00    -0.332 OA
ATOM     22  H2  UNL     1      20.131  37.420  -9.581  1.00  0.00     0.221 HD
ENDBRANCH   1  21
BRANCH   1  23
HETATM   23  N3  UNL     1      17.557  37.647  -8.828  1.00  0.00    -0.316 N 
ATOM     24  H3  UNL     1      16.922  38.168  -9.433  1.00  0.00     0.169 HD
BRANCH  23  25
HETATM   25  C11 UNL     1      17.592  37.925  -7.406  1.00  0.00     0.122 A 
HETATM   26  C12 UNL     1      16.866  37.133  -6.560  1.00  0.00     0.162 A 
HETATM   27  N4  UNL     1      16.080  36.049  -7.016  1.00  0.00    -0.080 NA
HETATM   28  N5  UNL     1      16.914  37.411  -5.230  1.00  0.00    -0.177 N 
HETATM   29  C13 UNL     1      17.637  38.417  -4.731  1.00  0.00     0.678 A 
ATOM     30  H5  UNL     1      16.378  36.828  -4.588  1.00  0.00     0.185 HD
HETATM   31  N7  UNL     1      18.346  39.188  -5.572  1.00  0.00    -0.175 N 
HETATM   32  C14 UNL     1      18.330  38.955  -6.884  1.00  0.00     0.145 A 
ATOM     33  H7  UNL     1      18.902  39.959  -5.202  1.00  0.00     0.186 HD
BRANCH  29  34
HETATM   34  N6  UNL     1      17.674  38.669  -3.457  1.00  0.00    -0.234 N 
ATOM     35  H62 UNL     1      17.284  37.990  -2.804  1.00  0.00     0.174 HD
ATOM     36  H61 UNL     1      18.084  39.528  -3.090  1.00  0.00     0.174 HD
ENDBRANCH  29  34
BRANCH  32  37
HETATM   37  N8  UNL     1      19.011  39.695  -7.706  1.00  0.00    -0.383 N 
ATOM     38  H82 UNL     1      19.909  40.096  -7.437  1.00  0.00     0.157 HD
ATOM     39  H81 UNL     1      18.620  39.864  -8.633  1.00  0.00     0.157 HD
ENDBRANCH  32  37
ENDBRANCH  23  25
ENDBRANCH   1  23
TORSDOF 14
ENDMDL
