MODEL 1
REMARK VINA RESULT: -8.516332621      0.000      0.000
REMARK  8 active torsions:
REMARK  status: ('A' for Active; 'I' for Inactive)
REMARK    1  A    between atoms: O1_2  and  C2_3 
REMARK    2  A    between atoms: C6_7  and  C7_8 
REMARK    3  A    between atoms: C7_8  and  N1_9 
REMARK    4  A    between atoms: N1_9  and  N2_10 
REMARK    5  A    between atoms: N2_10  and  C8_12 
REMARK    6  A    between atoms: N4_19  and  C13_21 
REMARK    7  A    between atoms: C16_24  and  O2_25 
REMARK    8  A    between atoms: O2_25  and  C17_26 
ROOT
HETATM    1  C8  UNL     1      -4.386   0.819  15.406  1.00  0.00     0.708 A 
HETATM    2  N3  UNL     1      -5.238   0.760  16.451  1.00  0.00    -0.199 N 
ATOM      3  H3  UNL     1      -5.420  -0.141  16.893  1.00  0.00     0.183 HD
HETATM    4  C9  UNL     1      -5.847   1.848  16.922  1.00  0.00     0.116 A 
HETATM    5  C10 UNL     1      -5.586   3.077  16.310  1.00  0.00    -0.001 A 
HETATM    6  C11 UNL     1      -6.289   4.261  16.869  1.00  0.00     0.054 C 
HETATM    7  C12 UNL     1      -4.723   3.142  15.251  1.00  0.00     0.129 A 
HETATM    8  N4  UNL     1      -4.416   4.168  14.631  1.00  0.00    -0.342 N 
ATOM      9  H4  UNL     1      -3.758   3.906  13.897  1.00  0.00     0.167 HD
HETATM   10  N5  UNL     1      -4.124   1.973  14.811  1.00  0.00    -0.174 N 
ATOM     11  H5  UNL     1      -3.477   2.000  14.023  1.00  0.00     0.186 HD
ENDROOT
BRANCH   8  12
HETATM   12  C13 UNL     1      -4.618   5.511  14.552  1.00  0.00     0.033 A 
HETATM   13  C14 UNL     1      -5.654   6.111  13.820  1.00  0.00     0.032 A 
HETATM   14  C15 UNL     1      -5.795   7.476  13.769  1.00  0.00     0.039 A 
HETATM   15  C16 UNL     1      -4.940   8.334  14.424  1.00  0.00     0.078 A 
HETATM   16  C18 UNL     1      -3.916   7.768  15.149  1.00  0.00     0.039 A 
HETATM   17  C19 UNL     1      -3.756   6.404  15.214  1.00  0.00     0.032 A 
BRANCH  15  18
HETATM   18  O2  UNL     1      -5.073   9.709  14.379  1.00  0.00    -0.255 OA
BRANCH  18  19
HETATM   19  C17 UNL     1      -4.082  10.534  13.765  1.00  0.00     0.530 C 
HETATM   20  F1  UNL     1      -4.644  11.521  13.002  1.00  0.00    -0.144 F 
HETATM   21  F2  UNL     1      -3.216  11.031  14.713  1.00  0.00    -0.144 F 
HETATM   22  F3  UNL     1      -3.345   9.719  12.910  1.00  0.00    -0.144 F 
ENDBRANCH  18  19
ENDBRANCH  15  18
ENDBRANCH   8  12
BRANCH   1  23
HETATM   23  N2  UNL     1      -3.806  -0.278  14.973  1.00  0.00    -0.065 N 
ATOM     24  H2  UNL     1      -3.429  -0.933  15.658  1.00  0.00     0.221 HD
BRANCH  23  25
HETATM   25  N1  UNL     1      -3.693  -0.561  13.734  1.00  0.00    -0.323 NA
BRANCH  25  26
HETATM   26  C7  UNL     1      -3.529  -0.796  12.581  1.00  0.00     0.221 C 
BRANCH  26  27
HETATM   27  C6  UNL     1      -3.946   0.187  11.547  1.00  0.00    -0.003 A 
HETATM   28  C5  UNL     1      -4.291  -0.179  10.267  1.00  0.00     0.014 A 
HETATM   29  C4  UNL     1      -4.676   0.764   9.330  1.00  0.00     0.004 A 
HETATM   30  C3  UNL     1      -4.727   2.101   9.652  1.00  0.00     0.037 A 
HETATM   31  C2  UNL     1      -4.384   2.481  10.926  1.00  0.00     0.069 A 
HETATM   32  C20 UNL     1      -4.002   1.544  11.854  1.00  0.00     0.050 A 
BRANCH  31  33
HETATM   33  O1  UNL     1      -4.424   3.813  11.281  1.00  0.00    -0.356 OA
HETATM   34  C1  UNL     1      -3.255   4.589  11.153  1.00  0.00     0.210 C 
ENDBRANCH  31  33
ENDBRANCH  26  27
ENDBRANCH  25  26
ENDBRANCH  23  25
ENDBRANCH   1  23
TORSDOF 8
ENDMDL
MODEL 2
REMARK VINA RESULT: -8.327633454      1.187      1.233
REMARK  8 active torsions:
REMARK  status: ('A' for Active; 'I' for Inactive)
REMARK    1  A    between atoms: O1_2  and  C2_3 
REMARK    2  A    between atoms: C6_7  and  C7_8 
REMARK    3  A    between atoms: C7_8  and  N1_9 
REMARK    4  A    between atoms: N1_9  and  N2_10 
REMARK    5  A    between atoms: N2_10  and  C8_12 
REMARK    6  A    between atoms: N4_19  and  C13_21 
REMARK    7  A    between atoms: C16_24  and  O2_25 
REMARK    8  A    between atoms: O2_25  and  C17_26 
ROOT
HETATM    1  C8  UNL     1      -4.397   0.847  15.345  1.00  0.00     0.708 A 
HETATM    2  N3  UNL     1      -5.259   0.782  16.381  1.00  0.00    -0.199 N 
ATOM      3  H3  UNL     1      -5.453  -0.123  16.809  1.00  0.00     0.183 HD
HETATM    4  C9  UNL     1      -5.863   1.869  16.860  1.00  0.00     0.116 A 
HETATM    5  C10 UNL     1      -5.586   3.103  16.266  1.00  0.00    -0.001 A 
HETATM    6  C11 UNL     1      -6.283   4.286  16.834  1.00  0.00     0.054 C 
HETATM    7  C12 UNL     1      -4.712   3.175  15.216  1.00  0.00     0.129 A 
HETATM    8  N4  UNL     1      -4.390   4.205  14.613  1.00  0.00    -0.342 N 
ATOM      9  H4  UNL     1      -3.728   3.947  13.882  1.00  0.00     0.167 HD
HETATM   10  N5  UNL     1      -4.119   2.005  14.767  1.00  0.00    -0.174 N 
ATOM     11  H5  UNL     1      -3.465   2.038  13.985  1.00  0.00     0.186 HD
ENDROOT
BRANCH   8  12
HETATM   12  C13 UNL     1      -4.581   5.552  14.549  1.00  0.00     0.033 A 
HETATM   13  C14 UNL     1      -5.624   6.168  13.842  1.00  0.00     0.032 A 
HETATM   14  C15 UNL     1      -5.752   7.535  13.805  1.00  0.00     0.039 A 
HETATM   15  C16 UNL     1      -4.876   8.378  14.451  1.00  0.00     0.078 A 
HETATM   16  C18 UNL     1      -3.844   7.795  15.152  1.00  0.00     0.039 A 
HETATM   17  C19 UNL     1      -3.697   6.429  15.202  1.00  0.00     0.032 A 
BRANCH  15  18
HETATM   18  O2  UNL     1      -4.995   9.755  14.421  1.00  0.00    -0.255 OA
BRANCH  18  19
HETATM   19  C17 UNL     1      -4.014  10.574  13.784  1.00  0.00     0.530 C 
HETATM   20  F1  UNL     1      -4.589  11.557  13.024  1.00  0.00    -0.144 F 
HETATM   21  F2  UNL     1      -3.132  11.077  14.714  1.00  0.00    -0.144 F 
HETATM   22  F3  UNL     1      -3.293   9.753  12.922  1.00  0.00    -0.144 F 
ENDBRANCH  18  19
ENDBRANCH  15  18
ENDBRANCH   8  12
BRANCH   1  23
HETATM   23  N2  UNL     1      -3.822  -0.250  14.903  1.00  0.00    -0.065 N 
ATOM     24  H2  UNL     1      -3.474  -0.926  15.583  1.00  0.00     0.221 HD
BRANCH  23  25
HETATM   25  N1  UNL     1      -3.680  -0.508  13.661  1.00  0.00    -0.323 NA
BRANCH  25  26
HETATM   26  C7  UNL     1      -3.550  -0.683  12.493  1.00  0.00     0.221 C 
BRANCH  26  27
HETATM   27  C6  UNL     1      -3.484   0.475  11.563  1.00  0.00    -0.003 A 
HETATM   28  C5  UNL     1      -4.604   1.064  11.027  1.00  0.00     0.014 A 
HETATM   29  C4  UNL     1      -4.505   2.142  10.164  1.00  0.00     0.004 A 
HETATM   30  C3  UNL     1      -3.278   2.659   9.816  1.00  0.00     0.037 A 
HETATM   31  C2  UNL     1      -2.151   2.080  10.344  1.00  0.00     0.069 A 
HETATM   32  C20 UNL     1      -2.252   1.010  11.199  1.00  0.00     0.050 A 
BRANCH  31  33
HETATM   33  O1  UNL     1      -0.905   2.573  10.016  1.00  0.00    -0.356 OA
HETATM   34  C1  UNL     1      -0.026   2.951  11.051  1.00  0.00     0.210 C 
ENDBRANCH  31  33
ENDBRANCH  26  27
ENDBRANCH  25  26
ENDBRANCH  23  25
ENDBRANCH   1  23
TORSDOF 8
ENDMDL
MODEL 3
REMARK VINA RESULT: -8.079645767      0.859      1.307
REMARK  8 active torsions:
REMARK  status: ('A' for Active; 'I' for Inactive)
REMARK    1  A    between atoms: O1_2  and  C2_3 
REMARK    2  A    between atoms: C6_7  and  C7_8 
REMARK    3  A    between atoms: C7_8  and  N1_9 
REMARK    4  A    between atoms: N1_9  and  N2_10 
REMARK    5  A    between atoms: N2_10  and  C8_12 
REMARK    6  A    between atoms: N4_19  and  C13_21 
REMARK    7  A    between atoms: C16_24  and  O2_25 
REMARK    8  A    between atoms: O2_25  and  C17_26 
ROOT
HETATM    1  C8  UNL     1      -4.450   0.869  15.461  1.00  0.00     0.708 A 
HETATM    2  N3  UNL     1      -5.361   0.841  16.456  1.00  0.00    -0.199 N 
ATOM      3  H3  UNL     1      -5.604  -0.053  16.882  1.00  0.00     0.183 HD
HETATM    4  C9  UNL     1      -5.951   1.951  16.898  1.00  0.00     0.116 A 
HETATM    5  C10 UNL     1      -5.607   3.170  16.308  1.00  0.00    -0.001 A 
HETATM    6  C11 UNL     1      -6.292   4.380  16.834  1.00  0.00     0.054 C 
HETATM    7  C12 UNL     1      -4.684   3.205  15.299  1.00  0.00     0.129 A 
HETATM    8  N4  UNL     1      -4.301   4.219  14.704  1.00  0.00    -0.342 N 
ATOM      9  H4  UNL     1      -3.614   3.933  14.006  1.00  0.00     0.167 HD
HETATM   10  N5  UNL     1      -4.109   2.013  14.887  1.00  0.00    -0.174 N 
ATOM     11  H5  UNL     1      -3.418   2.017  14.137  1.00  0.00     0.186 HD
ENDROOT
BRANCH   8  12
HETATM   12  C13 UNL     1      -4.445   5.570  14.621  1.00  0.00     0.033 A 
HETATM   13  C14 UNL     1      -3.632   6.493  15.296  1.00  0.00     0.032 A 
HETATM   14  C15 UNL     1      -3.839   7.845  15.181  1.00  0.00     0.039 A 
HETATM   15  C16 UNL     1      -4.845   8.377  14.406  1.00  0.00     0.078 A 
HETATM   16  C18 UNL     1      -5.655   7.491  13.733  1.00  0.00     0.039 A 
HETATM   17  C19 UNL     1      -5.465   6.133  13.834  1.00  0.00     0.032 A 
BRANCH  15  18
HETATM   18  O2  UNL     1      -5.062   9.737  14.283  1.00  0.00    -0.255 OA
BRANCH  18  19
HETATM   19  C17 UNL     1      -4.086  10.596  13.692  1.00  0.00     0.530 C 
HETATM   20  F1  UNL     1      -4.666  11.574  12.929  1.00  0.00    -0.144 F 
HETATM   21  F2  UNL     1      -3.251  11.110  14.658  1.00  0.00    -0.144 F 
HETATM   22  F3  UNL     1      -3.312   9.812  12.842  1.00  0.00    -0.144 F 
ENDBRANCH  18  19
ENDBRANCH  15  18
ENDBRANCH   8  12
BRANCH   1  23
HETATM   23  N2  UNL     1      -3.891  -0.249  15.054  1.00  0.00    -0.065 N 
ATOM     24  H2  UNL     1      -3.595  -0.929  15.755  1.00  0.00     0.221 HD
BRANCH  23  25
HETATM   25  N1  UNL     1      -3.703  -0.524  13.822  1.00  0.00    -0.323 NA
BRANCH  25  26
HETATM   26  C7  UNL     1      -3.547  -0.719  12.661  1.00  0.00     0.221 C 
BRANCH  26  27
HETATM   27  C6  UNL     1      -3.140   0.392  11.761  1.00  0.00    -0.003 A 
HETATM   28  C5  UNL     1      -1.890   0.469  11.192  1.00  0.00     0.014 A 
HETATM   29  C4  UNL     1      -1.545   1.518  10.357  1.00  0.00     0.004 A 
HETATM   30  C3  UNL     1      -2.446   2.517  10.068  1.00  0.00     0.037 A 
HETATM   31  C2  UNL     1      -3.697   2.453  10.629  1.00  0.00     0.069 A 
HETATM   32  C20 UNL     1      -4.036   1.413  11.458  1.00  0.00     0.050 A 
BRANCH  31  33
HETATM   33  O1  UNL     1      -4.623   3.439  10.361  1.00  0.00    -0.356 OA
HETATM   34  C1  UNL     1      -4.168   4.734  10.040  1.00  0.00     0.210 C 
ENDBRANCH  31  33
ENDBRANCH  26  27
ENDBRANCH  25  26
ENDBRANCH  23  25
ENDBRANCH   1  23
TORSDOF 8
ENDMDL
MODEL 4
REMARK VINA RESULT: -7.990268053      4.673      7.128
REMARK  8 active torsions:
REMARK  status: ('A' for Active; 'I' for Inactive)
REMARK    1  A    between atoms: O1_2  and  C2_3 
REMARK    2  A    between atoms: C6_7  and  C7_8 
REMARK    3  A    between atoms: C7_8  and  N1_9 
REMARK    4  A    between atoms: N1_9  and  N2_10 
REMARK    5  A    between atoms: N2_10  and  C8_12 
REMARK    6  A    between atoms: N4_19  and  C13_21 
REMARK    7  A    between atoms: C16_24  and  O2_25 
REMARK    8  A    between atoms: O2_25  and  C17_26 
ROOT
HETATM    1  C8  UNL     1      -3.438   0.695  12.001  1.00  0.00     0.708 A 
HETATM    2  N3  UNL     1      -4.388   1.267  11.233  1.00  0.00    -0.199 N 
ATOM      3  H3  UNL     1      -5.346   0.921  11.289  1.00  0.00     0.183 HD
HETATM    4  C9  UNL     1      -4.109   2.273  10.405  1.00  0.00     0.116 A 
HETATM    5  C10 UNL     1      -2.793   2.739  10.341  1.00  0.00    -0.001 A 
HETATM    6  C11 UNL     1      -2.530   3.860   9.402  1.00  0.00     0.054 C 
HETATM    7  C12 UNL     1      -1.826   2.163  11.118  1.00  0.00     0.129 A 
HETATM    8  N4  UNL     1      -0.633   2.488  11.147  1.00  0.00    -0.342 N 
ATOM      9  H4  UNL     1      -0.158   1.883  11.816  1.00  0.00     0.167 HD
HETATM   10  N5  UNL     1      -2.184   1.120  11.957  1.00  0.00    -0.174 N 
ATOM     11  H5  UNL     1      -1.478   0.678  12.545  1.00  0.00     0.186 HD
ENDROOT
BRANCH   8  12
HETATM   12  C13 UNL     1       0.291   3.344  10.629  1.00  0.00     0.033 A 
HETATM   13  C14 UNL     1       0.991   3.120   9.434  1.00  0.00     0.032 A 
HETATM   14  C15 UNL     1       1.922   4.017   8.973  1.00  0.00     0.039 A 
HETATM   15  C16 UNL     1       2.225   5.180   9.644  1.00  0.00     0.078 A 
HETATM   16  C18 UNL     1       1.550   5.422  10.819  1.00  0.00     0.039 A 
HETATM   17  C19 UNL     1       0.614   4.537  11.299  1.00  0.00     0.032 A 
BRANCH  15  18
HETATM   18  O2  UNL     1       3.160   6.091   9.188  1.00  0.00    -0.255 OA
BRANCH  18  19
HETATM   19  C17 UNL     1       4.558   5.802   9.219  1.00  0.00     0.530 C 
HETATM   20  F1  UNL     1       4.949   5.064   8.135  1.00  0.00    -0.144 F 
HETATM   21  F2  UNL     1       5.286   6.963   9.354  1.00  0.00    -0.144 F 
HETATM   22  F3  UNL     1       4.790   5.027  10.352  1.00  0.00    -0.144 F 
ENDBRANCH  18  19
ENDBRANCH  15  18
ENDBRANCH   8  12
BRANCH   1  23
HETATM   23  N2  UNL     1      -3.756  -0.295  12.806  1.00  0.00    -0.065 N 
ATOM     24  H2  UNL     1      -3.978  -1.203  12.397  1.00  0.00     0.221 HD
BRANCH  23  25
HETATM   25  N1  UNL     1      -3.798  -0.172  14.076  1.00  0.00    -0.323 NA
BRANCH  25  26
HETATM   26  C7  UNL     1      -3.838   0.008  15.249  1.00  0.00     0.221 C 
BRANCH  26  27
HETATM   27  C6  UNL     1      -4.631   1.133  15.811  1.00  0.00    -0.003 A 
HETATM   28  C5  UNL     1      -5.137   1.122  17.089  1.00  0.00     0.014 A 
HETATM   29  C4  UNL     1      -5.870   2.188  17.580  1.00  0.00     0.004 A 
HETATM   30  C3  UNL     1      -6.114   3.296  16.801  1.00  0.00     0.037 A 
HETATM   31  C2  UNL     1      -5.616   3.321  15.523  1.00  0.00     0.069 A 
HETATM   32  C20 UNL     1      -4.889   2.261  15.038  1.00  0.00     0.050 A 
BRANCH  31  33
HETATM   33  O1  UNL     1      -5.843   4.416  14.716  1.00  0.00    -0.356 OA
HETATM   34  C1  UNL     1      -4.971   5.520  14.803  1.00  0.00     0.210 C 
ENDBRANCH  31  33
ENDBRANCH  26  27
ENDBRANCH  25  26
ENDBRANCH  23  25
ENDBRANCH   1  23
TORSDOF 8
ENDMDL
MODEL 5
REMARK VINA RESULT: -7.867326800      2.080      3.314
REMARK  8 active torsions:
REMARK  status: ('A' for Active; 'I' for Inactive)
REMARK    1  A    between atoms: O1_2  and  C2_3 
REMARK    2  A    between atoms: C6_7  and  C7_8 
REMARK    3  A    between atoms: C7_8  and  N1_9 
REMARK    4  A    between atoms: N1_9  and  N2_10 
REMARK    5  A    between atoms: N2_10  and  C8_12 
REMARK    6  A    between atoms: N4_19  and  C13_21 
REMARK    7  A    between atoms: C16_24  and  O2_25 
REMARK    8  A    between atoms: O2_25  and  C17_26 
ROOT
HETATM    1  C8  UNL     1      -3.068   3.308  15.199  1.00  0.00     0.708 A 
HETATM    2  N3  UNL     1      -1.841   3.824  14.977  1.00  0.00    -0.199 N 
ATOM      3  H3  UNL     1      -1.019   3.291  15.264  1.00  0.00     0.183 HD
HETATM    4  C9  UNL     1      -1.673   5.010  14.394  1.00  0.00     0.116 A 
HETATM    5  C10 UNL     1      -2.806   5.728  14.004  1.00  0.00    -0.001 A 
HETATM    6  C11 UNL     1      -2.569   7.045  13.358  1.00  0.00     0.054 C 
HETATM    7  C12 UNL     1      -4.053   5.210  14.225  1.00  0.00     0.129 A 
HETATM    8  N4  UNL     1      -5.124   5.751  13.925  1.00  0.00    -0.342 N 
ATOM      9  H4  UNL     1      -5.880   5.130  14.213  1.00  0.00     0.167 HD
HETATM   10  N5  UNL     1      -4.156   3.971  14.838  1.00  0.00    -0.174 N 
ATOM     11  H5  UNL     1      -5.076   3.567  15.011  1.00  0.00     0.186 HD
ENDROOT
BRANCH   8  12
HETATM   12  C13 UNL     1      -5.682   6.856  13.359  1.00  0.00     0.033 A 
HETATM   13  C14 UNL     1      -6.175   7.950  14.085  1.00  0.00     0.032 A 
HETATM   14  C15 UNL     1      -6.740   9.030  13.452  1.00  0.00     0.039 A 
HETATM   15  C16 UNL     1      -6.858   9.108  12.083  1.00  0.00     0.078 A 
HETATM   16  C18 UNL     1      -6.380   8.046  11.350  1.00  0.00     0.039 A 
HETATM   17  C19 UNL     1      -5.811   6.955  11.962  1.00  0.00     0.032 A 
BRANCH  15  18
HETATM   18  O2  UNL     1      -7.425  10.191  11.436  1.00  0.00    -0.255 OA
BRANCH  18  19
HETATM   19  C17 UNL     1      -6.650  11.043  10.591  1.00  0.00     0.530 C 
HETATM   20  F1  UNL     1      -5.374  11.201  11.061  1.00  0.00    -0.144 F 
HETATM   21  F2  UNL     1      -6.679  10.585   9.293  1.00  0.00    -0.144 F 
HETATM   22  F3  UNL     1      -7.256  12.296  10.608  1.00  0.00    -0.144 F 
ENDBRANCH  18  19
ENDBRANCH  15  18
ENDBRANCH   8  12
BRANCH   1  23
HETATM   23  N2  UNL     1      -3.189   2.134  15.777  1.00  0.00    -0.065 N 
ATOM     24  H2  UNL     1      -3.069   2.074  16.789  1.00  0.00     0.221 HD
BRANCH  23  25
HETATM   25  N1  UNL     1      -3.452   1.065  15.131  1.00  0.00    -0.323 NA
BRANCH  25  26
HETATM   26  C7  UNL     1      -3.653   0.090  14.484  1.00  0.00     0.221 C 
BRANCH  26  27
HETATM   27  C6  UNL     1      -3.804   0.185  13.008  1.00  0.00    -0.003 A 
HETATM   28  C5  UNL     1      -3.569  -0.877  12.166  1.00  0.00     0.014 A 
HETATM   29  C4  UNL     1      -3.721  -0.753  10.796  1.00  0.00     0.004 A 
HETATM   30  C3  UNL     1      -4.113   0.440  10.233  1.00  0.00     0.037 A 
HETATM   31  C2  UNL     1      -4.350   1.508  11.062  1.00  0.00     0.069 A 
HETATM   32  C20 UNL     1      -4.198   1.383  12.421  1.00  0.00     0.050 A 
BRANCH  31  33
HETATM   33  O1  UNL     1      -4.745   2.718  10.530  1.00  0.00    -0.356 OA
HETATM   34  C1  UNL     1      -3.935   3.852  10.739  1.00  0.00     0.210 C 
ENDBRANCH  31  33
ENDBRANCH  26  27
ENDBRANCH  25  26
ENDBRANCH  23  25
ENDBRANCH   1  23
TORSDOF 8
ENDMDL
