MODEL 1
REMARK VINA RESULT: -5.176915369      0.000      0.000
REMARK  11 active torsions:
REMARK  status: ('A' for Active; 'I' for Inactive)
REMARK    1  A    between atoms: O1_2  and  C2_3 
REMARK    2  A    between atoms: C3_4  and  N1_5 
REMARK    3  A    between atoms: N1_5  and  C4_7 
REMARK    4  A    between atoms: C6_10  and  N2_11 
REMARK    5  A    between atoms: C11_21  and  O5_22 
REMARK    6  A    between atoms: C13_25  and  N3_26 
REMARK    7  A    between atoms: C14_30  and  O6_31 
REMARK    8  A    between atoms: O6_31  and  C15_32 
REMARK    9  A    between atoms: C15_32  and  C16_33 
REMARK   10  A    between atoms: C16_33  and  N4_34 
REMARK   11  A    between atoms: C17_38  and  N5_39 
ROOT
HETATM    1  C2  UNL     1     -25.352  28.684  -3.605  1.00  0.00     0.176 C 
HETATM    2  C3  UNL     1     -25.359  27.615  -2.539  1.00  0.00     0.112 C 
HETATM    3  C12 UNL     1     -24.137  26.780  -2.491  1.00  0.00     0.063 C 
HETATM    4  C13 UNL     1     -23.222  26.852  -3.661  1.00  0.00     0.216 C 
HETATM    5  C14 UNL     1     -23.889  27.133  -4.983  1.00  0.00     0.184 C 
HETATM    6  C17 UNL     1     -24.930  28.218  -4.939  1.00  0.00     0.245 C 
ENDROOT
BRANCH   2   7
HETATM    7  N1  UNL     1     -25.618  28.222  -1.292  1.00  0.00    -0.388 N 
ATOM      8  H1  UNL     1     -26.496  28.717  -1.135  1.00  0.00     0.156 HD
BRANCH   7   9
HETATM    9  C4  UNL     1     -24.656  28.140  -0.265  1.00  0.00     0.249 C 
HETATM   10  O2  UNL     1     -24.229  29.441   0.014  1.00  0.00    -0.354 OA
HETATM   11  C5  UNL     1     -24.459  29.662   1.375  1.00  0.00     0.189 C 
HETATM   12  C6  UNL     1     -23.601  30.758   1.844  1.00  0.00     0.217 C 
HETATM   13  C10 UNL     1     -24.305  28.324   2.030  1.00  0.00     0.224 C 
HETATM   14  C7  UNL     1     -22.976  30.648   3.187  1.00  0.00     0.070 C 
HETATM   15  C8  UNL     1     -23.532  29.563   4.059  1.00  0.00     0.158 C 
HETATM   16  C9  UNL     1     -23.291  29.946   5.503  1.00  0.00     0.042 C 
HETATM   17  O3  UNL     1     -24.877  29.344   3.862  1.00  0.00    -0.235 OA
HETATM   18  O4  UNL     1     -24.979  28.199   3.223  1.00  0.00    -0.230 OA
HETATM   19  C11 UNL     1     -25.100  27.495   1.000  1.00  0.00     0.201 C 
BRANCH  12  20
HETATM   20  N2  UNL     1     -22.529  30.996   0.858  1.00  0.00    -0.072 N 
ATOM     21  H23 UNL     1     -21.615  31.092   1.298  1.00  0.00     0.274 HD
ATOM     22  H22 UNL     1     -22.334  30.170   0.293  1.00  0.00     0.274 HD
ATOM     23  H21 UNL     1     -22.770  31.806   0.287  1.00  0.00     0.274 HD
ENDBRANCH  12  20
BRANCH  19  24
HETATM   24  O5  UNL     1     -26.441  27.711   1.311  1.00  0.00    -0.388 OA
ATOM     25  H5  UNL     1     -26.729  27.283   2.108  1.00  0.00     0.210 HD
ENDBRANCH  19  24
ENDBRANCH   7   9
ENDBRANCH   2   7
BRANCH   1  26
HETATM   26  O1  UNL     1     -24.684  29.844  -3.203  1.00  0.00    -0.386 OA
HETATM   27  C1  UNL     1     -25.540  30.940  -3.041  1.00  0.00     0.202 C 
ENDBRANCH   1  26
BRANCH   6  28
HETATM   28  N5  UNL     1     -24.376  29.372  -5.658  1.00  0.00    -0.070 N 
ATOM     29  H53 UNL     1     -24.985  30.189  -5.627  1.00  0.00     0.274 HD
ATOM     30  H52 UNL     1     -23.572  29.786  -5.184  1.00  0.00     0.274 HD
ATOM     31  H51 UNL     1     -24.164  29.070  -6.609  1.00  0.00     0.274 HD
ENDBRANCH   6  28
BRANCH   4  32
HETATM   32  N3  UNL     1     -22.083  27.726  -3.442  1.00  0.00    -0.072 N 
ATOM     33  H33 UNL     1     -21.759  28.126  -4.323  1.00  0.00     0.274 HD
ATOM     34  H32 UNL     1     -22.367  28.580  -2.964  1.00  0.00     0.274 HD
ATOM     35  H31 UNL     1     -21.317  27.269  -2.947  1.00  0.00     0.274 HD
ENDBRANCH   4  32
BRANCH   5  36
HETATM   36  O6  UNL     1     -22.893  27.443  -5.881  1.00  0.00    -0.380 OA
BRANCH  36  37
HETATM   37  C15 UNL     1     -22.456  26.527  -6.747  1.00  0.00     0.195 C 
BRANCH  37  38
HETATM   38  C16 UNL     1     -23.160  25.231  -6.907  1.00  0.00     0.255 C 
BRANCH  38  39
HETATM   39  N4  UNL     1     -22.431  24.071  -6.488  1.00  0.00    -0.077 N 
ATOM     40  H43 UNL     1     -21.521  24.047  -6.947  1.00  0.00     0.274 HD
ATOM     41  H42 UNL     1     -22.141  24.175  -5.516  1.00  0.00     0.274 HD
ATOM     42  H41 UNL     1     -22.908  23.178  -6.615  1.00  0.00     0.274 HD
ENDBRANCH  38  39
ENDBRANCH  37  38
ENDBRANCH  36  37
ENDBRANCH   5  36
TORSDOF 11
ENDMDL
MODEL 2
REMARK VINA RESULT: -5.090370964      2.261      8.180
REMARK  11 active torsions:
REMARK  status: ('A' for Active; 'I' for Inactive)
REMARK    1  A    between atoms: O1_2  and  C2_3 
REMARK    2  A    between atoms: C3_4  and  N1_5 
REMARK    3  A    between atoms: N1_5  and  C4_7 
REMARK    4  A    between atoms: C6_10  and  N2_11 
REMARK    5  A    between atoms: C11_21  and  O5_22 
REMARK    6  A    between atoms: C13_25  and  N3_26 
REMARK    7  A    between atoms: C14_30  and  O6_31 
REMARK    8  A    between atoms: O6_31  and  C15_32 
REMARK    9  A    between atoms: C15_32  and  C16_33 
REMARK   10  A    between atoms: C16_33  and  N4_34 
REMARK   11  A    between atoms: C17_38  and  N5_39 
ROOT
HETATM    1  C2  UNL     1     -25.178  28.696   0.164  1.00  0.00     0.176 C 
HETATM    2  C3  UNL     1     -24.580  29.289  -1.089  1.00  0.00     0.112 C 
HETATM    3  C12 UNL     1     -23.771  30.510  -0.871  1.00  0.00     0.063 C 
HETATM    4  C13 UNL     1     -23.910  31.188   0.445  1.00  0.00     0.216 C 
HETATM    5  C14 UNL     1     -25.262  31.056   1.097  1.00  0.00     0.184 C 
HETATM    6  C17 UNL     1     -25.848  29.672   1.045  1.00  0.00     0.245 C 
ENDROOT
BRANCH   2   7
HETATM    7  N1  UNL     1     -23.836  28.290  -1.751  1.00  0.00    -0.388 N 
ATOM      8  H1  UNL     1     -23.102  27.783  -1.255  1.00  0.00     0.156 HD
BRANCH   7   9
HETATM    9  C4  UNL     1     -24.112  27.997  -3.101  1.00  0.00     0.249 C 
HETATM   10  O2  UNL     1     -22.910  28.100  -3.807  1.00  0.00    -0.354 OA
HETATM   11  C5  UNL     1     -22.704  26.871  -4.441  1.00  0.00     0.189 C 
HETATM   12  C6  UNL     1     -21.782  27.052  -5.569  1.00  0.00     0.217 C 
HETATM   13  C10 UNL     1     -24.071  26.335  -4.733  1.00  0.00     0.224 C 
HETATM   14  C7  UNL     1     -22.042  26.305  -6.827  1.00  0.00     0.070 C 
HETATM   15  C8  UNL     1     -23.050  25.203  -6.714  1.00  0.00     0.158 C 
HETATM   16  C9  UNL     1     -22.765  24.186  -7.798  1.00  0.00     0.042 C 
HETATM   17  O3  UNL     1     -23.037  24.578  -5.487  1.00  0.00    -0.235 OA
HETATM   18  O4  UNL     1     -24.126  24.966  -4.859  1.00  0.00    -0.230 OA
HETATM   19  C11 UNL     1     -24.720  26.666  -3.373  1.00  0.00     0.201 C 
BRANCH  12  20
HETATM   20  N2  UNL     1     -21.689  28.487  -5.900  1.00  0.00    -0.072 N 
ATOM     21  H23 UNL     1     -22.157  28.712  -6.777  1.00  0.00     0.274 HD
ATOM     22  H22 UNL     1     -22.257  29.063  -5.280  1.00  0.00     0.274 HD
ATOM     23  H21 UNL     1     -20.709  28.770  -5.901  1.00  0.00     0.274 HD
ENDBRANCH  12  20
BRANCH  19  24
HETATM   24  O5  UNL     1     -24.296  25.658  -2.509  1.00  0.00    -0.388 OA
ATOM     25  H5  UNL     1     -24.549  24.783  -2.779  1.00  0.00     0.210 HD
ENDBRANCH  19  24
ENDBRANCH   7   9
ENDBRANCH   2   7
BRANCH   1  26
HETATM   26  O1  UNL     1     -24.284  27.873   0.854  1.00  0.00    -0.386 OA
HETATM   27  C1  UNL     1     -24.695  26.535   0.898  1.00  0.00     0.202 C 
ENDBRANCH   1  26
BRANCH   6  28
HETATM   28  N5  UNL     1     -25.806  29.137   2.412  1.00  0.00    -0.070 N 
ATOM     29  H53 UNL     1     -26.732  28.935   2.788  1.00  0.00     0.274 HD
ATOM     30  H52 UNL     1     -25.435  28.188   2.455  1.00  0.00     0.274 HD
ATOM     31  H51 UNL     1     -25.280  29.796   2.985  1.00  0.00     0.274 HD
ENDBRANCH   6  28
BRANCH   4  32
HETATM   32  N3  UNL     1     -22.839  30.865   1.371  1.00  0.00    -0.072 N 
ATOM     33  H33 UNL     1     -23.166  30.229   2.098  1.00  0.00     0.274 HD
ATOM     34  H32 UNL     1     -22.143  30.267   0.926  1.00  0.00     0.274 HD
ATOM     35  H31 UNL     1     -22.401  31.691   1.780  1.00  0.00     0.274 HD
ENDBRANCH   4  32
BRANCH   5  36
HETATM   36  O6  UNL     1     -25.129  31.485   2.398  1.00  0.00    -0.380 OA
BRANCH  36  37
HETATM   37  C15 UNL     1     -25.742  32.595   2.810  1.00  0.00     0.195 C 
BRANCH  37  38
HETATM   38  C16 UNL     1     -25.060  33.911   2.744  1.00  0.00     0.255 C 
BRANCH  38  39
HETATM   39  N4  UNL     1     -23.870  34.036   3.534  1.00  0.00    -0.077 N 
ATOM     40  H43 UNL     1     -23.958  33.483   4.386  1.00  0.00     0.274 HD
ATOM     41  H42 UNL     1     -23.098  33.547   3.080  1.00  0.00     0.274 HD
ATOM     42  H41 UNL     1     -23.589  34.989   3.766  1.00  0.00     0.274 HD
ENDBRANCH  38  39
ENDBRANCH  37  38
ENDBRANCH  36  37
ENDBRANCH   5  36
TORSDOF 11
ENDMDL
MODEL 3
REMARK VINA RESULT: -5.023315706      4.811      7.394
REMARK  11 active torsions:
REMARK  status: ('A' for Active; 'I' for Inactive)
REMARK    1  A    between atoms: O1_2  and  C2_3 
REMARK    2  A    between atoms: C3_4  and  N1_5 
REMARK    3  A    between atoms: N1_5  and  C4_7 
REMARK    4  A    between atoms: C6_10  and  N2_11 
REMARK    5  A    between atoms: C11_21  and  O5_22 
REMARK    6  A    between atoms: C13_25  and  N3_26 
REMARK    7  A    between atoms: C14_30  and  O6_31 
REMARK    8  A    between atoms: O6_31  and  C15_32 
REMARK    9  A    between atoms: C15_32  and  C16_33 
REMARK   10  A    between atoms: C16_33  and  N4_34 
REMARK   11  A    between atoms: C17_38  and  N5_39 
ROOT
HETATM    1  C2  UNL     1     -24.406  31.078   3.165  1.00  0.00     0.176 C 
HETATM    2  C3  UNL     1     -25.844  30.885   3.583  1.00  0.00     0.112 C 
HETATM    3  C12 UNL     1     -26.520  29.725   2.958  1.00  0.00     0.063 C 
HETATM    4  C13 UNL     1     -25.854  29.108   1.780  1.00  0.00     0.216 C 
HETATM    5  C14 UNL     1     -25.043  30.053   0.931  1.00  0.00     0.184 C 
HETATM    6  C17 UNL     1     -24.175  31.003   1.709  1.00  0.00     0.245 C 
ENDROOT
BRANCH   2   7
HETATM    7  N1  UNL     1     -25.899  30.815   4.991  1.00  0.00    -0.388 N 
ATOM      8  H1  UNL     1     -25.039  30.834   5.540  1.00  0.00     0.156 HD
BRANCH   7   9
HETATM    9  C4  UNL     1     -27.149  30.720   5.635  1.00  0.00     0.249 C 
HETATM   10  O2  UNL     1     -26.907  30.516   6.996  1.00  0.00    -0.354 OA
HETATM   11  C5  UNL     1     -27.558  31.544   7.684  1.00  0.00     0.189 C 
HETATM   12  C6  UNL     1     -27.783  31.134   9.075  1.00  0.00     0.217 C 
HETATM   13  C10 UNL     1     -28.756  31.887   6.852  1.00  0.00     0.224 C 
HETATM   14  C7  UNL     1     -29.068  31.501   9.726  1.00  0.00     0.070 C 
HETATM   15  C8  UNL     1     -29.883  32.521   8.991  1.00  0.00     0.158 C 
HETATM   16  C9  UNL     1     -30.768  33.231   9.993  1.00  0.00     0.042 C 
HETATM   17  O3  UNL     1     -29.117  33.448   8.321  1.00  0.00    -0.235 OA
HETATM   18  O4  UNL     1     -29.225  33.167   7.041  1.00  0.00    -0.230 OA
HETATM   19  C11 UNL     1     -28.061  31.886   5.475  1.00  0.00     0.201 C 
BRANCH  12  20
HETATM   20  N2  UNL     1     -27.614  29.673   9.189  1.00  0.00    -0.072 N 
ATOM     21  H23 UNL     1     -27.009  29.297   8.459  1.00  0.00     0.274 HD
ATOM     22  H22 UNL     1     -27.047  29.412   9.996  1.00  0.00     0.274 HD
ATOM     23  H21 UNL     1     -28.530  29.226   9.199  1.00  0.00     0.274 HD
ENDBRANCH  12  20
BRANCH  19  24
HETATM   24  O5  UNL     1     -27.407  33.113   5.392  1.00  0.00    -0.388 OA
ATOM     25  H5  UNL     1     -27.361  33.470   4.513  1.00  0.00     0.210 HD
ENDBRANCH  19  24
ENDBRANCH   7   9
ENDBRANCH   2   7
BRANCH   1  26
HETATM   26  O1  UNL     1     -23.519  30.282   3.893  1.00  0.00    -0.386 OA
HETATM   27  C1  UNL     1     -22.607  31.029   4.649  1.00  0.00     0.202 C 
ENDBRANCH   1  26
BRANCH   6  28
HETATM   28  N5  UNL     1     -22.785  30.581   1.503  1.00  0.00    -0.070 N 
ATOM     29  H53 UNL     1     -22.113  31.170   1.994  1.00  0.00     0.274 HD
ATOM     30  H52 UNL     1     -22.562  29.703   1.973  1.00  0.00     0.274 HD
ATOM     31  H51 UNL     1     -22.620  30.545   0.497  1.00  0.00     0.274 HD
ENDBRANCH   6  28
BRANCH   4  32
HETATM   32  N3  UNL     1     -25.103  27.910   2.111  1.00  0.00    -0.072 N 
ATOM     33  H33 UNL     1     -24.952  27.336   1.281  1.00  0.00     0.274 HD
ATOM     34  H32 UNL     1     -24.135  28.139   2.335  1.00  0.00     0.274 HD
ATOM     35  H31 UNL     1     -25.530  27.364   2.859  1.00  0.00     0.274 HD
ENDBRANCH   4  32
BRANCH   5  36
HETATM   36  O6  UNL     1     -24.286  29.283   0.078  1.00  0.00    -0.380 OA
BRANCH  36  37
HETATM   37  C15 UNL     1     -24.726  29.005  -1.151  1.00  0.00     0.195 C 
BRANCH  37  38
HETATM   38  C16 UNL     1     -24.682  27.620  -1.681  1.00  0.00     0.255 C 
BRANCH  38  39
HETATM   39  N4  UNL     1     -23.775  26.729  -1.020  1.00  0.00    -0.077 N 
ATOM     40  H43 UNL     1     -22.819  27.066  -1.123  1.00  0.00     0.274 HD
ATOM     41  H42 UNL     1     -23.887  26.806  -0.009  1.00  0.00     0.274 HD
ATOM     42  H41 UNL     1     -23.831  25.750  -1.302  1.00  0.00     0.274 HD
ENDBRANCH  38  39
ENDBRANCH  37  38
ENDBRANCH  36  37
ENDBRANCH   5  36
TORSDOF 11
ENDMDL
MODEL 4
REMARK VINA RESULT: -4.986483030      2.616      8.138
REMARK  11 active torsions:
REMARK  status: ('A' for Active; 'I' for Inactive)
REMARK    1  A    between atoms: O1_2  and  C2_3 
REMARK    2  A    between atoms: C3_4  and  N1_5 
REMARK    3  A    between atoms: N1_5  and  C4_7 
REMARK    4  A    between atoms: C6_10  and  N2_11 
REMARK    5  A    between atoms: C11_21  and  O5_22 
REMARK    6  A    between atoms: C13_25  and  N3_26 
REMARK    7  A    between atoms: C14_30  and  O6_31 
REMARK    8  A    between atoms: O6_31  and  C15_32 
REMARK    9  A    between atoms: C15_32  and  C16_33 
REMARK   10  A    between atoms: C16_33  and  N4_34 
REMARK   11  A    between atoms: C17_38  and  N5_39 
ROOT
HETATM    1  C2  UNL     1     -25.056  29.214   2.290  1.00  0.00     0.176 C 
HETATM    2  C3  UNL     1     -25.499  29.189   0.847  1.00  0.00     0.112 C 
HETATM    3  C12 UNL     1     -25.600  30.521   0.208  1.00  0.00     0.063 C 
HETATM    4  C13 UNL     1     -25.591  31.705   1.107  1.00  0.00     0.216 C 
HETATM    5  C14 UNL     1     -26.185  31.480   2.473  1.00  0.00     0.184 C 
HETATM    6  C17 UNL     1     -25.765  30.196   3.133  1.00  0.00     0.245 C 
ENDROOT
BRANCH   2   7
HETATM    7  N1  UNL     1     -24.638  28.335   0.125  1.00  0.00    -0.388 N 
ATOM      8  H1  UNL     1     -23.992  27.720   0.620  1.00  0.00     0.156 HD
BRANCH   7   9
HETATM    9  C4  UNL     1     -24.675  28.338  -1.283  1.00  0.00     0.249 C 
HETATM   10  O2  UNL     1     -23.360  28.466  -1.738  1.00  0.00    -0.354 OA
HETATM   11  C5  UNL     1     -23.108  27.372  -2.570  1.00  0.00     0.189 C 
HETATM   12  C6  UNL     1     -21.985  27.684  -3.462  1.00  0.00     0.217 C 
HETATM   13  C10 UNL     1     -24.426  27.031  -3.195  1.00  0.00     0.224 C 
HETATM   14  C7  UNL     1     -22.050  27.224  -4.874  1.00  0.00     0.070 C 
HETATM   15  C8  UNL     1     -23.121  26.219  -5.166  1.00  0.00     0.158 C 
HETATM   16  C9  UNL     1     -22.697  25.412  -6.374  1.00  0.00     0.042 C 
HETATM   17  O3  UNL     1     -23.369  25.368  -4.113  1.00  0.00    -0.235 OA
HETATM   18  O4  UNL     1     -24.532  25.724  -3.611  1.00  0.00    -0.230 OA
HETATM   19  C11 UNL     1     -25.296  27.148  -1.926  1.00  0.00     0.201 C 
BRANCH  12  20
HETATM   20  N2  UNL     1     -21.753  29.141  -3.465  1.00  0.00    -0.072 N 
ATOM     21  H23 UNL     1     -21.481  29.490  -2.547  1.00  0.00     0.274 HD
ATOM     22  H22 UNL     1     -20.908  29.396  -3.975  1.00  0.00     0.274 HD
ATOM     23  H21 UNL     1     -22.581  29.614  -3.829  1.00  0.00     0.274 HD
ENDBRANCH  12  20
BRANCH  19  24
HETATM   24  O5  UNL     1     -25.095  25.956  -1.233  1.00  0.00    -0.388 OA
ATOM     25  H5  UNL     1     -24.533  25.336  -1.681  1.00  0.00     0.210 HD
ENDBRANCH  19  24
ENDBRANCH   7   9
ENDBRANCH   2   7
BRANCH   1  26
HETATM   26  O1  UNL     1     -23.668  29.287   2.430  1.00  0.00    -0.386 OA
HETATM   27  C1  UNL     1     -23.146  28.278   3.248  1.00  0.00     0.202 C 
ENDBRANCH   1  26
BRANCH   6  28
HETATM   28  N5  UNL     1     -24.873  30.555   4.242  1.00  0.00    -0.070 N 
ATOM     29  H53 UNL     1     -24.441  31.471   4.123  1.00  0.00     0.274 HD
ATOM     30  H52 UNL     1     -25.375  30.756   5.107  1.00  0.00     0.274 HD
ATOM     31  H51 UNL     1     -24.190  29.804   4.344  1.00  0.00     0.274 HD
ENDBRANCH   6  28
BRANCH   4  32
HETATM   32  N3  UNL     1     -24.293  32.350   1.189  1.00  0.00    -0.072 N 
ATOM     33  H33 UNL     1     -23.815  32.320   0.289  1.00  0.00     0.274 HD
ATOM     34  H32 UNL     1     -24.395  33.359   1.291  1.00  0.00     0.274 HD
ATOM     35  H31 UNL     1     -23.702  31.968   1.928  1.00  0.00     0.274 HD
ENDBRANCH   4  32
BRANCH   5  36
HETATM   36  O6  UNL     1     -25.842  32.566   3.248  1.00  0.00    -0.380 OA
BRANCH  36  37
HETATM   37  C15 UNL     1     -26.627  33.643   3.286  1.00  0.00     0.195 C 
BRANCH  37  38
HETATM   38  C16 UNL     1     -26.058  34.993   3.518  1.00  0.00     0.255 C 
BRANCH  38  39
HETATM   39  N4  UNL     1     -24.688  35.027   3.939  1.00  0.00    -0.077 N 
ATOM     40  H43 UNL     1     -24.374  34.087   4.178  1.00  0.00     0.274 HD
ATOM     41  H42 UNL     1     -24.084  35.223   3.141  1.00  0.00     0.274 HD
ATOM     42  H41 UNL     1     -24.475  35.670   4.702  1.00  0.00     0.274 HD
ENDBRANCH  38  39
ENDBRANCH  37  38
ENDBRANCH  36  37
ENDBRANCH   5  36
TORSDOF 11
ENDMDL
MODEL 5
REMARK VINA RESULT: -4.949831048      2.818      7.809
REMARK  11 active torsions:
REMARK  status: ('A' for Active; 'I' for Inactive)
REMARK    1  A    between atoms: O1_2  and  C2_3 
REMARK    2  A    between atoms: C3_4  and  N1_5 
REMARK    3  A    between atoms: N1_5  and  C4_7 
REMARK    4  A    between atoms: C6_10  and  N2_11 
REMARK    5  A    between atoms: C11_21  and  O5_22 
REMARK    6  A    between atoms: C13_25  and  N3_26 
REMARK    7  A    between atoms: C14_30  and  O6_31 
REMARK    8  A    between atoms: O6_31  and  C15_32 
REMARK    9  A    between atoms: C15_32  and  C16_33 
REMARK   10  A    between atoms: C16_33  and  N4_34 
REMARK   11  A    between atoms: C17_38  and  N5_39 
ROOT
HETATM    1  C2  UNL     1     -25.428  29.557   3.006  1.00  0.00     0.176 C 
HETATM    2  C3  UNL     1     -26.540  29.177   2.056  1.00  0.00     0.112 C 
HETATM    3  C12 UNL     1     -26.866  30.205   1.042  1.00  0.00     0.063 C 
HETATM    4  C13 UNL     1     -26.330  31.573   1.268  1.00  0.00     0.216 C 
HETATM    5  C14 UNL     1     -26.164  31.969   2.713  1.00  0.00     0.184 C 
HETATM    6  C17 UNL     1     -25.551  30.908   3.585  1.00  0.00     0.245 C 
ENDROOT
BRANCH   2   7
HETATM    7  N1  UNL     1     -26.217  27.942   1.454  1.00  0.00    -0.388 N 
ATOM      8  H1  UNL     1     -25.919  27.153   2.029  1.00  0.00     0.156 HD
BRANCH   7   9
HETATM    9  C4  UNL     1     -26.307  27.807   0.055  1.00  0.00     0.249 C 
HETATM   10  O2  UNL     1     -25.378  28.683  -0.513  1.00  0.00    -0.354 OA
HETATM   11  C5  UNL     1     -24.534  27.915  -1.320  1.00  0.00     0.189 C 
HETATM   12  C6  UNL     1     -23.889  28.780  -2.315  1.00  0.00     0.217 C 
HETATM   13  C10 UNL     1     -25.378  26.783  -1.820  1.00  0.00     0.224 C 
HETATM   14  C7  UNL     1     -23.711  28.266  -3.698  1.00  0.00     0.070 C 
HETATM   15  C8  UNL     1     -23.935  26.794  -3.861  1.00  0.00     0.158 C 
HETATM   16  C9  UNL     1     -23.151  26.326  -5.069  1.00  0.00     0.042 C 
HETATM   17  O3  UNL     1     -23.555  26.061  -2.759  1.00  0.00    -0.235 OA
HETATM   18  O4  UNL     1     -24.665  25.661  -2.176  1.00  0.00    -0.230 OA
HETATM   19  C11 UNL     1     -26.077  26.440  -0.488  1.00  0.00     0.201 C 
BRANCH  12  20
HETATM   20  N2  UNL     1     -24.615  30.062  -2.393  1.00  0.00    -0.072 N 
ATOM     21  H23 UNL     1     -25.593  29.969  -2.121  1.00  0.00     0.274 HD
ATOM     22  H22 UNL     1     -24.324  30.715  -1.666  1.00  0.00     0.274 HD
ATOM     23  H21 UNL     1     -24.509  30.454  -3.329  1.00  0.00     0.274 HD
ENDBRANCH  12  20
BRANCH  19  24
HETATM   24  O5  UNL     1     -25.149  25.689   0.231  1.00  0.00    -0.388 OA
ATOM     25  H5  UNL     1     -24.339  25.522  -0.236  1.00  0.00     0.210 HD
ENDBRANCH  19  24
ENDBRANCH   7   9
ENDBRANCH   2   7
BRANCH   1  26
HETATM   26  O1  UNL     1     -24.158  29.311   2.478  1.00  0.00    -0.386 OA
HETATM   27  C1  UNL     1     -23.456  28.323   3.180  1.00  0.00     0.202 C 
ENDBRANCH   1  26
BRANCH   6  28
HETATM   28  N5  UNL     1     -24.200  31.367   3.932  1.00  0.00    -0.070 N 
ATOM     29  H53 UNL     1     -23.642  30.647   4.389  1.00  0.00     0.274 HD
ATOM     30  H52 UNL     1     -23.604  31.499   3.114  1.00  0.00     0.274 HD
ATOM     31  H51 UNL     1     -24.297  32.212   4.494  1.00  0.00     0.274 HD
ENDBRANCH   6  28
BRANCH   4  32
HETATM   32  N3  UNL     1     -25.129  31.851   0.499  1.00  0.00    -0.072 N 
ATOM     33  H33 UNL     1     -24.383  32.195   1.103  1.00  0.00     0.274 HD
ATOM     34  H32 UNL     1     -24.698  30.986   0.176  1.00  0.00     0.274 HD
ATOM     35  H31 UNL     1     -25.291  32.490  -0.279  1.00  0.00     0.274 HD
ENDBRANCH   4  32
BRANCH   5  36
HETATM   36  O6  UNL     1     -25.410  33.120   2.734  1.00  0.00    -0.380 OA
BRANCH  36  37
HETATM   37  C15 UNL     1     -25.987  34.302   2.959  1.00  0.00     0.195 C 
BRANCH  37  38
HETATM   38  C16 UNL     1     -25.221  35.423   3.557  1.00  0.00     0.255 C 
BRANCH  38  39
HETATM   39  N4  UNL     1     -23.870  35.123   3.931  1.00  0.00    -0.077 N 
ATOM     40  H43 UNL     1     -23.641  34.165   3.670  1.00  0.00     0.274 HD
ATOM     41  H42 UNL     1     -23.221  35.635   3.333  1.00  0.00     0.274 HD
ATOM     42  H41 UNL     1     -23.637  35.281   4.912  1.00  0.00     0.274 HD
ENDBRANCH  38  39
ENDBRANCH  37  38
ENDBRANCH  36  37
ENDBRANCH   5  36
TORSDOF 11
ENDMDL
