MODEL 1
REMARK VINA RESULT: -8.992776601      0.000      0.000
REMARK  12 active torsions:
REMARK  status: ('A' for Active; 'I' for Inactive)
REMARK    1  A    between atoms: C2_2  and  C3_3 
REMARK    2  A    between atoms: C3_3  and  O1_4 
REMARK    3  A    between atoms: O1_4  and  C4_5 
REMARK    4  A    between atoms: C9_10  and  O2_11 
REMARK    5  A    between atoms: C11_13  and  N1_14 
REMARK    6  A    between atoms: N1_14  and  C12_16 
REMARK    7  A    between atoms: C12_16  and  C13_17 
REMARK    8  A    between atoms: C13_17  and  N2_18 
REMARK    9  A    between atoms: N6_26  and  C16_28 
REMARK   10  A    between atoms: C19_31  and  N7_32 
REMARK   11  A    between atoms: C24_38  and  O4_39 
REMARK   12  A    between atoms: O4_39  and  C25_40 
ROOT
HETATM    1  C4  UNL     1      17.484  34.593  18.013  1.00  0.00     0.104 A 
HETATM    2  C5  UNL     1      17.008  33.656  17.164  1.00  0.00     0.071 A 
HETATM    3  C6  UNL     1      17.804  33.091  16.164  1.00  0.00     0.068 A 
HETATM    4  C7  UNL     1      19.135  33.503  16.023  1.00  0.00     0.038 A 
HETATM    5  C8  UNL     1      19.592  34.461  16.906  1.00  0.00     0.057 A 
HETATM    6  C9  UNL     1      18.831  35.032  17.904  1.00  0.00     0.102 A 
HETATM    7  C11 UNL     1      19.909  32.919  15.036  1.00  0.00     0.129 A 
HETATM    8  N5  UNL     1      19.340  31.973  14.255  1.00  0.00    -0.176 N 
ATOM      9  H5  UNL     1      19.917  31.549  13.528  1.00  0.00     0.186 HD
HETATM   10  C15 UNL     1      18.074  31.551  14.367  1.00  0.00     0.686 A 
HETATM   11  N6  UNL     1      17.529  30.678  13.701  1.00  0.00    -0.191 N 
ATOM     12  H6  UNL     1      16.565  30.572  14.018  1.00  0.00     0.184 HD
HETATM   13  N8  UNL     1      17.312  32.147  15.354  1.00  0.00    -0.186 N 
HETATM   14  C28 UNL     1      15.931  31.728  15.519  1.00  0.00     0.175 C 
ENDROOT
BRANCH  11  15
HETATM   15  C16 UNL     1      17.763  29.795  12.679  1.00  0.00     0.052 A 
HETATM   16  C17 UNL     1      16.653  29.413  11.900  1.00  0.00     0.032 A 
HETATM   17  C18 UNL     1      16.758  28.502  10.878  1.00  0.00     0.035 A 
HETATM   18  C19 UNL     1      17.967  27.932  10.588  1.00  0.00     0.070 A 
HETATM   19  C24 UNL     1      19.093  28.291  11.342  1.00  0.00     0.097 A 
HETATM   20  C27 UNL     1      18.956  29.210  12.362  1.00  0.00     0.069 A 
BRANCH  18  21
HETATM   21  N7  UNL     1      18.066  26.979   9.533  1.00  0.00    -0.315 N 
HETATM   22  C20 UNL     1      18.336  27.300   8.149  1.00  0.00     0.133 C 
HETATM   23  C21 UNL     1      18.858  26.011   7.543  1.00  0.00     0.029 C 
HETATM   24  C22 UNL     1      18.118  24.950   8.310  1.00  0.00     0.105 C 
HETATM   25  C23 UNL     1      17.924  25.578   9.643  1.00  0.00     0.224 C 
HETATM   26  O3  UNL     1      17.673  24.976  10.707  1.00  0.00    -0.273 OA
ENDBRANCH  18  21
BRANCH  19  27
HETATM   27  O4  UNL     1      20.264  27.679  10.999  1.00  0.00    -0.349 OA
BRANCH  27  28
HETATM   28  C25 UNL     1      20.868  26.562  11.562  1.00  0.00     0.171 C 
HETATM   29  C26 UNL     1      21.501  25.670  10.484  1.00  0.00     0.034 C 
ENDBRANCH  27  28
ENDBRANCH  19  27
ENDBRANCH  11  15
BRANCH   7  30
HETATM   30  N1  UNL     1      21.122  33.304  14.911  1.00  0.00    -0.374 N 
ATOM     31  H1  UNL     1      21.301  33.973  14.162  1.00  0.00     0.161 HD
BRANCH  30  32
HETATM   32  C12 UNL     1      22.256  32.922  15.680  1.00  0.00     0.141 C 
BRANCH  32  33
HETATM   33  C13 UNL     1      23.241  32.158  14.817  1.00  0.00     0.141 C 
BRANCH  33  34
HETATM   34  N2  UNL     1      22.947  30.735  14.816  1.00  0.00    -0.365 N 
HETATM   35  C14 UNL     1      22.291  30.136  13.892  1.00  0.00     0.197 C 
HETATM   36  N3  UNL     1      21.759  30.785  12.742  1.00  0.00    -0.067 NA
HETATM   37  N4  UNL     1      22.080  28.736  14.012  1.00  0.00    -0.067 NA
ATOM     38  H2  UNL     1      23.285  30.178  15.599  1.00  0.00     0.161 HD
ENDBRANCH  33  34
ENDBRANCH  32  33
ENDBRANCH  30  32
ENDBRANCH   7  30
BRANCH   1  39
HETATM   39  O1  UNL     1      16.769  35.202  19.017  1.00  0.00    -0.345 OA
BRANCH  39  40
HETATM   40  C3  UNL     1      15.980  36.390  18.813  1.00  0.00     0.202 C 
BRANCH  40  41
HETATM   41  C2  UNL     1      14.530  36.022  18.900  1.00  0.00    -0.011 C 
HETATM   42  C1  UNL     1      13.849  35.365  17.995  1.00  0.00     0.009 C 
ENDBRANCH  40  41
ENDBRANCH  39  40
ENDBRANCH   1  39
BRANCH   6  43
HETATM   43  O2  UNL     1      19.294  35.946  18.746  1.00  0.00    -0.353 OA
HETATM   44  C10 UNL     1      20.006  37.107  18.744  1.00  0.00     0.210 C 
ENDBRANCH   6  43
TORSDOF 12
ENDMDL
MODEL 2
REMARK VINA RESULT: -8.839052943      2.335      9.820
REMARK  12 active torsions:
REMARK  status: ('A' for Active; 'I' for Inactive)
REMARK    1  A    between atoms: C2_2  and  C3_3 
REMARK    2  A    between atoms: C3_3  and  O1_4 
REMARK    3  A    between atoms: O1_4  and  C4_5 
REMARK    4  A    between atoms: C9_10  and  O2_11 
REMARK    5  A    between atoms: C11_13  and  N1_14 
REMARK    6  A    between atoms: N1_14  and  C12_16 
REMARK    7  A    between atoms: C12_16  and  C13_17 
REMARK    8  A    between atoms: C13_17  and  N2_18 
REMARK    9  A    between atoms: N6_26  and  C16_28 
REMARK   10  A    between atoms: C19_31  and  N7_32 
REMARK   11  A    between atoms: C24_38  and  O4_39 
REMARK   12  A    between atoms: O4_39  and  C25_40 
ROOT
HETATM    1  C4  UNL     1      18.623  25.917   9.340  1.00  0.00     0.104 A 
HETATM    2  C5  UNL     1      17.986  26.918   9.986  1.00  0.00     0.071 A 
HETATM    3  C6  UNL     1      18.586  27.623  11.033  1.00  0.00     0.068 A 
HETATM    4  C7  UNL     1      19.885  27.290  11.437  1.00  0.00     0.038 A 
HETATM    5  C8  UNL     1      20.510  26.264  10.757  1.00  0.00     0.057 A 
HETATM    6  C9  UNL     1      19.944  25.554   9.719  1.00  0.00     0.102 A 
HETATM    7  C11 UNL     1      20.465  28.012  12.465  1.00  0.00     0.129 A 
HETATM    8  N5  UNL     1      19.747  29.010  13.028  1.00  0.00    -0.176 N 
ATOM      9  H5  UNL     1      20.182  29.536  13.786  1.00  0.00     0.186 HD
HETATM   10  C15 UNL     1      18.508  29.360  12.661  1.00  0.00     0.686 A 
HETATM   11  N6  UNL     1      17.835  30.274  13.124  1.00  0.00    -0.191 N 
ATOM     12  H6  UNL     1      16.936  30.301  12.643  1.00  0.00     0.184 HD
HETATM   13  N8  UNL     1      17.939  28.627  11.637  1.00  0.00    -0.186 N 
HETATM   14  C28 UNL     1      16.596  28.961  11.200  1.00  0.00     0.175 C 
ENDROOT
BRANCH  11  15
HETATM   15  C16 UNL     1      17.869  31.272  14.063  1.00  0.00     0.052 A 
HETATM   16  C17 UNL     1      16.690  31.492  14.802  1.00  0.00     0.032 A 
HETATM   17  C18 UNL     1      16.593  32.492  15.739  1.00  0.00     0.035 A 
HETATM   18  C19 UNL     1      17.659  33.315  15.978  1.00  0.00     0.070 A 
HETATM   19  C24 UNL     1      18.848  33.122  15.262  1.00  0.00     0.097 A 
HETATM   20  C27 UNL     1      18.916  32.109  14.328  1.00  0.00     0.069 A 
BRANCH  18  21
HETATM   21  N7  UNL     1      17.547  34.358  16.943  1.00  0.00    -0.315 N 
HETATM   22  C20 UNL     1      18.016  34.276  18.309  1.00  0.00     0.133 C 
HETATM   23  C21 UNL     1      18.164  35.717  18.759  1.00  0.00     0.029 C 
HETATM   24  C22 UNL     1      17.073  36.424  18.002  1.00  0.00     0.105 C 
HETATM   25  C23 UNL     1      16.973  35.633  16.748  1.00  0.00     0.224 C 
HETATM   26  O3  UNL     1      16.463  36.019  15.676  1.00  0.00    -0.273 OA
ENDBRANCH  18  21
BRANCH  19  27
HETATM   27  O4  UNL     1      19.868  33.983  15.550  1.00  0.00    -0.349 OA
BRANCH  27  28
HETATM   28  C25 UNL     1      21.214  33.710  15.760  1.00  0.00     0.171 C 
HETATM   29  C26 UNL     1      21.626  34.028  17.204  1.00  0.00     0.034 C 
ENDBRANCH  27  28
ENDBRANCH  19  27
ENDBRANCH  11  15
BRANCH   7  30
HETATM   30  N1  UNL     1      21.650  27.698  12.831  1.00  0.00    -0.374 N 
ATOM     31  H1  UNL     1      21.749  26.787  13.279  1.00  0.00     0.161 HD
BRANCH  30  32
HETATM   32  C12 UNL     1      22.847  28.453  12.695  1.00  0.00     0.141 C 
BRANCH  32  33
HETATM   33  C13 UNL     1      24.015  27.533  12.401  1.00  0.00     0.141 C 
BRANCH  33  34
HETATM   34  N2  UNL     1      24.141  27.282  10.975  1.00  0.00    -0.365 N 
HETATM   35  C14 UNL     1      24.239  26.114  10.456  1.00  0.00     0.197 C 
HETATM   36  N3  UNL     1      24.239  24.904  11.207  1.00  0.00    -0.067 NA
HETATM   37  N4  UNL     1      24.351  26.010   9.043  1.00  0.00    -0.067 NA
ATOM     38  H2  UNL     1      24.153  28.085  10.348  1.00  0.00     0.161 HD
ENDBRANCH  33  34
ENDBRANCH  32  33
ENDBRANCH  30  32
ENDBRANCH   7  30
BRANCH   1  39
HETATM   39  O1  UNL     1      18.104  25.171   8.308  1.00  0.00    -0.345 OA
BRANCH  39  40
HETATM   40  C3  UNL     1      17.552  25.756   7.113  1.00  0.00     0.202 C 
BRANCH  40  41
HETATM   41  C2  UNL     1      18.636  26.511   6.405  1.00  0.00    -0.011 C 
HETATM   42  C1  UNL     1      18.467  27.556   5.636  1.00  0.00     0.009 C 
ENDBRANCH  40  41
ENDBRANCH  39  40
ENDBRANCH   1  39
BRANCH   6  43
HETATM   43  O2  UNL     1      20.566  24.577   9.075  1.00  0.00    -0.353 OA
HETATM   44  C10 UNL     1      21.415  24.387   8.027  1.00  0.00     0.210 C 
ENDBRANCH   6  43
TORSDOF 12
ENDMDL
MODEL 3
REMARK VINA RESULT: -8.780824728      2.025      9.564
REMARK  12 active torsions:
REMARK  status: ('A' for Active; 'I' for Inactive)
REMARK    1  A    between atoms: C2_2  and  C3_3 
REMARK    2  A    between atoms: C3_3  and  O1_4 
REMARK    3  A    between atoms: O1_4  and  C4_5 
REMARK    4  A    between atoms: C9_10  and  O2_11 
REMARK    5  A    between atoms: C11_13  and  N1_14 
REMARK    6  A    between atoms: N1_14  and  C12_16 
REMARK    7  A    between atoms: C12_16  and  C13_17 
REMARK    8  A    between atoms: C13_17  and  N2_18 
REMARK    9  A    between atoms: N6_26  and  C16_28 
REMARK   10  A    between atoms: C19_31  and  N7_32 
REMARK   11  A    between atoms: C24_38  and  O4_39 
REMARK   12  A    between atoms: O4_39  and  C25_40 
ROOT
HETATM    1  C4  UNL     1      20.904  27.913  11.803  1.00  0.00     0.104 A 
HETATM    2  C5  UNL     1      19.852  28.652  12.216  1.00  0.00     0.071 A 
HETATM    3  C6  UNL     1      19.978  29.629  13.207  1.00  0.00     0.068 A 
HETATM    4  C7  UNL     1      21.225  29.856  13.802  1.00  0.00     0.038 A 
HETATM    5  C8  UNL     1      22.281  29.085  13.358  1.00  0.00     0.057 A 
HETATM    6  C9  UNL     1      22.187  28.118  12.380  1.00  0.00     0.102 A 
HETATM    7  C11 UNL     1      21.329  30.839  14.770  1.00  0.00     0.129 A 
HETATM    8  N5  UNL     1      20.217  31.538  15.092  1.00  0.00    -0.176 N 
ATOM      9  H5  UNL     1      20.302  32.259  15.808  1.00  0.00     0.186 HD
HETATM   10  C15 UNL     1      19.012  31.352  14.538  1.00  0.00     0.686 A 
HETATM   11  N6  UNL     1      17.988  31.981  14.780  1.00  0.00    -0.191 N 
ATOM     12  H6  UNL     1      17.230  31.618  14.200  1.00  0.00     0.184 HD
HETATM   13  N8  UNL     1      18.922  30.363  13.576  1.00  0.00    -0.186 N 
HETATM   14  C28 UNL     1      17.639  30.118  12.944  1.00  0.00     0.175 C 
ENDROOT
BRANCH  11  15
HETATM   15  C16 UNL     1      17.505  33.001  15.557  1.00  0.00     0.052 A 
HETATM   16  C17 UNL     1      16.609  33.900  14.944  1.00  0.00     0.032 A 
HETATM   17  C18 UNL     1      16.095  34.986  15.611  1.00  0.00     0.035 A 
HETATM   18  C19 UNL     1      16.450  35.224  16.910  1.00  0.00     0.070 A 
HETATM   19  C24 UNL     1      17.338  34.349  17.551  1.00  0.00     0.097 A 
HETATM   20  C27 UNL     1      17.837  33.267  16.855  1.00  0.00     0.069 A 
BRANCH  18  21
HETATM   21  N7  UNL     1      15.922  36.359  17.592  1.00  0.00    -0.315 N 
HETATM   22  C20 UNL     1      14.853  36.316  18.565  1.00  0.00     0.133 C 
HETATM   23  C21 UNL     1      15.000  37.597  19.364  1.00  0.00     0.029 C 
HETATM   24  C22 UNL     1      15.539  38.570  18.351  1.00  0.00     0.105 C 
HETATM   25  C23 UNL     1      16.336  37.702  17.447  1.00  0.00     0.224 C 
HETATM   26  O3  UNL     1      17.236  38.081  16.671  1.00  0.00    -0.273 OA
ENDBRANCH  18  21
BRANCH  19  27
HETATM   27  O4  UNL     1      17.650  34.652  18.844  1.00  0.00    -0.349 OA
BRANCH  27  28
HETATM   28  C25 UNL     1      18.876  35.012  19.390  1.00  0.00     0.171 C 
HETATM   29  C26 UNL     1      19.191  36.490  19.121  1.00  0.00     0.034 C 
ENDBRANCH  27  28
ENDBRANCH  19  27
ENDBRANCH  11  15
BRANCH   7  30
HETATM   30  N1  UNL     1      22.471  31.037  15.311  1.00  0.00    -0.374 N 
ATOM     31  H1  UNL     1      23.085  30.223  15.360  1.00  0.00     0.161 HD
BRANCH  30  32
HETATM   32  C12 UNL     1      22.997  32.241  15.854  1.00  0.00     0.141 C 
BRANCH  32  33
HETATM   33  C13 UNL     1      22.449  32.471  17.248  1.00  0.00     0.141 C 
BRANCH  33  34
HETATM   34  N2  UNL     1      22.637  33.849  17.668  1.00  0.00    -0.365 N 
HETATM   35  C14 UNL     1      21.953  34.837  17.223  1.00  0.00     0.197 C 
HETATM   36  N3  UNL     1      20.915  34.718  16.255  1.00  0.00    -0.067 NA
HETATM   37  N4  UNL     1      22.237  36.136  17.724  1.00  0.00    -0.067 NA
ATOM     38  H2  UNL     1      23.360  34.042  18.360  1.00  0.00     0.161 HD
ENDBRANCH  33  34
ENDBRANCH  32  33
ENDBRANCH  30  32
ENDBRANCH   7  30
BRANCH   1  39
HETATM   39  O1  UNL     1      20.867  26.930  10.842  1.00  0.00    -0.345 OA
BRANCH  39  40
HETATM   40  C3  UNL     1      19.664  26.561  10.139  1.00  0.00     0.202 C 
BRANCH  40  41
HETATM   41  C2  UNL     1      19.063  25.366  10.816  1.00  0.00    -0.011 C 
HETATM   42  C1  UNL     1      18.101  25.390  11.704  1.00  0.00     0.009 C 
ENDBRANCH  40  41
ENDBRANCH  39  40
ENDBRANCH   1  39
BRANCH   6  43
HETATM   43  O2  UNL     1      23.217  27.394  11.964  1.00  0.00    -0.353 OA
HETATM   44  C10 UNL     1      24.571  27.323  12.101  1.00  0.00     0.210 C 
ENDBRANCH   6  43
TORSDOF 12
ENDMDL
MODEL 4
REMARK VINA RESULT: -8.750038290      2.067      9.732
REMARK  12 active torsions:
REMARK  status: ('A' for Active; 'I' for Inactive)
REMARK    1  A    between atoms: C2_2  and  C3_3 
REMARK    2  A    between atoms: C3_3  and  O1_4 
REMARK    3  A    between atoms: O1_4  and  C4_5 
REMARK    4  A    between atoms: C9_10  and  O2_11 
REMARK    5  A    between atoms: C11_13  and  N1_14 
REMARK    6  A    between atoms: N1_14  and  C12_16 
REMARK    7  A    between atoms: C12_16  and  C13_17 
REMARK    8  A    between atoms: C13_17  and  N2_18 
REMARK    9  A    between atoms: N6_26  and  C16_28 
REMARK   10  A    between atoms: C19_31  and  N7_32 
REMARK   11  A    between atoms: C24_38  and  O4_39 
REMARK   12  A    between atoms: O4_39  and  C25_40 
ROOT
HETATM    1  C4  UNL     1      20.624  28.171  11.441  1.00  0.00     0.104 A 
HETATM    2  C5  UNL     1      19.607  28.757  12.109  1.00  0.00     0.071 A 
HETATM    3  C6  UNL     1      19.797  29.902  12.888  1.00  0.00     0.068 A 
HETATM    4  C7  UNL     1      21.074  30.466  12.992  1.00  0.00     0.038 A 
HETATM    5  C8  UNL     1      22.092  29.844  12.297  1.00  0.00     0.057 A 
HETATM    6  C9  UNL     1      21.934  28.718  11.519  1.00  0.00     0.102 A 
HETATM    7  C11 UNL     1      21.234  31.608  13.756  1.00  0.00     0.129 A 
HETATM    8  N5  UNL     1      20.144  32.127  14.364  1.00  0.00    -0.176 N 
ATOM      9  H5  UNL     1      20.271  32.968  14.927  1.00  0.00     0.186 HD
HETATM   10  C15 UNL     1      18.908  31.618  14.280  1.00  0.00     0.686 A 
HETATM   11  N6  UNL     1      17.890  32.072  14.790  1.00  0.00    -0.191 N 
ATOM     12  H6  UNL     1      17.101  31.474  14.547  1.00  0.00     0.184 HD
HETATM   13  N8  UNL     1      18.764  30.475  13.517  1.00  0.00    -0.186 N 
HETATM   14  C28 UNL     1      17.446  29.879  13.392  1.00  0.00     0.175 C 
ENDROOT
BRANCH  11  15
HETATM   15  C16 UNL     1      17.443  33.105  15.573  1.00  0.00     0.052 A 
HETATM   16  C17 UNL     1      16.561  34.025  14.972  1.00  0.00     0.032 A 
HETATM   17  C18 UNL     1      16.083  35.123  15.644  1.00  0.00     0.035 A 
HETATM   18  C19 UNL     1      16.460  35.353  16.939  1.00  0.00     0.070 A 
HETATM   19  C24 UNL     1      17.334  34.456  17.568  1.00  0.00     0.097 A 
HETATM   20  C27 UNL     1      17.797  33.362  16.867  1.00  0.00     0.069 A 
BRANCH  18  21
HETATM   21  N7  UNL     1      15.968  36.500  17.627  1.00  0.00    -0.315 N 
HETATM   22  C20 UNL     1      14.932  36.479  18.636  1.00  0.00     0.133 C 
HETATM   23  C21 UNL     1      15.121  37.765  19.418  1.00  0.00     0.029 C 
HETATM   24  C22 UNL     1      15.637  38.722  18.378  1.00  0.00     0.105 C 
HETATM   25  C23 UNL     1      16.393  37.836  17.456  1.00  0.00     0.224 C 
HETATM   26  O3  UNL     1      17.271  38.198  16.647  1.00  0.00    -0.273 OA
ENDBRANCH  18  21
BRANCH  19  27
HETATM   27  O4  UNL     1      17.670  34.751  18.858  1.00  0.00    -0.349 OA
BRANCH  27  28
HETATM   28  C25 UNL     1      18.910  35.084  19.387  1.00  0.00     0.171 C 
HETATM   29  C26 UNL     1      19.315  36.513  18.998  1.00  0.00     0.034 C 
ENDBRANCH  27  28
ENDBRANCH  19  27
ENDBRANCH  11  15
BRANCH   7  30
HETATM   30  N1  UNL     1      22.405  32.114  13.850  1.00  0.00    -0.374 N 
ATOM     31  H1  UNL     1      22.783  32.519  12.993  1.00  0.00     0.161 HD
BRANCH  30  32
HETATM   32  C12 UNL     1      23.250  32.186  14.991  1.00  0.00     0.141 C 
BRANCH  32  33
HETATM   33  C13 UNL     1      22.423  32.118  16.259  1.00  0.00     0.141 C 
BRANCH  33  34
HETATM   34  N2  UNL     1      22.671  33.269  17.111  1.00  0.00    -0.365 N 
HETATM   35  C14 UNL     1      22.000  34.360  17.062  1.00  0.00     0.197 C 
HETATM   36  N3  UNL     1      20.921  34.592  16.163  1.00  0.00    -0.067 NA
HETATM   37  N4  UNL     1      22.344  35.407  17.959  1.00  0.00    -0.067 NA
ATOM     38  H2  UNL     1      23.427  33.205  17.793  1.00  0.00     0.161 HD
ENDBRANCH  33  34
ENDBRANCH  32  33
ENDBRANCH  30  32
ENDBRANCH   7  30
BRANCH   1  39
HETATM   39  O1  UNL     1      20.527  27.043  10.660  1.00  0.00    -0.345 OA
BRANCH  39  40
HETATM   40  C3  UNL     1      20.175  25.749  11.186  1.00  0.00     0.202 C 
BRANCH  40  41
HETATM   41  C2  UNL     1      21.387  24.868  11.140  1.00  0.00    -0.011 C 
HETATM   42  C1  UNL     1      22.082  24.575  10.071  1.00  0.00     0.009 C 
ENDBRANCH  40  41
ENDBRANCH  39  40
ENDBRANCH   1  39
BRANCH   6  43
HETATM   43  O2  UNL     1      22.927  28.142  10.854  1.00  0.00    -0.353 OA
HETATM   44  C10 UNL     1      24.096  27.481  11.082  1.00  0.00     0.210 C 
ENDBRANCH   6  43
TORSDOF 12
ENDMDL
MODEL 5
REMARK VINA RESULT: -8.742537307      1.676      9.755
REMARK  12 active torsions:
REMARK  status: ('A' for Active; 'I' for Inactive)
REMARK    1  A    between atoms: C2_2  and  C3_3 
REMARK    2  A    between atoms: C3_3  and  O1_4 
REMARK    3  A    between atoms: O1_4  and  C4_5 
REMARK    4  A    between atoms: C9_10  and  O2_11 
REMARK    5  A    between atoms: C11_13  and  N1_14 
REMARK    6  A    between atoms: N1_14  and  C12_16 
REMARK    7  A    between atoms: C12_16  and  C13_17 
REMARK    8  A    between atoms: C13_17  and  N2_18 
REMARK    9  A    between atoms: N6_26  and  C16_28 
REMARK   10  A    between atoms: C19_31  and  N7_32 
REMARK   11  A    between atoms: C24_38  and  O4_39 
REMARK   12  A    between atoms: O4_39  and  C25_40 
ROOT
HETATM    1  C4  UNL     1      18.771  25.996   9.773  1.00  0.00     0.104 A 
HETATM    2  C5  UNL     1      18.068  27.016  10.311  1.00  0.00     0.071 A 
HETATM    3  C6  UNL     1      18.538  27.740  11.410  1.00  0.00     0.068 A 
HETATM    4  C7  UNL     1      19.771  27.406  11.984  1.00  0.00     0.038 A 
HETATM    5  C8  UNL     1      20.466  26.359  11.412  1.00  0.00     0.057 A 
HETATM    6  C9  UNL     1      20.029  25.631  10.326  1.00  0.00     0.102 A 
HETATM    7  C11 UNL     1      20.222  28.146  13.062  1.00  0.00     0.129 A 
HETATM    8  N5  UNL     1      19.450  29.163  13.507  1.00  0.00    -0.176 N 
ATOM      9  H5  UNL     1      19.789  29.702  14.303  1.00  0.00     0.186 HD
HETATM   10  C15 UNL     1      18.271  29.514  12.977  1.00  0.00     0.686 A 
HETATM   11  N6  UNL     1      17.555  30.443  13.331  1.00  0.00    -0.191 N 
ATOM     12  H6  UNL     1      16.725  30.467  12.738  1.00  0.00     0.184 HD
HETATM   13  N8  UNL     1      17.830  28.762  11.905  1.00  0.00    -0.186 N 
HETATM   14  C28 UNL     1      16.557  29.098  11.292  1.00  0.00     0.175 C 
ENDROOT
BRANCH  11  15
HETATM   15  C16 UNL     1      17.480  31.462  14.245  1.00  0.00     0.052 A 
HETATM   16  C17 UNL     1      18.561  32.365  14.282  1.00  0.00     0.032 A 
HETATM   17  C18 UNL     1      18.618  33.399  15.185  1.00  0.00     0.035 A 
HETATM   18  C19 UNL     1      17.606  33.577  16.088  1.00  0.00     0.070 A 
HETATM   19  C24 UNL     1      16.514  32.698  16.077  1.00  0.00     0.097 A 
HETATM   20  C27 UNL     1      16.485  31.670  15.158  1.00  0.00     0.069 A 
BRANCH  18  21
HETATM   21  N7  UNL     1      17.676  34.645  17.029  1.00  0.00    -0.315 N 
HETATM   22  C20 UNL     1      18.282  34.555  18.339  1.00  0.00     0.133 C 
HETATM   23  C21 UNL     1      18.584  35.990  18.729  1.00  0.00     0.029 C 
HETATM   24  C22 UNL     1      17.473  36.762  18.072  1.00  0.00     0.105 C 
HETATM   25  C23 UNL     1      17.180  35.956  16.859  1.00  0.00     0.224 C 
HETATM   26  O3  UNL     1      16.587  36.358  15.838  1.00  0.00    -0.273 OA
ENDBRANCH  18  21
BRANCH  19  27
HETATM   27  O4  UNL     1      15.545  32.934  17.009  1.00  0.00    -0.349 OA
BRANCH  27  28
HETATM   28  C25 UNL     1      14.272  33.464  16.837  1.00  0.00     0.171 C 
HETATM   29  C26 UNL     1      14.077  34.727  17.688  1.00  0.00     0.034 C 
ENDBRANCH  27  28
ENDBRANCH  19  27
ENDBRANCH  11  15
BRANCH   7  30
HETATM   30  N1  UNL     1      21.347  27.831  13.583  1.00  0.00    -0.374 N 
ATOM     31  H1  UNL     1      21.352  26.981  14.147  1.00  0.00     0.161 HD
BRANCH  30  32
HETATM   32  C12 UNL     1      22.592  28.510  13.479  1.00  0.00     0.141 C 
BRANCH  32  33
HETATM   33  C13 UNL     1      22.370  30.009  13.439  1.00  0.00     0.141 C 
BRANCH  33  34
HETATM   34  N2  UNL     1      22.351  30.575  14.776  1.00  0.00    -0.365 N 
HETATM   35  C14 UNL     1      22.362  31.832  15.026  1.00  0.00     0.197 C 
HETATM   36  N3  UNL     1      22.397  32.845  14.026  1.00  0.00    -0.067 NA
HETATM   37  N4  UNL     1      22.335  32.252  16.384  1.00  0.00    -0.067 NA
ATOM     38  H2  UNL     1      22.327  29.932  15.567  1.00  0.00     0.161 HD
ENDBRANCH  33  34
ENDBRANCH  32  33
ENDBRANCH  30  32
ENDBRANCH   7  30
BRANCH   1  39
HETATM   39  O1  UNL     1      18.381  25.230   8.700  1.00  0.00    -0.345 OA
BRANCH  39  40
HETATM   40  C3  UNL     1      17.231  25.540   7.888  1.00  0.00     0.202 C 
BRANCH  40  41
HETATM   41  C2  UNL     1      17.707  26.081   6.573  1.00  0.00    -0.011 C 
HETATM   42  C1  UNL     1      18.299  27.233   6.386  1.00  0.00     0.009 C 
ENDBRANCH  40  41
ENDBRANCH  39  40
ENDBRANCH   1  39
BRANCH   6  43
HETATM   43  O2  UNL     1      20.718  24.634   9.788  1.00  0.00    -0.353 OA
HETATM   44  C10 UNL     1      21.923  24.390   9.201  1.00  0.00     0.210 C 
ENDBRANCH   6  43
TORSDOF 12
ENDMDL
