MODEL 1
REMARK VINA RESULT: -6.093243450      0.000      0.000
REMARK  8 active torsions:
REMARK  status: ('A' for Active; 'I' for Inactive)
REMARK    1  A    between atoms: N1_1  and  C1_4 
REMARK    2  A    between atoms: C1_4  and  N2_5 
REMARK    3  A    between atoms: N2_5  and  N3_7 
REMARK    4  A    between atoms: N3_7  and  O1_8 
REMARK    5  A    between atoms: N3_7  and  N4_10 
REMARK    6  A    between atoms: N4_10  and  C2_11 
REMARK    7  A    between atoms: C2_11  and  C3_12 
REMARK    8  A    between atoms: C3_12  and  N5_13 
ROOT
HETATM    1  N3  UNL     1     -40.902 -19.553  48.272  1.00  0.00    -0.010 NA
ENDROOT
BRANCH   1   2
HETATM    2  N2  UNL     1     -40.258 -19.638  47.054  1.00  0.00    -0.277 N 
ATOM      3  H2  UNL     1     -39.535 -18.992  46.736  1.00  0.00     0.185 HD
BRANCH   2   4
HETATM    4  C1  UNL     1     -40.735 -20.738  46.308  1.00  0.00     0.189 C 
BRANCH   4   5
HETATM    5  N1  UNL     1     -40.157 -21.869  46.221  1.00  0.00    -0.394 N 
ATOM      6  H12 UNL     1     -39.906 -22.178  45.282  1.00  0.00     0.156 HD
ATOM      7  H11 UNL     1     -39.932 -22.475  47.010  1.00  0.00     0.156 HD
ENDBRANCH   4   5
ENDBRANCH   2   4
ENDBRANCH   1   2
BRANCH   1   8
HETATM    8  O1  UNL     1     -41.921 -18.659  48.142  1.00  0.00    -0.279 OA
ATOM      9  H1  UNL     1     -42.645 -19.104  47.718  1.00  0.00     0.240 HD
ENDBRANCH   1   8
BRANCH   1  10
HETATM   10  N4  UNL     1     -41.428 -20.761  48.699  1.00  0.00    -0.117 NA
BRANCH  10  11
HETATM   11  C2  UNL     1     -42.495 -20.547  49.639  1.00  0.00     0.154 C 
BRANCH  11  12
HETATM   12  C3  UNL     1     -41.995 -20.814  51.055  1.00  0.00     0.165 C 
BRANCH  12  13
HETATM   13  N5  UNL     1     -41.388 -19.607  51.593  1.00  0.00    -0.269 N 
HETATM   14  C4  UNL     1     -41.749 -18.312  51.572  1.00  0.00     0.213 A 
HETATM   15  N6  UNL     1     -40.631 -18.034  52.273  1.00  0.00    -0.279 N 
HETATM   16  N7  UNL     1     -40.295 -19.320  52.280  1.00  0.00    -0.018 NA
ATOM     17  H6  UNL     1     -40.213 -17.183  52.646  1.00  0.00     0.185 HD
ENDBRANCH  12  13
ENDBRANCH  11  12
ENDBRANCH  10  11
ENDBRANCH   1  10
TORSDOF 8
ENDMDL
MODEL 2
REMARK VINA RESULT: -6.014889298      3.053      5.030
REMARK  8 active torsions:
REMARK  status: ('A' for Active; 'I' for Inactive)
REMARK    1  A    between atoms: N1_1  and  C1_4 
REMARK    2  A    between atoms: C1_4  and  N2_5 
REMARK    3  A    between atoms: N2_5  and  N3_7 
REMARK    4  A    between atoms: N3_7  and  O1_8 
REMARK    5  A    between atoms: N3_7  and  N4_10 
REMARK    6  A    between atoms: N4_10  and  C2_11 
REMARK    7  A    between atoms: C2_11  and  C3_12 
REMARK    8  A    between atoms: C3_12  and  N5_13 
ROOT
HETATM    1  N3  UNL     1     -43.209 -17.411  49.917  1.00  0.00    -0.010 NA
ENDROOT
BRANCH   1   2
HETATM    2  N2  UNL     1     -44.144 -16.624  49.275  1.00  0.00    -0.277 N 
ATOM      3  H2  UNL     1     -44.044 -15.622  49.113  1.00  0.00     0.185 HD
BRANCH   2   4
HETATM    4  C1  UNL     1     -45.258 -17.394  48.873  1.00  0.00     0.189 C 
BRANCH   4   5
HETATM    5  N1  UNL     1     -46.162 -17.836  49.653  1.00  0.00    -0.394 N 
ATOM      6  H12 UNL     1     -46.246 -18.851  49.719  1.00  0.00     0.156 HD
ATOM      7  H11 UNL     1     -46.795 -17.258  50.204  1.00  0.00     0.156 HD
ENDBRANCH   4   5
ENDBRANCH   2   4
ENDBRANCH   1   2
BRANCH   1   8
HETATM    8  O1  UNL     1     -43.468 -17.358  51.253  1.00  0.00    -0.279 OA
ATOM      9  H1  UNL     1     -42.646 -17.481  51.713  1.00  0.00     0.240 HD
ENDBRANCH   1   8
BRANCH   1  10
HETATM   10  N4  UNL     1     -43.240 -18.736  49.516  1.00  0.00    -0.117 NA
BRANCH  10  11
HETATM   11  C2  UNL     1     -41.935 -19.330  49.623  1.00  0.00     0.154 C 
BRANCH  11  12
HETATM   12  C3  UNL     1     -41.082 -18.921  48.426  1.00  0.00     0.165 C 
BRANCH  12  13
HETATM   13  N5  UNL     1     -40.905 -20.063  47.542  1.00  0.00    -0.269 N 
HETATM   14  C4  UNL     1     -40.134 -20.275  46.461  1.00  0.00     0.213 A 
HETATM   15  N6  UNL     1     -40.655 -21.516  46.387  1.00  0.00    -0.279 N 
HETATM   16  N7  UNL     1     -41.408 -21.284  47.457  1.00  0.00    -0.018 NA
ATOM     17  H6  UNL     1     -40.525 -22.312  45.762  1.00  0.00     0.185 HD
ENDBRANCH  12  13
ENDBRANCH  11  12
ENDBRANCH  10  11
ENDBRANCH   1  10
TORSDOF 8
ENDMDL
MODEL 3
REMARK VINA RESULT: -5.992477183      1.477      1.939
REMARK  8 active torsions:
REMARK  status: ('A' for Active; 'I' for Inactive)
REMARK    1  A    between atoms: N1_1  and  C1_4 
REMARK    2  A    between atoms: C1_4  and  N2_5 
REMARK    3  A    between atoms: N2_5  and  N3_7 
REMARK    4  A    between atoms: N3_7  and  O1_8 
REMARK    5  A    between atoms: N3_7  and  N4_10 
REMARK    6  A    between atoms: N4_10  and  C2_11 
REMARK    7  A    between atoms: C2_11  and  C3_12 
REMARK    8  A    between atoms: C3_12  and  N5_13 
ROOT
HETATM    1  N3  UNL     1     -41.073 -19.653  48.625  1.00  0.00    -0.010 NA
ENDROOT
BRANCH   1   2
HETATM    2  N2  UNL     1     -41.436 -20.839  48.019  1.00  0.00    -0.277 N 
ATOM      3  H2  UNL     1     -41.989 -21.571  48.464  1.00  0.00     0.185 HD
BRANCH   2   4
HETATM    4  C1  UNL     1     -40.939 -20.901  46.699  1.00  0.00     0.189 C 
BRANCH   4   5
HETATM    5  N1  UNL     1     -40.256 -21.863  46.218  1.00  0.00    -0.394 N 
ATOM      6  H12 UNL     1     -39.369 -21.615  45.781  1.00  0.00     0.156 HD
ATOM      7  H11 UNL     1     -40.531 -22.845  46.240  1.00  0.00     0.156 HD
ENDBRANCH   4   5
ENDBRANCH   2   4
ENDBRANCH   1   2
BRANCH   1   8
HETATM    8  O1  UNL     1     -40.273 -18.972  47.760  1.00  0.00    -0.279 OA
ATOM      9  H1  UNL     1     -40.824 -18.383  47.258  1.00  0.00     0.240 HD
ENDBRANCH   1   8
BRANCH   1  10
HETATM   10  N4  UNL     1     -42.153 -18.850  48.950  1.00  0.00    -0.117 NA
BRANCH  10  11
HETATM   11  C2  UNL     1     -42.460 -18.953  50.351  1.00  0.00     0.154 C 
BRANCH  11  12
HETATM   12  C3  UNL     1     -41.244 -18.545  51.177  1.00  0.00     0.165 C 
BRANCH  12  13
HETATM   13  N5  UNL     1     -41.602 -17.446  52.059  1.00  0.00    -0.269 N 
HETATM   14  C4  UNL     1     -42.705 -17.167  52.777  1.00  0.00     0.213 A 
HETATM   15  N6  UNL     1     -42.092 -16.044  53.201  1.00  0.00    -0.279 N 
HETATM   16  N7  UNL     1     -41.013 -16.340  52.484  1.00  0.00    -0.018 NA
ATOM     17  H6  UNL     1     -42.351 -15.277  53.821  1.00  0.00     0.185 HD
ENDBRANCH  12  13
ENDBRANCH  11  12
ENDBRANCH  10  11
ENDBRANCH   1  10
TORSDOF 8
ENDMDL
MODEL 4
REMARK VINA RESULT: -5.959758876      2.498      3.067
REMARK  8 active torsions:
REMARK  status: ('A' for Active; 'I' for Inactive)
REMARK    1  A    between atoms: N1_1  and  C1_4 
REMARK    2  A    between atoms: C1_4  and  N2_5 
REMARK    3  A    between atoms: N2_5  and  N3_7 
REMARK    4  A    between atoms: N3_7  and  O1_8 
REMARK    5  A    between atoms: N3_7  and  N4_10 
REMARK    6  A    between atoms: N4_10  and  C2_11 
REMARK    7  A    between atoms: C2_11  and  C3_12 
REMARK    8  A    between atoms: C3_12  and  N5_13 
ROOT
HETATM    1  N3  UNL     1     -41.453 -19.748  48.288  1.00  0.00    -0.010 NA
ENDROOT
BRANCH   1   2
HETATM    2  N2  UNL     1     -40.478 -19.668  47.315  1.00  0.00    -0.277 N 
ATOM      3  H2  UNL     1     -39.690 -19.020  47.336  1.00  0.00     0.185 HD
BRANCH   2   4
HETATM    4  C1  UNL     1     -40.717 -20.605  46.285  1.00  0.00     0.189 C 
BRANCH   4   5
HETATM    5  N1  UNL     1     -40.182 -21.758  46.205  1.00  0.00    -0.394 N 
ATOM      6  H12 UNL     1     -39.314 -21.818  45.673  1.00  0.00     0.156 HD
ATOM      7  H11 UNL     1     -40.555 -22.607  46.628  1.00  0.00     0.156 HD
ENDBRANCH   4   5
ENDBRANCH   2   4
ENDBRANCH   1   2
BRANCH   1   8
HETATM    8  O1  UNL     1     -41.783 -21.060  48.440  1.00  0.00    -0.279 OA
ATOM      9  H1  UNL     1     -42.475 -21.112  49.088  1.00  0.00     0.240 HD
ENDBRANCH   1   8
BRANCH   1  10
HETATM   10  N4  UNL     1     -41.045 -19.253  49.515  1.00  0.00    -0.117 NA
BRANCH  10  11
HETATM   11  C2  UNL     1     -42.135 -19.252  50.452  1.00  0.00     0.154 C 
BRANCH  11  12
HETATM   12  C3  UNL     1     -42.592 -17.820  50.711  1.00  0.00     0.165 C 
BRANCH  12  13
HETATM   13  N5  UNL     1     -43.482 -17.394  49.642  1.00  0.00    -0.269 N 
HETATM   14  C4  UNL     1     -44.774 -17.646  49.368  1.00  0.00     0.213 A 
HETATM   15  N6  UNL     1     -44.652 -16.862  48.279  1.00  0.00    -0.279 N 
HETATM   16  N7  UNL     1     -43.376 -16.627  48.569  1.00  0.00    -0.018 NA
ATOM     17  H6  UNL     1     -45.282 -16.568  47.533  1.00  0.00     0.185 HD
ENDBRANCH  12  13
ENDBRANCH  11  12
ENDBRANCH  10  11
ENDBRANCH   1  10
TORSDOF 8
ENDMDL
MODEL 5
REMARK VINA RESULT: -5.932849035      2.306      2.528
REMARK  8 active torsions:
REMARK  status: ('A' for Active; 'I' for Inactive)
REMARK    1  A    between atoms: N1_1  and  C1_4 
REMARK    2  A    between atoms: C1_4  and  N2_5 
REMARK    3  A    between atoms: N2_5  and  N3_7 
REMARK    4  A    between atoms: N3_7  and  O1_8 
REMARK    5  A    between atoms: N3_7  and  N4_10 
REMARK    6  A    between atoms: N4_10  and  C2_11 
REMARK    7  A    between atoms: C2_11  and  C3_12 
REMARK    8  A    between atoms: C3_12  and  N5_13 
ROOT
HETATM    1  N3  UNL     1     -40.784 -19.941  47.917  1.00  0.00    -0.010 NA
ENDROOT
BRANCH   1   2
HETATM    2  N2  UNL     1     -40.875 -20.023  46.542  1.00  0.00    -0.277 N 
ATOM      3  H2  UNL     1     -41.480 -19.437  45.967  1.00  0.00     0.185 HD
BRANCH   2   4
HETATM    4  C1  UNL     1     -40.019 -21.028  46.040  1.00  0.00     0.189 C 
BRANCH   4   5
HETATM    5  N1  UNL     1     -40.157 -22.277  46.247  1.00  0.00    -0.394 N 
ATOM      6  H12 UNL     1     -39.457 -22.717  46.844  1.00  0.00     0.156 HD
ATOM      7  H11 UNL     1     -40.904 -22.856  45.863  1.00  0.00     0.156 HD
ENDBRANCH   4   5
ENDBRANCH   2   4
ENDBRANCH   1   2
BRANCH   1   8
HETATM    8  O1  UNL     1     -40.760 -18.622  48.254  1.00  0.00    -0.279 OA
ATOM      9  H1  UNL     1     -39.906 -18.433  48.625  1.00  0.00     0.240 HD
ENDBRANCH   1   8
BRANCH   1  10
HETATM   10  N4  UNL     1     -41.844 -20.543  48.574  1.00  0.00    -0.117 NA
BRANCH  10  11
HETATM   11  C2  UNL     1     -42.001 -19.997  49.894  1.00  0.00     0.154 C 
BRANCH  11  12
HETATM   12  C3  UNL     1     -43.480 -19.759  50.182  1.00  0.00     0.165 C 
BRANCH  12  13
HETATM   13  N5  UNL     1     -43.828 -18.389  49.837  1.00  0.00    -0.269 N 
HETATM   14  C4  UNL     1     -44.978 -17.802  49.461  1.00  0.00     0.213 A 
HETATM   15  N6  UNL     1     -44.307 -16.635  49.388  1.00  0.00    -0.279 N 
HETATM   16  N7  UNL     1     -43.182 -17.237  49.761  1.00  0.00    -0.018 NA
ATOM     17  H6  UNL     1     -44.560 -15.678  49.144  1.00  0.00     0.185 HD
ENDBRANCH  12  13
ENDBRANCH  11  12
ENDBRANCH  10  11
ENDBRANCH   1  10
TORSDOF 8
ENDMDL
