MODEL 1
REMARK VINA RESULT: -7.106208335      0.000      0.000
REMARK  7 active torsions:
REMARK  status: ('A' for Active; 'I' for Inactive)
REMARK    1  A    between atoms: C2_2  and  C3_3 
REMARK    2  A    between atoms: C4_4  and  C5_5 
REMARK    3  A    between atoms: C8_8  and  O1_9 
REMARK    4  A    between atoms: O1_9  and  C9_10 
REMARK    5  A    between atoms: C12_13  and  N1_14 
REMARK    6  A    between atoms: C14_19  and  O2_20 
REMARK    7  A    between atoms: C15_22  and  O3_23 
ROOT
HETATM    1  C9  UNL     1     106.910  18.956  15.093  1.00  0.00     0.182 C 
HETATM    2  C10 UNL     1     106.363  17.883  14.180  1.00  0.00     0.006 C 
HETATM    3  C11 UNL     1     106.343  18.012  12.859  1.00  0.00    -0.001 C 
HETATM    4  C12 UNL     1     106.836  19.185  12.110  1.00  0.00     0.138 C 
HETATM    5  C14 UNL     1     107.115  20.299  13.080  1.00  0.00     0.176 C 
HETATM    6  C15 UNL     1     107.922  19.716  14.219  1.00  0.00     0.182 C 
ENDROOT
BRANCH   1   7
HETATM    7  O1  UNL     1     107.635  18.412  16.146  1.00  0.00    -0.339 OA
BRANCH   7   8
HETATM    8  C8  UNL     1     107.280  18.220  17.438  1.00  0.00     0.069 A 
HETATM    9  C7  UNL     1     106.031  17.786  17.801  1.00  0.00     0.038 A 
HETATM   10  C6  UNL     1     105.682  17.593  19.142  1.00  0.00     0.023 A 
HETATM   11  C5  UNL     1     106.610  17.846  20.123  1.00  0.00     0.017 A 
HETATM   12  C17 UNL     1     107.863  18.282  19.781  1.00  0.00     0.023 A 
HETATM   13  C16 UNL     1     108.190  18.466  18.443  1.00  0.00     0.038 A 
BRANCH  11  14
HETATM   14  C4  UNL     1     106.236  17.643  21.505  1.00  0.00    -0.067 C 
HETATM   15  C3  UNL     1     105.906  17.487  22.661  1.00  0.00    -0.101 C 
BRANCH  15  16
HETATM   16  C2  UNL     1     105.500  17.322  24.061  1.00  0.00     0.090 C 
HETATM   17  C1  UNL     1     103.993  17.083  24.047  1.00  0.00     0.018 C 
ENDBRANCH  15  16
ENDBRANCH  11  14
ENDBRANCH   7   8
ENDBRANCH   1   7
BRANCH   6  18
HETATM   18  O3  UNL     1     108.835  18.755  13.780  1.00  0.00    -0.390 OA
ATOM     19  H3  UNL     1     108.310  18.048  13.424  1.00  0.00     0.210 HD
ENDBRANCH   6  18
BRANCH   5  20
HETATM   20  O2  UNL     1     105.877  20.702  13.610  1.00  0.00    -0.391 OA
ATOM     21  H2  UNL     1     105.307  20.888  12.874  1.00  0.00     0.210 HD
ENDBRANCH   5  20
BRANCH   4  22
HETATM   22  N1  UNL     1     108.048  18.820  11.424  1.00  0.00    -0.356 N 
HETATM   23  C13 UNL     1     108.421  19.283  10.291  1.00  0.00     0.197 C 
HETATM   24  N2  UNL     1     109.639  18.825   9.748  1.00  0.00    -0.067 NA
HETATM   25  N3  UNL     1     107.682  20.237   9.536  1.00  0.00    -0.067 NA
ATOM     26  H1  UNL     1     108.656  18.138  11.877  1.00  0.00     0.162 HD
ENDBRANCH   4  22
TORSDOF 7
ENDMDL
MODEL 2
REMARK VINA RESULT: -7.105644842      0.247      1.015
REMARK  7 active torsions:
REMARK  status: ('A' for Active; 'I' for Inactive)
REMARK    1  A    between atoms: C2_2  and  C3_3 
REMARK    2  A    between atoms: C4_4  and  C5_5 
REMARK    3  A    between atoms: C8_8  and  O1_9 
REMARK    4  A    between atoms: O1_9  and  C9_10 
REMARK    5  A    between atoms: C12_13  and  N1_14 
REMARK    6  A    between atoms: C14_19  and  O2_20 
REMARK    7  A    between atoms: C15_22  and  O3_23 
ROOT
HETATM    1  C9  UNL     1     107.179  19.093  15.165  1.00  0.00     0.182 C 
HETATM    2  C10 UNL     1     106.585  18.060  14.235  1.00  0.00     0.006 C 
HETATM    3  C11 UNL     1     106.572  18.211  12.916  1.00  0.00    -0.001 C 
HETATM    4  C12 UNL     1     107.117  19.374  12.187  1.00  0.00     0.138 C 
HETATM    5  C14 UNL     1     107.445  20.458  13.174  1.00  0.00     0.176 C 
HETATM    6  C15 UNL     1     108.225  19.820  14.303  1.00  0.00     0.182 C 
ENDROOT
BRANCH   1   7
HETATM    7  O1  UNL     1     107.879  18.500  16.209  1.00  0.00    -0.339 OA
BRANCH   7   8
HETATM    8  C8  UNL     1     107.511  18.295  17.496  1.00  0.00     0.069 A 
HETATM    9  C7  UNL     1     108.359  18.522  18.549  1.00  0.00     0.038 A 
HETATM   10  C6  UNL     1     107.961  18.306  19.872  1.00  0.00     0.023 A 
HETATM   11  C5  UNL     1     106.690  17.852  20.128  1.00  0.00     0.017 A 
HETATM   12  C17 UNL     1     105.827  17.617  19.090  1.00  0.00     0.023 A 
HETATM   13  C16 UNL     1     106.242  17.840  17.782  1.00  0.00     0.038 A 
BRANCH  11  14
HETATM   14  C4  UNL     1     106.292  17.631  21.501  1.00  0.00    -0.067 C 
HETATM   15  C3  UNL     1     105.957  17.466  22.653  1.00  0.00    -0.101 C 
BRANCH  15  16
HETATM   16  C2  UNL     1     105.564  17.287  24.056  1.00  0.00     0.090 C 
HETATM   17  C1  UNL     1     104.047  17.121  24.060  1.00  0.00     0.018 C 
ENDBRANCH  15  16
ENDBRANCH  11  14
ENDBRANCH   7   8
ENDBRANCH   1   7
BRANCH   6  18
HETATM   18  O3  UNL     1     109.094  18.826  13.849  1.00  0.00    -0.390 OA
ATOM     19  H3  UNL     1     109.927  19.260  13.710  1.00  0.00     0.210 HD
ENDBRANCH   6  18
BRANCH   5  20
HETATM   20  O2  UNL     1     106.227  20.907  13.711  1.00  0.00    -0.391 OA
ATOM     21  H2  UNL     1     106.401  21.737  14.138  1.00  0.00     0.210 HD
ENDBRANCH   5  20
BRANCH   4  22
HETATM   22  N1  UNL     1     108.312  18.965  11.495  1.00  0.00    -0.356 N 
HETATM   23  C13 UNL     1     108.611  19.281  10.291  1.00  0.00     0.197 C 
HETATM   24  N2  UNL     1     109.822  18.802   9.752  1.00  0.00    -0.067 NA
HETATM   25  N3  UNL     1     107.794  20.092   9.453  1.00  0.00    -0.067 NA
ATOM     26  H1  UNL     1     108.972  18.377  12.004  1.00  0.00     0.162 HD
ENDBRANCH   4  22
TORSDOF 7
ENDMDL
MODEL 3
REMARK VINA RESULT: -7.032068544      1.465      1.511
REMARK  7 active torsions:
REMARK  status: ('A' for Active; 'I' for Inactive)
REMARK    1  A    between atoms: C2_2  and  C3_3 
REMARK    2  A    between atoms: C4_4  and  C5_5 
REMARK    3  A    between atoms: C8_8  and  O1_9 
REMARK    4  A    between atoms: O1_9  and  C9_10 
REMARK    5  A    between atoms: C12_13  and  N1_14 
REMARK    6  A    between atoms: C14_19  and  O2_20 
REMARK    7  A    between atoms: C15_22  and  O3_23 
ROOT
HETATM    1  C9  UNL     1     107.583  19.531  15.731  1.00  0.00     0.182 C 
HETATM    2  C10 UNL     1     106.204  19.993  15.317  1.00  0.00     0.006 C 
HETATM    3  C11 UNL     1     105.956  20.512  14.121  1.00  0.00    -0.001 C 
HETATM    4  C12 UNL     1     106.957  20.710  13.053  1.00  0.00     0.138 C 
HETATM    5  C14 UNL     1     108.329  20.477  13.623  1.00  0.00     0.176 C 
HETATM    6  C15 UNL     1     108.280  19.183  14.405  1.00  0.00     0.182 C 
ENDROOT
BRANCH   1   7
HETATM    7  O1  UNL     1     107.529  18.351  16.464  1.00  0.00    -0.339 OA
BRANCH   7   8
HETATM    8  C8  UNL     1     107.122  18.138  17.738  1.00  0.00     0.069 A 
HETATM    9  C7  UNL     1     105.861  17.692  18.043  1.00  0.00     0.038 A 
HETATM   10  C6  UNL     1     105.459  17.477  19.365  1.00  0.00     0.023 A 
HETATM   11  C5  UNL     1     106.345  17.718  20.387  1.00  0.00     0.017 A 
HETATM   12  C17 UNL     1     107.609  18.165  20.103  1.00  0.00     0.023 A 
HETATM   13  C16 UNL     1     107.989  18.371  18.782  1.00  0.00     0.038 A 
BRANCH  11  14
HETATM   14  C4  UNL     1     105.916  17.493  21.750  1.00  0.00    -0.067 C 
HETATM   15  C3  UNL     1     105.539  17.315  22.887  1.00  0.00    -0.101 C 
BRANCH  15  16
HETATM   16  C2  UNL     1     105.073  17.123  24.266  1.00  0.00     0.090 C 
HETATM   17  C1  UNL     1     103.578  16.828  24.177  1.00  0.00     0.018 C 
ENDBRANCH  15  16
ENDBRANCH  11  14
ENDBRANCH   7   8
ENDBRANCH   1   7
BRANCH   6  18
HETATM   18  O3  UNL     1     107.466  18.227  13.793  1.00  0.00    -0.390 OA
ATOM     19  H3  UNL     1     107.789  17.387  14.096  1.00  0.00     0.210 HD
ENDBRANCH   6  18
BRANCH   5  20
HETATM   20  O2  UNL     1     108.572  21.511  14.542  1.00  0.00    -0.391 OA
ATOM     21  H2  UNL     1     109.216  22.087  14.148  1.00  0.00     0.210 HD
ENDBRANCH   5  20
BRANCH   4  22
HETATM   22  N1  UNL     1     106.700  19.764  11.998  1.00  0.00    -0.356 N 
HETATM   23  C13 UNL     1     106.701  20.038  10.748  1.00  0.00     0.197 C 
HETATM   24  N2  UNL     1     106.430  18.999   9.833  1.00  0.00    -0.067 NA
HETATM   25  N3  UNL     1     106.960  21.332  10.214  1.00  0.00    -0.067 NA
ATOM     26  H1  UNL     1     106.501  18.801  12.269  1.00  0.00     0.162 HD
ENDBRANCH   4  22
TORSDOF 7
ENDMDL
MODEL 4
REMARK VINA RESULT: -6.937291154      1.458      1.849
REMARK  7 active torsions:
REMARK  status: ('A' for Active; 'I' for Inactive)
REMARK    1  A    between atoms: C2_2  and  C3_3 
REMARK    2  A    between atoms: C4_4  and  C5_5 
REMARK    3  A    between atoms: C8_8  and  O1_9 
REMARK    4  A    between atoms: O1_9  and  C9_10 
REMARK    5  A    between atoms: C12_13  and  N1_14 
REMARK    6  A    between atoms: C14_19  and  O2_20 
REMARK    7  A    between atoms: C15_22  and  O3_23 
ROOT
HETATM    1  C9  UNL     1     105.427  18.101  15.730  1.00  0.00     0.182 C 
HETATM    2  C10 UNL     1     105.209  16.993  14.725  1.00  0.00     0.006 C 
HETATM    3  C11 UNL     1     105.351  17.179  13.418  1.00  0.00    -0.001 C 
HETATM    4  C12 UNL     1     105.727  18.453  12.774  1.00  0.00     0.138 C 
HETATM    5  C14 UNL     1     105.668  19.552  13.797  1.00  0.00     0.176 C 
HETATM    6  C15 UNL     1     106.400  19.063  15.028  1.00  0.00     0.182 C 
ENDROOT
BRANCH   1   7
HETATM    7  O1  UNL     1     106.084  17.641  16.865  1.00  0.00    -0.339 OA
BRANCH   7   8
HETATM    8  C8  UNL     1     105.624  17.476  18.128  1.00  0.00     0.069 A 
HETATM    9  C7  UNL     1     104.325  17.133  18.400  1.00  0.00     0.038 A 
HETATM   10  C6  UNL     1     103.869  16.967  19.712  1.00  0.00     0.023 A 
HETATM   11  C5  UNL     1     104.741  17.153  20.757  1.00  0.00     0.017 A 
HETATM   12  C17 UNL     1     106.043  17.498  20.507  1.00  0.00     0.023 A 
HETATM   13  C16 UNL     1     106.476  17.657  19.196  1.00  0.00     0.038 A 
BRANCH  11  14
HETATM   14  C4  UNL     1     104.255  16.979  22.109  1.00  0.00    -0.067 C 
HETATM   15  C3  UNL     1     103.852  16.854  23.244  1.00  0.00    -0.101 C 
BRANCH  15  16
HETATM   16  C2  UNL     1     103.382  16.718  24.628  1.00  0.00     0.090 C 
HETATM   17  C1  UNL     1     103.067  15.239  24.833  1.00  0.00     0.018 C 
ENDBRANCH  15  16
ENDBRANCH  11  14
ENDBRANCH   7   8
ENDBRANCH   1   7
BRANCH   6  18
HETATM   18  O3  UNL     1     107.520  18.295  14.706  1.00  0.00    -0.390 OA
ATOM     19  H3  UNL     1     107.585  18.324  13.759  1.00  0.00     0.210 HD
ENDBRANCH   6  18
BRANCH   5  20
HETATM   20  O2  UNL     1     104.318  19.711  14.151  1.00  0.00    -0.391 OA
ATOM     21  H2  UNL     1     103.964  18.842  14.297  1.00  0.00     0.210 HD
ENDBRANCH   5  20
BRANCH   4  22
HETATM   22  N1  UNL     1     107.068  18.333  12.263  1.00  0.00    -0.356 N 
HETATM   23  C13 UNL     1     107.457  18.741  11.114  1.00  0.00     0.197 C 
HETATM   24  N2  UNL     1     108.809  18.552  10.757  1.00  0.00    -0.067 NA
HETATM   25  N3  UNL     1     106.610  19.378  10.164  1.00  0.00    -0.067 NA
ATOM     26  H1  UNL     1     107.762  17.889  12.864  1.00  0.00     0.162 HD
ENDBRANCH   4  22
TORSDOF 7
ENDMDL
MODEL 5
REMARK VINA RESULT: -6.927630419      1.722      2.185
REMARK  7 active torsions:
REMARK  status: ('A' for Active; 'I' for Inactive)
REMARK    1  A    between atoms: C2_2  and  C3_3 
REMARK    2  A    between atoms: C4_4  and  C5_5 
REMARK    3  A    between atoms: C8_8  and  O1_9 
REMARK    4  A    between atoms: O1_9  and  C9_10 
REMARK    5  A    between atoms: C12_13  and  N1_14 
REMARK    6  A    between atoms: C14_19  and  O2_20 
REMARK    7  A    between atoms: C15_22  and  O3_23 
ROOT
HETATM    1  C9  UNL     1     106.286  18.714  16.085  1.00  0.00     0.182 C 
HETATM    2  C10 UNL     1     106.299  18.273  14.639  1.00  0.00     0.006 C 
HETATM    3  C11 UNL     1     106.979  18.921  13.701  1.00  0.00    -0.001 C 
HETATM    4  C12 UNL     1     107.796  20.131  13.924  1.00  0.00     0.138 C 
HETATM    5  C14 UNL     1     107.525  20.653  15.307  1.00  0.00     0.176 C 
HETATM    6  C15 UNL     1     107.609  19.479  16.258  1.00  0.00     0.182 C 
ENDROOT
BRANCH   1   7
HETATM    7  O1  UNL     1     106.346  17.630  16.952  1.00  0.00    -0.339 OA
BRANCH   7   8
HETATM    8  C8  UNL     1     105.819  17.477  18.190  1.00  0.00     0.069 A 
HETATM    9  C7  UNL     1     104.494  17.194  18.396  1.00  0.00     0.038 A 
HETATM   10  C6  UNL     1     103.968  17.039  19.683  1.00  0.00     0.023 A 
HETATM   11  C5  UNL     1     104.796  17.176  20.770  1.00  0.00     0.017 A 
HETATM   12  C17 UNL     1     106.124  17.461  20.586  1.00  0.00     0.023 A 
HETATM   13  C16 UNL     1     106.626  17.609  19.299  1.00  0.00     0.038 A 
BRANCH  11  14
HETATM   14  C4  UNL     1     104.239  17.015  22.095  1.00  0.00    -0.067 C 
HETATM   15  C3  UNL     1     103.775  16.901  23.209  1.00  0.00    -0.101 C 
BRANCH  15  16
HETATM   16  C2  UNL     1     103.231  16.779  24.566  1.00  0.00     0.090 C 
HETATM   17  C1  UNL     1     103.076  15.285  24.835  1.00  0.00     0.018 C 
ENDBRANCH  15  16
ENDBRANCH  11  14
ENDBRANCH   7   8
ENDBRANCH   1   7
BRANCH   6  18
HETATM   18  O3  UNL     1     108.613  18.578  15.897  1.00  0.00    -0.390 OA
ATOM     19  H3  UNL     1     109.320  18.722  16.516  1.00  0.00     0.210 HD
ENDBRANCH   6  18
BRANCH   5  20
HETATM   20  O2  UNL     1     106.196  21.107  15.323  1.00  0.00    -0.391 OA
ATOM     21  H2  UNL     1     105.886  21.090  14.425  1.00  0.00     0.210 HD
ENDBRANCH   5  20
BRANCH   4  22
HETATM   22  N1  UNL     1     109.186  19.779  13.798  1.00  0.00    -0.356 N 
HETATM   23  C13 UNL     1     109.935  20.078  12.804  1.00  0.00     0.197 C 
HETATM   24  N2  UNL     1     111.282  19.661  12.829  1.00  0.00    -0.067 NA
HETATM   25  N3  UNL     1     109.494  20.811  11.666  1.00  0.00    -0.067 NA
ATOM     26  H1  UNL     1     109.608  19.249  14.561  1.00  0.00     0.162 HD
ENDBRANCH   4  22
TORSDOF 7
ENDMDL
