MODEL 1
REMARK VINA RESULT: -7.217831521      0.000      0.000
REMARK  8 active torsions:
REMARK  status: ('A' for Active; 'I' for Inactive)
REMARK       I    between atoms: N1_2  and  C2_4 
REMARK       I    between atoms: C2_4  and  N2_6 
REMARK    1  A    between atoms: N2_6  and  C3_8 
REMARK    2  A    between atoms: C3_8  and  C9_25 
REMARK    3  A    between atoms: N3_9  and  C4_11 
REMARK    4  A    between atoms: C6_13  and  C7_14 
REMARK    5  A    between atoms: C7_14  and  O2_15 
REMARK    6  A    between atoms: O2_15  and  S1_16 
REMARK    7  A    between atoms: S1_16  and  N4_17 
REMARK    8  A    between atoms: C8_22  and  O5_23 
ROOT
HETATM    1  C4  UNL     1     102.226  16.925  18.127  1.00  0.00     0.112 C 
HETATM    2  C5  UNL     1     101.872  17.729  19.374  1.00  0.00     0.037 C 
HETATM    3  C6  UNL     1     103.010  16.980  20.088  1.00  0.00     0.044 C 
HETATM    4  C8  UNL     1     102.959  15.926  19.022  1.00  0.00     0.147 C 
ENDROOT
BRANCH   1   5
HETATM    5  N3  UNL     1     103.161  17.543  17.249  1.00  0.00    -0.372 N 
HETATM    6  C3  UNL     1     102.971  17.771  15.964  1.00  0.00     0.084 C 
ATOM      7  H3  UNL     1     104.053  17.835  17.648  1.00  0.00     0.161 HD
BRANCH   6   8
HETATM    8  N2  UNL     1     101.743  17.366  15.419  1.00  0.00    -0.298 N 
HETATM    9  C2  UNL     1     100.832  18.240  14.798  1.00  0.00     0.321 C 
HETATM   10  N1  UNL     1      99.608  17.708  14.293  1.00  0.00    -0.347 N 
HETATM   11  O1  UNL     1     101.051  19.447  14.677  1.00  0.00    -0.247 OA
HETATM   12  C1  UNL     1      98.674  18.611  13.662  1.00  0.00     0.151 C 
ATOM     13  H1  UNL     1      99.397  16.713  14.376  1.00  0.00     0.163 HD
ATOM     14  H2  UNL     1     101.496  16.378  15.476  1.00  0.00     0.172 HD
ENDBRANCH   6   8
BRANCH   6  15
HETATM   15  C9  UNL     1     104.063  18.460  15.221  1.00  0.00     0.045 C 
HETATM   16  C10 UNL     1     104.476  17.592  14.016  1.00  0.00     0.017 C 
HETATM   17  C11 UNL     1     105.301  18.667  16.059  1.00  0.00     0.017 C 
ENDBRANCH   6  15
ENDBRANCH   1   5
BRANCH   4  18
HETATM   18  O5  UNL     1     102.202  14.800  19.294  1.00  0.00    -0.393 OA
ATOM     19  H5  UNL     1     102.708  14.112  19.708  1.00  0.00     0.210 HD
ENDBRANCH   4  18
BRANCH   3  20
HETATM   20  C7  UNL     1     102.556  16.540  21.458  1.00  0.00     0.199 C 
BRANCH  20  21
HETATM   21  O2  UNL     1     103.350  16.963  22.490  1.00  0.00    -0.259 OA
BRANCH  21  22
HETATM   22  S1  UNL     1     102.508  17.081  23.938  1.00  0.00     0.355 S 
HETATM   23  O3  UNL     1     102.442  15.694  24.534  1.00  0.00    -0.176 OA
HETATM   24  O4  UNL     1     101.116  17.533  23.679  1.00  0.00    -0.176 OA
BRANCH  22  25
HETATM   25  N4  UNL     1     103.349  18.074  25.074  1.00  0.00    -0.306 N 
ATOM     26  H42 UNL     1     104.334  18.322  24.984  1.00  0.00     0.171 HD
ATOM     27  H41 UNL     1     102.735  18.370  25.833  1.00  0.00     0.171 HD
ENDBRANCH  22  25
ENDBRANCH  21  22
ENDBRANCH  20  21
ENDBRANCH   3  20
TORSDOF 8
ENDMDL
MODEL 2
REMARK VINA RESULT: -6.452928782      2.410      3.709
REMARK  8 active torsions:
REMARK  status: ('A' for Active; 'I' for Inactive)
REMARK       I    between atoms: N1_2  and  C2_4 
REMARK       I    between atoms: C2_4  and  N2_6 
REMARK    1  A    between atoms: N2_6  and  C3_8 
REMARK    2  A    between atoms: C3_8  and  C9_25 
REMARK    3  A    between atoms: N3_9  and  C4_11 
REMARK    4  A    between atoms: C6_13  and  C7_14 
REMARK    5  A    between atoms: C7_14  and  O2_15 
REMARK    6  A    between atoms: O2_15  and  S1_16 
REMARK    7  A    between atoms: S1_16  and  N4_17 
REMARK    8  A    between atoms: C8_22  and  O5_23 
ROOT
HETATM    1  C4  UNL     1     104.652  16.011  18.393  1.00  0.00     0.112 C 
HETATM    2  C5  UNL     1     104.061  15.221  19.557  1.00  0.00     0.037 C 
HETATM    3  C6  UNL     1     103.475  16.551  20.062  1.00  0.00     0.044 C 
HETATM    4  C8  UNL     1     104.465  17.289  19.212  1.00  0.00     0.147 C 
ENDROOT
BRANCH   1   5
HETATM    5  N3  UNL     1     103.838  16.078  17.226  1.00  0.00    -0.372 N 
HETATM    6  C3  UNL     1     103.843  17.058  16.343  1.00  0.00     0.084 C 
ATOM      7  H3  UNL     1     103.198  15.303  17.060  1.00  0.00     0.161 HD
BRANCH   6   8
HETATM    8  N2  UNL     1     104.725  18.124  16.578  1.00  0.00    -0.298 N 
HETATM    9  C2  UNL     1     105.809  18.447  15.742  1.00  0.00     0.321 C 
HETATM   10  N1  UNL     1     106.643  19.550  16.096  1.00  0.00    -0.347 N 
HETATM   11  O1  UNL     1     106.065  17.812  14.717  1.00  0.00    -0.247 OA
HETATM   12  C1  UNL     1     107.758  19.873  15.236  1.00  0.00     0.151 C 
ATOM     13  H1  UNL     1     106.456  20.097  16.936  1.00  0.00     0.163 HD
ATOM     14  H2  UNL     1     104.571  18.700  17.406  1.00  0.00     0.172 HD
ENDBRANCH   6   8
BRANCH   6  15
HETATM   15  C9  UNL     1     102.936  16.928  15.169  1.00  0.00     0.045 C 
HETATM   16  C10 UNL     1     102.179  18.256  14.970  1.00  0.00     0.017 C 
HETATM   17  C11 UNL     1     101.894  15.850  15.352  1.00  0.00     0.017 C 
ENDBRANCH   6  15
ENDBRANCH   1   5
BRANCH   4  18
HETATM   18  O5  UNL     1     105.633  17.701  19.828  1.00  0.00    -0.393 OA
ATOM     19  H5  UNL     1     105.481  18.357  20.497  1.00  0.00     0.210 HD
ENDBRANCH   4  18
BRANCH   3  20
HETATM   20  C7  UNL     1     103.684  16.670  21.553  1.00  0.00     0.199 C 
BRANCH  20  21
HETATM   21  O2  UNL     1     102.639  16.223  22.316  1.00  0.00    -0.259 OA
BRANCH  21  22
HETATM   22  S1  UNL     1     102.687  16.829  23.882  1.00  0.00     0.355 S 
HETATM   23  O3  UNL     1     102.634  15.647  24.822  1.00  0.00    -0.176 OA
HETATM   24  O4  UNL     1     101.487  17.669  24.137  1.00  0.00    -0.176 OA
BRANCH  22  25
HETATM   25  N4  UNL     1     104.175  17.649  24.192  1.00  0.00    -0.306 N 
ATOM     26  H42 UNL     1     104.652  18.230  23.503  1.00  0.00     0.171 HD
ATOM     27  H41 UNL     1     104.504  17.473  25.142  1.00  0.00     0.171 HD
ENDBRANCH  22  25
ENDBRANCH  21  22
ENDBRANCH  20  21
ENDBRANCH   3  20
TORSDOF 8
ENDMDL
MODEL 3
REMARK VINA RESULT: -6.261178091      1.648      2.162
REMARK  8 active torsions:
REMARK  status: ('A' for Active; 'I' for Inactive)
REMARK       I    between atoms: N1_2  and  C2_4 
REMARK       I    between atoms: C2_4  and  N2_6 
REMARK    1  A    between atoms: N2_6  and  C3_8 
REMARK    2  A    between atoms: C3_8  and  C9_25 
REMARK    3  A    between atoms: N3_9  and  C4_11 
REMARK    4  A    between atoms: C6_13  and  C7_14 
REMARK    5  A    between atoms: C7_14  and  O2_15 
REMARK    6  A    between atoms: O2_15  and  S1_16 
REMARK    7  A    between atoms: S1_16  and  N4_17 
REMARK    8  A    between atoms: C8_22  and  O5_23 
ROOT
HETATM    1  C4  UNL     1     104.451  16.539  18.110  1.00  0.00     0.112 C 
HETATM    2  C5  UNL     1     103.382  17.158  19.006  1.00  0.00     0.037 C 
HETATM    3  C6  UNL     1     104.244  16.727  20.205  1.00  0.00     0.044 C 
HETATM    4  C8  UNL     1     104.953  15.747  19.318  1.00  0.00     0.147 C 
ENDROOT
BRANCH   1   5
HETATM    5  N3  UNL     1     105.473  17.431  17.676  1.00  0.00    -0.372 N 
HETATM    6  C3  UNL     1     105.501  18.058  16.516  1.00  0.00     0.084 C 
ATOM      7  H3  UNL     1     106.248  17.599  18.317  1.00  0.00     0.161 HD
BRANCH   6   8
HETATM    8  N2  UNL     1     104.433  17.821  15.637  1.00  0.00    -0.298 N 
HETATM    9  C2  UNL     1     103.405  18.747  15.382  1.00  0.00     0.321 C 
HETATM   10  N1  UNL     1     102.365  18.383  14.474  1.00  0.00    -0.347 N 
HETATM   11  O1  UNL     1     103.368  19.857  15.915  1.00  0.00    -0.247 OA
HETATM   12  C1  UNL     1     101.309  19.335  14.221  1.00  0.00     0.151 C 
ATOM     13  H1  UNL     1     102.367  17.472  14.016  1.00  0.00     0.163 HD
ATOM     14  H2  UNL     1     104.400  16.923  15.153  1.00  0.00     0.172 HD
ENDBRANCH   6   8
BRANCH   6  15
HETATM   15  C9  UNL     1     106.646  18.976  16.260  1.00  0.00     0.045 C 
HETATM   16  C10 UNL     1     107.121  18.794  14.805  1.00  0.00     0.017 C 
HETATM   17  C11 UNL     1     107.832  18.694  17.150  1.00  0.00     0.017 C 
ENDBRANCH   6  15
ENDBRANCH   1   5
BRANCH   4  18
HETATM   18  O5  UNL     1     104.487  14.444  19.330  1.00  0.00    -0.393 OA
ATOM     19  H5  UNL     1     104.843  13.936  20.048  1.00  0.00     0.210 HD
ENDBRANCH   4  18
BRANCH   3  20
HETATM   20  C7  UNL     1     103.369  16.119  21.274  1.00  0.00     0.199 C 
BRANCH  20  21
HETATM   21  O2  UNL     1     102.500  16.993  21.870  1.00  0.00    -0.259 OA
BRANCH  21  22
HETATM   22  S1  UNL     1     102.598  16.948  23.546  1.00  0.00     0.355 S 
HETATM   23  O3  UNL     1     102.551  15.495  23.960  1.00  0.00    -0.176 OA
HETATM   24  O4  UNL     1     101.419  17.631  24.141  1.00  0.00    -0.176 OA
BRANCH  22  25
HETATM   25  N4  UNL     1     104.107  17.578  24.103  1.00  0.00    -0.306 N 
ATOM     26  H42 UNL     1     104.999  17.389  23.646  1.00  0.00     0.171 HD
ATOM     27  H41 UNL     1     103.983  18.154  24.936  1.00  0.00     0.171 HD
ENDBRANCH  22  25
ENDBRANCH  21  22
ENDBRANCH  20  21
ENDBRANCH   3  20
TORSDOF 8
ENDMDL
MODEL 4
REMARK VINA RESULT: -6.197974315      3.784      4.973
REMARK  8 active torsions:
REMARK  status: ('A' for Active; 'I' for Inactive)
REMARK       I    between atoms: N1_2  and  C2_4 
REMARK       I    between atoms: C2_4  and  N2_6 
REMARK    1  A    between atoms: N2_6  and  C3_8 
REMARK    2  A    between atoms: C3_8  and  C9_25 
REMARK    3  A    between atoms: N3_9  and  C4_11 
REMARK    4  A    between atoms: C6_13  and  C7_14 
REMARK    5  A    between atoms: C7_14  and  O2_15 
REMARK    6  A    between atoms: O2_15  and  S1_16 
REMARK    7  A    between atoms: S1_16  and  N4_17 
REMARK    8  A    between atoms: C8_22  and  O5_23 
ROOT
HETATM    1  C4  UNL     1     105.647  16.958  18.330  1.00  0.00     0.112 C 
HETATM    2  C5  UNL     1     105.488  16.321  19.708  1.00  0.00     0.037 C 
HETATM    3  C6  UNL     1     106.047  17.630  20.293  1.00  0.00     0.044 C 
HETATM    4  C8  UNL     1     106.617  17.966  18.948  1.00  0.00     0.147 C 
ENDROOT
BRANCH   1   5
HETATM    5  N3  UNL     1     104.501  17.647  17.842  1.00  0.00    -0.372 N 
HETATM    6  C3  UNL     1     104.337  18.083  16.607  1.00  0.00     0.084 C 
ATOM      7  H3  UNL     1     103.744  17.819  18.502  1.00  0.00     0.161 HD
BRANCH   6   8
HETATM    8  N2  UNL     1     105.384  17.847  15.703  1.00  0.00    -0.298 N 
HETATM    9  C2  UNL     1     106.370  18.795  15.376  1.00  0.00     0.321 C 
HETATM   10  N1  UNL     1     107.377  18.439  14.430  1.00  0.00    -0.347 N 
HETATM   11  O1  UNL     1     106.393  19.923  15.873  1.00  0.00    -0.247 OA
HETATM   12  C1  UNL     1     108.383  19.419  14.094  1.00  0.00     0.151 C 
ATOM     13  H1  UNL     1     107.387  17.513  14.002  1.00  0.00     0.163 HD
ATOM     14  H2  UNL     1     105.433  16.931  15.256  1.00  0.00     0.172 HD
ENDBRANCH   6   8
BRANCH   6  15
HETATM   15  C9  UNL     1     103.049  18.758  16.284  1.00  0.00     0.045 C 
HETATM   16  C10 UNL     1     101.940  18.181  17.186  1.00  0.00     0.017 C 
HETATM   17  C11 UNL     1     102.615  18.536  14.855  1.00  0.00     0.017 C 
ENDBRANCH   6  15
ENDBRANCH   1   5
BRANCH   4  18
HETATM   18  O5  UNL     1     107.942  17.631  18.730  1.00  0.00    -0.393 OA
ATOM     19  H5  UNL     1     108.531  18.056  19.342  1.00  0.00     0.210 HD
ENDBRANCH   4  18
BRANCH   3  20
HETATM   20  C7  UNL     1     107.060  17.320  21.368  1.00  0.00     0.199 C 
BRANCH  20  21
HETATM   21  O2  UNL     1     107.466  18.401  22.104  1.00  0.00    -0.259 OA
BRANCH  21  22
HETATM   22  S1  UNL     1     107.398  18.111  23.757  1.00  0.00     0.355 S 
HETATM   23  O3  UNL     1     108.713  18.566  24.347  1.00  0.00    -0.176 OA
HETATM   24  O4  UNL     1     107.264  16.652  24.010  1.00  0.00    -0.176 OA
BRANCH  22  25
HETATM   25  N4  UNL     1     106.160  19.052  24.509  1.00  0.00    -0.306 N 
ATOM     26  H42 UNL     1     106.181  19.329  25.490  1.00  0.00     0.171 HD
ATOM     27  H41 UNL     1     105.420  19.288  23.847  1.00  0.00     0.171 HD
ENDBRANCH  22  25
ENDBRANCH  21  22
ENDBRANCH  20  21
ENDBRANCH   3  20
TORSDOF 8
ENDMDL
MODEL 5
REMARK VINA RESULT: -6.110650748      4.014      5.186
REMARK  8 active torsions:
REMARK  status: ('A' for Active; 'I' for Inactive)
REMARK       I    between atoms: N1_2  and  C2_4 
REMARK       I    between atoms: C2_4  and  N2_6 
REMARK    1  A    between atoms: N2_6  and  C3_8 
REMARK    2  A    between atoms: C3_8  and  C9_25 
REMARK    3  A    between atoms: N3_9  and  C4_11 
REMARK    4  A    between atoms: C6_13  and  C7_14 
REMARK    5  A    between atoms: C7_14  and  O2_15 
REMARK    6  A    between atoms: O2_15  and  S1_16 
REMARK    7  A    between atoms: S1_16  and  N4_17 
REMARK    8  A    between atoms: C8_22  and  O5_23 
ROOT
HETATM    1  C4  UNL     1     105.169  16.852  18.015  1.00  0.00     0.112 C 
HETATM    2  C5  UNL     1     104.851  16.167  19.341  1.00  0.00     0.037 C 
HETATM    3  C6  UNL     1     105.434  17.409  20.036  1.00  0.00     0.044 C 
HETATM    4  C8  UNL     1     106.139  17.767  18.762  1.00  0.00     0.147 C 
ENDROOT
BRANCH   1   5
HETATM    5  N3  UNL     1     104.114  17.635  17.466  1.00  0.00    -0.372 N 
HETATM    6  C3  UNL     1     104.095  18.154  16.253  1.00  0.00     0.084 C 
ATOM      7  H3  UNL     1     103.304  17.809  18.061  1.00  0.00     0.161 HD
BRANCH   6   8
HETATM    8  N2  UNL     1     105.213  17.914  15.440  1.00  0.00    -0.298 N 
HETATM    9  C2  UNL     1     106.264  18.831  15.256  1.00  0.00     0.321 C 
HETATM   10  N1  UNL     1     107.341  18.475  14.391  1.00  0.00    -0.347 N 
HETATM   11  O1  UNL     1     106.285  19.931  15.811  1.00  0.00    -0.247 OA
HETATM   12  C1  UNL     1     108.414  19.423  14.202  1.00  0.00     0.151 C 
ATOM     13  H1  UNL     1     107.354  17.571  13.918  1.00  0.00     0.163 HD
ATOM     14  H2  UNL     1     105.267  17.020  14.952  1.00  0.00     0.172 HD
ENDBRANCH   6   8
BRANCH   6  15
HETATM   15  C9  UNL     1     102.882  18.921  15.854  1.00  0.00     0.045 C 
HETATM   16  C10 UNL     1     101.642  18.269  16.499  1.00  0.00     0.017 C 
HETATM   17  C11 UNL     1     102.654  18.920  14.361  1.00  0.00     0.017 C 
ENDBRANCH   6  15
ENDBRANCH   1   5
BRANCH   4  18
HETATM   18  O5  UNL     1     107.456  17.358  18.640  1.00  0.00    -0.393 OA
ATOM     19  H5  UNL     1     108.015  17.723  19.315  1.00  0.00     0.210 HD
ENDBRANCH   4  18
BRANCH   3  20
HETATM   20  C7  UNL     1     106.329  16.987  21.176  1.00  0.00     0.199 C 
BRANCH  20  21
HETATM   21  O2  UNL     1     106.792  18.015  21.953  1.00  0.00    -0.259 OA
BRANCH  21  22
HETATM   22  S1  UNL     1     108.469  18.065  22.014  1.00  0.00     0.355 S 
HETATM   23  O3  UNL     1     108.969  16.659  21.779  1.00  0.00    -0.176 OA
HETATM   24  O4  UNL     1     108.915  18.488  23.368  1.00  0.00    -0.176 OA
BRANCH  22  25
HETATM   25  N4  UNL     1     109.114  19.044  20.745  1.00  0.00    -0.306 N 
ATOM     26  H42 UNL     1     108.561  19.723  20.221  1.00  0.00     0.171 HD
ATOM     27  H41 UNL     1     110.105  18.852  20.596  1.00  0.00     0.171 HD
ENDBRANCH  22  25
ENDBRANCH  21  22
ENDBRANCH  20  21
ENDBRANCH   3  20
TORSDOF 8
ENDMDL
