MODEL 1
REMARK VINA RESULT: -6.385968111      0.000      0.000
REMARK  6 active torsions:
REMARK  status: ('A' for Active; 'I' for Inactive)
REMARK    1  A    between atoms: C2_2  and  O1_3 
REMARK    2  A    between atoms: O1_3  and  C3_4 
REMARK    3  A    between atoms: C3_4  and  O2_5 
REMARK    4  A    between atoms: O2_5  and  C4_6 
REMARK    5  A    between atoms: C4_6  and  N1_8 
REMARK    6  A    between atoms: N1_8  and  C5_10 
ROOT
HETATM    1  C5  UNL     1      -4.247   3.646  12.923  1.00  0.00     0.101 C 
HETATM    2  C6  UNL     1      -4.283   4.543  14.122  1.00  0.00     0.043 C 
HETATM    3  C7  UNL     1      -5.283   5.644  13.760  1.00  0.00     0.175 C 
HETATM    4  O3  UNL     1      -4.673   6.364  12.744  1.00  0.00    -0.384 OA
HETATM    5  C8  UNL     1      -3.382   5.809  12.553  1.00  0.00     0.139 C 
HETATM    6  C9  UNL     1      -3.069   5.462  13.998  1.00  0.00    -0.013 C 
HETATM    7  C10 UNL     1      -3.286   6.742  14.797  1.00  0.00     0.018 C 
HETATM    8  C11 UNL     1      -1.781   4.870  14.291  1.00  0.00     0.018 C 
HETATM    9  C12 UNL     1      -3.596   4.490  11.885  1.00  0.00     0.000 C 
HETATM   10  C13 UNL     1      -4.550   4.772  10.709  1.00  0.00     0.019 C 
HETATM   11  C14 UNL     1      -2.374   3.889  11.265  1.00  0.00     0.019 C 
ENDROOT
BRANCH   1  12
HETATM   12  N1  UNL     1      -3.646   2.360  13.133  1.00  0.00    -0.355 N 
ATOM     13  H1  UNL     1      -2.675   2.309  13.443  1.00  0.00     0.162 HD
BRANCH  12  14
HETATM   14  C4  UNL     1      -4.361   1.174  12.922  1.00  0.00     0.212 C 
HETATM   15  S1  UNL     1      -4.854   0.764  11.442  1.00  0.00    -0.033 SA
BRANCH  14  16
HETATM   16  O2  UNL     1      -4.636   0.367  13.998  1.00  0.00    -0.301 OA
BRANCH  16  17
HETATM   17  C3  UNL     1      -4.706   0.759  15.330  1.00  0.00     0.347 C 
BRANCH  17  18
HETATM   18  O1  UNL     1      -5.352  -0.181  16.128  1.00  0.00    -0.367 OA
BRANCH  18  19
HETATM   19  C2  UNL     1      -5.920   0.487  17.216  1.00  0.00     0.166 C 
HETATM   20  C1  UNL     1      -7.247   1.087  16.873  1.00  0.00     0.033 C 
ENDBRANCH  18  19
ENDBRANCH  17  18
ENDBRANCH  16  17
ENDBRANCH  14  16
ENDBRANCH  12  14
ENDBRANCH   1  12
TORSDOF 6
ENDMDL
MODEL 2
REMARK VINA RESULT: -6.193129908      1.181      2.560
REMARK  6 active torsions:
REMARK  status: ('A' for Active; 'I' for Inactive)
REMARK    1  A    between atoms: C2_2  and  O1_3 
REMARK    2  A    between atoms: O1_3  and  C3_4 
REMARK    3  A    between atoms: C3_4  and  O2_5 
REMARK    4  A    between atoms: O2_5  and  C4_6 
REMARK    5  A    between atoms: C4_6  and  N1_8 
REMARK    6  A    between atoms: N1_8  and  C5_10 
ROOT
HETATM    1  C5  UNL     1      -3.336   3.682  12.747  1.00  0.00     0.101 C 
HETATM    2  C6  UNL     1      -3.293   4.416  11.443  1.00  0.00     0.043 C 
HETATM    3  C7  UNL     1      -1.813   4.744  11.225  1.00  0.00     0.175 C 
HETATM    4  O3  UNL     1      -1.502   5.669  12.211  1.00  0.00    -0.384 OA
HETATM    5  C8  UNL     1      -2.699   5.946  12.920  1.00  0.00     0.139 C 
HETATM    6  C9  UNL     1      -3.674   5.860  11.759  1.00  0.00    -0.013 C 
HETATM    7  C10 UNL     1      -3.136   6.800  10.685  1.00  0.00     0.018 C 
HETATM    8  C11 UNL     1      -5.073   6.113  12.027  1.00  0.00     0.018 C 
HETATM    9  C12 UNL     1      -2.981   4.730  13.741  1.00  0.00     0.000 C 
HETATM   10  C13 UNL     1      -1.659   4.401  14.461  1.00  0.00     0.019 C 
HETATM   11  C14 UNL     1      -3.986   4.925  14.833  1.00  0.00     0.019 C 
ENDROOT
BRANCH   1  12
HETATM   12  N1  UNL     1      -4.554   2.972  13.015  1.00  0.00    -0.355 N 
ATOM     13  H1  UNL     1      -5.370   3.489  13.342  1.00  0.00     0.162 HD
BRANCH  12  14
HETATM   14  C4  UNL     1      -4.648   1.585  12.837  1.00  0.00     0.212 C 
HETATM   15  S1  UNL     1      -4.943   0.961  11.380  1.00  0.00    -0.033 SA
BRANCH  14  16
HETATM   16  O2  UNL     1      -4.486   0.766  13.927  1.00  0.00    -0.301 OA
BRANCH  16  17
HETATM   17  C3  UNL     1      -4.827   1.061  15.242  1.00  0.00     0.347 C 
BRANCH  17  18
HETATM   18  O1  UNL     1      -5.401  -0.023  15.900  1.00  0.00    -0.367 OA
BRANCH  18  19
HETATM   19  C2  UNL     1      -5.880   0.420  17.136  1.00  0.00     0.166 C 
HETATM   20  C1  UNL     1      -7.222   1.068  17.015  1.00  0.00     0.033 C 
ENDBRANCH  18  19
ENDBRANCH  17  18
ENDBRANCH  16  17
ENDBRANCH  14  16
ENDBRANCH  12  14
ENDBRANCH   1  12
TORSDOF 6
ENDMDL
MODEL 3
REMARK VINA RESULT: -6.169544340      1.091      2.067
REMARK  6 active torsions:
REMARK  status: ('A' for Active; 'I' for Inactive)
REMARK    1  A    between atoms: C2_2  and  O1_3 
REMARK    2  A    between atoms: O1_3  and  C3_4 
REMARK    3  A    between atoms: C3_4  and  O2_5 
REMARK    4  A    between atoms: O2_5  and  C4_6 
REMARK    5  A    between atoms: C4_6  and  N1_8 
REMARK    6  A    between atoms: N1_8  and  C5_10 
ROOT
HETATM    1  C5  UNL     1      -3.494   3.339  12.464  1.00  0.00     0.101 C 
HETATM    2  C6  UNL     1      -4.486   4.267  11.834  1.00  0.00     0.043 C 
HETATM    3  C7  UNL     1      -3.773   4.827  10.601  1.00  0.00     0.175 C 
HETATM    4  O3  UNL     1      -2.753   5.620  11.105  1.00  0.00    -0.384 OA
HETATM    5  C8  UNL     1      -2.875   5.614  12.518  1.00  0.00     0.139 C 
HETATM    6  C9  UNL     1      -4.391   5.577  12.612  1.00  0.00    -0.013 C 
HETATM    7  C10 UNL     1      -4.896   6.739  11.763  1.00  0.00     0.018 C 
HETATM    8  C11 UNL     1      -4.990   5.588  13.930  1.00  0.00     0.018 C 
HETATM    9  C12 UNL     1      -2.436   4.258  12.963  1.00  0.00     0.000 C 
HETATM   10  C13 UNL     1      -1.090   4.006  12.256  1.00  0.00     0.019 C 
HETATM   11  C14 UNL     1      -2.141   4.138  14.426  1.00  0.00     0.019 C 
ENDROOT
BRANCH   1  12
HETATM   12  N1  UNL     1      -4.030   2.434  13.440  1.00  0.00    -0.355 N 
ATOM     13  H1  UNL     1      -4.132   2.746  14.406  1.00  0.00     0.162 HD
BRANCH  12  14
HETATM   14  C4  UNL     1      -4.415   1.131  13.097  1.00  0.00     0.212 C 
HETATM   15  S1  UNL     1      -4.805   0.762  11.577  1.00  0.00    -0.033 SA
BRANCH  14  16
HETATM   16  O2  UNL     1      -4.458   0.174  14.080  1.00  0.00    -0.301 OA
BRANCH  16  17
HETATM   17  C3  UNL     1      -4.434   0.395  15.453  1.00  0.00     0.347 C 
BRANCH  17  18
HETATM   18  O1  UNL     1      -5.537  -0.155  16.100  1.00  0.00    -0.367 OA
BRANCH  18  19
HETATM   19  C2  UNL     1      -5.909   0.707  17.136  1.00  0.00     0.166 C 
HETATM   20  C1  UNL     1      -7.343   1.119  17.031  1.00  0.00     0.033 C 
ENDBRANCH  18  19
ENDBRANCH  17  18
ENDBRANCH  16  17
ENDBRANCH  14  16
ENDBRANCH  12  14
ENDBRANCH   1  12
TORSDOF 6
ENDMDL
MODEL 4
REMARK VINA RESULT: -6.053964349      1.131      2.569
REMARK  6 active torsions:
REMARK  status: ('A' for Active; 'I' for Inactive)
REMARK    1  A    between atoms: C2_2  and  O1_3 
REMARK    2  A    between atoms: O1_3  and  C3_4 
REMARK    3  A    between atoms: C3_4  and  O2_5 
REMARK    4  A    between atoms: O2_5  and  C4_6 
REMARK    5  A    between atoms: C4_6  and  N1_8 
REMARK    6  A    between atoms: N1_8  and  C5_10 
ROOT
HETATM    1  C5  UNL     1      -3.638   3.950  13.433  1.00  0.00     0.101 C 
HETATM    2  C6  UNL     1      -2.501   3.674  12.498  1.00  0.00     0.043 C 
HETATM    3  C7  UNL     1      -1.293   4.365  13.134  1.00  0.00     0.175 C 
HETATM    4  O3  UNL     1      -1.563   5.722  13.039  1.00  0.00    -0.384 OA
HETATM    5  C8  UNL     1      -2.788   5.858  12.336  1.00  0.00     0.139 C 
HETATM    6  C9  UNL     1      -2.624   4.697  11.371  1.00  0.00    -0.013 C 
HETATM    7  C10 UNL     1      -1.275   4.901  10.688  1.00  0.00     0.018 C 
HETATM    8  C11 UNL     1      -3.674   4.464  10.402  1.00  0.00     0.018 C 
HETATM    9  C12 UNL     1      -3.856   5.414  13.282  1.00  0.00     0.000 C 
HETATM   10  C13 UNL     1      -3.579   6.164  14.599  1.00  0.00     0.019 C 
HETATM   11  C14 UNL     1      -5.247   5.805  12.892  1.00  0.00     0.019 C 
ENDROOT
BRANCH   1  12
HETATM   12  N1  UNL     1      -4.804   3.135  13.243  1.00  0.00    -0.355 N 
ATOM     13  H1  UNL     1      -5.726   3.572  13.262  1.00  0.00     0.162 HD
BRANCH  12  14
HETATM   14  C4  UNL     1      -4.705   1.753  13.033  1.00  0.00     0.212 C 
HETATM   15  S1  UNL     1      -4.916   1.128  11.562  1.00  0.00    -0.033 SA
BRANCH  14  16
HETATM   16  O2  UNL     1      -4.428   0.940  14.104  1.00  0.00    -0.301 OA
BRANCH  16  17
HETATM   17  C3  UNL     1      -4.826   1.141  15.421  1.00  0.00     0.347 C 
BRANCH  17  18
HETATM   18  O1  UNL     1      -5.354  -0.010  15.999  1.00  0.00    -0.367 OA
BRANCH  18  19
HETATM   19  C2  UNL     1      -5.968   0.348  17.202  1.00  0.00     0.166 C 
HETATM   20  C1  UNL     1      -7.213   1.146  16.977  1.00  0.00     0.033 C 
ENDBRANCH  18  19
ENDBRANCH  17  18
ENDBRANCH  16  17
ENDBRANCH  14  16
ENDBRANCH  12  14
ENDBRANCH   1  12
TORSDOF 6
ENDMDL
MODEL 5
REMARK VINA RESULT: -5.948854144      1.451      2.483
REMARK  6 active torsions:
REMARK  status: ('A' for Active; 'I' for Inactive)
REMARK    1  A    between atoms: C2_2  and  O1_3 
REMARK    2  A    between atoms: O1_3  and  C3_4 
REMARK    3  A    between atoms: C3_4  and  O2_5 
REMARK    4  A    between atoms: O2_5  and  C4_6 
REMARK    5  A    between atoms: C4_6  and  N1_8 
REMARK    6  A    between atoms: N1_8  and  C5_10 
ROOT
HETATM    1  C5  UNL     1      -3.643   4.032  13.327  1.00  0.00     0.101 C 
HETATM    2  C6  UNL     1      -2.198   4.018  12.935  1.00  0.00     0.043 C 
HETATM    3  C7  UNL     1      -1.449   4.510  14.176  1.00  0.00     0.175 C 
HETATM    4  O3  UNL     1      -1.810   5.842  14.309  1.00  0.00    -0.384 OA
HETATM    5  C8  UNL     1      -2.642   6.164  13.206  1.00  0.00     0.139 C 
HETATM    6  C9  UNL     1      -1.961   5.308  12.153  1.00  0.00    -0.013 C 
HETATM    7  C10 UNL     1      -0.485   5.688  12.188  1.00  0.00     0.018 C 
HETATM    8  C11 UNL     1      -2.482   5.347  10.803  1.00  0.00     0.018 C 
HETATM    9  C12 UNL     1      -3.946   5.483  13.461  1.00  0.00     0.000 C 
HETATM   10  C13 UNL     1      -4.327   5.848  14.909  1.00  0.00     0.019 C 
HETATM   11  C14 UNL     1      -5.087   5.966  12.621  1.00  0.00     0.019 C 
ENDROOT
BRANCH   1  12
HETATM   12  N1  UNL     1      -4.524   3.300  12.463  1.00  0.00    -0.355 N 
ATOM     13  H1  UNL     1      -5.098   3.809  11.790  1.00  0.00     0.162 HD
BRANCH  12  14
HETATM   14  C4  UNL     1      -4.614   1.903  12.521  1.00  0.00     0.212 C 
HETATM   15  S1  UNL     1      -4.984   1.048  11.205  1.00  0.00    -0.033 SA
BRANCH  14  16
HETATM   16  O2  UNL     1      -4.382   1.275  13.719  1.00  0.00    -0.301 OA
BRANCH  16  17
HETATM   17  C3  UNL     1      -4.345  -0.097  13.943  1.00  0.00     0.347 C 
BRANCH  17  18
HETATM   18  O1  UNL     1      -4.731  -0.436  15.237  1.00  0.00    -0.367 OA
BRANCH  18  19
HETATM   19  C2  UNL     1      -4.890   0.744  15.968  1.00  0.00     0.166 C 
HETATM   20  C1  UNL     1      -5.845   0.570  17.107  1.00  0.00     0.033 C 
ENDBRANCH  18  19
ENDBRANCH  17  18
ENDBRANCH  16  17
ENDBRANCH  14  16
ENDBRANCH  12  14
ENDBRANCH   1  12
TORSDOF 6
ENDMDL
