MODEL 1
REMARK VINA RESULT: -8.984376538      0.000      0.000
REMARK  7 active torsions:
REMARK  status: ('A' for Active; 'I' for Inactive)
REMARK    1  A    between atoms: C9_9  and  O1_10 
REMARK    2  A    between atoms: O1_10  and  C10_11 
REMARK    3  A    between atoms: C10_11  and  C11_13 
REMARK    4  A    between atoms: C13_16  and  O4_17 
REMARK    5  A    between atoms: O4_17  and  C14_18 
REMARK    6  A    between atoms: C14_18  and  O6_20 
REMARK    7  A    between atoms: O6_20  and  C15_21 
ROOT
HETATM    1  C1  UNL     1      41.707  15.298  20.319  1.00  0.00     0.022 C 
HETATM    2  C2  UNL     1      40.446  15.604  20.484  1.00  0.00    -0.020 C 
HETATM    3  C3  UNL     1      39.880  15.932  21.811  1.00  0.00     0.056 C 
HETATM    4  C4  UNL     1      38.565  15.300  22.113  1.00  0.00    -0.007 C 
HETATM    5  C5  UNL     1      37.774  16.268  22.979  1.00  0.00     0.021 C 
HETATM    6  C6  UNL     1      37.791  15.142  20.852  1.00  0.00    -0.059 C 
HETATM    7  C7  UNL     1      36.806  14.259  20.729  1.00  0.00    -0.050 C 
HETATM    8  C8  UNL     1      36.108  14.193  19.419  1.00  0.00     0.046 C 
HETATM    9  C9  UNL     1      36.432  13.390  21.853  1.00  0.00     0.172 C 
HETATM   10  C18 UNL     1      37.417  13.221  22.941  1.00  0.00     0.091 C 
HETATM   11  C19 UNL     1      37.872  11.824  23.099  1.00  0.00     0.098 C 
HETATM   12  F1  UNL     1      37.041  10.828  23.564  1.00  0.00    -0.211 F 
HETATM   13  C20 UNL     1      39.122  11.688  22.747  1.00  0.00     0.012 C 
HETATM   14  C21 UNL     1      39.626  13.011  22.312  1.00  0.00     0.041 C 
HETATM   15  C22 UNL     1      38.674  14.011  22.872  1.00  0.00    -0.017 C 
HETATM   16  C23 UNL     1      39.154  14.355  24.266  1.00  0.00     0.017 C 
HETATM   17  C24 UNL     1      38.137  16.011  19.686  1.00  0.00     0.118 C 
HETATM   18  C25 UNL     1      39.557  15.629  19.337  1.00  0.00     0.158 C 
HETATM   19  O7  UNL     1      39.907  15.365  18.170  1.00  0.00    -0.292 OA
ENDROOT
BRANCH   9  20
HETATM   20  O1  UNL     1      35.149  13.677  22.389  1.00  0.00    -0.307 OA
BRANCH  20  21
HETATM   21  C10 UNL     1      34.041  12.884  22.267  1.00  0.00     0.292 C 
HETATM   22  O2  UNL     1      33.465  12.973  21.151  1.00  0.00    -0.260 OA
BRANCH  21  23
HETATM   23  C11 UNL     1      33.553  12.005  23.326  1.00  0.00     0.044 C 
HETATM   24  C12 UNL     1      33.804  10.716  23.440  1.00  0.00     0.151 C 
HETATM   25  O3  UNL     1      33.168  10.241  24.568  1.00  0.00    -0.331 OA
HETATM   26  C13 UNL     1      32.057  11.070  24.822  1.00  0.00     0.281 C 
HETATM   27  C17 UNL     1      32.665  12.430  24.467  1.00  0.00     0.108 C 
BRANCH  26  28
HETATM   28  O4  UNL     1      31.050  10.742  23.891  1.00  0.00    -0.266 OA
BRANCH  28  29
HETATM   29  C14 UNL     1      30.189   9.676  24.139  1.00  0.00     0.408 C 
HETATM   30  O5  UNL     1      29.414   9.783  25.113  1.00  0.00    -0.229 OA
BRANCH  29  31
HETATM   31  O6  UNL     1      30.157   8.540  23.376  1.00  0.00    -0.298 OA
BRANCH  31  32
HETATM   32  C15 UNL     1      31.011   7.416  23.560  1.00  0.00     0.176 C 
HETATM   33  C16 UNL     1      30.482   6.432  24.556  1.00  0.00     0.034 C 
ENDBRANCH  31  32
ENDBRANCH  29  31
ENDBRANCH  28  29
ENDBRANCH  26  28
ENDBRANCH  21  23
ENDBRANCH  20  21
ENDBRANCH   9  20
TORSDOF 7
ENDMDL
MODEL 2
REMARK VINA RESULT: -8.830486445      1.956      3.317
REMARK  7 active torsions:
REMARK  status: ('A' for Active; 'I' for Inactive)
REMARK    1  A    between atoms: C9_9  and  O1_10 
REMARK    2  A    between atoms: O1_10  and  C10_11 
REMARK    3  A    between atoms: C10_11  and  C11_13 
REMARK    4  A    between atoms: C13_16  and  O4_17 
REMARK    5  A    between atoms: O4_17  and  C14_18 
REMARK    6  A    between atoms: C14_18  and  O6_20 
REMARK    7  A    between atoms: O6_20  and  C15_21 
ROOT
HETATM    1  C1  UNL     1      39.336  16.644  20.220  1.00  0.00     0.022 C 
HETATM    2  C2  UNL     1      38.723  15.498  20.363  1.00  0.00    -0.020 C 
HETATM    3  C3  UNL     1      37.304  15.308  19.986  1.00  0.00     0.056 C 
HETATM    4  C4  UNL     1      36.483  14.549  20.971  1.00  0.00    -0.007 C 
HETATM    5  C5  UNL     1      35.446  13.754  20.193  1.00  0.00     0.021 C 
HETATM    6  C6  UNL     1      37.340  13.550  21.665  1.00  0.00    -0.059 C 
HETATM    7  C7  UNL     1      37.020  13.040  22.849  1.00  0.00    -0.050 C 
HETATM    8  C8  UNL     1      37.957  12.051  23.442  1.00  0.00     0.046 C 
HETATM    9  C9  UNL     1      35.784  13.445  23.531  1.00  0.00     0.172 C 
HETATM   10  C18 UNL     1      35.146  14.704  23.096  1.00  0.00     0.091 C 
HETATM   11  C19 UNL     1      35.082  15.722  24.165  1.00  0.00     0.098 C 
HETATM   12  F1  UNL     1      34.272  15.579  25.270  1.00  0.00    -0.211 F 
HETATM   13  C20 UNL     1      35.876  16.729  23.911  1.00  0.00     0.012 C 
HETATM   14  C21 UNL     1      36.556  16.467  22.622  1.00  0.00     0.041 C 
HETATM   15  C22 UNL     1      35.741  15.422  21.939  1.00  0.00    -0.017 C 
HETATM   16  C23 UNL     1      34.661  16.138  21.154  1.00  0.00     0.017 C 
HETATM   17  C24 UNL     1      38.604  13.108  21.000  1.00  0.00     0.118 C 
HETATM   18  C25 UNL     1      39.443  14.361  20.908  1.00  0.00     0.158 C 
HETATM   19  O7  UNL     1      40.635  14.392  21.270  1.00  0.00    -0.292 OA
ENDROOT
BRANCH   9  20
HETATM   20  O1  UNL     1      34.820  12.407  23.621  1.00  0.00    -0.307 OA
BRANCH  20  21
HETATM   21  C10 UNL     1      33.888  12.270  24.614  1.00  0.00     0.292 C 
HETATM   22  O2  UNL     1      34.265  12.702  25.735  1.00  0.00    -0.260 OA
BRANCH  21  23
HETATM   23  C11 UNL     1      32.568  11.680  24.411  1.00  0.00     0.044 C 
HETATM   24  C12 UNL     1      31.726  11.320  25.360  1.00  0.00     0.151 C 
HETATM   25  O3  UNL     1      30.591  10.806  24.770  1.00  0.00    -0.331 OA
HETATM   26  C13 UNL     1      30.950  10.297  23.505  1.00  0.00     0.281 C 
HETATM   27  C17 UNL     1      31.951  11.372  23.071  1.00  0.00     0.108 C 
BRANCH  26  28
HETATM   28  O4  UNL     1      31.623   9.074  23.706  1.00  0.00    -0.266 OA
BRANCH  28  29
HETATM   29  C14 UNL     1      30.900   7.913  23.964  1.00  0.00     0.408 C 
HETATM   30  O5  UNL     1      29.900   7.691  23.247  1.00  0.00    -0.229 OA
BRANCH  29  31
HETATM   31  O6  UNL     1      31.232   7.021  24.948  1.00  0.00    -0.298 OA
BRANCH  31  32
HETATM   32  C15 UNL     1      30.299   6.214  25.659  1.00  0.00     0.176 C 
HETATM   33  C16 UNL     1      30.462   4.751  25.390  1.00  0.00     0.034 C 
ENDBRANCH  31  32
ENDBRANCH  29  31
ENDBRANCH  28  29
ENDBRANCH  26  28
ENDBRANCH  21  23
ENDBRANCH  20  21
ENDBRANCH   9  20
TORSDOF 7
ENDMDL
MODEL 3
REMARK VINA RESULT: -8.803480880      1.050      1.546
REMARK  7 active torsions:
REMARK  status: ('A' for Active; 'I' for Inactive)
REMARK    1  A    between atoms: C9_9  and  O1_10 
REMARK    2  A    between atoms: O1_10  and  C10_11 
REMARK    3  A    between atoms: C10_11  and  C11_13 
REMARK    4  A    between atoms: C13_16  and  O4_17 
REMARK    5  A    between atoms: O4_17  and  C14_18 
REMARK    6  A    between atoms: C14_18  and  O6_20 
REMARK    7  A    between atoms: O6_20  and  C15_21 
ROOT
HETATM    1  C1  UNL     1      41.824  14.925  19.905  1.00  0.00     0.022 C 
HETATM    2  C2  UNL     1      40.725  15.428  20.403  1.00  0.00    -0.020 C 
HETATM    3  C3  UNL     1      40.545  15.651  21.854  1.00  0.00     0.056 C 
HETATM    4  C4  UNL     1      39.223  15.233  22.401  1.00  0.00    -0.007 C 
HETATM    5  C5  UNL     1      38.866  16.188  23.529  1.00  0.00     0.021 C 
HETATM    6  C6  UNL     1      38.178  15.410  21.357  1.00  0.00    -0.059 C 
HETATM    7  C7  UNL     1      37.025  14.751  21.387  1.00  0.00    -0.050 C 
HETATM    8  C8  UNL     1      36.060  15.012  20.287  1.00  0.00     0.046 C 
HETATM    9  C9  UNL     1      36.729  13.807  22.473  1.00  0.00     0.172 C 
HETATM   10  C18 UNL     1      37.867  13.298  23.264  1.00  0.00     0.091 C 
HETATM   11  C19 UNL     1      38.037  11.834  23.161  1.00  0.00     0.098 C 
HETATM   12  F1  UNL     1      37.135  10.949  23.710  1.00  0.00    -0.211 F 
HETATM   13  C20 UNL     1      39.123  11.526  22.503  1.00  0.00     0.012 C 
HETATM   14  C21 UNL     1      39.790  12.785  22.097  1.00  0.00     0.041 C 
HETATM   15  C22 UNL     1      39.218  13.847  22.972  1.00  0.00    -0.017 C 
HETATM   16  C23 UNL     1      40.053  13.883  24.236  1.00  0.00     0.017 C 
HETATM   17  C24 UNL     1      38.439  16.367  20.238  1.00  0.00     0.118 C 
HETATM   18  C25 UNL     1      39.633  15.788  19.516  1.00  0.00     0.158 C 
HETATM   19  O7  UNL     1      39.656  15.643  18.278  1.00  0.00    -0.292 OA
ENDROOT
BRANCH   9  20
HETATM   20  O1  UNL     1      35.684  14.240  23.331  1.00  0.00    -0.307 OA
BRANCH  20  21
HETATM   21  C10 UNL     1      34.498  13.589  23.533  1.00  0.00     0.292 C 
HETATM   22  O2  UNL     1      33.936  13.869  24.624  1.00  0.00    -0.260 OA
BRANCH  21  23
HETATM   23  C11 UNL     1      33.917  12.648  22.578  1.00  0.00     0.044 C 
HETATM   24  C12 UNL     1      33.386  12.957  21.412  1.00  0.00     0.151 C 
HETATM   25  O3  UNL     1      32.949  11.798  20.806  1.00  0.00    -0.331 OA
HETATM   26  C13 UNL     1      32.666  10.858  21.818  1.00  0.00     0.281 C 
HETATM   27  C17 UNL     1      33.821  11.157  22.778  1.00  0.00     0.108 C 
BRANCH  26  28
HETATM   28  O4  UNL     1      31.443  11.224  22.417  1.00  0.00    -0.266 OA
BRANCH  28  29
HETATM   29  C14 UNL     1      30.888  10.427  23.415  1.00  0.00     0.408 C 
HETATM   30  O5  UNL     1      30.810  10.919  24.561  1.00  0.00    -0.229 OA
BRANCH  29  31
HETATM   31  O6  UNL     1      30.432   9.155  23.197  1.00  0.00    -0.298 OA
BRANCH  31  32
HETATM   32  C15 UNL     1      30.061   8.240  24.224  1.00  0.00     0.176 C 
HETATM   33  C16 UNL     1      30.767   6.925  24.123  1.00  0.00     0.034 C 
ENDBRANCH  31  32
ENDBRANCH  29  31
ENDBRANCH  28  29
ENDBRANCH  26  28
ENDBRANCH  21  23
ENDBRANCH  20  21
ENDBRANCH   9  20
TORSDOF 7
ENDMDL
MODEL 4
REMARK VINA RESULT: -8.770546264      2.029      3.206
REMARK  7 active torsions:
REMARK  status: ('A' for Active; 'I' for Inactive)
REMARK    1  A    between atoms: C9_9  and  O1_10 
REMARK    2  A    between atoms: O1_10  and  C10_11 
REMARK    3  A    between atoms: C10_11  and  C11_13 
REMARK    4  A    between atoms: C13_16  and  O4_17 
REMARK    5  A    between atoms: O4_17  and  C14_18 
REMARK    6  A    between atoms: C14_18  and  O6_20 
REMARK    7  A    between atoms: O6_20  and  C15_21 
ROOT
HETATM    1  C1  UNL     1      41.134  15.090  25.433  1.00  0.00     0.022 C 
HETATM    2  C2  UNL     1      40.461  14.609  24.421  1.00  0.00    -0.020 C 
HETATM    3  C3  UNL     1      39.770  15.482  23.446  1.00  0.00     0.056 C 
HETATM    4  C4  UNL     1      38.395  15.049  23.070  1.00  0.00    -0.007 C 
HETATM    5  C5  UNL     1      38.166  15.440  21.619  1.00  0.00     0.021 C 
HETATM    6  C6  UNL     1      38.313  13.564  23.120  1.00  0.00    -0.059 C 
HETATM    7  C7  UNL     1      37.159  12.920  23.254  1.00  0.00    -0.050 C 
HETATM    8  C8  UNL     1      37.206  11.436  23.291  1.00  0.00     0.046 C 
HETATM    9  C9  UNL     1      35.894  13.660  23.357  1.00  0.00     0.172 C 
HETATM   10  C18 UNL     1      35.968  15.087  23.731  1.00  0.00     0.091 C 
HETATM   11  C19 UNL     1      35.283  15.389  25.005  1.00  0.00     0.098 C 
HETATM   12  F1  UNL     1      33.914  15.325  25.137  1.00  0.00    -0.211 F 
HETATM   13  C20 UNL     1      36.138  15.712  25.939  1.00  0.00     0.012 C 
HETATM   14  C21 UNL     1      37.500  15.651  25.360  1.00  0.00     0.041 C 
HETATM   15  C22 UNL     1      37.314  15.699  23.882  1.00  0.00    -0.017 C 
HETATM   16  C23 UNL     1      37.275  17.159  23.482  1.00  0.00     0.017 C 
HETATM   17  C24 UNL     1      39.577  12.774  23.012  1.00  0.00     0.118 C 
HETATM   18  C25 UNL     1      40.378  13.173  24.229  1.00  0.00     0.158 C 
HETATM   19  O7  UNL     1      40.907  12.331  24.982  1.00  0.00    -0.292 OA
ENDROOT
BRANCH   9  20
HETATM   20  O1  UNL     1      35.042  13.487  22.235  1.00  0.00    -0.307 OA
BRANCH  20  21
HETATM   21  C10 UNL     1      33.864  12.792  22.230  1.00  0.00     0.292 C 
HETATM   22  O2  UNL     1      33.183  12.941  21.181  1.00  0.00    -0.260 OA
BRANCH  21  23
HETATM   23  C11 UNL     1      33.417  11.947  23.334  1.00  0.00     0.044 C 
HETATM   24  C12 UNL     1      33.613  10.648  23.443  1.00  0.00     0.151 C 
HETATM   25  O3  UNL     1      33.043  10.214  24.623  1.00  0.00    -0.331 OA
HETATM   26  C13 UNL     1      31.997  11.100  24.952  1.00  0.00     0.281 C 
HETATM   27  C17 UNL     1      32.642  12.425  24.535  1.00  0.00     0.108 C 
BRANCH  26  28
HETATM   28  O4  UNL     1      30.906  10.815  24.105  1.00  0.00    -0.266 OA
BRANCH  28  29
HETATM   29  C14 UNL     1      30.127   9.682  24.325  1.00  0.00     0.408 C 
HETATM   30  O5  UNL     1      29.418   9.668  25.354  1.00  0.00    -0.229 OA
BRANCH  29  31
HETATM   31  O6  UNL     1      30.107   8.606  23.480  1.00  0.00    -0.298 OA
BRANCH  31  32
HETATM   32  C15 UNL     1      30.984   7.488  23.569  1.00  0.00     0.176 C 
HETATM   33  C16 UNL     1      30.576   6.502  24.618  1.00  0.00     0.034 C 
ENDBRANCH  31  32
ENDBRANCH  29  31
ENDBRANCH  28  29
ENDBRANCH  26  28
ENDBRANCH  21  23
ENDBRANCH  20  21
ENDBRANCH   9  20
TORSDOF 7
ENDMDL
MODEL 5
REMARK VINA RESULT: -8.719712191      1.189      1.557
REMARK  7 active torsions:
REMARK  status: ('A' for Active; 'I' for Inactive)
REMARK    1  A    between atoms: C9_9  and  O1_10 
REMARK    2  A    between atoms: O1_10  and  C10_11 
REMARK    3  A    between atoms: C10_11  and  C11_13 
REMARK    4  A    between atoms: C13_16  and  O4_17 
REMARK    5  A    between atoms: O4_17  and  C14_18 
REMARK    6  A    between atoms: C14_18  and  O6_20 
REMARK    7  A    between atoms: O6_20  and  C15_21 
ROOT
HETATM    1  C1  UNL     1      40.851  15.746  21.479  1.00  0.00     0.022 C 
HETATM    2  C2  UNL     1      39.560  15.892  21.332  1.00  0.00    -0.020 C 
HETATM    3  C3  UNL     1      38.659  16.153  22.476  1.00  0.00     0.056 C 
HETATM    4  C4  UNL     1      37.396  15.362  22.481  1.00  0.00    -0.007 C 
HETATM    5  C5  UNL     1      36.311  16.227  23.102  1.00  0.00     0.021 C 
HETATM    6  C6  UNL     1      36.970  15.101  21.080  1.00  0.00    -0.059 C 
HETATM    7  C7  UNL     1      36.157  14.100  20.759  1.00  0.00    -0.050 C 
HETATM    8  C8  UNL     1      35.804  13.940  19.324  1.00  0.00     0.046 C 
HETATM    9  C9  UNL     1      35.634  13.197  21.793  1.00  0.00     0.172 C 
HETATM   10  C18 UNL     1      36.345  13.159  23.087  1.00  0.00     0.091 C 
HETATM   11  C19 UNL     1      36.914  11.831  23.397  1.00  0.00     0.098 C 
HETATM   12  F1  UNL     1      36.124  10.741  23.688  1.00  0.00    -0.211 F 
HETATM   13  C20 UNL     1      38.220  11.852  23.354  1.00  0.00     0.012 C 
HETATM   14  C21 UNL     1      38.649  13.225  23.004  1.00  0.00     0.041 C 
HETATM   15  C22 UNL     1      37.477  14.101  23.289  1.00  0.00    -0.017 C 
HETATM   16  C23 UNL     1      37.566  14.510  24.744  1.00  0.00     0.017 C 
HETATM   17  C24 UNL     1      37.476  16.001  19.999  1.00  0.00     0.118 C 
HETATM   18  C25 UNL     1      38.973  15.799  20.007  1.00  0.00     0.158 C 
HETATM   19  O7  UNL     1      39.620  15.575  18.965  1.00  0.00    -0.292 OA
ENDROOT
BRANCH   9  20
HETATM   20  O1  UNL     1      34.235  13.323  22.000  1.00  0.00    -0.307 OA
BRANCH  20  21
HETATM   21  C10 UNL     1      33.312  12.330  21.819  1.00  0.00     0.292 C 
HETATM   22  O2  UNL     1      33.320  11.825  20.666  1.00  0.00    -0.260 OA
BRANCH  21  23
HETATM   23  C11 UNL     1      32.390  11.881  22.859  1.00  0.00     0.044 C 
HETATM   24  C12 UNL     1      32.528  12.078  24.155  1.00  0.00     0.151 C 
HETATM   25  O3  UNL     1      31.455  11.506  24.805  1.00  0.00    -0.331 OA
HETATM   26  C13 UNL     1      30.967  10.458  23.999  1.00  0.00     0.281 C 
HETATM   27  C17 UNL     1      31.123  11.102  22.618  1.00  0.00     0.108 C 
BRANCH  26  28
HETATM   28  O4  UNL     1      31.856   9.370  24.119  1.00  0.00    -0.266 OA
BRANCH  28  29
HETATM   29  C14 UNL     1      31.370   8.065  24.114  1.00  0.00     0.408 C 
HETATM   30  O5  UNL     1      30.731   7.698  23.105  1.00  0.00    -0.229 OA
BRANCH  29  31
HETATM   31  O6  UNL     1      31.559   7.187  25.147  1.00  0.00    -0.298 OA
BRANCH  31  32
HETATM   32  C15 UNL     1      30.527   6.416  25.754  1.00  0.00     0.176 C 
HETATM   33  C16 UNL     1      30.567   4.971  25.368  1.00  0.00     0.034 C 
ENDBRANCH  31  32
ENDBRANCH  29  31
ENDBRANCH  28  29
ENDBRANCH  26  28
ENDBRANCH  21  23
ENDBRANCH  20  21
ENDBRANCH   9  20
TORSDOF 7
ENDMDL
