MODEL 1
REMARK VINA RESULT: -4.631774682      0.000      0.000
REMARK  0 active torsions:
REMARK  status: ('A' for Active; 'I' for Inactive)
ROOT
HETATM    1  C1  UNL     1      15.097   0.229  17.721  1.00  0.00     0.168 C 
HETATM    2  C2  UNL     1      14.295   1.530  17.870  1.00  0.00     0.034 C 
HETATM    3  C3  UNL     1      14.528   2.134  16.556  1.00  0.00     0.027 C 
HETATM    4  C4  UNL     1      14.571   3.622  16.469  1.00  0.00     0.081 C 
HETATM    5  S1  UNL     1      15.504   3.763  14.878  1.00  0.00    -0.166 SA
HETATM    6  C5  UNL     1      16.130   2.027  14.836  1.00  0.00     0.106 C 
HETATM    7  C6  UNL     1      15.983   1.704  16.292  1.00  0.00     0.135 C 
HETATM    8  O1  UNL     1      15.912   0.381  16.611  1.00  0.00    -0.385 OA
ENDROOT
TORSDOF 0
ENDMDL
MODEL 2
REMARK VINA RESULT: -4.340534864      2.026      2.996
REMARK  0 active torsions:
REMARK  status: ('A' for Active; 'I' for Inactive)
ROOT
HETATM    1  C1  UNL     1      16.664   3.910  14.611  1.00  0.00     0.168 C 
HETATM    2  C2  UNL     1      15.481   4.280  15.519  1.00  0.00     0.034 C 
HETATM    3  C3  UNL     1      15.446   3.106  16.395  1.00  0.00     0.027 C 
HETATM    4  C4  UNL     1      14.123   2.672  16.928  1.00  0.00     0.081 C 
HETATM    5  S1  UNL     1      14.566   0.923  17.334  1.00  0.00    -0.166 SA
HETATM    6  C5  UNL     1      16.115   0.851  16.332  1.00  0.00     0.106 C 
HETATM    7  C6  UNL     1      15.830   1.992  15.404  1.00  0.00     0.135 C 
HETATM    8  O1  UNL     1      16.911   2.561  14.799  1.00  0.00    -0.385 OA
ENDROOT
TORSDOF 0
ENDMDL
MODEL 3
REMARK VINA RESULT: -4.196159094      1.211      2.076
REMARK  0 active torsions:
REMARK  status: ('A' for Active; 'I' for Inactive)
ROOT
HETATM    1  C1  UNL     1      14.932   0.473  17.480  1.00  0.00     0.168 C 
HETATM    2  C2  UNL     1      16.001   0.894  16.459  1.00  0.00     0.034 C 
HETATM    3  C3  UNL     1      15.843   2.350  16.499  1.00  0.00     0.027 C 
HETATM    4  C4  UNL     1      16.115   3.116  15.250  1.00  0.00     0.081 C 
HETATM    5  S1  UNL     1      15.162   4.645  15.668  1.00  0.00    -0.166 SA
HETATM    6  C5  UNL     1      14.177   3.918  17.050  1.00  0.00     0.106 C 
HETATM    7  C6  UNL     1      14.319   2.471  16.685  1.00  0.00     0.135 C 
HETATM    8  O1  UNL     1      14.119   1.574  17.691  1.00  0.00    -0.385 OA
ENDROOT
TORSDOF 0
ENDMDL
MODEL 4
REMARK VINA RESULT: -4.187168250      1.255      1.603
REMARK  0 active torsions:
REMARK  status: ('A' for Active; 'I' for Inactive)
ROOT
HETATM    1  C1  UNL     1      14.681   2.316  17.904  1.00  0.00     0.168 C 
HETATM    2  C2  UNL     1      14.245   3.720  17.456  1.00  0.00     0.034 C 
HETATM    3  C3  UNL     1      14.640   3.680  16.046  1.00  0.00     0.027 C 
HETATM    4  C4  UNL     1      15.072   4.955  15.405  1.00  0.00     0.081 C 
HETATM    5  S1  UNL     1      16.024   4.229  13.996  1.00  0.00    -0.166 SA
HETATM    6  C5  UNL     1      16.175   2.524  14.688  1.00  0.00     0.106 C 
HETATM    7  C6  UNL     1      15.934   2.849  16.130  1.00  0.00     0.135 C 
HETATM    8  O1  UNL     1      15.517   1.819  16.919  1.00  0.00    -0.385 OA
ENDROOT
TORSDOF 0
ENDMDL
MODEL 5
REMARK VINA RESULT: -4.116159545      1.353      1.647
REMARK  0 active torsions:
REMARK  status: ('A' for Active; 'I' for Inactive)
ROOT
HETATM    1  C1  UNL     1      15.580   1.424  16.748  1.00  0.00     0.168 C 
HETATM    2  C2  UNL     1      14.761   2.717  16.893  1.00  0.00     0.034 C 
HETATM    3  C3  UNL     1      15.112   3.391  15.640  1.00  0.00     0.027 C 
HETATM    4  C4  UNL     1      15.157   4.881  15.639  1.00  0.00     0.081 C 
HETATM    5  S1  UNL     1      16.232   5.108  14.151  1.00  0.00    -0.166 SA
HETATM    6  C5  UNL     1      16.867   3.376  14.073  1.00  0.00     0.106 C 
HETATM    7  C6  UNL     1      16.587   2.975  15.489  1.00  0.00     0.135 C 
HETATM    8  O1  UNL     1      16.493   1.636  15.728  1.00  0.00    -0.385 OA
ENDROOT
TORSDOF 0
ENDMDL
