MODEL 1
REMARK VINA RESULT: -4.484802503      0.000      0.000
REMARK  10 active torsions:
REMARK  status: ('A' for Active; 'I' for Inactive)
REMARK    1  A    between atoms: C2_2  and  C3_3 
REMARK    2  A    between atoms: C3_3  and  N1_4 
REMARK    3  A    between atoms: C4_5  and  C5_6 
REMARK    4  A    between atoms: C10_19  and  N5_20 
REMARK    5  A    between atoms: C11_23  and  N6_24 
REMARK    6  A    between atoms: N7_27  and  C12_28 
REMARK    7  A    between atoms: C12_28  and  O3_29 
REMARK    8  A    between atoms: O3_29  and  C13_30 
REMARK    9  A    between atoms: C13_30  and  C14_31 
REMARK   10  A    between atoms: C14_31  and  O4_32 
ROOT
HETATM    1  N1  UNL     1      15.711   9.780  17.738  1.00  0.00    -0.297 N 
HETATM    2  C4  UNL     1      14.975  10.887  17.693  1.00  0.00     0.102 A 
HETATM    3  N3  UNL     1      15.124  11.722  16.651  1.00  0.00    -0.329 N 
ATOM      4  H3  UNL     1      14.564  12.574  16.606  1.00  0.00     0.168 HD
HETATM    5  C9  UNL     1      15.995  11.451  15.672  1.00  0.00     0.141 A 
HETATM    6  N4  UNL     1      16.140  12.290  14.626  1.00  0.00    -0.324 N 
ATOM      7  H4  UNL     1      15.577  13.140  14.586  1.00  0.00     0.169 HD
HETATM    8  C10 UNL     1      17.006  12.031  13.639  1.00  0.00     0.145 A 
HETATM    9  C11 UNL     1      17.765  10.878  13.696  1.00  0.00     0.152 A 
HETATM   10  N7  UNL     1      17.670   9.981  14.730  1.00  0.00    -0.277 N 
HETATM   11  C15 UNL     1      16.786  10.290  15.693  1.00  0.00     0.155 A 
HETATM   12  C16 UNL     1      16.613   9.453  16.771  1.00  0.00     0.280 A 
HETATM   13  O5  UNL     1      17.280   8.409  16.850  1.00  0.00    -0.265 OA
ENDROOT
BRANCH   2  14
HETATM   14  C5  UNL     1      14.016  11.185  18.779  1.00  0.00     0.154 C 
HETATM   15  C6  UNL     1      12.730  11.805  18.217  1.00  0.00     0.125 C 
HETATM   16  C7  UNL     1      12.169  12.448  19.436  1.00  0.00     0.225 C 
HETATM   17  O1  UNL     1      10.951  12.602  19.730  1.00  0.00    -0.273 OA
HETATM   18  N2  UNL     1      13.310  12.857  20.210  1.00  0.00    -0.297 N 
HETATM   19  C8  UNL     1      14.493  12.344  19.615  1.00  0.00     0.236 C 
ATOM     20  H2  UNL     1      13.274  13.428  21.055  1.00  0.00     0.171 HD
HETATM   21  O2  UNL     1      15.648  12.795  19.782  1.00  0.00    -0.272 OA
ENDBRANCH   2  14
BRANCH   1  22
HETATM   22  C3  UNL     1      15.651   8.777  18.799  1.00  0.00     0.160 C 
BRANCH  22  23
HETATM   23  C2  UNL     1      14.374   8.013  18.733  1.00  0.00    -0.017 C 
HETATM   24  C1  UNL     1      14.073   7.197  17.752  1.00  0.00     0.008 C 
ENDBRANCH  22  23
ENDBRANCH   1  22
BRANCH  10  25
HETATM   25  C12 UNL     1      18.482   8.795  14.749  1.00  0.00     0.235 C 
BRANCH  25  26
HETATM   26  O3  UNL     1      19.818   8.997  14.562  1.00  0.00    -0.344 OA
BRANCH  26  27
HETATM   27  C13 UNL     1      20.402   7.975  13.846  1.00  0.00     0.202 C 
BRANCH  27  28
HETATM   28  C14 UNL     1      20.275   6.647  14.547  1.00  0.00     0.191 C 
BRANCH  28  29
HETATM   29  O4  UNL     1      21.562   6.066  14.625  1.00  0.00    -0.399 OA
ATOM     30  H4  UNL     1      21.471   5.128  14.505  1.00  0.00     0.209 HD
ENDBRANCH  28  29
ENDBRANCH  27  28
ENDBRANCH  26  27
ENDBRANCH  25  26
ENDBRANCH  10  25
BRANCH   8  31
HETATM   31  N5  UNL     1      17.107  12.857  12.666  1.00  0.00    -0.382 N 
ATOM     32  H52 UNL     1      17.407  13.822  12.809  1.00  0.00     0.157 HD
ATOM     33  H51 UNL     1      16.883  12.542  11.722  1.00  0.00     0.157 HD
ENDBRANCH   8  31
BRANCH   9  34
HETATM   34  N6  UNL     1      18.608  10.607  12.748  1.00  0.00    -0.382 N 
ATOM     35  H62 UNL     1      19.454  10.099  13.004  1.00  0.00     0.157 HD
ATOM     36  H61 UNL     1      18.411  10.899  11.790  1.00  0.00     0.157 HD
ENDBRANCH   9  34
TORSDOF 10
ENDMDL
MODEL 2
REMARK VINA RESULT: -3.155341430      3.053      5.527
REMARK  10 active torsions:
REMARK  status: ('A' for Active; 'I' for Inactive)
REMARK    1  A    between atoms: C2_2  and  C3_3 
REMARK    2  A    between atoms: C3_3  and  N1_4 
REMARK    3  A    between atoms: C4_5  and  C5_6 
REMARK    4  A    between atoms: C10_19  and  N5_20 
REMARK    5  A    between atoms: C11_23  and  N6_24 
REMARK    6  A    between atoms: N7_27  and  C12_28 
REMARK    7  A    between atoms: C12_28  and  O3_29 
REMARK    8  A    between atoms: O3_29  and  C13_30 
REMARK    9  A    between atoms: C13_30  and  C14_31 
REMARK   10  A    between atoms: C14_31  and  O4_32 
ROOT
HETATM    1  N1  UNL     1      18.489   9.237  14.747  1.00  0.00    -0.297 N 
HETATM    2  C4  UNL     1      18.142   9.041  16.016  1.00  0.00     0.102 A 
HETATM    3  N3  UNL     1      18.686   8.010  16.684  1.00  0.00    -0.329 N 
ATOM      4  H3  UNL     1      18.428   7.850  17.658  1.00  0.00     0.168 HD
HETATM    5  C9  UNL     1      19.561   7.190  16.089  1.00  0.00     0.141 A 
HETATM    6  N4  UNL     1      20.107   6.158  16.764  1.00  0.00    -0.324 N 
ATOM      7  H4  UNL     1      19.845   6.003  17.737  1.00  0.00     0.169 HD
HETATM    8  C10 UNL     1      20.984   5.332  16.182  1.00  0.00     0.145 A 
HETATM    9  C11 UNL     1      21.337   5.545  14.863  1.00  0.00     0.152 A 
HETATM   10  N7  UNL     1      20.820   6.575  14.118  1.00  0.00    -0.277 N 
HETATM   11  C15 UNL     1      19.944   7.373  14.750  1.00  0.00     0.155 A 
HETATM   12  C16 UNL     1      19.373   8.436  14.090  1.00  0.00     0.280 A 
HETATM   13  O5  UNL     1      19.671   8.654  12.905  1.00  0.00    -0.265 OA
ENDROOT
BRANCH   2  14
HETATM   14  C5  UNL     1      17.172   9.947  16.669  1.00  0.00     0.154 C 
HETATM   15  C6  UNL     1      17.762  10.547  17.952  1.00  0.00     0.125 C 
HETATM   16  C7  UNL     1      16.526  10.982  18.656  1.00  0.00     0.225 C 
HETATM   17  O1  UNL     1      16.389  11.977  19.421  1.00  0.00    -0.273 OA
HETATM   18  N2  UNL     1      15.519  10.026  18.283  1.00  0.00    -0.297 N 
HETATM   19  C8  UNL     1      16.033   9.168  17.274  1.00  0.00     0.236 C 
ATOM     20  H2  UNL     1      14.581   9.973  18.681  1.00  0.00     0.171 HD
HETATM   21  O2  UNL     1      15.597   8.029  16.994  1.00  0.00    -0.272 OA
ENDBRANCH   2  14
BRANCH   1  22
HETATM   22  C3  UNL     1      17.989  10.319  13.901  1.00  0.00     0.160 C 
BRANCH  22  23
HETATM   23  C2  UNL     1      16.612  10.716  14.308  1.00  0.00    -0.017 C 
HETATM   24  C1  UNL     1      16.072  11.869  13.996  1.00  0.00     0.008 C 
ENDBRANCH  22  23
ENDBRANCH   1  22
BRANCH  10  25
HETATM   25  C12 UNL     1      21.214   6.757  12.747  1.00  0.00     0.235 C 
BRANCH  25  26
HETATM   26  O3  UNL     1      22.552   6.924  12.539  1.00  0.00    -0.344 OA
BRANCH  26  27
HETATM   27  C13 UNL     1      22.945   6.478  11.297  1.00  0.00     0.202 C 
BRANCH  27  28
HETATM   28  C14 UNL     1      21.771   6.058  10.449  1.00  0.00     0.191 C 
BRANCH  28  29
HETATM   29  O4  UNL     1      22.239   5.831   9.133  1.00  0.00    -0.399 OA
ATOM     30  H4  UNL     1      22.900   5.150   9.168  1.00  0.00     0.209 HD
ENDBRANCH  28  29
ENDBRANCH  27  28
ENDBRANCH  26  27
ENDBRANCH  25  26
ENDBRANCH  10  25
BRANCH   8  31
HETATM   31  N5  UNL     1      21.476   4.365  16.864  1.00  0.00    -0.382 N 
ATOM     32  H52 UNL     1      21.027   4.025  17.714  1.00  0.00     0.157 HD
ATOM     33  H51 UNL     1      22.339   3.924  16.546  1.00  0.00     0.157 HD
ENDBRANCH   8  31
BRANCH   9  34
HETATM   34  N6  UNL     1      22.188   4.757  14.282  1.00  0.00    -0.382 N 
ATOM     35  H62 UNL     1      23.122   4.696  14.687  1.00  0.00     0.157 HD
ATOM     36  H61 UNL     1      21.913   4.228  13.454  1.00  0.00     0.157 HD
ENDBRANCH   9  34
TORSDOF 10
ENDMDL
MODEL 3
REMARK VINA RESULT: -2.737720225      6.606     10.274
REMARK  10 active torsions:
REMARK  status: ('A' for Active; 'I' for Inactive)
REMARK    1  A    between atoms: C2_2  and  C3_3 
REMARK    2  A    between atoms: C3_3  and  N1_4 
REMARK    3  A    between atoms: C4_5  and  C5_6 
REMARK    4  A    between atoms: C10_19  and  N5_20 
REMARK    5  A    between atoms: C11_23  and  N6_24 
REMARK    6  A    between atoms: N7_27  and  C12_28 
REMARK    7  A    between atoms: C12_28  and  O3_29 
REMARK    8  A    between atoms: O3_29  and  C13_30 
REMARK    9  A    between atoms: C13_30  and  C14_31 
REMARK   10  A    between atoms: C14_31  and  O4_32 
ROOT
HETATM    1  N1  UNL     1      20.750   6.026  14.448  1.00  0.00    -0.297 N 
HETATM    2  C4  UNL     1      21.538   5.550  13.488  1.00  0.00     0.102 A 
HETATM    3  N3  UNL     1      22.392   4.557  13.784  1.00  0.00    -0.329 N 
ATOM      4  H3  UNL     1      23.001   4.184  13.056  1.00  0.00     0.168 HD
HETATM    5  C9  UNL     1      22.455   4.051  15.022  1.00  0.00     0.141 A 
HETATM    6  N4  UNL     1      23.312   3.051  15.315  1.00  0.00    -0.324 N 
ATOM      7  H4  UNL     1      23.918   2.682  14.583  1.00  0.00     0.169 HD
HETATM    8  C10 UNL     1      23.384   2.534  16.548  1.00  0.00     0.145 A 
HETATM    9  C11 UNL     1      22.561   3.037  17.537  1.00  0.00     0.152 A 
HETATM   10  N7  UNL     1      21.667   4.053  17.309  1.00  0.00    -0.277 N 
HETATM   11  C15 UNL     1      21.636   4.535  16.055  1.00  0.00     0.155 A 
HETATM   12  C16 UNL     1      20.770   5.551  15.724  1.00  0.00     0.280 A 
HETATM   13  O5  UNL     1      20.017   6.022  16.591  1.00  0.00    -0.265 OA
ENDROOT
BRANCH   2  14
HETATM   14  C5  UNL     1      21.469   6.115  12.123  1.00  0.00     0.154 C 
HETATM   15  C6  UNL     1      21.059   5.040  11.107  1.00  0.00     0.125 C 
HETATM   16  C7  UNL     1      21.522   5.660   9.836  1.00  0.00     0.225 C 
HETATM   17  O1  UNL     1      20.998   5.547   8.692  1.00  0.00    -0.273 OA
HETATM   18  N2  UNL     1      22.694   6.416  10.185  1.00  0.00    -0.297 N 
HETATM   19  C8  UNL     1      22.847   6.424  11.598  1.00  0.00     0.236 C 
ATOM     20  H2  UNL     1      23.318   6.875   9.522  1.00  0.00     0.171 HD
HETATM   21  O2  UNL     1      23.913   6.645  12.215  1.00  0.00    -0.272 OA
ENDBRANCH   2  14
BRANCH   1  22
HETATM   22  C3  UNL     1      19.768   7.095  14.272  1.00  0.00     0.160 C 
BRANCH  22  23
HETATM   23  C2  UNL     1      20.445   8.409  14.083  1.00  0.00    -0.017 C 
HETATM   24  C1  UNL     1      19.797   9.535  13.908  1.00  0.00     0.008 C 
ENDBRANCH  22  23
ENDBRANCH   1  22
BRANCH  10  25
HETATM   25  C12 UNL     1      20.831   4.546  18.370  1.00  0.00     0.235 C 
BRANCH  25  26
HETATM   26  O3  UNL     1      19.966   3.637  18.905  1.00  0.00    -0.344 OA
BRANCH  26  27
HETATM   27  C13 UNL     1      19.687   3.903  20.228  1.00  0.00     0.202 C 
BRANCH  27  28
HETATM   28  C14 UNL     1      20.731   3.333  21.153  1.00  0.00     0.191 C 
BRANCH  28  29
HETATM   29  O4  UNL     1      21.200   4.378  21.983  1.00  0.00    -0.399 OA
ATOM     30  H4  UNL     1      21.978   4.746  21.583  1.00  0.00     0.209 HD
ENDBRANCH  28  29
ENDBRANCH  27  28
ENDBRANCH  26  27
ENDBRANCH  25  26
ENDBRANCH  10  25
BRANCH   8  31
HETATM   31  N5  UNL     1      24.213   1.586  16.778  1.00  0.00    -0.382 N 
ATOM     32  H52 UNL     1      25.006   1.404  16.162  1.00  0.00     0.157 HD
ATOM     33  H51 UNL     1      24.077   0.997  17.600  1.00  0.00     0.157 HD
ENDBRANCH   8  31
BRANCH   9  34
HETATM   34  N6  UNL     1      22.613   2.547  18.737  1.00  0.00    -0.382 N 
ATOM     35  H62 UNL     1      22.486   1.541  18.839  1.00  0.00     0.157 HD
ATOM     36  H61 UNL     1      22.777   3.163  19.534  1.00  0.00     0.157 HD
ENDBRANCH   9  34
TORSDOF 10
ENDMDL
MODEL 4
REMARK VINA RESULT: -2.383228779      3.084      5.453
REMARK  10 active torsions:
REMARK  status: ('A' for Active; 'I' for Inactive)
REMARK    1  A    between atoms: C2_2  and  C3_3 
REMARK    2  A    between atoms: C3_3  and  N1_4 
REMARK    3  A    between atoms: C4_5  and  C5_6 
REMARK    4  A    between atoms: C10_19  and  N5_20 
REMARK    5  A    between atoms: C11_23  and  N6_24 
REMARK    6  A    between atoms: N7_27  and  C12_28 
REMARK    7  A    between atoms: C12_28  and  O3_29 
REMARK    8  A    between atoms: O3_29  and  C13_30 
REMARK    9  A    between atoms: C13_30  and  C14_31 
REMARK   10  A    between atoms: C14_31  and  O4_32 
ROOT
HETATM    1  N1  UNL     1      18.611   8.926  15.926  1.00  0.00    -0.297 N 
HETATM    2  C4  UNL     1      18.292   9.498  14.768  1.00  0.00     0.102 A 
HETATM    3  N3  UNL     1      18.749   8.953  13.628  1.00  0.00    -0.329 N 
ATOM      4  H3  UNL     1      18.511   9.384  12.735  1.00  0.00     0.168 HD
HETATM    5  C9  UNL     1      19.513   7.854  13.650  1.00  0.00     0.141 A 
HETATM    6  N4  UNL     1      19.967   7.308  12.503  1.00  0.00    -0.324 N 
ATOM      7  H4  UNL     1      19.725   7.743  11.612  1.00  0.00     0.169 HD
HETATM    8  C10 UNL     1      20.729   6.208  12.510  1.00  0.00     0.145 A 
HETATM    9  C11 UNL     1      21.054   5.622  13.718  1.00  0.00     0.152 A 
HETATM   10  N7  UNL     1      20.627   6.124  14.921  1.00  0.00    -0.277 N 
HETATM   11  C15 UNL     1      19.865   7.229  14.857  1.00  0.00     0.155 A 
HETATM   12  C16 UNL     1      19.384   7.807  16.009  1.00  0.00     0.280 A 
HETATM   13  O5  UNL     1      19.658   7.303  17.109  1.00  0.00    -0.265 OA
ENDROOT
BRANCH   2  14
HETATM   14  C5  UNL     1      17.452  10.715  14.749  1.00  0.00     0.154 C 
HETATM   15  C6  UNL     1      15.964  10.351  14.660  1.00  0.00     0.125 C 
HETATM   16  C7  UNL     1      15.387  11.631  14.170  1.00  0.00     0.225 C 
HETATM   17  O1  UNL     1      14.248  12.109  14.432  1.00  0.00    -0.273 OA
HETATM   18  N2  UNL     1      16.402  12.211  13.333  1.00  0.00    -0.297 N 
HETATM   19  C8  UNL     1      17.595  11.447  13.440  1.00  0.00     0.236 C 
ATOM     20  H2  UNL     1      16.283  13.041  12.752  1.00  0.00     0.171 HD
HETATM   21  O2  UNL     1      18.524  11.425  12.602  1.00  0.00    -0.272 OA
ENDBRANCH   2  14
BRANCH   1  22
HETATM   22  C3  UNL     1      18.180   9.398  17.240  1.00  0.00     0.160 C 
BRANCH  22  23
HETATM   23  C2  UNL     1      16.796   8.937  17.540  1.00  0.00    -0.017 C 
HETATM   24  C1  UNL     1      15.934   9.644  18.230  1.00  0.00     0.008 C 
ENDBRANCH  22  23
ENDBRANCH   1  22
BRANCH  10  25
HETATM   25  C12 UNL     1      20.992   5.482  16.155  1.00  0.00     0.235 C 
BRANCH  25  26
HETATM   26  O3  UNL     1      22.307   5.587  16.504  1.00  0.00    -0.344 OA
BRANCH  26  27
HETATM   27  C13 UNL     1      22.895   4.355  16.689  1.00  0.00     0.202 C 
BRANCH  27  28
HETATM   28  C14 UNL     1      21.888   3.296  17.057  1.00  0.00     0.191 C 
BRANCH  28  29
HETATM   29  O4  UNL     1      21.855   2.339  16.016  1.00  0.00    -0.399 OA
ATOM     30  H4  UNL     1      22.625   1.788  16.098  1.00  0.00     0.209 HD
ENDBRANCH  28  29
ENDBRANCH  27  28
ENDBRANCH  26  27
ENDBRANCH  25  26
ENDBRANCH  10  25
BRANCH   8  31
HETATM   31  N5  UNL     1      21.136   5.726  11.395  1.00  0.00    -0.382 N 
ATOM     32  H52 UNL     1      20.595   5.827  10.536  1.00  0.00     0.157 HD
ATOM     33  H51 UNL     1      22.027   5.229  11.366  1.00  0.00     0.157 HD
ENDBRANCH   8  31
BRANCH   9  34
HETATM   34  N6  UNL     1      21.789   4.553  13.745  1.00  0.00    -0.382 N 
ATOM     35  H62 UNL     1      21.496   3.798  14.365  1.00  0.00     0.157 HD
ATOM     36  H61 UNL     1      22.623   4.491  13.160  1.00  0.00     0.157 HD
ENDBRANCH   9  34
TORSDOF 10
ENDMDL
MODEL 5
REMARK VINA RESULT: -2.075384159      7.137      9.788
REMARK  10 active torsions:
REMARK  status: ('A' for Active; 'I' for Inactive)
REMARK    1  A    between atoms: C2_2  and  C3_3 
REMARK    2  A    between atoms: C3_3  and  N1_4 
REMARK    3  A    between atoms: C4_5  and  C5_6 
REMARK    4  A    between atoms: C10_19  and  N5_20 
REMARK    5  A    between atoms: C11_23  and  N6_24 
REMARK    6  A    between atoms: N7_27  and  C12_28 
REMARK    7  A    between atoms: C12_28  and  O3_29 
REMARK    8  A    between atoms: O3_29  and  C13_30 
REMARK    9  A    between atoms: C13_30  and  C14_31 
REMARK   10  A    between atoms: C14_31  and  O4_32 
ROOT
HETATM    1  N1  UNL     1      20.912   5.700  13.208  1.00  0.00    -0.297 N 
HETATM    2  C4  UNL     1      22.233   5.805  13.324  1.00  0.00     0.102 A 
HETATM    3  N3  UNL     1      22.974   5.923  12.210  1.00  0.00    -0.329 N 
ATOM      4  H3  UNL     1      23.988   6.004  12.287  1.00  0.00     0.168 HD
HETATM    5  C9  UNL     1      22.400   5.935  11.001  1.00  0.00     0.141 A 
HETATM    6  N4  UNL     1      23.148   6.057   9.884  1.00  0.00    -0.324 N 
ATOM      7  H4  UNL     1      24.161   6.139   9.968  1.00  0.00     0.169 HD
HETATM    8  C10 UNL     1      22.587   6.073   8.669  1.00  0.00     0.145 A 
HETATM    9  C11 UNL     1      21.214   5.963   8.561  1.00  0.00     0.152 A 
HETATM   10  N7  UNL     1      20.394   5.835   9.653  1.00  0.00    -0.277 N 
HETATM   11  C15 UNL     1      21.008   5.825  10.848  1.00  0.00     0.155 A 
HETATM   12  C16 UNL     1      20.274   5.706  12.005  1.00  0.00     0.280 A 
HETATM   13  O5  UNL     1      19.038   5.607  11.939  1.00  0.00    -0.265 OA
ENDROOT
BRANCH   2  14
HETATM   14  C5  UNL     1      22.864   5.787  14.662  1.00  0.00     0.154 C 
HETATM   15  C6  UNL     1      24.392   5.868  14.547  1.00  0.00     0.125 C 
HETATM   16  C7  UNL     1      24.804   5.353  15.880  1.00  0.00     0.225 C 
HETATM   17  O1  UNL     1      25.817   5.692  16.554  1.00  0.00    -0.273 OA
HETATM   18  N2  UNL     1      23.805   4.383  16.240  1.00  0.00    -0.297 N 
HETATM   19  C8  UNL     1      22.746   4.424  15.294  1.00  0.00     0.236 C 
ATOM     20  H2  UNL     1      23.850   3.763  17.049  1.00  0.00     0.171 HD
HETATM   21  O2  UNL     1      21.928   3.503  15.075  1.00  0.00    -0.272 OA
ENDBRANCH   2  14
BRANCH   1  22
HETATM   22  C3  UNL     1      19.981   5.575  14.327  1.00  0.00     0.160 C 
BRANCH  22  23
HETATM   23  C2  UNL     1      19.801   6.885  15.014  1.00  0.00    -0.017 C 
HETATM   24  C1  UNL     1      19.590   8.011  14.374  1.00  0.00     0.008 C 
ENDBRANCH  22  23
ENDBRANCH   1  22
BRANCH  10  25
HETATM   25  C12 UNL     1      18.970   5.722   9.492  1.00  0.00     0.235 C 
BRANCH  25  26
HETATM   26  O3  UNL     1      18.549   4.680   8.718  1.00  0.00    -0.344 OA
BRANCH  26  27
HETATM   27  C13 UNL     1      19.033   3.471   9.167  1.00  0.00     0.202 C 
BRANCH  27  28
HETATM   28  C14 UNL     1      19.651   2.661   8.057  1.00  0.00     0.191 C 
BRANCH  28  29
HETATM   29  O4  UNL     1      21.057   2.720   8.201  1.00  0.00    -0.399 OA
ATOM     30  H4  UNL     1      21.449   2.502   7.363  1.00  0.00     0.209 HD
ENDBRANCH  28  29
ENDBRANCH  27  28
ENDBRANCH  26  27
ENDBRANCH  25  26
ENDBRANCH  10  25
BRANCH   8  31
HETATM   31  N5  UNL     1      23.338   6.191   7.639  1.00  0.00    -0.382 N 
ATOM     32  H52 UNL     1      23.207   5.611   6.809  1.00  0.00     0.157 HD
ATOM     33  H51 UNL     1      24.085   6.886   7.647  1.00  0.00     0.157 HD
ENDBRANCH   8  31
BRANCH   9  34
HETATM   34  N6  UNL     1      20.651   5.979   7.392  1.00  0.00    -0.382 N 
ATOM     35  H62 UNL     1      19.740   5.530   7.304  1.00  0.00     0.157 HD
ATOM     36  H61 UNL     1      21.118   6.432   6.605  1.00  0.00     0.157 HD
ENDBRANCH   9  34
TORSDOF 10
ENDMDL
