MODEL 1
REMARK VINA RESULT: -8.395941389      0.000      0.000
REMARK  4 active torsions:
REMARK  status: ('A' for Active; 'I' for Inactive)
REMARK    1  A    between atoms: C8_9  and  C9_10 
REMARK    2  A    between atoms: C9_10  and  O1_11 
REMARK    3  A    between atoms: O1_11  and  C10_12 
REMARK    4  A    between atoms: C13_20  and  N3_21 
ROOT
HETATM    1  C10 UNL     1      70.169  -4.646  72.616  1.00  0.00     0.173 A 
HETATM    2  N1  UNL     1      70.354  -5.580  73.545  1.00  0.00    -0.331 N 
ATOM      3  H1  UNL     1      71.064  -5.374  74.248  1.00  0.00     0.168 HD
HETATM    4  C11 UNL     1      69.737  -6.736  73.673  1.00  0.00     0.183 A 
HETATM    5  N2  UNL     1      68.785  -7.020  72.738  1.00  0.00    -0.345 N 
ATOM      6  H2  UNL     1      68.271  -7.899  72.779  1.00  0.00     0.167 HD
HETATM    7  C12 UNL     1      68.529  -6.120  71.749  1.00  0.00     0.109 A 
HETATM    8  S1  UNL     1      67.454  -6.054  70.398  1.00  0.00    -0.034 SA
HETATM    9  C13 UNL     1      67.914  -4.509  69.787  1.00  0.00     0.149 A 
HETATM   10  N4  UNL     1      68.841  -4.154  70.639  1.00  0.00    -0.331 N 
ATOM     11  H4  UNL     1      69.310  -3.256  70.526  1.00  0.00     0.168 HD
HETATM   12  C18 UNL     1      69.176  -4.930  71.631  1.00  0.00     0.120 A 
ENDROOT
BRANCH   1  13
HETATM   13  O1  UNL     1      70.848  -3.469  72.555  1.00  0.00    -0.333 OA
BRANCH  13  14
HETATM   14  C9  UNL     1      72.076  -2.964  72.557  1.00  0.00     0.187 C 
BRANCH  14  15
HETATM   15  C8  UNL     1      72.812  -2.581  71.325  1.00  0.00    -0.016 C 
HETATM   16  C7  UNL     1      74.311  -2.833  71.616  1.00  0.00     0.016 C 
HETATM   17  C5  UNL     1      75.162  -2.466  70.446  1.00  0.00    -0.012 C 
HETATM   18  C4  UNL     1      74.745  -3.366  69.296  1.00  0.00     0.009 C 
HETATM   19  C6  UNL     1      75.027  -1.026  70.040  1.00  0.00     0.030 C 
HETATM   20  C3  UNL     1      73.347  -3.013  68.921  1.00  0.00    -0.012 C 
HETATM   21  C2  UNL     1      73.148  -1.544  68.610  1.00  0.00     0.030 C 
HETATM   22  C19 UNL     1      72.395  -3.295  70.104  1.00  0.00     0.016 C 
HETATM   23  C1  UNL     1      73.548  -0.761  69.836  1.00  0.00     0.038 C 
HETATM   24 CL1  UNL     1      73.373   0.975  69.470  1.00  0.00    -0.119 Cl
HETATM   25  C20 UNL     1      72.759  -1.078  71.061  1.00  0.00     0.037 C 
ENDBRANCH  14  15
ENDBRANCH  13  14
ENDBRANCH   1  13
BRANCH   9  26
HETATM   26  N3  UNL     1      67.375  -3.855  68.642  1.00  0.00    -0.357 N 
HETATM   27  C14 UNL     1      67.814  -2.508  68.359  1.00  0.00     0.151 C 
HETATM   28  C15 UNL     1      67.960  -2.295  66.880  1.00  0.00     0.187 C 
HETATM   29  O2  UNL     1      67.032  -2.957  66.118  1.00  0.00    -0.388 OA
HETATM   30  C16 UNL     1      65.930  -3.408  66.803  1.00  0.00     0.187 C 
HETATM   31  C17 UNL     1      66.430  -4.480  67.783  1.00  0.00     0.151 C 
ENDBRANCH   9  26
TORSDOF 4
ENDMDL
MODEL 2
REMARK VINA RESULT: -8.084499967      1.311      1.972
REMARK  4 active torsions:
REMARK  status: ('A' for Active; 'I' for Inactive)
REMARK    1  A    between atoms: C8_9  and  C9_10 
REMARK    2  A    between atoms: C9_10  and  O1_11 
REMARK    3  A    between atoms: O1_11  and  C10_12 
REMARK    4  A    between atoms: C13_20  and  N3_21 
ROOT
HETATM    1  C10 UNL     1      70.692  -4.841  72.372  1.00  0.00     0.173 A 
HETATM    2  N1  UNL     1      71.257  -5.744  73.168  1.00  0.00    -0.331 N 
ATOM      3  H1  UNL     1      71.961  -5.389  73.814  1.00  0.00     0.168 HD
HETATM    4  C11 UNL     1      71.022  -7.038  73.228  1.00  0.00     0.183 A 
HETATM    5  N2  UNL     1      70.081  -7.523  72.367  1.00  0.00    -0.345 N 
ATOM      6  H2  UNL     1      69.853  -8.516  72.362  1.00  0.00     0.167 HD
HETATM    7  C12 UNL     1      69.450  -6.669  71.515  1.00  0.00     0.109 A 
HETATM    8  S1  UNL     1      68.237  -6.825  70.296  1.00  0.00    -0.034 SA
HETATM    9  C13 UNL     1      68.147  -5.171  69.817  1.00  0.00     0.149 A 
HETATM   10  N4  UNL     1      69.034  -4.621  70.606  1.00  0.00    -0.331 N 
ATOM     11  H4  UNL     1      69.204  -3.617  70.546  1.00  0.00     0.168 HD
HETATM   12  C18 UNL     1      69.704  -5.334  71.466  1.00  0.00     0.120 A 
ENDROOT
BRANCH   1  13
HETATM   13  O1  UNL     1      70.987  -3.513  72.374  1.00  0.00    -0.333 OA
BRANCH  13  14
HETATM   14  C9  UNL     1      72.003  -2.664  72.474  1.00  0.00     0.187 C 
BRANCH  14  15
HETATM   15  C8  UNL     1      72.879  -2.289  71.335  1.00  0.00    -0.016 C 
HETATM   16  C7  UNL     1      72.179  -2.809  70.057  1.00  0.00     0.016 C 
HETATM   17  C5  UNL     1      72.980  -2.505  68.834  1.00  0.00    -0.012 C 
HETATM   18  C4  UNL     1      73.082  -0.993  68.737  1.00  0.00     0.009 C 
HETATM   19  C6  UNL     1      74.356  -3.107  68.859  1.00  0.00     0.030 C 
HETATM   20  C3  UNL     1      73.888  -0.512  69.894  1.00  0.00    -0.012 C 
HETATM   21  C2  UNL     1      75.243  -1.179  70.016  1.00  0.00     0.030 C 
HETATM   22  C19 UNL     1      73.167  -0.848  71.218  1.00  0.00     0.016 C 
HETATM   23  C1  UNL     1      75.010  -2.663  70.153  1.00  0.00     0.038 C 
HETATM   24 CL1  UNL     1      76.595  -3.471  70.243  1.00  0.00    -0.119 Cl
HETATM   25  C20 UNL     1      74.198  -3.058  71.342  1.00  0.00     0.037 C 
ENDBRANCH  14  15
ENDBRANCH  13  14
ENDBRANCH   1  13
BRANCH   9  26
HETATM   26  N3  UNL     1      67.299  -4.623  68.812  1.00  0.00    -0.357 N 
HETATM   27  C14 UNL     1      67.393  -3.208  68.540  1.00  0.00     0.151 C 
HETATM   28  C15 UNL     1      67.242  -2.936  67.072  1.00  0.00     0.187 C 
HETATM   29  O2  UNL     1      66.357  -3.765  66.430  1.00  0.00    -0.388 OA
HETATM   30  C16 UNL     1      65.505  -4.458  67.255  1.00  0.00     0.187 C 
HETATM   31  C17 UNL     1      66.376  -5.418  68.080  1.00  0.00     0.151 C 
ENDBRANCH   9  26
TORSDOF 4
ENDMDL
MODEL 3
REMARK VINA RESULT: -7.897051839      2.162      4.772
REMARK  4 active torsions:
REMARK  status: ('A' for Active; 'I' for Inactive)
REMARK    1  A    between atoms: C8_9  and  C9_10 
REMARK    2  A    between atoms: C9_10  and  O1_11 
REMARK    3  A    between atoms: O1_11  and  C10_12 
REMARK    4  A    between atoms: C13_20  and  N3_21 
ROOT
HETATM    1  C10 UNL     1      69.366  -3.792  70.652  1.00  0.00     0.173 A 
HETATM    2  N1  UNL     1      68.525  -3.156  69.843  1.00  0.00    -0.331 N 
ATOM      3  H1  UNL     1      68.626  -2.142  69.804  1.00  0.00     0.168 HD
HETATM    4  C11 UNL     1      67.578  -3.669  69.085  1.00  0.00     0.183 A 
HETATM    5  N2  UNL     1      67.435  -5.025  69.130  1.00  0.00    -0.345 N 
ATOM      6  H2  UNL     1      66.720  -5.485  68.567  1.00  0.00     0.167 HD
HETATM    7  C12 UNL     1      68.255  -5.758  69.932  1.00  0.00     0.109 A 
HETATM    8  S1  UNL     1      68.434  -7.436  70.297  1.00  0.00    -0.034 SA
HETATM    9  C13 UNL     1      69.740  -7.312  71.415  1.00  0.00     0.149 A 
HETATM   10  N4  UNL     1      69.948  -6.021  71.435  1.00  0.00    -0.331 N 
ATOM     11  H4  UNL     1      70.685  -5.640  72.028  1.00  0.00     0.168 HD
HETATM   12  C18 UNL     1      69.228  -5.212  70.709  1.00  0.00     0.120 A 
ENDROOT
BRANCH   1  13
HETATM   13  O1  UNL     1      70.325  -3.188  71.403  1.00  0.00    -0.333 OA
BRANCH  13  14
HETATM   14  C9  UNL     1      71.614  -3.257  71.714  1.00  0.00     0.187 C 
BRANCH  14  15
HETATM   15  C8  UNL     1      72.700  -2.726  70.851  1.00  0.00    -0.016 C 
HETATM   16  C7  UNL     1      74.032  -3.118  71.535  1.00  0.00     0.016 C 
HETATM   17  C5  UNL     1      75.208  -2.620  70.762  1.00  0.00    -0.012 C 
HETATM   18  C4  UNL     1      75.159  -3.290  69.401  1.00  0.00     0.009 C 
HETATM   19  C6  UNL     1      75.221  -1.127  70.594  1.00  0.00     0.030 C 
HETATM   20  C3  UNL     1      73.950  -2.792  68.687  1.00  0.00    -0.012 C 
HETATM   21  C2  UNL     1      73.873  -1.282  68.594  1.00  0.00     0.030 C 
HETATM   22  C19 UNL     1      72.675  -3.201  69.456  1.00  0.00     0.016 C 
HETATM   23  C1  UNL     1      73.881  -0.737  70.000  1.00  0.00     0.038 C 
HETATM   24 CL1  UNL     1      73.846   1.042  69.910  1.00  0.00    -0.119 Cl
HETATM   25  C20 UNL     1      72.748  -1.200  70.853  1.00  0.00     0.037 C 
ENDBRANCH  14  15
ENDBRANCH  13  14
ENDBRANCH   1  13
BRANCH   9  26
HETATM   26  N3  UNL     1      70.376  -8.388  72.100  1.00  0.00    -0.357 N 
HETATM   27  C14 UNL     1      70.029  -8.611  73.484  1.00  0.00     0.151 C 
HETATM   28  C15 UNL     1      69.975 -10.080  73.789  1.00  0.00     0.187 C 
HETATM   29  O2  UNL     1      70.904 -10.833  73.118  1.00  0.00    -0.388 OA
HETATM   30  C16 UNL     1      71.941 -10.121  72.564  1.00  0.00     0.187 C 
HETATM   31  C17 UNL     1      71.329  -9.234  71.470  1.00  0.00     0.151 C 
ENDBRANCH   9  26
TORSDOF 4
ENDMDL
MODEL 4
REMARK VINA RESULT: -7.762471729      1.271      1.584
REMARK  4 active torsions:
REMARK  status: ('A' for Active; 'I' for Inactive)
REMARK    1  A    between atoms: C8_9  and  C9_10 
REMARK    2  A    between atoms: C9_10  and  O1_11 
REMARK    3  A    between atoms: O1_11  and  C10_12 
REMARK    4  A    between atoms: C13_20  and  N3_21 
ROOT
HETATM    1  C10 UNL     1      71.152  -3.598  71.913  1.00  0.00     0.173 A 
HETATM    2  N1  UNL     1      71.664  -4.235  72.961  1.00  0.00    -0.331 N 
ATOM      3  H1  UNL     1      72.496  -3.814  73.375  1.00  0.00     0.168 HD
HETATM    4  C11 UNL     1      71.235  -5.341  73.533  1.00  0.00     0.183 A 
HETATM    5  N2  UNL     1      70.123  -5.912  72.987  1.00  0.00    -0.345 N 
ATOM      6  H2  UNL     1      69.739  -6.770  73.382  1.00  0.00     0.167 HD
HETATM    7  C12 UNL     1      69.530  -5.326  71.910  1.00  0.00     0.109 A 
HETATM    8  S1  UNL     1      68.157  -5.678  70.923  1.00  0.00    -0.034 SA
HETATM    9  C13 UNL     1      68.272  -4.338  69.846  1.00  0.00     0.149 A 
HETATM   10  N4  UNL     1      69.332  -3.723  70.304  1.00  0.00    -0.331 N 
ATOM     11  H4  UNL     1      69.652  -2.868  69.849  1.00  0.00     0.168 HD
HETATM   12  C18 UNL     1      69.987  -4.184  71.331  1.00  0.00     0.120 A 
ENDROOT
BRANCH   1  13
HETATM   13  O1  UNL     1      71.654  -2.452  71.382  1.00  0.00    -0.333 OA
BRANCH  13  14
HETATM   14  C9  UNL     1      72.712  -1.650  71.423  1.00  0.00     0.187 C 
BRANCH  14  15
HETATM   15  C8  UNL     1      73.925  -1.842  70.588  1.00  0.00    -0.016 C 
HETATM   16  C7  UNL     1      74.963  -2.558  71.484  1.00  0.00     0.016 C 
HETATM   17  C5  UNL     1      76.244  -2.793  70.754  1.00  0.00    -0.012 C 
HETATM   18  C4  UNL     1      75.924  -3.702  69.581  1.00  0.00     0.009 C 
HETATM   19  C6  UNL     1      76.886  -1.529  70.257  1.00  0.00     0.030 C 
HETATM   20  C3  UNL     1      75.042  -2.950  68.645  1.00  0.00    -0.012 C 
HETATM   21  C2  UNL     1      75.609  -1.615  68.207  1.00  0.00     0.030 C 
HETATM   22  C19 UNL     1      73.709  -2.598  69.340  1.00  0.00     0.016 C 
HETATM   23  C1  UNL     1      75.839  -0.789  69.447  1.00  0.00     0.038 C 
HETATM   24 CL1  UNL     1      76.559   0.766  68.957  1.00  0.00    -0.119 Cl
HETATM   25  C20 UNL     1      74.612  -0.520  70.252  1.00  0.00     0.037 C 
ENDBRANCH  14  15
ENDBRANCH  13  14
ENDBRANCH   1  13
BRANCH   9  26
HETATM   26  N3  UNL     1      67.397  -4.044  68.760  1.00  0.00    -0.357 N 
HETATM   27  C14 UNL     1      67.484  -2.737  68.152  1.00  0.00     0.151 C 
HETATM   28  C15 UNL     1      67.293  -2.827  66.666  1.00  0.00     0.187 C 
HETATM   29  O2  UNL     1      66.393  -3.781  66.267  1.00  0.00    -0.388 OA
HETATM   30  C16 UNL     1      65.563  -4.249  67.257  1.00  0.00     0.187 C 
HETATM   31  C17 UNL     1      66.455  -4.986  68.266  1.00  0.00     0.151 C 
ENDBRANCH   9  26
TORSDOF 4
ENDMDL
MODEL 5
REMARK VINA RESULT: -7.748557483      1.633      2.328
REMARK  4 active torsions:
REMARK  status: ('A' for Active; 'I' for Inactive)
REMARK    1  A    between atoms: C8_9  and  C9_10 
REMARK    2  A    between atoms: C9_10  and  O1_11 
REMARK    3  A    between atoms: O1_11  and  C10_12 
REMARK    4  A    between atoms: C13_20  and  N3_21 
ROOT
HETATM    1  C10 UNL     1      71.638  -4.906  73.167  1.00  0.00     0.173 A 
HETATM    2  N1  UNL     1      72.297  -5.737  73.969  1.00  0.00    -0.331 N 
ATOM      3  H1  UNL     1      73.042  -5.319  74.527  1.00  0.00     0.168 HD
HETATM    4  C11 UNL     1      72.111  -7.030  74.135  1.00  0.00     0.183 A 
HETATM    5  N2  UNL     1      71.117  -7.598  73.393  1.00  0.00    -0.345 N 
ATOM      6  H2  UNL     1      70.921  -8.595  73.473  1.00  0.00     0.167 HD
HETATM    7  C12 UNL     1      70.389  -6.822  72.543  1.00  0.00     0.109 A 
HETATM    8  S1  UNL     1      69.083  -7.094  71.446  1.00  0.00    -0.034 SA
HETATM    9  C13 UNL     1      68.899  -5.481  70.868  1.00  0.00     0.149 A 
HETATM   10  N4  UNL     1      69.831  -4.854  71.539  1.00  0.00    -0.331 N 
ATOM     11  H4  UNL     1      69.962  -3.852  71.398  1.00  0.00     0.168 HD
HETATM   12  C18 UNL     1      70.594  -5.487  72.384  1.00  0.00     0.120 A 
ENDROOT
BRANCH   1  13
HETATM   13  O1  UNL     1      71.889  -3.575  73.055  1.00  0.00    -0.333 OA
BRANCH  13  14
HETATM   14  C9  UNL     1      71.834  -2.564  72.195  1.00  0.00     0.187 C 
BRANCH  14  15
HETATM   15  C8  UNL     1      72.900  -2.263  71.207  1.00  0.00    -0.016 C 
HETATM   16  C7  UNL     1      72.511  -3.003  69.906  1.00  0.00     0.016 C 
HETATM   17  C5  UNL     1      73.526  -2.789  68.832  1.00  0.00    -0.012 C 
HETATM   18  C4  UNL     1      73.553  -1.299  68.540  1.00  0.00     0.009 C 
HETATM   19  C6  UNL     1      74.902  -3.257  69.212  1.00  0.00     0.030 C 
HETATM   20  C3  UNL     1      74.073  -0.603  69.750  1.00  0.00    -0.012 C 
HETATM   21  C2  UNL     1      75.412  -1.125  70.230  1.00  0.00     0.030 C 
HETATM   22  C19 UNL     1      73.118  -0.828  70.942  1.00  0.00     0.016 C 
HETATM   23  C1  UNL     1      75.247  -2.594  70.531  1.00  0.00     0.038 C 
HETATM   24 CL1  UNL     1      76.827  -3.240  71.044  1.00  0.00    -0.119 Cl
HETATM   25  C20 UNL     1      74.235  -2.903  71.582  1.00  0.00     0.037 C 
ENDBRANCH  14  15
ENDBRANCH  13  14
ENDBRANCH   1  13
BRANCH   9  26
HETATM   26  N3  UNL     1      67.952  -5.027  69.906  1.00  0.00    -0.357 N 
HETATM   27  C14 UNL     1      67.677  -3.611  69.838  1.00  0.00     0.151 C 
HETATM   28  C15 UNL     1      67.481  -3.173  68.416  1.00  0.00     0.187 C 
HETATM   29  O2  UNL     1      66.853  -4.097  67.620  1.00  0.00    -0.388 OA
HETATM   30  C16 UNL     1      66.200  -5.100  68.295  1.00  0.00     0.187 C 
HETATM   31  C17 UNL     1      67.279  -5.915  69.023  1.00  0.00     0.151 C 
ENDBRANCH   9  26
TORSDOF 4
ENDMDL
