MODEL 1
REMARK VINA RESULT: -7.747867311      0.000      0.000
REMARK  6 active torsions:
REMARK  status: ('A' for Active; 'I' for Inactive)
REMARK    1  A    between atoms: O1_1  and  C1_3 
REMARK    2  A    between atoms: C1_3  and  C2_4 
REMARK    3  A    between atoms: C5_8  and  C6_9 
REMARK    4  A    between atoms: C6_9  and  S1_10 
REMARK    5  A    between atoms: S1_10  and  C7_11 
REMARK    6  A    between atoms: C7_11  and  C8_12 
ROOT
HETATM    1  C2  UNL     1      73.888  -0.247  69.654  1.00  0.00     0.075 A 
HETATM    2  C3  UNL     1      73.428  -0.736  70.831  1.00  0.00     0.122 A 
HETATM    3  N1  UNL     1      72.517  -1.685  70.830  1.00  0.00    -0.310 N 
HETATM    4  C4  UNL     1      71.817  -2.428  71.754  1.00  0.00     0.124 A 
HETATM    5  C5  UNL     1      70.971  -3.303  71.102  1.00  0.00     0.036 A 
HETATM    6  N4  UNL     1      71.138  -3.114  69.805  1.00  0.00    -0.338 N 
ATOM      7  H4  UNL     1      70.658  -3.605  69.050  1.00  0.00     0.168 HD
HETATM    8  C14 UNL     1      72.073  -2.136  69.672  1.00  0.00     0.156 A 
HETATM    9  S2  UNL     1      72.928  -1.232  68.535  1.00  0.00    -0.048 SA
ENDROOT
BRANCH   5  10
HETATM   10  C6  UNL     1      70.040  -4.292  71.702  1.00  0.00     0.132 C 
BRANCH  10  11
HETATM   11  S1  UNL     1      69.466  -5.355  70.341  1.00  0.00    -0.157 SA
BRANCH  11  12
HETATM   12  C7  UNL     1      67.699  -5.355  70.242  1.00  0.00     0.135 C 
BRANCH  12  13
HETATM   13  C8  UNL     1      67.137  -4.947  68.935  1.00  0.00     0.061 A 
HETATM   14  C9  UNL     1      66.383  -5.894  68.206  1.00  0.00     0.128 A 
HETATM   15 CL1  UNL     1      66.064  -7.561  68.635  1.00  0.00    -0.062 Cl
HETATM   16  N2  UNL     1      65.965  -5.252  67.119  1.00  0.00    -0.335 N 
HETATM   17  C10 UNL     1      66.401  -3.992  67.127  1.00  0.00     0.084 A 
ATOM     18  H2  UNL     1      65.392  -5.666  66.383  1.00  0.00     0.168 HD
HETATM   19  N3  UNL     1      67.123  -3.809  68.250  1.00  0.00    -0.337 N 
HETATM   20  C13 UNL     1      66.371  -2.720  66.331  1.00  0.00     0.078 C 
HETATM   21  C11 UNL     1      67.578  -2.431  68.298  1.00  0.00     0.131 C 
HETATM   22  C12 UNL     1      67.604  -2.026  66.816  1.00  0.00     0.028 C 
ENDBRANCH  12  13
ENDBRANCH  11  12
ENDBRANCH  10  11
ENDBRANCH   5  10
BRANCH   1  23
HETATM   23  C1  UNL     1      74.866   0.735  69.229  1.00  0.00     0.157 C 
HETATM   24  N5  UNL     1      75.240   1.890  69.817  1.00  0.00    -0.361 N 
HETATM   25  C15 UNL     1      74.798   2.448  71.062  1.00  0.00     0.125 C 
HETATM   26  C19 UNL     1      76.220   2.738  69.056  1.00  0.00     0.125 C 
HETATM   27  C16 UNL     1      73.953   3.680  70.669  1.00  0.00     0.020 C 
HETATM   28  C17 UNL     1      74.968   4.663  70.123  1.00  0.00     0.003 C 
HETATM   29  C18 UNL     1      75.715   4.136  68.955  1.00  0.00     0.020 C 
BRANCH  23  30
HETATM   30  O1  UNL     1      75.476   0.447  68.100  1.00  0.00    -0.345 OA
ATOM     31  H1  UNL     1      75.882   1.190  67.669  1.00  0.00     0.219 HD
ENDBRANCH  23  30
ENDBRANCH   1  23
TORSDOF 6
ENDMDL
MODEL 2
REMARK VINA RESULT: -7.605024323      6.041      8.778
REMARK  6 active torsions:
REMARK  status: ('A' for Active; 'I' for Inactive)
REMARK    1  A    between atoms: O1_1  and  C1_3 
REMARK    2  A    between atoms: C1_3  and  C2_4 
REMARK    3  A    between atoms: C5_8  and  C6_9 
REMARK    4  A    between atoms: C6_9  and  S1_10 
REMARK    5  A    between atoms: S1_10  and  C7_11 
REMARK    6  A    between atoms: C7_11  and  C8_12 
ROOT
HETATM    1  C2  UNL     1      68.767  -4.959  70.427  1.00  0.00     0.075 A 
HETATM    2  C3  UNL     1      69.017  -5.107  71.749  1.00  0.00     0.122 A 
HETATM    3  N1  UNL     1      69.219  -6.310  72.244  1.00  0.00    -0.310 N 
HETATM    4  C4  UNL     1      69.494  -6.877  73.467  1.00  0.00     0.124 A 
HETATM    5  C5  UNL     1      69.600  -8.247  73.332  1.00  0.00     0.036 A 
HETATM    6  N4  UNL     1      69.397  -8.530  72.057  1.00  0.00    -0.338 N 
ATOM      7  H4  UNL     1      69.407  -9.456  71.629  1.00  0.00     0.168 HD
HETATM    8  C14 UNL     1      69.171  -7.346  71.428  1.00  0.00     0.156 A 
HETATM    9  S2  UNL     1      68.836  -6.659  69.925  1.00  0.00    -0.048 SA
ENDROOT
BRANCH   5  10
HETATM   10  C6  UNL     1      69.893  -9.250  74.386  1.00  0.00     0.132 C 
BRANCH  10  11
HETATM   11  S1  UNL     1      69.052  -8.680  75.894  1.00  0.00    -0.157 SA
BRANCH  11  12
HETATM   12  C7  UNL     1      70.103  -7.615  76.840  1.00  0.00     0.135 C 
BRANCH  12  13
HETATM   13  C8  UNL     1      69.597  -6.238  77.037  1.00  0.00     0.061 A 
HETATM   14  C9  UNL     1      68.616  -6.020  78.032  1.00  0.00     0.128 A 
HETATM   15 CL1  UNL     1      67.854  -7.218  79.055  1.00  0.00    -0.062 Cl
HETATM   16  N2  UNL     1      68.391  -4.710  78.026  1.00  0.00    -0.335 N 
HETATM   17  C10 UNL     1      69.155  -4.111  77.111  1.00  0.00     0.084 A 
ATOM     18  H2  UNL     1      67.728  -4.231  78.635  1.00  0.00     0.168 HD
HETATM   19  N3  UNL     1      69.897  -5.058  76.505  1.00  0.00    -0.337 N 
HETATM   20  C13 UNL     1      69.472  -2.766  76.525  1.00  0.00     0.078 C 
HETATM   21  C11 UNL     1      70.765  -4.423  75.528  1.00  0.00     0.131 C 
HETATM   22  C12 UNL     1      70.002  -3.137  75.176  1.00  0.00     0.028 C 
ENDBRANCH  12  13
ENDBRANCH  11  12
ENDBRANCH  10  11
ENDBRANCH   5  10
BRANCH   1  23
HETATM   23  C1  UNL     1      68.529  -3.858  69.514  1.00  0.00     0.157 C 
HETATM   24  N5  UNL     1      67.419  -3.541  68.816  1.00  0.00    -0.361 N 
HETATM   25  C15 UNL     1      66.140  -4.189  68.821  1.00  0.00     0.125 C 
HETATM   26  C19 UNL     1      67.537  -2.378  67.870  1.00  0.00     0.125 C 
HETATM   27  C16 UNL     1      66.030  -4.863  67.435  1.00  0.00     0.020 C 
HETATM   28  C17 UNL     1      65.891  -3.701  66.472  1.00  0.00     0.003 C 
HETATM   29  C18 UNL     1      67.043  -2.768  66.520  1.00  0.00     0.020 C 
BRANCH  23  30
HETATM   30  O1  UNL     1      69.557  -3.053  69.349  1.00  0.00    -0.345 OA
ATOM     31  H1  UNL     1      70.013  -3.159  68.522  1.00  0.00     0.219 HD
ENDBRANCH  23  30
ENDBRANCH   1  23
TORSDOF 6
ENDMDL
MODEL 3
REMARK VINA RESULT: -7.581327714      1.259      1.643
REMARK  6 active torsions:
REMARK  status: ('A' for Active; 'I' for Inactive)
REMARK    1  A    between atoms: O1_1  and  C1_3 
REMARK    2  A    between atoms: C1_3  and  C2_4 
REMARK    3  A    between atoms: C5_8  and  C6_9 
REMARK    4  A    between atoms: C6_9  and  S1_10 
REMARK    5  A    between atoms: S1_10  and  C7_11 
REMARK    6  A    between atoms: C7_11  and  C8_12 
ROOT
HETATM    1  C2  UNL     1      72.940  -0.667  69.735  1.00  0.00     0.075 A 
HETATM    2  C3  UNL     1      72.507  -1.247  70.880  1.00  0.00     0.122 A 
HETATM    3  N1  UNL     1      71.921  -2.425  70.834  1.00  0.00    -0.310 N 
HETATM    4  C4  UNL     1      71.365  -3.323  71.716  1.00  0.00     0.124 A 
HETATM    5  C5  UNL     1      70.898  -4.424  71.026  1.00  0.00     0.036 A 
HETATM    6  N4  UNL     1      71.156  -4.220  69.746  1.00  0.00    -0.338 N 
ATOM      7  H4  UNL     1      70.936  -4.848  68.972  1.00  0.00     0.168 HD
HETATM    8  C14 UNL     1      71.771  -3.011  69.661  1.00  0.00     0.156 A 
HETATM    9  S2  UNL     1      72.453  -1.917  68.575  1.00  0.00    -0.048 SA
ENDROOT
BRANCH   5  10
HETATM   10  C6  UNL     1      70.234  -5.633  71.575  1.00  0.00     0.132 C 
BRANCH  10  11
HETATM   11  S1  UNL     1      69.059  -6.200  70.307  1.00  0.00    -0.157 SA
BRANCH  11  12
HETATM   12  C7  UNL     1      67.597  -5.204  70.311  1.00  0.00     0.135 C 
BRANCH  12  13
HETATM   13  C8  UNL     1      67.048  -4.878  68.975  1.00  0.00     0.061 A 
HETATM   14  C9  UNL     1      66.311  -5.874  68.293  1.00  0.00     0.128 A 
HETATM   15 CL1  UNL     1      66.001  -7.515  68.816  1.00  0.00    -0.062 Cl
HETATM   16  N2  UNL     1      65.902  -5.300  67.166  1.00  0.00    -0.335 N 
HETATM   17  C10 UNL     1      66.328  -4.038  67.105  1.00  0.00     0.084 A 
ATOM     18  H2  UNL     1      65.342  -5.761  66.449  1.00  0.00     0.168 HD
HETATM   19  N3  UNL     1      67.033  -3.783  68.224  1.00  0.00    -0.337 N 
HETATM   20  C13 UNL     1      66.297  -2.815  66.235  1.00  0.00     0.078 C 
HETATM   21  C11 UNL     1      67.477  -2.400  68.197  1.00  0.00     0.131 C 
HETATM   22  C12 UNL     1      67.518  -2.082  66.694  1.00  0.00     0.028 C 
ENDBRANCH  12  13
ENDBRANCH  11  12
ENDBRANCH  10  11
ENDBRANCH   5  10
BRANCH   1  23
HETATM   23  C1  UNL     1      73.630   0.552  69.365  1.00  0.00     0.157 C 
HETATM   24  N5  UNL     1      74.948   0.776  69.184  1.00  0.00    -0.361 N 
HETATM   25  C15 UNL     1      76.037  -0.154  69.266  1.00  0.00     0.125 C 
HETATM   26  C19 UNL     1      75.350   2.197  68.900  1.00  0.00     0.125 C 
HETATM   27  C16 UNL     1      76.808   0.246  70.543  1.00  0.00     0.020 C 
HETATM   28  C17 UNL     1      77.439   1.577  70.188  1.00  0.00     0.003 C 
HETATM   29  C18 UNL     1      76.443   2.612  69.822  1.00  0.00     0.020 C 
BRANCH  23  30
HETATM   30  O1  UNL     1      72.844   1.592  69.180  1.00  0.00    -0.345 OA
ATOM     31  H1  UNL     1      72.969   2.297  69.804  1.00  0.00     0.219 HD
ENDBRANCH  23  30
ENDBRANCH   1  23
TORSDOF 6
ENDMDL
MODEL 4
REMARK VINA RESULT: -7.467216640      6.248      9.452
REMARK  6 active torsions:
REMARK  status: ('A' for Active; 'I' for Inactive)
REMARK    1  A    between atoms: O1_1  and  C1_3 
REMARK    2  A    between atoms: C1_3  and  C2_4 
REMARK    3  A    between atoms: C5_8  and  C6_9 
REMARK    4  A    between atoms: C6_9  and  S1_10 
REMARK    5  A    between atoms: S1_10  and  C7_11 
REMARK    6  A    between atoms: C7_11  and  C8_12 
ROOT
HETATM    1  C2  UNL     1      69.767  -5.480  70.690  1.00  0.00     0.075 A 
HETATM    2  C3  UNL     1      70.499  -5.633  71.818  1.00  0.00     0.122 A 
HETATM    3  N1  UNL     1      71.004  -6.813  72.113  1.00  0.00    -0.310 N 
HETATM    4  C4  UNL     1      71.771  -7.374  73.108  1.00  0.00     0.124 A 
HETATM    5  C5  UNL     1      71.974  -8.713  72.839  1.00  0.00     0.036 A 
HETATM    6  N4  UNL     1      71.350  -8.982  71.705  1.00  0.00    -0.338 N 
ATOM      7  H4  UNL     1      71.308  -9.885  71.233  1.00  0.00     0.168 HD
HETATM    8  C14 UNL     1      70.777  -7.821  71.293  1.00  0.00     0.156 A 
HETATM    9  S2  UNL     1      69.839  -7.139  70.068  1.00  0.00    -0.048 SA
ENDROOT
BRANCH   5  10
HETATM   10  C6  UNL     1      72.745  -9.700  73.637  1.00  0.00     0.132 C 
BRANCH  10  11
HETATM   11  S1  UNL     1      72.183 -11.347  73.108  1.00  0.00    -0.157 SA
BRANCH  11  12
HETATM   12  C7  UNL     1      71.316 -12.169  74.413  1.00  0.00     0.135 C 
BRANCH  12  13
HETATM   13  C8  UNL     1      69.867 -12.365  74.186  1.00  0.00     0.061 A 
HETATM   14  C9  UNL     1      68.990 -11.300  74.495  1.00  0.00     0.128 A 
HETATM   15 CL1  UNL     1      69.403  -9.747  75.188  1.00  0.00    -0.062 Cl
HETATM   16  N2  UNL     1      67.780 -11.727  74.148  1.00  0.00    -0.335 N 
HETATM   17  C10 UNL     1      67.847 -12.963  73.653  1.00  0.00     0.084 A 
ATOM     18  H2  UNL     1      66.921 -11.185  74.248  1.00  0.00     0.168 HD
HETATM   19  N3  UNL     1      69.137 -13.351  73.678  1.00  0.00    -0.337 N 
HETATM   20  C13 UNL     1      66.997 -14.063  73.084  1.00  0.00     0.078 C 
HETATM   21  C11 UNL     1      69.239 -14.683  73.108  1.00  0.00     0.131 C 
HETATM   22  C12 UNL     1      67.840 -15.269  73.351  1.00  0.00     0.028 C 
ENDBRANCH  12  13
ENDBRANCH  11  12
ENDBRANCH  10  11
ENDBRANCH   5  10
BRANCH   1  23
HETATM   23  C1  UNL     1      69.088  -4.393  70.011  1.00  0.00     0.157 C 
HETATM   24  N5  UNL     1      67.807  -4.300  69.600  1.00  0.00    -0.361 N 
HETATM   25  C15 UNL     1      66.740  -5.245  69.763  1.00  0.00     0.125 C 
HETATM   26  C19 UNL     1      67.443  -3.062  68.827  1.00  0.00     0.125 C 
HETATM   27  C16 UNL     1      66.473  -5.793  68.344  1.00  0.00     0.020 C 
HETATM   28  C17 UNL     1      65.863  -4.619  67.606  1.00  0.00     0.003 C 
HETATM   29  C18 UNL     1      66.757  -3.437  67.559  1.00  0.00     0.020 C 
BRANCH  23  30
HETATM   30  O1  UNL     1      69.844  -3.345  69.764  1.00  0.00    -0.345 OA
ATOM     31  H1  UNL     1      70.778  -3.521  69.771  1.00  0.00     0.219 HD
ENDBRANCH  23  30
ENDBRANCH   1  23
TORSDOF 6
ENDMDL
MODEL 5
REMARK VINA RESULT: -7.424584694      5.970      9.018
REMARK  6 active torsions:
REMARK  status: ('A' for Active; 'I' for Inactive)
REMARK    1  A    between atoms: O1_1  and  C1_3 
REMARK    2  A    between atoms: C1_3  and  C2_4 
REMARK    3  A    between atoms: C5_8  and  C6_9 
REMARK    4  A    between atoms: C6_9  and  S1_10 
REMARK    5  A    between atoms: S1_10  and  C7_11 
REMARK    6  A    between atoms: C7_11  and  C8_12 
ROOT
HETATM    1  C2  UNL     1      69.764  -5.601  70.652  1.00  0.00     0.075 A 
HETATM    2  C3  UNL     1      70.432  -5.820  71.810  1.00  0.00     0.122 A 
HETATM    3  N1  UNL     1      70.963  -7.001  72.043  1.00  0.00    -0.310 N 
HETATM    4  C4  UNL     1      71.690  -7.615  73.038  1.00  0.00     0.124 A 
HETATM    5  C5  UNL     1      71.961  -8.920  72.678  1.00  0.00     0.036 A 
HETATM    6  N4  UNL     1      71.419  -9.118  71.489  1.00  0.00    -0.338 N 
ATOM      7  H4  UNL     1      71.441  -9.980  70.945  1.00  0.00     0.168 HD
HETATM    8  C14 UNL     1      70.827  -7.947  71.133  1.00  0.00     0.156 A 
HETATM    9  S2  UNL     1      69.939  -7.201  69.909  1.00  0.00    -0.048 SA
ENDROOT
BRANCH   5  10
HETATM   10  C6  UNL     1      72.720  -9.941  73.444  1.00  0.00     0.132 C 
BRANCH  10  11
HETATM   11  S1  UNL     1      72.818  -9.338  75.157  1.00  0.00    -0.157 SA
BRANCH  11  12
HETATM   12  C7  UNL     1      71.508 -10.009  76.139  1.00  0.00     0.135 C 
BRANCH  12  13
HETATM   13  C8  UNL     1      70.255  -9.222  76.148  1.00  0.00     0.061 A 
HETATM   14  C9  UNL     1      69.231  -9.583  75.242  1.00  0.00     0.128 A 
HETATM   15 CL1  UNL     1      69.277 -10.846  74.032  1.00  0.00    -0.062 Cl
HETATM   16  N2  UNL     1      68.222  -8.757  75.502  1.00  0.00    -0.335 N 
HETATM   17  C10 UNL     1      68.546  -7.924  76.492  1.00  0.00     0.084 A 
ATOM     18  H2  UNL     1      67.327  -8.761  75.013  1.00  0.00     0.168 HD
HETATM   19  N3  UNL     1      69.801  -8.216  76.887  1.00  0.00    -0.337 N 
HETATM   20  C13 UNL     1      68.008  -6.787  77.311  1.00  0.00     0.078 C 
HETATM   21  C11 UNL     1      70.162  -7.344  77.991  1.00  0.00     0.131 C 
HETATM   22  C12 UNL     1      69.266  -6.117  77.767  1.00  0.00     0.028 C 
ENDBRANCH  12  13
ENDBRANCH  11  12
ENDBRANCH  10  11
ENDBRANCH   5  10
BRANCH   1  23
HETATM   23  C1  UNL     1      69.086  -4.487  70.020  1.00  0.00     0.157 C 
HETATM   24  N5  UNL     1      67.805  -4.377  69.611  1.00  0.00    -0.361 N 
HETATM   25  C15 UNL     1      66.738  -5.328  69.733  1.00  0.00     0.125 C 
HETATM   26  C19 UNL     1      67.442  -3.108  68.890  1.00  0.00     0.125 C 
HETATM   27  C16 UNL     1      66.473  -5.816  68.292  1.00  0.00     0.020 C 
HETATM   28  C17 UNL     1      65.864  -4.612  67.603  1.00  0.00     0.003 C 
HETATM   29  C18 UNL     1      66.757  -3.429  67.607  1.00  0.00     0.020 C 
BRANCH  23  30
HETATM   30  O1  UNL     1      69.842  -3.429  69.818  1.00  0.00    -0.345 OA
ATOM     31  H1  UNL     1      70.339  -3.148  70.577  1.00  0.00     0.219 HD
ENDBRANCH  23  30
ENDBRANCH   1  23
TORSDOF 6
ENDMDL
