MODEL 1
REMARK VINA RESULT: -8.117685362      0.000      0.000
REMARK  4 active torsions:
REMARK  status: ('A' for Active; 'I' for Inactive)
REMARK    1  A    between atoms: N1_1  and  S1_4 
REMARK    2  A    between atoms: S1_4  and  C1_7 
REMARK    3  A    between atoms: C4_10  and  N2_11 
REMARK    4  A    between atoms: N2_11  and  C5_13 
ROOT
HETATM    1  C5  UNL     1      22.101   9.664  -5.659  1.00  0.00     0.074 A 
HETATM    2  C6  UNL     1      21.782   9.972  -6.964  1.00  0.00     0.020 A 
HETATM    3  C7  UNL     1      20.606   9.540  -7.548  1.00  0.00     0.016 A 
HETATM    4  C8  UNL     1      20.245   9.819  -8.834  1.00  0.00     0.001 A 
HETATM    5  C9  UNL     1      21.114  10.582  -9.592  1.00  0.00     0.002 A 
HETATM    6  C10 UNL     1      22.297  11.034  -9.047  1.00  0.00     0.030 A 
HETATM    7  C11 UNL     1      22.642  10.737  -7.740  1.00  0.00     0.045 A 
HETATM    8  N3  UNL     1      23.800  11.184  -7.215  1.00  0.00    -0.354 N 
ATOM      9  H3  UNL     1      24.429  11.745  -7.789  1.00  0.00     0.166 HD
HETATM   10  C12 UNL     1      24.143  10.897  -5.937  1.00  0.00     0.062 A 
HETATM   11  C13 UNL     1      25.336  11.369  -5.432  1.00  0.00     0.033 A 
HETATM   12  C14 UNL     1      25.697  11.085  -4.132  1.00  0.00     0.019 A 
HETATM   13  C15 UNL     1      24.853  10.332  -3.365  1.00  0.00     0.088 A 
HETATM   14  N4  UNL     1      23.705   9.897  -3.903  1.00  0.00    -0.362 N 
ATOM     15  H4  UNL     1      23.098   9.338  -3.302  1.00  0.00     0.165 HD
HETATM   16  C16 UNL     1      23.282  10.123  -5.140  1.00  0.00     0.087 A 
ENDROOT
BRANCH   1  17
HETATM   17  N2  UNL     1      21.303   8.968  -4.979  1.00  0.00    -0.354 N 
ATOM     18  H2  UNL     1      20.663   9.513  -4.401  1.00  0.00     0.166 HD
BRANCH  17  19
HETATM   19  C4  UNL     1      21.135   7.590  -4.870  1.00  0.00     0.032 A 
HETATM   20  C3  UNL     1      21.973   6.697  -5.499  1.00  0.00     0.031 A 
HETATM   21  C2  UNL     1      21.780   5.337  -5.383  1.00  0.00     0.027 A 
HETATM   22  C1  UNL     1      20.746   4.851  -4.635  1.00  0.00     0.079 A 
HETATM   23  C18 UNL     1      19.910   5.739  -4.006  1.00  0.00     0.027 A 
HETATM   24  C17 UNL     1      20.111   7.081  -4.128  1.00  0.00     0.031 A 
BRANCH  22  25
HETATM   25  S1  UNL     1      20.431   3.142  -4.433  1.00  0.00     0.256 S 
HETATM   26  O1  UNL     1      21.161   2.364  -5.506  1.00  0.00    -0.201 OA
HETATM   27  O2  UNL     1      18.976   2.859  -4.474  1.00  0.00    -0.201 OA
BRANCH  25  28
HETATM   28  N1  UNL     1      21.114   2.651  -2.920  1.00  0.00    -0.324 N 
ATOM     29  H12 UNL     1      21.897   2.010  -2.796  1.00  0.00     0.169 HD
ATOM     30  H11 UNL     1      20.581   3.128  -2.194  1.00  0.00     0.169 HD
ENDBRANCH  25  28
ENDBRANCH  22  25
ENDBRANCH  17  19
ENDBRANCH   1  17
TORSDOF 4
ENDMDL
MODEL 2
REMARK VINA RESULT: -8.054871074      4.306      8.593
REMARK  4 active torsions:
REMARK  status: ('A' for Active; 'I' for Inactive)
REMARK    1  A    between atoms: N1_1  and  S1_4 
REMARK    2  A    between atoms: S1_4  and  C1_7 
REMARK    3  A    between atoms: C4_10  and  N2_11 
REMARK    4  A    between atoms: N2_11  and  C5_13 
ROOT
HETATM    1  C5  UNL     1      19.948   3.328  -5.800  1.00  0.00     0.074 A 
HETATM    2  C6  UNL     1      19.779   2.708  -4.581  1.00  0.00     0.020 A 
HETATM    3  C7  UNL     1      20.675   2.885  -3.543  1.00  0.00     0.016 A 
HETATM    4  C8  UNL     1      20.551   2.295  -2.319  1.00  0.00     0.001 A 
HETATM    5  C9  UNL     1      19.460   1.472  -2.113  1.00  0.00     0.002 A 
HETATM    6  C10 UNL     1      18.542   1.269  -3.122  1.00  0.00     0.030 A 
HETATM    7  C11 UNL     1      18.689   1.878  -4.355  1.00  0.00     0.045 A 
HETATM    8  N3  UNL     1      17.788   1.674  -5.336  1.00  0.00    -0.354 N 
ATOM      9  H3  UNL     1      16.989   1.064  -5.166  1.00  0.00     0.166 HD
HETATM   10  C12 UNL     1      17.927   2.268  -6.546  1.00  0.00     0.062 A 
HETATM   11  C13 UNL     1      16.986   2.038  -7.526  1.00  0.00     0.033 A 
HETATM   12  C14 UNL     1      17.114   2.636  -8.762  1.00  0.00     0.019 A 
HETATM   13  C15 UNL     1      18.186   3.454  -8.988  1.00  0.00     0.088 A 
HETATM   14  N4  UNL     1      19.072   3.646  -8.001  1.00  0.00    -0.362 N 
ATOM     15  H4  UNL     1      19.860   4.263  -8.203  1.00  0.00     0.165 HD
HETATM   16  C16 UNL     1      19.025   3.111  -6.787  1.00  0.00     0.087 A 
ENDROOT
BRANCH   1  17
HETATM   17  N2  UNL     1      20.946   4.075  -5.977  1.00  0.00    -0.354 N 
ATOM     18  H2  UNL     1      21.825   3.573  -6.101  1.00  0.00     0.166 HD
BRANCH  17  19
HETATM   19  C4  UNL     1      21.069   5.460  -6.035  1.00  0.00     0.032 A 
HETATM   20  C3  UNL     1      20.986   6.251  -4.910  1.00  0.00     0.031 A 
HETATM   21  C2  UNL     1      21.102   7.622  -4.995  1.00  0.00     0.027 A 
HETATM   22  C1  UNL     1      21.304   8.222  -6.204  1.00  0.00     0.079 A 
HETATM   23  C18 UNL     1      21.388   7.436  -7.326  1.00  0.00     0.027 A 
HETATM   24  C17 UNL     1      21.271   6.082  -7.231  1.00  0.00     0.031 A 
BRANCH  22  25
HETATM   25  S1  UNL     1      21.464   9.953  -6.400  1.00  0.00     0.256 S 
HETATM   26  O1  UNL     1      20.272  10.487  -7.164  1.00  0.00    -0.201 OA
HETATM   27  O2  UNL     1      22.730  10.298  -7.090  1.00  0.00    -0.201 OA
BRANCH  25  28
HETATM   28  N1  UNL     1      21.402  10.673  -4.827  1.00  0.00    -0.324 N 
ATOM     29  H12 UNL     1      20.558  10.975  -4.339  1.00  0.00     0.169 HD
ATOM     30  H11 UNL     1      22.364  10.729  -4.496  1.00  0.00     0.169 HD
ENDBRANCH  25  28
ENDBRANCH  22  25
ENDBRANCH  17  19
ENDBRANCH   1  17
TORSDOF 4
ENDMDL
MODEL 3
REMARK VINA RESULT: -7.886234158      0.632      3.570
REMARK  4 active torsions:
REMARK  status: ('A' for Active; 'I' for Inactive)
REMARK    1  A    between atoms: N1_1  and  S1_4 
REMARK    2  A    between atoms: S1_4  and  C1_7 
REMARK    3  A    between atoms: C4_10  and  N2_11 
REMARK    4  A    between atoms: N2_11  and  C5_13 
ROOT
HETATM    1  C5  UNL     1      22.019   9.648  -5.785  1.00  0.00     0.074 A 
HETATM    2  C6  UNL     1      23.224  10.133  -5.324  1.00  0.00     0.020 A 
HETATM    3  C7  UNL     1      23.671   9.873  -4.042  1.00  0.00     0.016 A 
HETATM    4  C8  UNL     1      24.855  10.329  -3.540  1.00  0.00     0.001 A 
HETATM    5  C9  UNL     1      25.650  11.096  -4.371  1.00  0.00     0.002 A 
HETATM    6  C10 UNL     1      25.241  11.378  -5.657  1.00  0.00     0.030 A 
HETATM    7  C11 UNL     1      24.036  10.905  -6.144  1.00  0.00     0.045 A 
HETATM    8  N3  UNL     1      23.644  11.185  -7.403  1.00  0.00    -0.354 N 
ATOM      9  H3  UNL     1      24.243  11.752  -8.002  1.00  0.00     0.166 HD
HETATM   10  C12 UNL     1      22.465  10.724  -7.885  1.00  0.00     0.062 A 
HETATM   11  C13 UNL     1      22.095  11.030  -9.178  1.00  0.00     0.033 A 
HETATM   12  C14 UNL     1      20.898  10.567  -9.682  1.00  0.00     0.019 A 
HETATM   13  C15 UNL     1      20.096   9.806  -8.877  1.00  0.00     0.088 A 
HETATM   14  N4  UNL     1      20.502   9.537  -7.629  1.00  0.00    -0.362 N 
ATOM     15  H4  UNL     1      19.880   8.967  -7.055  1.00  0.00     0.165 HD
HETATM   16  C16 UNL     1      21.634   9.941  -7.066  1.00  0.00     0.087 A 
ENDROOT
BRANCH   1  17
HETATM   17  N2  UNL     1      21.303   8.951  -5.020  1.00  0.00    -0.354 N 
ATOM     18  H2  UNL     1      20.744   9.495  -4.363  1.00  0.00     0.166 HD
BRANCH  17  19
HETATM   19  C4  UNL     1      21.134   7.574  -4.906  1.00  0.00     0.032 A 
HETATM   20  C3  UNL     1      21.970   6.679  -5.536  1.00  0.00     0.031 A 
HETATM   21  C2  UNL     1      21.777   5.319  -5.415  1.00  0.00     0.027 A 
HETATM   22  C1  UNL     1      20.746   4.836  -4.662  1.00  0.00     0.079 A 
HETATM   23  C18 UNL     1      19.912   5.726  -4.033  1.00  0.00     0.027 A 
HETATM   24  C17 UNL     1      20.113   7.068  -4.160  1.00  0.00     0.031 A 
BRANCH  22  25
HETATM   25  S1  UNL     1      20.431   3.127  -4.454  1.00  0.00     0.256 S 
HETATM   26  O1  UNL     1      21.140   2.348  -5.540  1.00  0.00    -0.201 OA
HETATM   27  O2  UNL     1      18.975   2.847  -4.470  1.00  0.00    -0.201 OA
BRANCH  25  28
HETATM   28  N1  UNL     1      21.140   2.636  -2.953  1.00  0.00    -0.324 N 
ATOM     29  H12 UNL     1      21.906   3.105  -2.470  1.00  0.00     0.169 HD
ATOM     30  H11 UNL     1      20.642   1.796  -2.660  1.00  0.00     0.169 HD
ENDBRANCH  25  28
ENDBRANCH  22  25
ENDBRANCH  17  19
ENDBRANCH   1  17
TORSDOF 4
ENDMDL
MODEL 4
REMARK VINA RESULT: -7.637086066      4.223      7.870
REMARK  4 active torsions:
REMARK  status: ('A' for Active; 'I' for Inactive)
REMARK    1  A    between atoms: N1_1  and  S1_4 
REMARK    2  A    between atoms: S1_4  and  C1_7 
REMARK    3  A    between atoms: C4_10  and  N2_11 
REMARK    4  A    between atoms: N2_11  and  C5_13 
ROOT
HETATM    1  C5  UNL     1      19.986   3.350  -5.858  1.00  0.00     0.074 A 
HETATM    2  C6  UNL     1      19.035   3.121  -6.829  1.00  0.00     0.020 A 
HETATM    3  C7  UNL     1      19.124   3.691  -8.084  1.00  0.00     0.016 A 
HETATM    4  C8  UNL     1      18.209   3.495  -9.079  1.00  0.00     0.001 A 
HETATM    5  C9  UNL     1      17.133   2.673  -8.804  1.00  0.00     0.002 A 
HETATM    6  C10 UNL     1      17.007   2.083  -7.564  1.00  0.00     0.030 A 
HETATM    7  C11 UNL     1      17.947   2.298  -6.572  1.00  0.00     0.045 A 
HETATM    8  N3  UNL     1      17.817   1.717  -5.362  1.00  0.00    -0.354 N 
ATOM      9  H3  UNL     1      17.016   1.114  -5.178  1.00  0.00     0.166 HD
HETATM   10  C12 UNL     1      18.734   1.924  -4.387  1.00  0.00     0.062 A 
HETATM   11  C13 UNL     1      18.569   1.315  -3.162  1.00  0.00     0.033 A 
HETATM   12  C14 UNL     1      19.495   1.516  -2.160  1.00  0.00     0.019 A 
HETATM   13  C15 UNL     1      20.568   2.326  -2.409  1.00  0.00     0.088 A 
HETATM   14  N4  UNL     1      20.682   2.894  -3.617  1.00  0.00    -0.362 N 
ATOM     15  H4  UNL     1      21.495   3.492  -3.770  1.00  0.00     0.165 HD
HETATM   16  C16 UNL     1      19.840   2.755  -4.634  1.00  0.00     0.087 A 
ENDROOT
BRANCH   1  17
HETATM   17  N2  UNL     1      20.962   4.101  -6.118  1.00  0.00    -0.354 N 
ATOM     18  H2  UNL     1      21.821   3.603  -6.351  1.00  0.00     0.166 HD
BRANCH  17  19
HETATM   19  C4  UNL     1      21.084   5.488  -6.146  1.00  0.00     0.032 A 
HETATM   20  C3  UNL     1      21.005   6.254  -5.004  1.00  0.00     0.031 A 
HETATM   21  C2  UNL     1      21.121   7.626  -5.058  1.00  0.00     0.027 A 
HETATM   22  C1  UNL     1      21.319   8.252  -6.255  1.00  0.00     0.079 A 
HETATM   23  C18 UNL     1      21.399   7.491  -7.394  1.00  0.00     0.027 A 
HETATM   24  C17 UNL     1      21.283   6.135  -7.328  1.00  0.00     0.031 A 
BRANCH  22  25
HETATM   25  S1  UNL     1      21.478   9.987  -6.413  1.00  0.00     0.256 S 
HETATM   26  O1  UNL     1      20.282  10.538  -7.158  1.00  0.00    -0.201 OA
HETATM   27  O2  UNL     1      22.740  10.347  -7.103  1.00  0.00    -0.201 OA
BRANCH  25  28
HETATM   28  N1  UNL     1      21.425  10.672  -4.824  1.00  0.00    -0.324 N 
ATOM     29  H12 UNL     1      21.406  11.667  -4.601  1.00  0.00     0.169 HD
ATOM     30  H11 UNL     1      21.416   9.888  -4.172  1.00  0.00     0.169 HD
ENDBRANCH  25  28
ENDBRANCH  22  25
ENDBRANCH  17  19
ENDBRANCH   1  17
TORSDOF 4
ENDMDL
MODEL 5
REMARK VINA RESULT: -7.334784554      4.211      7.821
REMARK  4 active torsions:
REMARK  status: ('A' for Active; 'I' for Inactive)
REMARK    1  A    between atoms: N1_1  and  S1_4 
REMARK    2  A    between atoms: S1_4  and  C1_7 
REMARK    3  A    between atoms: C4_10  and  N2_11 
REMARK    4  A    between atoms: N2_11  and  C5_13 
ROOT
HETATM    1  C5  UNL     1      19.998   3.382  -5.908  1.00  0.00     0.074 A 
HETATM    2  C6  UNL     1      19.036   3.141  -6.865  1.00  0.00     0.020 A 
HETATM    3  C7  UNL     1      19.106   3.702  -8.126  1.00  0.00     0.016 A 
HETATM    4  C8  UNL     1      18.180   3.494  -9.107  1.00  0.00     0.001 A 
HETATM    5  C9  UNL     1      17.111   2.669  -8.813  1.00  0.00     0.002 A 
HETATM    6  C10 UNL     1      17.004   2.088  -7.568  1.00  0.00     0.030 A 
HETATM    7  C11 UNL     1      17.955   2.315  -6.588  1.00  0.00     0.045 A 
HETATM    8  N3  UNL     1      17.842   1.743  -5.373  1.00  0.00    -0.354 N 
ATOM      9  H3  UNL     1      17.047   1.137  -5.175  1.00  0.00     0.166 HD
HETATM   10  C12 UNL     1      18.771   1.961  -4.411  1.00  0.00     0.062 A 
HETATM   11  C13 UNL     1      18.624   1.360  -3.179  1.00  0.00     0.033 A 
HETATM   12  C14 UNL     1      19.562   1.572  -2.191  1.00  0.00     0.019 A 
HETATM   13  C15 UNL     1      20.628   2.385  -2.460  1.00  0.00     0.088 A 
HETATM   14  N4  UNL     1      20.724   2.945  -3.673  1.00  0.00    -0.362 N 
ATOM     15  H4  UNL     1      21.532   3.545  -3.841  1.00  0.00     0.165 HD
HETATM   16  C16 UNL     1      19.870   2.794  -4.678  1.00  0.00     0.087 A 
ENDROOT
BRANCH   1  17
HETATM   17  N2  UNL     1      20.967   4.135  -6.186  1.00  0.00    -0.354 N 
ATOM     18  H2  UNL     1      21.839   3.640  -6.375  1.00  0.00     0.166 HD
BRANCH  17  19
HETATM   19  C4  UNL     1      21.067   5.520  -6.284  1.00  0.00     0.032 A 
HETATM   20  C3  UNL     1      21.302   6.156  -7.483  1.00  0.00     0.031 A 
HETATM   21  C2  UNL     1      21.407   7.528  -7.552  1.00  0.00     0.027 A 
HETATM   22  C1  UNL     1      21.276   8.285  -6.423  1.00  0.00     0.079 A 
HETATM   23  C18 UNL     1      21.041   7.655  -5.227  1.00  0.00     0.027 A 
HETATM   24  C17 UNL     1      20.940   6.297  -5.171  1.00  0.00     0.031 A 
BRANCH  22  25
HETATM   25  S1  UNL     1      21.392  10.031  -6.422  1.00  0.00     0.256 S 
HETATM   26  O1  UNL     1      21.423  10.534  -4.995  1.00  0.00    -0.201 OA
HETATM   27  O2  UNL     1      20.269  10.642  -7.173  1.00  0.00    -0.201 OA
BRANCH  25  28
HETATM   28  N1  UNL     1      22.914  10.461  -7.127  1.00  0.00    -0.324 N 
ATOM     29  H12 UNL     1      23.643  11.021  -6.684  1.00  0.00     0.169 HD
ATOM     30  H11 UNL     1      22.929  10.047  -8.058  1.00  0.00     0.169 HD
ENDBRANCH  25  28
ENDBRANCH  22  25
ENDBRANCH  17  19
ENDBRANCH   1  17
TORSDOF 4
ENDMDL
