MODEL 1
REMARK VINA RESULT: -8.185323702      0.000      0.000
REMARK  4 active torsions:
REMARK  status: ('A' for Active; 'I' for Inactive)
REMARK    1  A    between atoms: S1_2  and  C2_4 
REMARK    2  A    between atoms: C5_7  and  C6_8 
REMARK    3  A    between atoms: C7_9  and  C8_10 
REMARK    4  A    between atoms: C11_13  and  C12_14 
ROOT
HETATM    1  C8  UNL     1      21.467   7.474  -5.194  1.00  0.00     0.018 A 
HETATM    2  C9  UNL     1      20.558   7.287  -4.180  1.00  0.00     0.021 A 
HETATM    3  C10 UNL     1      19.857   6.106  -4.017  1.00  0.00     0.015 A 
HETATM    4  C11 UNL     1      20.047   5.060  -4.877  1.00  0.00    -0.007 A 
HETATM    5  C18 UNL     1      20.964   5.219  -5.920  1.00  0.00     0.015 A 
HETATM    6  C19 UNL     1      21.649   6.408  -6.058  1.00  0.00     0.021 A 
ENDROOT
BRANCH   1   7
HETATM    7  C7  UNL     1      22.170   8.715  -5.324  1.00  0.00    -0.060 C 
HETATM    8  C6  UNL     1      22.764   9.762  -5.413  1.00  0.00    -0.043 C 
BRANCH   8   9
HETATM    9  C5  UNL     1      23.480  11.006  -5.495  1.00  0.00     0.086 A 
HETATM   10  C4  UNL     1      24.341  11.265  -6.554  1.00  0.00     0.040 A 
HETATM   11  C3  UNL     1      25.037  12.437  -6.661  1.00  0.00     0.025 A 
HETATM   12  C2  UNL     1      24.863  13.381  -5.674  1.00  0.00     0.046 A 
HETATM   13  C20 UNL     1      23.997  13.097  -4.628  1.00  0.00     0.110 A 
HETATM   14  N4  UNL     1      23.331  11.931  -4.558  1.00  0.00    -0.358 N 
ATOM     15  H4  UNL     1      22.702  11.756  -3.774  1.00  0.00     0.166 HD
BRANCH  12  16
HETATM   16  S1  UNL     1      25.734  14.892  -5.775  1.00  0.00     0.047 S 
HETATM   17  C1  UNL     1      27.427  14.527  -6.109  1.00  0.00     0.133 C 
HETATM   18  O1  UNL     1      25.525  15.791  -4.384  1.00  0.00    -0.253 OA
ENDBRANCH  12  16
ENDBRANCH   8   9
ENDBRANCH   1   7
BRANCH   4  19
HETATM   19  C12 UNL     1      19.313   3.816  -4.712  1.00  0.00     0.071 A 
HETATM   20  N1  UNL     1      18.112   3.687  -5.291  1.00  0.00    -0.363 N 
HETATM   21  C13 UNL     1      17.374   2.564  -5.181  1.00  0.00     0.089 A 
ATOM     22  H1  UNL     1      17.743   4.466  -5.835  1.00  0.00     0.165 HD
HETATM   23  C14 UNL     1      17.865   1.513  -4.451  1.00  0.00     0.032 A 
HETATM   24  C15 UNL     1      19.080   1.575  -3.835  1.00  0.00     0.012 A 
HETATM   25  C16 UNL     1      19.880   0.776  -3.055  1.00  0.00     0.120 A 
HETATM   26  C17 UNL     1      19.807   2.763  -3.979  1.00  0.00     0.087 A 
HETATM   27  N2  UNL     1      21.010   1.432  -2.747  1.00  0.00    -0.310 N 
HETATM   28  N3  UNL     1      20.954   2.624  -3.309  1.00  0.00    -0.298 N 
ATOM     29  H2  UNL     1      21.777   1.071  -2.179  1.00  0.00     0.186 HD
ATOM     30  H3  UNL     1      21.681   3.336  -3.241  1.00  0.00     0.187 HD
ENDBRANCH   4  19
TORSDOF 4
ENDMDL
MODEL 2
REMARK VINA RESULT: -7.983138614      0.717      1.895
REMARK  4 active torsions:
REMARK  status: ('A' for Active; 'I' for Inactive)
REMARK    1  A    between atoms: S1_2  and  C2_4 
REMARK    2  A    between atoms: C5_7  and  C6_8 
REMARK    3  A    between atoms: C7_9  and  C8_10 
REMARK    4  A    between atoms: C11_13  and  C12_14 
ROOT
HETATM    1  C8  UNL     1      21.593   7.160  -4.894  1.00  0.00     0.018 A 
HETATM    2  C9  UNL     1      20.527   7.014  -4.038  1.00  0.00     0.021 A 
HETATM    3  C10 UNL     1      19.944   5.787  -3.778  1.00  0.00     0.015 A 
HETATM    4  C11 UNL     1      20.416   4.652  -4.377  1.00  0.00    -0.007 A 
HETATM    5  C18 UNL     1      21.500   4.768  -5.254  1.00  0.00     0.015 A 
HETATM    6  C19 UNL     1      22.061   6.004  -5.494  1.00  0.00     0.021 A 
ENDROOT
BRANCH   1   7
HETATM    7  C7  UNL     1      22.165   8.451  -5.132  1.00  0.00    -0.060 C 
HETATM    8  C6  UNL     1      22.661   9.536  -5.317  1.00  0.00    -0.043 C 
BRANCH   8   9
HETATM    9  C5  UNL     1      23.270  10.823  -5.523  1.00  0.00     0.086 A 
HETATM   10  C4  UNL     1      23.837  11.156  -6.746  1.00  0.00     0.040 A 
HETATM   11  C3  UNL     1      24.424  12.369  -6.975  1.00  0.00     0.025 A 
HETATM   12  C2  UNL     1      24.444  13.279  -5.941  1.00  0.00     0.046 A 
HETATM   13  C20 UNL     1      23.870  12.920  -4.729  1.00  0.00     0.110 A 
HETATM   14  N4  UNL     1      23.302  11.716  -4.544  1.00  0.00    -0.358 N 
ATOM     15  H4  UNL     1      22.891  11.487  -3.640  1.00  0.00     0.166 HD
BRANCH  12  16
HETATM   16  S1  UNL     1      25.184  14.841  -6.193  1.00  0.00     0.047 S 
HETATM   17  C1  UNL     1      26.855  14.580  -6.694  1.00  0.00     0.133 C 
HETATM   18  O1  UNL     1      25.056  15.785  -4.822  1.00  0.00    -0.253 OA
ENDBRANCH  12  16
ENDBRANCH   8   9
ENDBRANCH   1   7
BRANCH   4  19
HETATM   19  C12 UNL     1      19.807   3.359  -4.110  1.00  0.00     0.071 A 
HETATM   20  N1  UNL     1      20.311   2.591  -3.136  1.00  0.00    -0.363 N 
HETATM   21  C13 UNL     1      19.800   1.381  -2.832  1.00  0.00     0.089 A 
ATOM     22  H1  UNL     1      21.111   2.933  -2.604  1.00  0.00     0.165 HD
HETATM   23  C14 UNL     1      18.724   0.915  -3.544  1.00  0.00     0.032 A 
HETATM   24  C15 UNL     1      18.161   1.644  -4.548  1.00  0.00     0.012 A 
HETATM   25  C16 UNL     1      17.128   1.531  -5.447  1.00  0.00     0.120 A 
HETATM   26  C17 UNL     1      18.729   2.893  -4.825  1.00  0.00     0.087 A 
HETATM   27  N2  UNL     1      17.074   2.631  -6.214  1.00  0.00    -0.310 N 
HETATM   28  N3  UNL     1      18.041   3.442  -5.830  1.00  0.00    -0.298 N 
ATOM     29  H2  UNL     1      16.403   2.808  -6.961  1.00  0.00     0.186 HD
ATOM     30  H3  UNL     1      18.235   4.355  -6.241  1.00  0.00     0.187 HD
ENDBRANCH   4  19
TORSDOF 4
ENDMDL
MODEL 3
REMARK VINA RESULT: -7.973249811      0.708      1.012
REMARK  4 active torsions:
REMARK  status: ('A' for Active; 'I' for Inactive)
REMARK    1  A    between atoms: S1_2  and  C2_4 
REMARK    2  A    between atoms: C5_7  and  C6_8 
REMARK    3  A    between atoms: C7_9  and  C8_10 
REMARK    4  A    between atoms: C11_13  and  C12_14 
ROOT
HETATM    1  C8  UNL     1      21.473   7.495  -5.273  1.00  0.00     0.018 A 
HETATM    2  C9  UNL     1      20.594   7.295  -4.235  1.00  0.00     0.021 A 
HETATM    3  C10 UNL     1      19.898   6.112  -4.067  1.00  0.00     0.015 A 
HETATM    4  C11 UNL     1      20.062   5.077  -4.946  1.00  0.00    -0.007 A 
HETATM    5  C18 UNL     1      20.949   5.250  -6.014  1.00  0.00     0.015 A 
HETATM    6  C19 UNL     1      21.629   6.441  -6.156  1.00  0.00     0.021 A 
ENDROOT
BRANCH   1   7
HETATM    7  C7  UNL     1      22.173   8.738  -5.407  1.00  0.00    -0.060 C 
HETATM    8  C6  UNL     1      22.744   9.794  -5.526  1.00  0.00    -0.043 C 
BRANCH   8   9
HETATM    9  C5  UNL     1      23.403  11.065  -5.666  1.00  0.00     0.086 A 
HETATM   10  C4  UNL     1      23.624  11.879  -4.563  1.00  0.00     0.040 A 
HETATM   11  C3  UNL     1      24.247  13.092  -4.662  1.00  0.00     0.025 A 
HETATM   12  C2  UNL     1      24.662  13.502  -5.910  1.00  0.00     0.046 A 
HETATM   13  C20 UNL     1      24.428  12.669  -6.994  1.00  0.00     0.110 A 
HETATM   14  N4  UNL     1      23.812  11.482  -6.855  1.00  0.00    -0.358 N 
ATOM     15  H4  UNL     1      23.657  10.896  -7.675  1.00  0.00     0.166 HD
BRANCH  12  16
HETATM   16  S1  UNL     1      25.462  15.046  -6.078  1.00  0.00     0.047 S 
HETATM   17  C1  UNL     1      26.389  15.021  -7.579  1.00  0.00     0.133 C 
HETATM   18  O1  UNL     1      26.402  15.376  -4.739  1.00  0.00    -0.253 OA
ENDBRANCH  12  16
ENDBRANCH   8   9
ENDBRANCH   1   7
BRANCH   4  19
HETATM   19  C12 UNL     1      19.333   3.831  -4.776  1.00  0.00     0.071 A 
HETATM   20  N1  UNL     1      18.156   3.675  -5.396  1.00  0.00    -0.363 N 
HETATM   21  C13 UNL     1      17.423   2.550  -5.284  1.00  0.00     0.089 A 
ATOM     22  H1  UNL     1      17.801   4.437  -5.975  1.00  0.00     0.165 HD
HETATM   23  C14 UNL     1      17.896   1.523  -4.509  1.00  0.00     0.032 A 
HETATM   24  C15 UNL     1      19.086   1.612  -3.849  1.00  0.00     0.012 A 
HETATM   25  C16 UNL     1      19.862   0.841  -3.018  1.00  0.00     0.120 A 
HETATM   26  C17 UNL     1      19.807   2.802  -3.997  1.00  0.00     0.087 A 
HETATM   27  N2  UNL     1      20.974   1.515  -2.686  1.00  0.00    -0.310 N 
HETATM   28  N3  UNL     1      20.930   2.692  -3.281  1.00  0.00    -0.298 N 
ATOM     29  H2  UNL     1      21.721   1.177  -2.080  1.00  0.00     0.186 HD
ATOM     30  H3  UNL     1      21.647   3.412  -3.205  1.00  0.00     0.187 HD
ENDBRANCH   4  19
TORSDOF 4
ENDMDL
MODEL 4
REMARK VINA RESULT: -7.945833564      0.559      1.081
REMARK  4 active torsions:
REMARK  status: ('A' for Active; 'I' for Inactive)
REMARK    1  A    between atoms: S1_2  and  C2_4 
REMARK    2  A    between atoms: C5_7  and  C6_8 
REMARK    3  A    between atoms: C7_9  and  C8_10 
REMARK    4  A    between atoms: C11_13  and  C12_14 
ROOT
HETATM    1  C8  UNL     1      21.464   7.542  -5.303  1.00  0.00     0.018 A 
HETATM    2  C9  UNL     1      21.647   6.471  -6.145  1.00  0.00     0.021 A 
HETATM    3  C10 UNL     1      20.976   5.273  -5.983  1.00  0.00     0.015 A 
HETATM    4  C11 UNL     1      20.089   5.106  -4.954  1.00  0.00    -0.007 A 
HETATM    5  C18 UNL     1      19.882   6.177  -4.079  1.00  0.00     0.015 A 
HETATM    6  C19 UNL     1      20.565   7.360  -4.267  1.00  0.00     0.021 A 
ENDROOT
BRANCH   1   7
HETATM    7  C7  UNL     1      22.181   8.765  -5.510  1.00  0.00    -0.060 C 
HETATM    8  C6  UNL     1      22.778   9.795  -5.705  1.00  0.00    -0.043 C 
BRANCH   8   9
HETATM    9  C5  UNL     1      23.476  11.027  -5.958  1.00  0.00     0.086 A 
HETATM   10  C4  UNL     1      23.907  11.353  -7.237  1.00  0.00     0.040 A 
HETATM   11  C3  UNL     1      24.573  12.516  -7.510  1.00  0.00     0.025 A 
HETATM   12  C2  UNL     1      24.814  13.380  -6.465  1.00  0.00     0.046 A 
HETATM   13  C20 UNL     1      24.372  13.030  -5.198  1.00  0.00     0.110 A 
HETATM   14  N4  UNL     1      23.720  11.876  -4.970  1.00  0.00    -0.358 N 
ATOM     15  H4  UNL     1      23.410  11.651  -4.025  1.00  0.00     0.166 HD
BRANCH  12  16
HETATM   16  S1  UNL     1      25.661  14.876  -6.774  1.00  0.00     0.047 S 
HETATM   17  C1  UNL     1      27.154  14.493  -7.632  1.00  0.00     0.133 C 
HETATM   18  O1  UNL     1      25.925  15.712  -5.353  1.00  0.00    -0.253 OA
ENDBRANCH  12  16
ENDBRANCH   8   9
ENDBRANCH   1   7
BRANCH   4  19
HETATM   19  C12 UNL     1      19.382   3.849  -4.776  1.00  0.00     0.071 A 
HETATM   20  N1  UNL     1      18.212   3.666  -5.402  1.00  0.00    -0.363 N 
HETATM   21  C13 UNL     1      17.499   2.528  -5.283  1.00  0.00     0.089 A 
ATOM     22  H1  UNL     1      17.847   4.415  -5.989  1.00  0.00     0.165 HD
HETATM   23  C14 UNL     1      17.986   1.517  -4.495  1.00  0.00     0.032 A 
HETATM   24  C15 UNL     1      19.170   1.635  -3.829  1.00  0.00     0.012 A 
HETATM   25  C16 UNL     1      19.955   0.886  -2.987  1.00  0.00     0.120 A 
HETATM   26  C17 UNL     1      19.870   2.837  -3.985  1.00  0.00     0.087 A 
HETATM   27  N2  UNL     1      21.053   1.584  -2.654  1.00  0.00    -0.310 N 
HETATM   28  N3  UNL     1      20.990   2.754  -3.261  1.00  0.00    -0.298 N 
ATOM     29  H2  UNL     1      21.803   1.265  -2.041  1.00  0.00     0.186 HD
ATOM     30  H3  UNL     1      21.694   3.488  -3.187  1.00  0.00     0.187 HD
ENDBRANCH   4  19
TORSDOF 4
ENDMDL
MODEL 5
REMARK VINA RESULT: -7.467343338      3.169      3.861
REMARK  4 active torsions:
REMARK  status: ('A' for Active; 'I' for Inactive)
REMARK    1  A    between atoms: S1_2  and  C2_4 
REMARK    2  A    between atoms: C5_7  and  C6_8 
REMARK    3  A    between atoms: C7_9  and  C8_10 
REMARK    4  A    between atoms: C11_13  and  C12_14 
ROOT
HETATM    1  C8  UNL     1      21.077   7.343  -6.314  1.00  0.00     0.018 A 
HETATM    2  C9  UNL     1      21.351   6.100  -6.833  1.00  0.00     0.021 A 
HETATM    3  C10 UNL     1      21.089   4.931  -6.142  1.00  0.00     0.015 A 
HETATM    4  C11 UNL     1      20.538   4.971  -4.891  1.00  0.00    -0.007 A 
HETATM    5  C18 UNL     1      20.248   6.221  -4.335  1.00  0.00     0.015 A 
HETATM    6  C19 UNL     1      20.520   7.370  -5.047  1.00  0.00     0.021 A 
ENDROOT
BRANCH   1   7
HETATM    7  C7  UNL     1      21.365   8.527  -7.066  1.00  0.00    -0.060 C 
HETATM    8  C6  UNL     1      21.623   9.514  -7.710  1.00  0.00    -0.043 C 
BRANCH   8   9
HETATM    9  C5  UNL     1      21.943  10.677  -8.494  1.00  0.00     0.086 A 
HETATM   10  C4  UNL     1      21.026  11.208  -9.391  1.00  0.00     0.040 A 
HETATM   11  C3  UNL     1      21.299  12.311 -10.150  1.00  0.00     0.025 A 
HETATM   12  C2  UNL     1      22.535  12.903 -10.005  1.00  0.00     0.046 A 
HETATM   13  C20 UNL     1      23.432  12.352  -9.101  1.00  0.00     0.110 A 
HETATM   14  N4  UNL     1      23.125  11.265  -8.372  1.00  0.00    -0.358 N 
ATOM     15  H4  UNL     1      23.810  10.887  -7.718  1.00  0.00     0.166 HD
BRANCH  12  16
HETATM   16  S1  UNL     1      22.923  14.315 -10.957  1.00  0.00     0.047 S 
HETATM   17  C1  UNL     1      22.433  15.742 -10.044  1.00  0.00     0.133 C 
HETATM   18  O1  UNL     1      22.207  14.229 -12.463  1.00  0.00    -0.253 OA
ENDBRANCH  12  16
ENDBRANCH   8   9
ENDBRANCH   1   7
BRANCH   4  19
HETATM   19  C12 UNL     1      20.261   3.746  -4.158  1.00  0.00     0.071 A 
HETATM   20  N1  UNL     1      21.034   3.423  -3.113  1.00  0.00    -0.363 N 
HETATM   21  C13 UNL     1      20.839   2.304  -2.388  1.00  0.00     0.089 A 
ATOM     22  H1  UNL     1      21.798   4.047  -2.856  1.00  0.00     0.165 HD
HETATM   23  C14 UNL     1      19.812   1.461  -2.728  1.00  0.00     0.032 A 
HETATM   24  C15 UNL     1      18.986   1.727  -3.780  1.00  0.00     0.012 A 
HETATM   25  C16 UNL     1      17.902   1.160  -4.405  1.00  0.00     0.120 A 
HETATM   26  C17 UNL     1      19.232   2.901  -4.501  1.00  0.00     0.087 A 
HETATM   27  N2  UNL     1      17.518   1.934  -5.432  1.00  0.00    -0.310 N 
HETATM   28  N3  UNL     1      18.325   2.978  -5.479  1.00  0.00    -0.298 N 
ATOM     29  H2  UNL     1      16.740   1.749  -6.064  1.00  0.00     0.186 HD
ATOM     30  H3  UNL     1      18.264   3.732  -6.162  1.00  0.00     0.187 HD
ENDBRANCH   4  19
TORSDOF 4
ENDMDL
