MODEL 1
REMARK VINA RESULT: -5.858716068      0.000      0.000
REMARK  6 active torsions:
REMARK  status: ('A' for Active; 'I' for Inactive)
REMARK    1  A    between atoms: C2_2  and  C3_3 
REMARK    2  A    between atoms: C4_4  and  C5_5 
REMARK    3  A    between atoms: C8_13  and  N1_14 
REMARK    4  A    between atoms: N1_14  and  C9_15 
REMARK    5  A    between atoms: N1_14  and  N2_19 
REMARK    6  A    between atoms: C9_15  and  C10_16 
ROOT
HETATM    1  C3  UNL     1      -8.838 -26.121   2.135  1.00  0.00     0.071 C 
HETATM    2  C4  UNL     1      -9.960 -25.924   1.129  1.00  0.00     0.043 C 
HETATM    3  C6  UNL     1      -9.933 -26.840   0.212  1.00  0.00     0.034 C 
HETATM    4 BR1  UNL     1     -11.215 -26.907  -1.228  1.00  0.00    -0.052 Br
HETATM    5  C7  UNL     1      -8.803 -27.748   0.410  1.00  0.00     0.129 C 
HETATM    6 BR2  UNL     1      -7.693 -27.381  -1.105  1.00  0.00    -0.065 Br
HETATM    7 BR3  UNL     1      -9.589 -29.533   0.263  1.00  0.00    -0.065 Br
HETATM    8  C8  UNL     1      -8.339 -27.436   1.759  1.00  0.00     0.143 C 
ENDROOT
BRANCH   8   9
HETATM    9  N1  UNL     1      -7.152 -28.020   2.257  1.00  0.00    -0.075 NA
BRANCH   9  10
HETATM   10  C9  UNL     1      -7.448 -28.724   3.490  1.00  0.00     0.243 C 
BRANCH  10  11
HETATM   11  C10 UNL     1      -7.531 -30.198   3.366  1.00  0.00     0.188 C 
HETATM   12  O3  UNL     1      -6.508 -30.798   2.931  1.00  0.00    -0.647 OA
HETATM   13  O4  UNL     1      -8.644 -30.891   3.705  1.00  0.00    -0.647 OA
ENDBRANCH  10  11
ENDBRANCH   9  10
BRANCH   9  14
HETATM   14  N2  UNL     1      -6.017 -27.261   2.312  1.00  0.00     0.083 N 
HETATM   15  C11 UNL     1      -5.433 -27.005   3.612  1.00  0.00     0.382 C 
HETATM   16  C12 UNL     1      -4.957 -27.867   1.528  1.00  0.00     0.382 C 
HETATM   17  O5  UNL     1      -6.177 -25.982   1.820  1.00  0.00    -0.048 OA
ENDBRANCH   9  14
ENDBRANCH   8   9
BRANCH   1  18
HETATM   18  C2  UNL     1      -9.556 -26.047   3.438  1.00  0.00    -0.026 C 
HETATM   19  C1  UNL     1      -9.315 -25.262   4.445  1.00  0.00     0.007 C 
ENDBRANCH   1  18
BRANCH   2  20
HETATM   20  C5  UNL     1     -10.917 -24.801   1.260  1.00  0.00     0.207 C 
HETATM   21  O1  UNL     1     -10.587 -23.634   1.014  1.00  0.00    -0.644 OA
HETATM   22  O2  UNL     1     -12.235 -25.087   1.683  1.00  0.00    -0.644 OA
ENDBRANCH   2  20
TORSDOF 6
ENDMDL
MODEL 2
REMARK VINA RESULT: -5.358355412      2.223      2.864
REMARK  6 active torsions:
REMARK  status: ('A' for Active; 'I' for Inactive)
REMARK    1  A    between atoms: C2_2  and  C3_3 
REMARK    2  A    between atoms: C4_4  and  C5_5 
REMARK    3  A    between atoms: C8_13  and  N1_14 
REMARK    4  A    between atoms: N1_14  and  C9_15 
REMARK    5  A    between atoms: N1_14  and  N2_19 
REMARK    6  A    between atoms: C9_15  and  C10_16 
ROOT
HETATM    1  C3  UNL     1     -11.133 -26.343   0.199  1.00  0.00     0.071 C 
HETATM    2  C4  UNL     1     -11.817 -26.583  -1.138  1.00  0.00     0.043 C 
HETATM    3  C6  UNL     1     -11.192 -27.486  -1.827  1.00  0.00     0.034 C 
HETATM    4 BR1  UNL     1     -11.782 -28.051  -3.576  1.00  0.00    -0.052 Br
HETATM    5  C7  UNL     1     -10.001 -27.957  -1.120  1.00  0.00     0.129 C 
HETATM    6 BR2  UNL     1      -8.573 -27.326  -2.226  1.00  0.00    -0.065 Br
HETATM    7 BR3  UNL     1     -10.126 -29.907  -1.214  1.00  0.00    -0.065 Br
HETATM    8  C8  UNL     1     -10.173 -27.437   0.234  1.00  0.00     0.143 C 
ENDROOT
BRANCH   8   9
HETATM    9  N1  UNL     1      -9.135 -27.568   1.185  1.00  0.00    -0.075 NA
BRANCH   9  10
HETATM   10  C9  UNL     1      -9.552 -28.494   2.220  1.00  0.00     0.243 C 
BRANCH  10  11
HETATM   11  C10 UNL     1      -8.675 -29.677   2.394  1.00  0.00     0.188 C 
HETATM   12  O3  UNL     1      -7.805 -29.884   1.501  1.00  0.00    -0.647 OA
HETATM   13  O4  UNL     1      -8.783 -30.507   3.457  1.00  0.00    -0.647 OA
ENDBRANCH  10  11
ENDBRANCH   9  10
BRANCH   9  14
HETATM   14  N2  UNL     1      -8.533 -26.438   1.662  1.00  0.00     0.083 N 
HETATM   15  C11 UNL     1      -8.822 -26.038   3.023  1.00  0.00     0.382 C 
HETATM   16  C12 UNL     1      -7.088 -26.561   1.596  1.00  0.00     0.382 C 
HETATM   17  O5  UNL     1      -8.855 -25.295   0.959  1.00  0.00    -0.048 OA
ENDBRANCH   9  14
ENDBRANCH   8   9
BRANCH   1  18
HETATM   18  C2  UNL     1     -12.265 -26.441   1.162  1.00  0.00    -0.026 C 
HETATM   19  C1  UNL     1     -12.489 -25.713   2.215  1.00  0.00     0.007 C 
ENDBRANCH   1  18
BRANCH   2  20
HETATM   20  C5  UNL     1     -13.037 -25.835  -1.518  1.00  0.00     0.207 C 
HETATM   21  O1  UNL     1     -14.154 -26.370  -1.519  1.00  0.00    -0.644 OA
HETATM   22  O2  UNL     1     -12.904 -24.478  -1.891  1.00  0.00    -0.644 OA
ENDBRANCH   2  20
TORSDOF 6
ENDMDL
MODEL 3
REMARK VINA RESULT: -5.308300445      0.953      1.191
REMARK  6 active torsions:
REMARK  status: ('A' for Active; 'I' for Inactive)
REMARK    1  A    between atoms: C2_2  and  C3_3 
REMARK    2  A    between atoms: C4_4  and  C5_5 
REMARK    3  A    between atoms: C8_13  and  N1_14 
REMARK    4  A    between atoms: N1_14  and  C9_15 
REMARK    5  A    between atoms: N1_14  and  N2_19 
REMARK    6  A    between atoms: C9_15  and  C10_16 
ROOT
HETATM    1  C3  UNL     1      -9.440 -25.937   1.266  1.00  0.00     0.071 C 
HETATM    2  C4  UNL     1     -10.474 -25.967   0.152  1.00  0.00     0.043 C 
HETATM    3  C6  UNL     1     -10.281 -26.977  -0.639  1.00  0.00     0.034 C 
HETATM    4 BR1  UNL     1     -11.409 -27.333  -2.163  1.00  0.00    -0.052 Br
HETATM    5  C7  UNL     1      -9.102 -27.743  -0.235  1.00  0.00     0.129 C 
HETATM    6 BR2  UNL     1      -7.887 -27.449  -1.684  1.00  0.00    -0.065 Br
HETATM    7 BR3  UNL     1      -9.716 -29.600  -0.224  1.00  0.00    -0.065 Br
HETATM    8  C8  UNL     1      -8.797 -27.233   1.100  1.00  0.00     0.143 C 
ENDROOT
BRANCH   8   9
HETATM    9  N1  UNL     1      -7.618 -27.639   1.766  1.00  0.00    -0.075 NA
BRANCH   9  10
HETATM   10  C9  UNL     1      -7.976 -28.341   2.983  1.00  0.00     0.243 C 
BRANCH  10  11
HETATM   11  C10 UNL     1      -7.776 -29.809   2.942  1.00  0.00     0.188 C 
HETATM   12  O3  UNL     1      -8.602 -30.521   3.579  1.00  0.00    -0.647 OA
HETATM   13  O4  UNL     1      -6.761 -30.382   2.253  1.00  0.00    -0.647 OA
ENDBRANCH  10  11
ENDBRANCH   9  10
BRANCH   9  14
HETATM   14  N2  UNL     1      -6.607 -26.733   1.926  1.00  0.00     0.083 N 
HETATM   15  C11 UNL     1      -6.383 -26.193   3.250  1.00  0.00     0.382 C 
HETATM   16  C12 UNL     1      -5.336 -27.309   1.525  1.00  0.00     0.382 C 
HETATM   17  O5  UNL     1      -6.763 -25.585   1.177  1.00  0.00    -0.048 OA
ENDBRANCH   9  14
ENDBRANCH   8   9
BRANCH   1  18
HETATM   18  C2  UNL     1     -10.283 -25.782   2.484  1.00  0.00    -0.026 C 
HETATM   19  C1  UNL     1      -9.958 -25.247   3.623  1.00  0.00     0.007 C 
ENDBRANCH   1  18
BRANCH   2  20
HETATM   20  C5  UNL     1     -11.531 -24.934   0.061  1.00  0.00     0.207 C 
HETATM   21  O1  UNL     1     -11.279 -23.777  -0.302  1.00  0.00    -0.644 OA
HETATM   22  O2  UNL     1     -12.854 -25.293   0.404  1.00  0.00    -0.644 OA
ENDBRANCH   2  20
TORSDOF 6
ENDMDL
MODEL 4
REMARK VINA RESULT: -5.230079251      2.440      5.551
REMARK  6 active torsions:
REMARK  status: ('A' for Active; 'I' for Inactive)
REMARK    1  A    between atoms: C2_2  and  C3_3 
REMARK    2  A    between atoms: C4_4  and  C5_5 
REMARK    3  A    between atoms: C8_13  and  N1_14 
REMARK    4  A    between atoms: N1_14  and  C9_15 
REMARK    5  A    between atoms: N1_14  and  N2_19 
REMARK    6  A    between atoms: C9_15  and  C10_16 
ROOT
HETATM    1  C3  UNL     1      -7.738 -26.465   1.977  1.00  0.00     0.071 C 
HETATM    2  C4  UNL     1      -6.854 -27.683   1.760  1.00  0.00     0.043 C 
HETATM    3  C6  UNL     1      -7.426 -28.543   0.977  1.00  0.00     0.034 C 
HETATM    4 BR1  UNL     1      -6.591 -30.209   0.476  1.00  0.00    -0.052 Br
HETATM    5  C7  UNL     1      -8.761 -28.090   0.583  1.00  0.00     0.129 C 
HETATM    6 BR2  UNL     1      -9.909 -29.361   1.434  1.00  0.00    -0.065 Br
HETATM    7 BR3  UNL     1      -8.797 -28.329  -1.358  1.00  0.00    -0.065 Br
HETATM    8  C8  UNL     1      -8.783 -26.686   0.988  1.00  0.00     0.143 C 
ENDROOT
BRANCH   8   9
HETATM    9  N1  UNL     1      -9.980 -25.938   0.899  1.00  0.00    -0.075 NA
BRANCH   9  10
HETATM   10  C9  UNL     1      -9.731 -24.729   0.139  1.00  0.00     0.243 C 
BRANCH  10  11
HETATM   11  C10 UNL     1     -10.642 -24.511  -1.009  1.00  0.00     0.188 C 
HETATM   12  O3  UNL     1     -11.280 -23.421  -1.039  1.00  0.00    -0.647 OA
HETATM   13  O4  UNL     1     -10.793 -25.425  -1.996  1.00  0.00    -0.647 OA
ENDBRANCH  10  11
ENDBRANCH   9  10
BRANCH   9  14
HETATM   14  N2  UNL     1     -10.717 -25.738   2.033  1.00  0.00     0.083 N 
HETATM   15  C11 UNL     1     -10.859 -24.382   2.519  1.00  0.00     0.382 C 
HETATM   16  C12 UNL     1     -12.072 -26.227   1.855  1.00  0.00     0.382 C 
HETATM   17  O5  UNL     1     -10.217 -26.384   3.145  1.00  0.00    -0.048 OA
ENDBRANCH   9  14
ENDBRANCH   8   9
BRANCH   1  18
HETATM   18  C2  UNL     1      -6.807 -25.337   1.696  1.00  0.00    -0.026 C 
HETATM   19  C1  UNL     1      -6.289 -24.988   0.557  1.00  0.00     0.007 C 
ENDBRANCH   1  18
BRANCH   2  20
HETATM   20  C5  UNL     1      -5.524 -27.787   2.404  1.00  0.00     0.207 C 
HETATM   21  O1  UNL     1      -5.402 -27.881   3.632  1.00  0.00    -0.644 OA
HETATM   22  O2  UNL     1      -4.376 -27.773   1.579  1.00  0.00    -0.644 OA
ENDBRANCH   2  20
TORSDOF 6
ENDMDL
MODEL 5
REMARK VINA RESULT: -5.172453442      3.445      4.454
REMARK  6 active torsions:
REMARK  status: ('A' for Active; 'I' for Inactive)
REMARK    1  A    between atoms: C2_2  and  C3_3 
REMARK    2  A    between atoms: C4_4  and  C5_5 
REMARK    3  A    between atoms: C8_13  and  N1_14 
REMARK    4  A    between atoms: N1_14  and  C9_15 
REMARK    5  A    between atoms: N1_14  and  N2_19 
REMARK    6  A    between atoms: C9_15  and  C10_16 
ROOT
HETATM    1  C3  UNL     1     -11.981 -26.466  -1.502  1.00  0.00     0.071 C 
HETATM    2  C4  UNL     1     -12.498 -27.166  -2.748  1.00  0.00     0.043 C 
HETATM    3  C6  UNL     1     -11.749 -28.176  -3.062  1.00  0.00     0.034 C 
HETATM    4 BR1  UNL     1     -12.110 -29.302  -4.587  1.00  0.00    -0.052 Br
HETATM    5  C7  UNL     1     -10.616 -28.297  -2.144  1.00  0.00     0.129 C 
HETATM    6 BR2  UNL     1      -9.117 -27.908  -3.266  1.00  0.00    -0.065 Br
HETATM    7 BR3  UNL     1     -10.613 -30.184  -1.629  1.00  0.00    -0.065 Br
HETATM    8  C8  UNL     1     -10.966 -27.404  -1.042  1.00  0.00     0.143 C 
ENDROOT
BRANCH   8   9
HETATM    9  N1  UNL     1     -10.033 -27.141  -0.013  1.00  0.00    -0.075 NA
BRANCH   9  10
HETATM   10  C9  UNL     1     -10.584 -27.581   1.254  1.00  0.00     0.243 C 
BRANCH  10  11
HETATM   11  C10 UNL     1      -9.696 -28.460   2.052  1.00  0.00     0.188 C 
HETATM   12  O3  UNL     1      -9.123 -27.944   3.052  1.00  0.00    -0.647 OA
HETATM   13  O4  UNL     1      -9.501 -29.763   1.742  1.00  0.00    -0.647 OA
ENDBRANCH  10  11
ENDBRANCH   9  10
BRANCH   9  14
HETATM   14  N2  UNL     1      -9.438 -25.912   0.038  1.00  0.00     0.083 N 
HETATM   15  C11 UNL     1      -9.823 -25.016   1.108  1.00  0.00     0.382 C 
HETATM   16  C12 UNL     1      -7.997 -26.044   0.147  1.00  0.00     0.382 C 
HETATM   17  O5  UNL     1      -9.671 -25.132  -1.077  1.00  0.00    -0.048 OA
ENDBRANCH   9  14
ENDBRANCH   8   9
BRANCH   1  18
HETATM   18  C2  UNL     1     -13.203 -26.366  -0.656  1.00  0.00    -0.026 C 
HETATM   19  C1  UNL     1     -13.402 -25.609   0.381  1.00  0.00     0.007 C 
ENDBRANCH   1  18
BRANCH   2  20
HETATM   20  C5  UNL     1     -13.712 -26.685  -3.447  1.00  0.00     0.207 C 
HETATM   21  O1  UNL     1     -13.722 -25.614  -4.069  1.00  0.00    -0.644 OA
HETATM   22  O2  UNL     1     -14.880 -27.479  -3.389  1.00  0.00    -0.644 OA
ENDBRANCH   2  20
TORSDOF 6
ENDMDL
