MODEL 1
REMARK VINA RESULT: -8.210033942      0.000      0.000
REMARK  17 active torsions:
REMARK  status: ('A' for Active; 'I' for Inactive)
REMARK    1  A    between atoms: N1_1  and  N2_4 
REMARK    2  A    between atoms: N2_4  and  C1_6 
REMARK    3  A    between atoms: C1_6  and  C2_11 
REMARK    4  A    between atoms: N3_7  and  O1_9 
REMARK    5  A    between atoms: N5_14  and  C3_15 
REMARK    6  A    between atoms: C4_16  and  C5_17 
REMARK       I    between atoms: C5_17  and  N6_19 
REMARK    7  A    between atoms: N6_19  and  C6_21 
REMARK    8  A    between atoms: C6_21  and  C7_22 
REMARK    9  A    between atoms: C6_21  and  C8_25 
REMARK   10  A    between atoms: C8_25  and  O4_26 
REMARK   11  A    between atoms: C8_25  and  O5_28 
REMARK   12  A    between atoms: C9_32  and  C10_33 
REMARK   13  A    between atoms: N9_36  and  O8_37 
REMARK   14  A    between atoms: C11_41  and  C12_42 
REMARK   15  A    between atoms: C14_44  and  N11_45 
REMARK   16  A    between atoms: C16_49  and  O11_50 
REMARK   17  A    between atoms: C17_52  and  O12_53 
ROOT
HETATM    1  C2  UNL     1      56.348  12.336  32.067  1.00  0.00     0.126 A 
HETATM    2  N4  UNL     1      57.536  12.997  32.278  1.00  0.00    -0.272 N 
ATOM      3  H4  UNL     1      57.690  13.680  33.020  1.00  0.00     0.189 HD
HETATM    4  N5  UNL     1      58.445  12.637  31.404  1.00  0.00    -0.174 N 
HETATM    5  N10 UNL     1      57.864  11.753  30.629  1.00  0.00    -0.275 N 
ATOM      6  H10 UNL     1      58.323  11.288  29.846  1.00  0.00     0.189 HD
HETATM    7  C11 UNL     1      56.572  11.531  30.996  1.00  0.00     0.095 A 
ENDROOT
BRANCH   4   8
HETATM    8  C3  UNL     1      59.806  13.100  31.302  1.00  0.00     0.206 A 
HETATM    9  C4  UNL     1      60.243  14.121  30.490  1.00  0.00     0.152 A 
HETATM   10  N8  UNL     1      61.592  14.229  30.705  1.00  0.00    -0.327 N 
HETATM   11  C9  UNL     1      61.982  13.332  31.596  1.00  0.00     0.213 A 
ATOM     12  H8  UNL     1      62.206  14.902  30.244  1.00  0.00     0.168 HD
HETATM   13  N9  UNL     1      60.894  12.652  31.954  1.00  0.00    -0.178 N 
BRANCH   9  14
HETATM   14  C5  UNL     1      59.443  14.919  29.585  1.00  0.00     0.273 C 
HETATM   15  O2  UNL     1      58.212  14.998  29.744  1.00  0.00    -0.266 OA
HETATM   16  N6  UNL     1      60.052  15.614  28.515  1.00  0.00    -0.338 N 
ATOM     17  H6  UNL     1      61.062  15.542  28.393  1.00  0.00     0.163 HD
BRANCH  16  18
HETATM   18  C6  UNL     1      59.290  16.428  27.581  1.00  0.00     0.229 C 
BRANCH  18  19
HETATM   19  C7  UNL     1      58.717  15.579  26.531  1.00  0.00     0.258 C 
HETATM   20  N7  UNL     1      57.434  15.726  25.985  1.00  0.00    -0.060 NA
HETATM   21  O3  UNL     1      59.431  14.632  26.071  1.00  0.00    -0.274 OA
ENDBRANCH  18  19
BRANCH  18  22
HETATM   22  C8  UNL     1      60.281  17.379  26.904  1.00  0.00     0.285 C 
BRANCH  22  23
HETATM   23  O4  UNL     1      61.390  16.665  26.446  1.00  0.00    -0.369 OA
ATOM     24  H4  UNL     1      61.805  17.135  25.732  1.00  0.00     0.212 HD
ENDBRANCH  22  23
BRANCH  22  25
HETATM   25  O5  UNL     1      60.776  18.291  27.854  1.00  0.00    -0.369 OA
ATOM     26  H5  UNL     1      61.569  18.693  27.521  1.00  0.00     0.212 HD
ENDBRANCH  22  25
ENDBRANCH  18  22
ENDBRANCH  16  18
ENDBRANCH   9  14
BRANCH  11  27
HETATM   27  C10 UNL     1      63.367  13.151  32.075  1.00  0.00     0.247 C 
HETATM   28  O6  UNL     1      63.589  12.706  33.208  1.00  0.00    -0.642 OA
HETATM   29  O7  UNL     1      64.395  13.498  31.212  1.00  0.00    -0.642 OA
ENDBRANCH  11  27
BRANCH  13  30
HETATM   30  O8  UNL     1      60.917  11.628  32.873  1.00  0.00    -0.279 OA
ATOM     31  H8  UNL     1      61.670  11.360  33.387  1.00  0.00     0.245 HD
ENDBRANCH  13  30
ENDBRANCH   4   8
BRANCH   1  32
HETATM   32  C1  UNL     1      55.142  12.556  32.836  1.00  0.00     0.170 C 
HETATM   33  N3  UNL     1      54.503  13.698  32.735  1.00  0.00    -0.250 N 
ATOM     34  H3  UNL     1      53.662  13.856  33.289  1.00  0.00     0.196 HD
BRANCH  32  35
HETATM   35  N2  UNL     1      54.609  11.622  33.714  1.00  0.00    -0.289 N 
ATOM     36  H2  UNL     1      55.148  11.401  34.551  1.00  0.00     0.188 HD
BRANCH  35  37
HETATM   37  N1  UNL     1      53.384  10.960  33.537  1.00  0.00    -0.344 N 
ATOM     38  H12 UNL     1      53.337  10.289  32.769  1.00  0.00     0.176 HD
ATOM     39  H11 UNL     1      52.554  11.101  34.113  1.00  0.00     0.176 HD
ENDBRANCH  35  37
ENDBRANCH  32  35
BRANCH  33  40
HETATM   40  O1  UNL     1      54.959  14.687  31.888  1.00  0.00    -0.288 OA
ATOM     41  H1  UNL     1      54.384  15.391  31.612  1.00  0.00     0.244 HD
ENDBRANCH  33  40
ENDBRANCH   1  32
BRANCH   7  42
HETATM   42  C12 UNL     1      55.635  10.645  30.331  1.00  0.00     0.033 A 
HETATM   43  C13 UNL     1      54.297  10.847  30.170  1.00  0.00     0.053 A 
HETATM   44  C14 UNL     1      53.459   9.920  29.560  1.00  0.00     0.106 A 
HETATM   45  C15 UNL     1      53.966   8.738  29.086  1.00  0.00     0.075 A 
HETATM   46  C16 UNL     1      55.310   8.505  29.233  1.00  0.00     0.102 A 
HETATM   47  C17 UNL     1      56.131   9.429  29.839  1.00  0.00     0.111 A 
BRANCH  44  48
HETATM   48  N11 UNL     1      52.066  10.223  29.437  1.00  0.00    -0.116 N 
HETATM   49  O9  UNL     1      51.411   9.906  28.427  1.00  0.00    -0.532 OA
HETATM   50  O10 UNL     1      51.398  10.880  30.439  1.00  0.00    -0.532 OA
ENDBRANCH  44  48
BRANCH  46  51
HETATM   51  O11 UNL     1      55.817   7.298  28.748  1.00  0.00    -0.358 OA
ATOM     52  H11 UNL     1      56.634   6.983  29.114  1.00  0.00     0.217 HD
ENDBRANCH  46  51
BRANCH  47  53
HETATM   53  O12 UNL     1      57.479   9.160  29.970  1.00  0.00    -0.357 OA
ATOM     54  H12 UNL     1      57.801   8.303  29.716  1.00  0.00     0.217 HD
ENDBRANCH  47  53
ENDBRANCH   7  42
TORSDOF 17
ENDMDL
MODEL 2
REMARK VINA RESULT: -8.106720339      2.239      4.150
REMARK  17 active torsions:
REMARK  status: ('A' for Active; 'I' for Inactive)
REMARK    1  A    between atoms: N1_1  and  N2_4 
REMARK    2  A    between atoms: N2_4  and  C1_6 
REMARK    3  A    between atoms: C1_6  and  C2_11 
REMARK    4  A    between atoms: N3_7  and  O1_9 
REMARK    5  A    between atoms: N5_14  and  C3_15 
REMARK    6  A    between atoms: C4_16  and  C5_17 
REMARK       I    between atoms: C5_17  and  N6_19 
REMARK    7  A    between atoms: N6_19  and  C6_21 
REMARK    8  A    between atoms: C6_21  and  C7_22 
REMARK    9  A    between atoms: C6_21  and  C8_25 
REMARK   10  A    between atoms: C8_25  and  O4_26 
REMARK   11  A    between atoms: C8_25  and  O5_28 
REMARK   12  A    between atoms: C9_32  and  C10_33 
REMARK   13  A    between atoms: N9_36  and  O8_37 
REMARK   14  A    between atoms: C11_41  and  C12_42 
REMARK   15  A    between atoms: C14_44  and  N11_45 
REMARK   16  A    between atoms: C16_49  and  O11_50 
REMARK   17  A    between atoms: C17_52  and  O12_53 
ROOT
HETATM    1  C2  UNL     1      57.325  11.554  30.001  1.00  0.00     0.126 A 
HETATM    2  N4  UNL     1      58.622  11.796  29.610  1.00  0.00    -0.272 N 
ATOM      3  H4  UNL     1      59.120  11.255  28.903  1.00  0.00     0.189 HD
HETATM    4  N5  UNL     1      59.137  12.811  30.262  1.00  0.00    -0.174 N 
HETATM    5  N10 UNL     1      58.193  13.231  31.070  1.00  0.00    -0.275 N 
ATOM      6  H10 UNL     1      58.298  14.015  31.713  1.00  0.00     0.189 HD
HETATM    7  C11 UNL     1      57.057  12.491  30.948  1.00  0.00     0.095 A 
ENDROOT
BRANCH   4   8
HETATM    8  C3  UNL     1      60.459  13.369  30.128  1.00  0.00     0.206 A 
HETATM    9  C4  UNL     1      60.932  14.046  29.027  1.00  0.00     0.152 A 
HETATM   10  N8  UNL     1      62.223  14.400  29.323  1.00  0.00    -0.327 N 
HETATM   11  C9  UNL     1      62.544  13.973  30.534  1.00  0.00     0.213 A 
ATOM     12  H8  UNL     1      62.844  14.916  28.701  1.00  0.00     0.168 HD
HETATM   13  N9  UNL     1      61.470  13.349  31.015  1.00  0.00    -0.178 N 
BRANCH   9  14
HETATM   14  C5  UNL     1      60.216  14.326  27.801  1.00  0.00     0.273 C 
HETATM   15  O2  UNL     1      59.684  15.436  27.628  1.00  0.00    -0.266 OA
HETATM   16  N6  UNL     1      60.113  13.340  26.792  1.00  0.00    -0.338 N 
ATOM     17  H6  UNL     1      60.553  12.432  26.945  1.00  0.00     0.163 HD
BRANCH  16  18
HETATM   18  C6  UNL     1      59.405  13.574  25.544  1.00  0.00     0.229 C 
BRANCH  18  19
HETATM   19  C7  UNL     1      58.094  12.917  25.583  1.00  0.00     0.258 C 
HETATM   20  N7  UNL     1      57.118  13.002  24.580  1.00  0.00    -0.060 NA
HETATM   21  O3  UNL     1      57.809  12.210  26.602  1.00  0.00    -0.274 OA
ENDBRANCH  18  19
BRANCH  18  22
HETATM   22  C8  UNL     1      60.217  12.901  24.435  1.00  0.00     0.285 C 
BRANCH  22  23
HETATM   23  O4  UNL     1      59.940  13.505  23.207  1.00  0.00    -0.369 OA
ATOM     24  H4  UNL     1      59.451  12.906  22.654  1.00  0.00     0.212 HD
ENDBRANCH  22  23
BRANCH  22  25
HETATM   25  O5  UNL     1      59.808  11.561  24.306  1.00  0.00    -0.369 OA
ATOM     26  H5  UNL     1      60.333  11.135  23.638  1.00  0.00     0.212 HD
ENDBRANCH  22  25
ENDBRANCH  18  22
ENDBRANCH  16  18
ENDBRANCH   9  14
BRANCH  11  27
HETATM   27  C10 UNL     1      63.853  14.169  31.188  1.00  0.00     0.247 C 
HETATM   28  O6  UNL     1      64.396  15.281  31.192  1.00  0.00    -0.642 OA
HETATM   29  O7  UNL     1      64.440  13.067  31.790  1.00  0.00    -0.642 OA
ENDBRANCH  11  27
BRANCH  13  30
HETATM   30  O8  UNL     1      61.435  12.770  32.263  1.00  0.00    -0.279 OA
ATOM     31  H8  UNL     1      61.586  13.217  33.088  1.00  0.00     0.245 HD
ENDBRANCH  13  30
ENDBRANCH   4   8
BRANCH   1  32
HETATM   32  C1  UNL     1      56.509  10.470  29.501  1.00  0.00     0.170 C 
HETATM   33  N3  UNL     1      56.919   9.230  29.630  1.00  0.00    -0.250 N 
ATOM     34  H3  UNL     1      56.349   8.468  29.263  1.00  0.00     0.196 HD
BRANCH  32  35
HETATM   35  N2  UNL     1      55.294  10.657  28.856  1.00  0.00    -0.289 N 
ATOM     36  H2  UNL     1      55.292  11.231  28.013  1.00  0.00     0.188 HD
BRANCH  35  37
HETATM   37  N1  UNL     1      54.069  10.114  29.276  1.00  0.00    -0.344 N 
ATOM     38  H12 UNL     1      53.528  10.672  29.937  1.00  0.00     0.176 HD
ATOM     39  H11 UNL     1      53.691   9.218  28.970  1.00  0.00     0.176 HD
ENDBRANCH  35  37
ENDBRANCH  32  35
BRANCH  33  40
HETATM   40  O1  UNL     1      58.116   8.947  30.257  1.00  0.00    -0.288 OA
ATOM     41  H1  UNL     1      58.787   8.441  29.815  1.00  0.00     0.244 HD
ENDBRANCH  33  40
ENDBRANCH   1  32
BRANCH   7  42
HETATM   42  C12 UNL     1      55.840  12.662  31.719  1.00  0.00     0.033 A 
HETATM   43  C13 UNL     1      55.165  11.693  32.401  1.00  0.00     0.053 A 
HETATM   44  C14 UNL     1      53.975  11.933  33.077  1.00  0.00     0.106 A 
HETATM   45  C15 UNL     1      53.423  13.188  33.080  1.00  0.00     0.075 A 
HETATM   46  C16 UNL     1      54.078  14.185  32.402  1.00  0.00     0.102 A 
HETATM   47  C17 UNL     1      55.257  13.936  31.735  1.00  0.00     0.111 A 
BRANCH  44  48
HETATM   48  N11 UNL     1      53.340  10.851  33.766  1.00  0.00    -0.116 N 
HETATM   49  O9  UNL     1      52.242  10.987  34.335  1.00  0.00    -0.532 OA
HETATM   50  O10 UNL     1      53.928   9.612  33.822  1.00  0.00    -0.532 OA
ENDBRANCH  44  48
BRANCH  46  51
HETATM   51  O11 UNL     1      53.508  15.459  32.410  1.00  0.00    -0.358 OA
ATOM     52  H11 UNL     1      53.928  16.134  31.891  1.00  0.00     0.217 HD
ENDBRANCH  46  51
BRANCH  47  53
HETATM   53  O12 UNL     1      55.888  14.964  31.063  1.00  0.00    -0.357 OA
ATOM     54  H12 UNL     1      56.760  15.223  31.337  1.00  0.00     0.217 HD
ENDBRANCH  47  53
ENDBRANCH   7  42
TORSDOF 17
ENDMDL
MODEL 3
REMARK VINA RESULT: -8.106094633      2.151      4.059
REMARK  17 active torsions:
REMARK  status: ('A' for Active; 'I' for Inactive)
REMARK    1  A    between atoms: N1_1  and  N2_4 
REMARK    2  A    between atoms: N2_4  and  C1_6 
REMARK    3  A    between atoms: C1_6  and  C2_11 
REMARK    4  A    between atoms: N3_7  and  O1_9 
REMARK    5  A    between atoms: N5_14  and  C3_15 
REMARK    6  A    between atoms: C4_16  and  C5_17 
REMARK       I    between atoms: C5_17  and  N6_19 
REMARK    7  A    between atoms: N6_19  and  C6_21 
REMARK    8  A    between atoms: C6_21  and  C7_22 
REMARK    9  A    between atoms: C6_21  and  C8_25 
REMARK   10  A    between atoms: C8_25  and  O4_26 
REMARK   11  A    between atoms: C8_25  and  O5_28 
REMARK   12  A    between atoms: C9_32  and  C10_33 
REMARK   13  A    between atoms: N9_36  and  O8_37 
REMARK   14  A    between atoms: C11_41  and  C12_42 
REMARK   15  A    between atoms: C14_44  and  N11_45 
REMARK   16  A    between atoms: C16_49  and  O11_50 
REMARK   17  A    between atoms: C17_52  and  O12_53 
ROOT
HETATM    1  C2  UNL     1      56.195  11.580  30.837  1.00  0.00     0.126 A 
HETATM    2  N4  UNL     1      57.527  11.470  30.510  1.00  0.00    -0.272 N 
ATOM      3  H4  UNL     1      57.906  10.775  29.868  1.00  0.00     0.189 HD
HETATM    4  N5  UNL     1      58.248  12.374  31.130  1.00  0.00    -0.174 N 
HETATM    5  N10 UNL     1      57.403  13.068  31.855  1.00  0.00    -0.275 N 
ATOM      6  H10 UNL     1      57.670  13.848  32.455  1.00  0.00     0.189 HD
HETATM    7  C11 UNL     1      56.126  12.620  31.709  1.00  0.00     0.095 A 
ENDROOT
BRANCH   4   8
HETATM    8  C3  UNL     1      59.671  12.581  31.043  1.00  0.00     0.206 A 
HETATM    9  C4  UNL     1      60.381  12.767  29.878  1.00  0.00     0.152 A 
HETATM   10  N8  UNL     1      61.690  12.927  30.251  1.00  0.00    -0.327 N 
HETATM   11  C9  UNL     1      61.799  12.847  31.567  1.00  0.00     0.213 A 
ATOM     12  H8  UNL     1      62.466  13.084  29.607  1.00  0.00     0.168 HD
HETATM   13  N9  UNL     1      60.572  12.638  32.040  1.00  0.00    -0.178 N 
BRANCH   9  14
HETATM   14  C5  UNL     1      59.855  12.785  28.530  1.00  0.00     0.273 C 
HETATM   15  O2  UNL     1      59.476  11.729  27.993  1.00  0.00    -0.266 OA
HETATM   16  N6  UNL     1      59.768  14.000  27.812  1.00  0.00    -0.338 N 
ATOM     17  H6  UNL     1      60.083  14.860  28.262  1.00  0.00     0.163 HD
BRANCH  16  18
HETATM   18  C6  UNL     1      59.247  14.068  26.456  1.00  0.00     0.229 C 
BRANCH  18  19
HETATM   19  C7  UNL     1      60.298  13.708  25.499  1.00  0.00     0.258 C 
HETATM   20  N7  UNL     1      60.091  13.018  24.296  1.00  0.00    -0.060 NA
HETATM   21  O3  UNL     1      61.495  14.042  25.770  1.00  0.00    -0.274 OA
ENDBRANCH  18  19
BRANCH  18  22
HETATM   22  C8  UNL     1      58.876  15.530  26.192  1.00  0.00     0.285 C 
BRANCH  22  23
HETATM   23  O4  UNL     1      59.986  16.350  26.403  1.00  0.00    -0.369 OA
ATOM     24  H4  UNL     1      60.215  16.799  25.598  1.00  0.00     0.212 HD
ENDBRANCH  22  23
BRANCH  22  25
HETATM   25  O5  UNL     1      57.910  15.942  27.128  1.00  0.00    -0.369 OA
ATOM     26  H5  UNL     1      57.044  15.853  26.746  1.00  0.00     0.212 HD
ENDBRANCH  22  25
ENDBRANCH  18  22
ENDBRANCH  16  18
ENDBRANCH   9  14
BRANCH  11  27
HETATM   27  C10 UNL     1      63.060  12.971  32.328  1.00  0.00     0.247 C 
HETATM   28  O6  UNL     1      63.046  13.039  33.563  1.00  0.00    -0.642 OA
HETATM   29  O7  UNL     1      64.243  13.006  31.607  1.00  0.00    -0.642 OA
ENDBRANCH  11  27
BRANCH  13  30
HETATM   30  O8  UNL     1      60.298  12.501  33.382  1.00  0.00    -0.279 OA
ATOM     31  H8  UNL     1      60.935  12.539  34.086  1.00  0.00     0.245 HD
ENDBRANCH  13  30
ENDBRANCH   4   8
BRANCH   1  32
HETATM   32  C1  UNL     1      55.159  10.694  30.354  1.00  0.00     0.170 C 
HETATM   33  N3  UNL     1      54.942   9.551  30.961  1.00  0.00    -0.250 N 
ATOM     34  H3  UNL     1      54.221   8.921  30.610  1.00  0.00     0.196 HD
BRANCH  32  35
HETATM   35  N2  UNL     1      54.366  10.969  29.248  1.00  0.00    -0.289 N 
ATOM     36  H2  UNL     1      54.832  11.061  28.346  1.00  0.00     0.188 HD
BRANCH  35  37
HETATM   37  N1  UNL     1      52.971  11.131  29.278  1.00  0.00    -0.344 N 
ATOM     38  H12 UNL     1      52.442  10.413  29.774  1.00  0.00     0.176 HD
ATOM     39  H11 UNL     1      52.463  11.901  28.846  1.00  0.00     0.176 HD
ENDBRANCH  35  37
ENDBRANCH  32  35
BRANCH  33  40
HETATM   40  O1  UNL     1      55.682   9.191  32.069  1.00  0.00    -0.288 OA
ATOM     41  H1  UNL     1      55.322   8.601  32.721  1.00  0.00     0.244 HD
ENDBRANCH  33  40
ENDBRANCH   1  32
BRANCH   7  42
HETATM   42  C12 UNL     1      54.956  13.138  32.394  1.00  0.00     0.033 A 
HETATM   43  C13 UNL     1      54.247  12.515  33.378  1.00  0.00     0.053 A 
HETATM   44  C14 UNL     1      53.105  13.063  33.951  1.00  0.00     0.106 A 
HETATM   45  C15 UNL     1      52.640  14.283  33.532  1.00  0.00     0.075 A 
HETATM   46  C16 UNL     1      53.331  14.934  32.542  1.00  0.00     0.102 A 
HETATM   47  C17 UNL     1      54.462  14.383  31.982  1.00  0.00     0.111 A 
BRANCH  44  48
HETATM   48  N11 UNL     1      52.428  12.333  34.979  1.00  0.00    -0.116 N 
HETATM   49  O9  UNL     1      52.416  12.721  36.161  1.00  0.00    -0.532 OA
HETATM   50  O10 UNL     1      51.763  11.168  34.692  1.00  0.00    -0.532 OA
ENDBRANCH  44  48
BRANCH  46  51
HETATM   51  O11 UNL     1      52.850  16.175  32.122  1.00  0.00    -0.358 OA
ATOM     52  H11 UNL     1      53.200  16.951  32.544  1.00  0.00     0.217 HD
ENDBRANCH  46  51
BRANCH  47  53
HETATM   53  O12 UNL     1      55.132  15.068  30.987  1.00  0.00    -0.357 OA
ATOM     54  H12 UNL     1      56.074  15.169  31.057  1.00  0.00     0.217 HD
ENDBRANCH  47  53
ENDBRANCH   7  42
TORSDOF 17
ENDMDL
MODEL 4
REMARK VINA RESULT: -8.000487786      2.255      8.217
REMARK  17 active torsions:
REMARK  status: ('A' for Active; 'I' for Inactive)
REMARK    1  A    between atoms: N1_1  and  N2_4 
REMARK    2  A    between atoms: N2_4  and  C1_6 
REMARK    3  A    between atoms: C1_6  and  C2_11 
REMARK    4  A    between atoms: N3_7  and  O1_9 
REMARK    5  A    between atoms: N5_14  and  C3_15 
REMARK    6  A    between atoms: C4_16  and  C5_17 
REMARK       I    between atoms: C5_17  and  N6_19 
REMARK    7  A    between atoms: N6_19  and  C6_21 
REMARK    8  A    between atoms: C6_21  and  C7_22 
REMARK    9  A    between atoms: C6_21  and  C8_25 
REMARK   10  A    between atoms: C8_25  and  O4_26 
REMARK   11  A    between atoms: C8_25  and  O5_28 
REMARK   12  A    between atoms: C9_32  and  C10_33 
REMARK   13  A    between atoms: N9_36  and  O8_37 
REMARK   14  A    between atoms: C11_41  and  C12_42 
REMARK   15  A    between atoms: C14_44  and  N11_45 
REMARK   16  A    between atoms: C16_49  and  O11_50 
REMARK   17  A    between atoms: C17_52  and  O12_53 
ROOT
HETATM    1  C2  UNL     1      58.085  12.544  30.778  1.00  0.00     0.126 A 
HETATM    2  N4  UNL     1      57.077  11.610  30.697  1.00  0.00    -0.272 N 
ATOM      3  H4  UNL     1      56.492  11.326  31.483  1.00  0.00     0.189 HD
HETATM    4  N5  UNL     1      56.965  11.132  29.481  1.00  0.00    -0.174 N 
HETATM    5  N10 UNL     1      57.885  11.741  28.772  1.00  0.00    -0.275 N 
ATOM      6  H10 UNL     1      58.045  11.575  27.779  1.00  0.00     0.189 HD
HETATM    7  C11 UNL     1      58.601  12.621  29.524  1.00  0.00     0.095 A 
ENDROOT
BRANCH   4   8
HETATM    8  C3  UNL     1      56.029  10.147  29.002  1.00  0.00     0.206 A 
HETATM    9  C4  UNL     1      54.688  10.103  29.309  1.00  0.00     0.152 A 
HETATM   10  N8  UNL     1      54.179   9.017  28.646  1.00  0.00    -0.327 N 
HETATM   11  C9  UNL     1      55.139   8.414  27.962  1.00  0.00     0.213 A 
ATOM     12  H8  UNL     1      53.205   8.719  28.675  1.00  0.00     0.168 HD
HETATM   13  N9  UNL     1      56.256   9.105  28.182  1.00  0.00    -0.178 N 
BRANCH   9  14
HETATM   14  C5  UNL     1      53.960  11.015  30.165  1.00  0.00     0.273 C 
HETATM   15  O2  UNL     1      53.332  11.969  29.672  1.00  0.00    -0.266 OA
HETATM   16  N6  UNL     1      53.957  10.831  31.568  1.00  0.00    -0.338 N 
ATOM     17  H6  UNL     1      54.476  10.047  31.962  1.00  0.00     0.163 HD
BRANCH  16  18
HETATM   18  C6  UNL     1      53.240  11.721  32.468  1.00  0.00     0.229 C 
BRANCH  18  19
HETATM   19  C7  UNL     1      54.082  12.874  32.805  1.00  0.00     0.258 C 
HETATM   20  N7  UNL     1      53.641  14.203  32.872  1.00  0.00    -0.060 NA
HETATM   21  O3  UNL     1      55.310  12.664  33.059  1.00  0.00    -0.274 OA
ENDBRANCH  18  19
BRANCH  18  22
HETATM   22  C8  UNL     1      52.996  10.944  33.764  1.00  0.00     0.285 C 
BRANCH  22  23
HETATM   23  O4  UNL     1      53.026  11.814  34.855  1.00  0.00    -0.369 OA
ATOM     24  H4  UNL     1      52.607  11.409  35.605  1.00  0.00     0.212 HD
ENDBRANCH  22  23
BRANCH  22  25
HETATM   25  O5  UNL     1      54.050  10.034  33.968  1.00  0.00    -0.369 OA
ATOM     26  H5  UNL     1      53.841   9.210  33.543  1.00  0.00     0.212 HD
ENDBRANCH  22  25
ENDBRANCH  18  22
ENDBRANCH  16  18
ENDBRANCH   9  14
BRANCH  11  27
HETATM   27  C10 UNL     1      54.963   7.208  27.128  1.00  0.00     0.247 C 
HETATM   28  O6  UNL     1      55.944   6.623  26.651  1.00  0.00    -0.642 OA
HETATM   29  O7  UNL     1      53.669   6.765  26.906  1.00  0.00    -0.642 OA
ENDBRANCH  11  27
BRANCH  13  30
HETATM   30  O8  UNL     1      57.469   8.765  27.628  1.00  0.00    -0.279 OA
ATOM     31  H8  UNL     1      57.618   8.522  26.722  1.00  0.00     0.245 HD
ENDBRANCH  13  30
ENDBRANCH   4   8
BRANCH   1  32
HETATM   32  C1  UNL     1      58.485  13.212  31.997  1.00  0.00     0.170 C 
HETATM   33  N3  UNL     1      59.470  12.726  32.714  1.00  0.00    -0.250 N 
ATOM     34  H3  UNL     1      59.741  13.190  33.581  1.00  0.00     0.196 HD
BRANCH  32  35
HETATM   35  N2  UNL     1      57.867  14.354  32.486  1.00  0.00    -0.289 N 
ATOM     36  H2  UNL     1      58.291  14.811  33.293  1.00  0.00     0.188 HD
BRANCH  35  37
HETATM   37  N1  UNL     1      56.702  14.929  31.952  1.00  0.00    -0.344 N 
ATOM     38  H12 UNL     1      55.820  14.478  32.196  1.00  0.00     0.176 HD
ATOM     39  H11 UNL     1      56.679  15.752  31.350  1.00  0.00     0.176 HD
ENDBRANCH  35  37
ENDBRANCH  32  35
BRANCH  33  40
HETATM   40  O1  UNL     1      60.145  11.592  32.308  1.00  0.00    -0.288 OA
ATOM     41  H1  UNL     1      60.272  11.409  31.385  1.00  0.00     0.244 HD
ENDBRANCH  33  40
ENDBRANCH   1  32
BRANCH   7  42
HETATM   42  C12 UNL     1      59.715  13.429  29.062  1.00  0.00     0.033 A 
HETATM   43  C13 UNL     1      59.652  14.706  28.586  1.00  0.00     0.053 A 
HETATM   44  C14 UNL     1      60.765  15.394  28.117  1.00  0.00     0.106 A 
HETATM   45  C15 UNL     1      61.999  14.794  28.117  1.00  0.00     0.075 A 
HETATM   46  C16 UNL     1      62.094  13.509  28.589  1.00  0.00     0.102 A 
HETATM   47  C17 UNL     1      60.985  12.837  29.052  1.00  0.00     0.111 A 
BRANCH  44  48
HETATM   48  N11 UNL     1      60.600  16.732  27.638  1.00  0.00    -0.116 N 
HETATM   49  O9  UNL     1      59.675  17.044  26.865  1.00  0.00    -0.532 OA
HETATM   50  O10 UNL     1      61.466  17.727  28.017  1.00  0.00    -0.532 OA
ENDBRANCH  44  48
BRANCH  46  51
HETATM   51  O11 UNL     1      63.353  12.908  28.584  1.00  0.00    -0.358 OA
ATOM     52  H11 UNL     1      63.446  12.074  29.030  1.00  0.00     0.217 HD
ENDBRANCH  46  51
BRANCH  47  53
HETATM   53  O12 UNL     1      61.119  11.544  29.519  1.00  0.00    -0.357 OA
ATOM     54  H12 UNL     1      61.355  10.858  28.906  1.00  0.00     0.217 HD
ENDBRANCH  47  53
ENDBRANCH   7  42
TORSDOF 17
ENDMDL
MODEL 5
REMARK VINA RESULT: -8.000340199      2.370      8.623
REMARK  17 active torsions:
REMARK  status: ('A' for Active; 'I' for Inactive)
REMARK    1  A    between atoms: N1_1  and  N2_4 
REMARK    2  A    between atoms: N2_4  and  C1_6 
REMARK    3  A    between atoms: C1_6  and  C2_11 
REMARK    4  A    between atoms: N3_7  and  O1_9 
REMARK    5  A    between atoms: N5_14  and  C3_15 
REMARK    6  A    between atoms: C4_16  and  C5_17 
REMARK       I    between atoms: C5_17  and  N6_19 
REMARK    7  A    between atoms: N6_19  and  C6_21 
REMARK    8  A    between atoms: C6_21  and  C7_22 
REMARK    9  A    between atoms: C6_21  and  C8_25 
REMARK   10  A    between atoms: C8_25  and  O4_26 
REMARK   11  A    between atoms: C8_25  and  O5_28 
REMARK   12  A    between atoms: C9_32  and  C10_33 
REMARK   13  A    between atoms: N9_36  and  O8_37 
REMARK   14  A    between atoms: C11_41  and  C12_42 
REMARK   15  A    between atoms: C14_44  and  N11_45 
REMARK   16  A    between atoms: C16_49  and  O11_50 
REMARK   17  A    between atoms: C17_52  and  O12_53 
ROOT
HETATM    1  C2  UNL     1      58.101  11.369  29.509  1.00  0.00     0.126 A 
HETATM    2  N4  UNL     1      56.783  11.363  29.905  1.00  0.00    -0.272 N 
ATOM      3  H4  UNL     1      56.075  10.729  29.537  1.00  0.00     0.189 HD
HETATM    4  N5  UNL     1      56.554  12.278  30.816  1.00  0.00    -0.174 N 
HETATM    5  N10 UNL     1      57.704  12.877  31.017  1.00  0.00    -0.275 N 
ATOM      6  H10 UNL     1      57.842  13.643  31.676  1.00  0.00     0.189 HD
HETATM    7  C11 UNL     1      58.689  12.354  30.237  1.00  0.00     0.095 A 
ENDROOT
BRANCH   4   8
HETATM    8  C3  UNL     1      55.308  12.576  31.476  1.00  0.00     0.206 A 
HETATM    9  C4  UNL     1      54.233  11.723  31.575  1.00  0.00     0.152 A 
HETATM   10  N8  UNL     1      53.271  12.401  32.277  1.00  0.00    -0.327 N 
HETATM   11  C9  UNL     1      53.711  13.606  32.602  1.00  0.00     0.213 A 
ATOM     12  H8  UNL     1      52.350  12.031  32.514  1.00  0.00     0.168 HD
HETATM   13  N9  UNL     1      54.947  13.705  32.113  1.00  0.00    -0.178 N 
BRANCH   9  14
HETATM   14  C5  UNL     1      54.132  10.382  31.041  1.00  0.00     0.273 C 
HETATM   15  O2  UNL     1      53.406  10.153  30.057  1.00  0.00    -0.266 OA
HETATM   16  N6  UNL     1      54.857   9.321  31.631  1.00  0.00    -0.338 N 
ATOM     17  H6  UNL     1      55.449   9.519  32.438  1.00  0.00     0.163 HD
BRANCH  16  18
HETATM   18  C6  UNL     1      54.788   7.957  31.130  1.00  0.00     0.229 C 
BRANCH  18  19
HETATM   19  C7  UNL     1      55.017   7.010  32.227  1.00  0.00     0.258 C 
HETATM   20  N7  UNL     1      56.242   6.807  32.876  1.00  0.00    -0.060 NA
HETATM   21  O3  UNL     1      54.032   6.312  32.629  1.00  0.00    -0.274 OA
ENDBRANCH  18  19
BRANCH  18  22
HETATM   22  C8  UNL     1      55.941   7.787  30.137  1.00  0.00     0.285 C 
BRANCH  22  23
HETATM   23  O4  UNL     1      56.203   6.431  29.938  1.00  0.00    -0.369 OA
ATOM     24  H4  UNL     1      56.514   6.286  29.052  1.00  0.00     0.212 HD
ENDBRANCH  22  23
BRANCH  22  25
HETATM   25  O5  UNL     1      57.116   8.329  30.689  1.00  0.00    -0.369 OA
ATOM     26  H5  UNL     1      57.050   9.277  30.701  1.00  0.00     0.212 HD
ENDBRANCH  22  25
ENDBRANCH  18  22
ENDBRANCH  16  18
ENDBRANCH   9  14
BRANCH  11  27
HETATM   27  C10 UNL     1      52.948  14.619  33.359  1.00  0.00     0.247 C 
HETATM   28  O6  UNL     1      52.826  15.771  32.925  1.00  0.00    -0.642 OA
HETATM   29  O7  UNL     1      52.382  14.227  34.562  1.00  0.00    -0.642 OA
ENDBRANCH  11  27
BRANCH  13  30
HETATM   30  O8  UNL     1      55.723  14.832  32.259  1.00  0.00    -0.279 OA
ATOM     31  H8  UNL     1      56.242  15.054  33.024  1.00  0.00     0.245 HD
ENDBRANCH  13  30
ENDBRANCH   4   8
BRANCH   1  32
HETATM   32  C1  UNL     1      58.649  10.510  28.483  1.00  0.00     0.170 C 
HETATM   33  N3  UNL     1      58.422  10.777  27.218  1.00  0.00    -0.250 N 
ATOM     34  H3  UNL     1      58.798  10.162  26.496  1.00  0.00     0.196 HD
BRANCH  32  35
HETATM   35  N2  UNL     1      59.406   9.377  28.751  1.00  0.00    -0.289 N 
ATOM     36  H2  UNL     1      59.513   8.694  28.001  1.00  0.00     0.188 HD
BRANCH  35  37
HETATM   37  N1  UNL     1      60.035   9.102  29.976  1.00  0.00    -0.344 N 
ATOM     38  H12 UNL     1      60.215   8.119  30.183  1.00  0.00     0.176 HD
ATOM     39  H11 UNL     1      60.320   9.804  30.658  1.00  0.00     0.176 HD
ENDBRANCH  35  37
ENDBRANCH  32  35
BRANCH  33  40
HETATM   40  O1  UNL     1      57.679  11.882  26.855  1.00  0.00    -0.288 OA
ATOM     41  H1  UNL     1      58.105  12.666  26.529  1.00  0.00     0.244 HD
ENDBRANCH  33  40
ENDBRANCH   1  32
BRANCH   7  42
HETATM   42  C12 UNL     1      60.066  12.807  30.183  1.00  0.00     0.033 A 
HETATM   43  C13 UNL     1      60.997  12.704  31.173  1.00  0.00     0.053 A 
HETATM   44  C14 UNL     1      62.287  13.210  31.056  1.00  0.00     0.106 A 
HETATM   45  C15 UNL     1      62.675  13.849  29.906  1.00  0.00     0.075 A 
HETATM   46  C16 UNL     1      61.760  13.970  28.891  1.00  0.00     0.102 A 
HETATM   47  C17 UNL     1      60.486  13.465  29.018  1.00  0.00     0.111 A 
BRANCH  44  48
HETATM   48  N11 UNL     1      63.194  13.052  32.151  1.00  0.00    -0.116 N 
HETATM   49  O9  UNL     1      64.415  12.884  31.974  1.00  0.00    -0.532 OA
HETATM   50  O10 UNL     1      62.744  13.079  33.446  1.00  0.00    -0.532 OA
ENDBRANCH  44  48
BRANCH  46  51
HETATM   51  O11 UNL     1      62.166  14.622  27.726  1.00  0.00    -0.358 OA
ATOM     52  H11 UNL     1      61.604  15.308  27.385  1.00  0.00     0.217 HD
ENDBRANCH  46  51
BRANCH  47  53
HETATM   53  O12 UNL     1      59.591  13.605  27.975  1.00  0.00    -0.357 OA
ATOM     54  H12 UNL     1      59.852  13.320  27.107  1.00  0.00     0.217 HD
ENDBRANCH  47  53
ENDBRANCH   7  42
TORSDOF 17
ENDMDL
