MODEL 1
REMARK VINA RESULT: -8.236924840      0.000      0.000
REMARK  10 active torsions:
REMARK  status: ('A' for Active; 'I' for Inactive)
REMARK    1  A    between atoms: O1_2  and  C2_3 
REMARK    2  A    between atoms: C2_3  and  C3_5 
REMARK    3  A    between atoms: C3_5  and  N1_6 
REMARK       I    between atoms: N1_6  and  C4_8 
REMARK    4  A    between atoms: C4_8  and  C5_10 
REMARK    5  A    between atoms: C5_10  and  O4_12 
REMARK    6  A    between atoms: O4_12  and  C7_13 
REMARK    7  A    between atoms: C7_13  and  C8_15 
REMARK    8  A    between atoms: C8_15  and  N2_16 
REMARK    9  A    between atoms: C8_15  and  C10_21 
REMARK       I    between atoms: N2_16  and  C9_18 
REMARK   10  A    between atoms: C10_21  and  C12_23 
ROOT
HETATM    1  C5  UNL     1      -3.522   0.807  11.472  1.00  0.00     0.219 C 
HETATM    2  C6  UNL     1      -4.559  -0.092  10.859  1.00  0.00     0.050 C 
ENDROOT
BRANCH   1   3
HETATM    3  C4  UNL     1      -4.184   1.678  12.471  1.00  0.00     0.247 C 
HETATM    4  N1  UNL     1      -3.803   1.587  13.827  1.00  0.00    -0.340 N 
ATOM      5  H1  UNL     1      -3.076   0.918  14.082  1.00  0.00     0.163 HD
HETATM    6  O3  UNL     1      -5.061   2.474  12.111  1.00  0.00    -0.271 OA
BRANCH   4   7
HETATM    7  C3  UNL     1      -4.391   2.393  14.878  1.00  0.00     0.121 C 
HETATM    8  C13 UNL     1      -3.526   3.638  15.034  1.00  0.00     0.041 C 
HETATM    9  C14 UNL     1      -4.119   4.807  14.271  1.00  0.00     0.003 C 
HETATM   10  C15 UNL     1      -5.358   5.212  15.013  1.00  0.00     0.000 C 
HETATM   11  C16 UNL     1      -6.226   4.019  15.223  1.00  0.00     0.003 C 
HETATM   12  C17 UNL     1      -5.816   2.773  14.529  1.00  0.00     0.041 C 
BRANCH   7  13
HETATM   13  C2  UNL     1      -4.387   1.633  16.132  1.00  0.00     0.287 C 
HETATM   14  O2  UNL     1      -3.532   0.746  16.344  1.00  0.00    -0.262 OA
BRANCH  13  15
HETATM   15  O1  UNL     1      -5.328   1.875  17.108  1.00  0.00    -0.325 OA
HETATM   16  C1  UNL     1      -6.199   0.850  17.530  1.00  0.00     0.213 C 
ENDBRANCH  13  15
ENDBRANCH   7  13
ENDBRANCH   4   7
ENDBRANCH   1   3
BRANCH   1  17
HETATM   17  O4  UNL     1      -2.847   1.589  10.490  1.00  0.00    -0.305 OA
BRANCH  17  18
HETATM   18  C7  UNL     1      -1.776   2.380  10.857  1.00  0.00     0.283 C 
HETATM   19  O5  UNL     1      -0.912   1.865  11.605  1.00  0.00    -0.263 OA
BRANCH  18  20
HETATM   20  C8  UNL     1      -1.672   3.799  10.373  1.00  0.00     0.198 C 
BRANCH  20  21
HETATM   21  N2  UNL     1      -2.851   4.496  10.883  1.00  0.00    -0.331 N 
HETATM   22  C9  UNL     1      -3.864   4.821   9.912  1.00  0.00     0.329 C 
HETATM   23  N3  UNL     1      -5.060   5.507  10.294  1.00  0.00    -0.040 NA
HETATM   24  O6  UNL     1      -3.741   4.522   8.706  1.00  0.00    -0.251 OA
ATOM     25  H2  UNL     1      -2.951   4.738  11.869  1.00  0.00     0.164 HD
ENDBRANCH  20  21
BRANCH  20  26
HETATM   26  C10 UNL     1      -0.452   4.507  10.866  1.00  0.00     0.122 C 
HETATM   27  C11 UNL     1       0.325   5.240   9.796  1.00  0.00     0.021 C 
BRANCH  26  28
HETATM   28  C12 UNL     1      -0.608   5.336  12.086  1.00  0.00     0.393 C 
HETATM   29  F1  UNL     1      -0.984   4.617  13.206  1.00  0.00    -0.171 F 
HETATM   30  F2  UNL     1       0.682   5.827  12.384  1.00  0.00    -0.171 F 
HETATM   31  F3  UNL     1      -1.394   6.437  11.993  1.00  0.00    -0.171 F 
ENDBRANCH  26  28
ENDBRANCH  20  26
ENDBRANCH  18  20
ENDBRANCH  17  18
ENDBRANCH   1  17
TORSDOF 10
ENDMDL
MODEL 2
REMARK VINA RESULT: -7.973003467      1.073      1.406
REMARK  10 active torsions:
REMARK  status: ('A' for Active; 'I' for Inactive)
REMARK    1  A    between atoms: O1_2  and  C2_3 
REMARK    2  A    between atoms: C2_3  and  C3_5 
REMARK    3  A    between atoms: C3_5  and  N1_6 
REMARK       I    between atoms: N1_6  and  C4_8 
REMARK    4  A    between atoms: C4_8  and  C5_10 
REMARK    5  A    between atoms: C5_10  and  O4_12 
REMARK    6  A    between atoms: O4_12  and  C7_13 
REMARK    7  A    between atoms: C7_13  and  C8_15 
REMARK    8  A    between atoms: C8_15  and  N2_16 
REMARK    9  A    between atoms: C8_15  and  C10_21 
REMARK       I    between atoms: N2_16  and  C9_18 
REMARK   10  A    between atoms: C10_21  and  C12_23 
ROOT
HETATM    1  C5  UNL     1      -3.491   0.834  11.464  1.00  0.00     0.219 C 
HETATM    2  C6  UNL     1      -4.530  -0.060  10.845  1.00  0.00     0.050 C 
ENDROOT
BRANCH   1   3
HETATM    3  C4  UNL     1      -4.153   1.706  12.463  1.00  0.00     0.247 C 
HETATM    4  N1  UNL     1      -3.772   1.618  13.819  1.00  0.00    -0.340 N 
ATOM      5  H1  UNL     1      -3.043   0.950  14.073  1.00  0.00     0.163 HD
HETATM    6  O3  UNL     1      -5.032   2.501  12.102  1.00  0.00    -0.271 OA
BRANCH   4   7
HETATM    7  C3  UNL     1      -4.360   2.425  14.868  1.00  0.00     0.121 C 
HETATM    8  C13 UNL     1      -3.473   3.651  15.050  1.00  0.00     0.041 C 
HETATM    9  C14 UNL     1      -4.030   4.839  14.290  1.00  0.00     0.003 C 
HETATM   10  C15 UNL     1      -5.272   5.262  15.017  1.00  0.00     0.000 C 
HETATM   11  C16 UNL     1      -6.167   4.084  15.202  1.00  0.00     0.003 C 
HETATM   12  C17 UNL     1      -5.771   2.837  14.502  1.00  0.00     0.041 C 
BRANCH   7  13
HETATM   13  C2  UNL     1      -4.390   1.652  16.115  1.00  0.00     0.287 C 
HETATM   14  O2  UNL     1      -3.557   0.745  16.329  1.00  0.00    -0.262 OA
BRANCH  13  15
HETATM   15  O1  UNL     1      -5.339   1.906  17.080  1.00  0.00    -0.325 OA
HETATM   16  C1  UNL     1      -6.233   0.894  17.484  1.00  0.00     0.213 C 
ENDBRANCH  13  15
ENDBRANCH   7  13
ENDBRANCH   4   7
ENDBRANCH   1   3
BRANCH   1  17
HETATM   17  O4  UNL     1      -2.809   1.615  10.487  1.00  0.00    -0.305 OA
BRANCH  17  18
HETATM   18  C7  UNL     1      -1.802   2.477  10.875  1.00  0.00     0.283 C 
HETATM   19  O5  UNL     1      -0.953   2.039  11.686  1.00  0.00    -0.263 OA
BRANCH  18  20
HETATM   20  C8  UNL     1      -1.747   3.879  10.337  1.00  0.00     0.198 C 
BRANCH  20  21
HETATM   21  N2  UNL     1      -2.961   4.547  10.802  1.00  0.00    -0.331 N 
HETATM   22  C9  UNL     1      -3.929   4.877   9.789  1.00  0.00     0.329 C 
HETATM   23  N3  UNL     1      -5.154   5.536  10.126  1.00  0.00    -0.040 NA
HETATM   24  O6  UNL     1      -3.742   4.605   8.585  1.00  0.00    -0.251 OA
ATOM     25  H2  UNL     1      -3.113   4.766  11.787  1.00  0.00     0.164 HD
ENDBRANCH  20  21
BRANCH  20  26
HETATM   26  C10 UNL     1      -0.564   4.654  10.820  1.00  0.00     0.122 C 
HETATM   27  C11 UNL     1      -0.585   4.979  12.297  1.00  0.00     0.021 C 
BRANCH  26  28
HETATM   28  C12 UNL     1       0.772   4.173  10.391  1.00  0.00     0.393 C 
HETATM   29  F1  UNL     1       0.731   3.276   9.339  1.00  0.00    -0.171 F 
HETATM   30  F2  UNL     1       1.442   5.305   9.879  1.00  0.00    -0.171 F 
HETATM   31  F3  UNL     1       1.592   3.679  11.351  1.00  0.00    -0.171 F 
ENDBRANCH  26  28
ENDBRANCH  20  26
ENDBRANCH  18  20
ENDBRANCH  17  18
ENDBRANCH   1  17
TORSDOF 10
ENDMDL
MODEL 3
REMARK VINA RESULT: -7.827265736      2.153      6.267
REMARK  10 active torsions:
REMARK  status: ('A' for Active; 'I' for Inactive)
REMARK    1  A    between atoms: O1_2  and  C2_3 
REMARK    2  A    between atoms: C2_3  and  C3_5 
REMARK    3  A    between atoms: C3_5  and  N1_6 
REMARK       I    between atoms: N1_6  and  C4_8 
REMARK    4  A    between atoms: C4_8  and  C5_10 
REMARK    5  A    between atoms: C5_10  and  O4_12 
REMARK    6  A    between atoms: O4_12  and  C7_13 
REMARK    7  A    between atoms: C7_13  and  C8_15 
REMARK    8  A    between atoms: C8_15  and  N2_16 
REMARK    9  A    between atoms: C8_15  and  C10_21 
REMARK       I    between atoms: N2_16  and  C9_18 
REMARK   10  A    between atoms: C10_21  and  C12_23 
ROOT
HETATM    1  C5  UNL     1      -3.168   0.989  11.407  1.00  0.00     0.219 C 
HETATM    2  C6  UNL     1      -2.736  -0.433  11.175  1.00  0.00     0.050 C 
ENDROOT
BRANCH   1   3
HETATM    3  C4  UNL     1      -2.003   1.878  11.180  1.00  0.00     0.247 C 
HETATM    4  N1  UNL     1      -2.205   3.145  10.592  1.00  0.00    -0.340 N 
ATOM      5  H1  UNL     1      -3.156   3.414  10.338  1.00  0.00     0.163 HD
HETATM    6  O3  UNL     1      -0.869   1.504  11.507  1.00  0.00    -0.271 OA
BRANCH   4   7
HETATM    7  C3  UNL     1      -1.133   4.083  10.328  1.00  0.00     0.121 C 
HETATM    8  C13 UNL     1      -1.773   5.439  10.052  1.00  0.00     0.041 C 
HETATM    9  C14 UNL     1      -1.767   6.303  11.299  1.00  0.00     0.003 C 
HETATM   10  C15 UNL     1      -0.338   6.693  11.536  1.00  0.00     0.000 C 
HETATM   11  C16 UNL     1       0.518   5.472  11.544  1.00  0.00     0.003 C 
HETATM   12  C17 UNL     1      -0.191   4.168  11.512  1.00  0.00     0.041 C 
BRANCH   7  13
HETATM   13  C2  UNL     1      -0.384   3.645   9.146  1.00  0.00     0.287 C 
HETATM   14  O2  UNL     1      -0.852   3.795   7.996  1.00  0.00    -0.262 OA
BRANCH  13  15
HETATM   15  O1  UNL     1       0.853   3.053   9.272  1.00  0.00    -0.325 OA
HETATM   16  C1  UNL     1       1.959   3.554   8.555  1.00  0.00     0.213 C 
ENDBRANCH  13  15
ENDBRANCH   7  13
ENDBRANCH   4   7
ENDBRANCH   1   3
BRANCH   1  17
HETATM   17  O4  UNL     1      -3.699   1.179  12.715  1.00  0.00    -0.305 OA
BRANCH  17  18
HETATM   18  C7  UNL     1      -4.560   2.231  12.963  1.00  0.00     0.283 C 
HETATM   19  O5  UNL     1      -5.090   2.783  11.971  1.00  0.00    -0.263 OA
BRANCH  18  20
HETATM   20  C8  UNL     1      -4.832   2.681  14.370  1.00  0.00     0.198 C 
BRANCH  20  21
HETATM   21  N2  UNL     1      -4.402   1.589  15.242  1.00  0.00    -0.331 N 
HETATM   22  C9  UNL     1      -5.307   1.233  16.304  1.00  0.00     0.329 C 
HETATM   23  N3  UNL     1      -4.991   0.182  17.222  1.00  0.00    -0.040 NA
HETATM   24  O6  UNL     1      -6.396   1.821  16.466  1.00  0.00    -0.251 OA
ATOM     25  H2  UNL     1      -3.512   1.108  15.106  1.00  0.00     0.164 HD
ENDBRANCH  20  21
BRANCH  20  26
HETATM   26  C10 UNL     1      -4.085   3.917  14.754  1.00  0.00     0.122 C 
HETATM   27  C11 UNL     1      -2.693   4.017  14.173  1.00  0.00     0.021 C 
BRANCH  26  28
HETATM   28  C12 UNL     1      -4.815   5.203  14.636  1.00  0.00     0.393 C 
HETATM   29  F1  UNL     1      -5.951   5.275  15.422  1.00  0.00    -0.171 F 
HETATM   30  F2  UNL     1      -3.947   6.186  15.158  1.00  0.00    -0.171 F 
HETATM   31  F3  UNL     1      -5.124   5.629  13.386  1.00  0.00    -0.171 F 
ENDBRANCH  26  28
ENDBRANCH  20  26
ENDBRANCH  18  20
ENDBRANCH  17  18
ENDBRANCH   1  17
TORSDOF 10
ENDMDL
MODEL 4
REMARK VINA RESULT: -7.613747522      1.858      2.635
REMARK  10 active torsions:
REMARK  status: ('A' for Active; 'I' for Inactive)
REMARK    1  A    between atoms: O1_2  and  C2_3 
REMARK    2  A    between atoms: C2_3  and  C3_5 
REMARK    3  A    between atoms: C3_5  and  N1_6 
REMARK       I    between atoms: N1_6  and  C4_8 
REMARK    4  A    between atoms: C4_8  and  C5_10 
REMARK    5  A    between atoms: C5_10  and  O4_12 
REMARK    6  A    between atoms: O4_12  and  C7_13 
REMARK    7  A    between atoms: C7_13  and  C8_15 
REMARK    8  A    between atoms: C8_15  and  N2_16 
REMARK    9  A    between atoms: C8_15  and  C10_21 
REMARK       I    between atoms: N2_16  and  C9_18 
REMARK   10  A    between atoms: C10_21  and  C12_23 
ROOT
HETATM    1  C5  UNL     1      -3.570   0.842  11.426  1.00  0.00     0.219 C 
HETATM    2  C6  UNL     1      -4.639   0.122  10.651  1.00  0.00     0.050 C 
ENDROOT
BRANCH   1   3
HETATM    3  C4  UNL     1      -4.223   1.701  12.443  1.00  0.00     0.247 C 
HETATM    4  N1  UNL     1      -3.805   1.618  13.788  1.00  0.00    -0.340 N 
ATOM      5  H1  UNL     1      -3.059   0.964  14.023  1.00  0.00     0.163 HD
HETATM    6  O3  UNL     1      -5.125   2.479  12.106  1.00  0.00    -0.271 OA
BRANCH   4   7
HETATM    7  C3  UNL     1      -4.381   2.413  14.854  1.00  0.00     0.121 C 
HETATM    8  C13 UNL     1      -3.507   3.649  15.022  1.00  0.00     0.041 C 
HETATM    9  C14 UNL     1      -4.096   4.833  14.280  1.00  0.00     0.003 C 
HETATM   10  C15 UNL     1      -5.328   5.236  15.035  1.00  0.00     0.000 C 
HETATM   11  C16 UNL     1      -6.203   4.046  15.234  1.00  0.00     0.003 C 
HETATM   12  C17 UNL     1      -5.806   2.808  14.519  1.00  0.00     0.041 C 
BRANCH   7  13
HETATM   13  C2  UNL     1      -4.375   1.634  16.097  1.00  0.00     0.287 C 
HETATM   14  O2  UNL     1      -3.529   0.734  16.288  1.00  0.00    -0.262 OA
BRANCH  13  15
HETATM   15  O1  UNL     1      -5.303   1.874  17.086  1.00  0.00    -0.325 OA
HETATM   16  C1  UNL     1      -6.151   0.841  17.534  1.00  0.00     0.213 C 
ENDBRANCH  13  15
ENDBRANCH   7  13
ENDBRANCH   4   7
ENDBRANCH   1   3
BRANCH   1  17
HETATM   17  O4  UNL     1      -2.728   1.617  10.578  1.00  0.00    -0.305 OA
BRANCH  17  18
HETATM   18  C7  UNL     1      -1.752   2.425  11.129  1.00  0.00     0.283 C 
HETATM   19  O5  UNL     1      -0.737   1.859  11.598  1.00  0.00    -0.263 OA
BRANCH  18  20
HETATM   20  C8  UNL     1      -1.920   3.918  11.157  1.00  0.00     0.198 C 
BRANCH  20  21
HETATM   21  N2  UNL     1      -0.585   4.487  10.983  1.00  0.00    -0.331 N 
HETATM   22  C9  UNL     1      -0.154   5.411  12.000  1.00  0.00     0.329 C 
HETATM   23  N3  UNL     1       1.132   6.033  11.934  1.00  0.00    -0.040 NA
HETATM   24  O6  UNL     1      -0.879   5.704  12.973  1.00  0.00    -0.251 OA
ATOM     25  H2  UNL     1       0.007   4.243  10.188  1.00  0.00     0.164 HD
ENDBRANCH  20  21
BRANCH  20  26
HETATM   26  C10 UNL     1      -2.802   4.436  10.067  1.00  0.00     0.122 C 
HETATM   27  C11 UNL     1      -3.851   5.424  10.524  1.00  0.00     0.021 C 
BRANCH  26  28
HETATM   28  C12 UNL     1      -2.131   4.894   8.825  1.00  0.00     0.393 C 
HETATM   29  F1  UNL     1      -1.213   3.991   8.321  1.00  0.00    -0.171 F 
HETATM   30  F2  UNL     1      -3.145   4.968   7.846  1.00  0.00    -0.171 F 
HETATM   31  F3  UNL     1      -1.565   6.125   8.844  1.00  0.00    -0.171 F 
ENDBRANCH  26  28
ENDBRANCH  20  26
ENDBRANCH  18  20
ENDBRANCH  17  18
ENDBRANCH   1  17
TORSDOF 10
ENDMDL
MODEL 5
REMARK VINA RESULT: -7.567559555      2.136      6.446
REMARK  10 active torsions:
REMARK  status: ('A' for Active; 'I' for Inactive)
REMARK    1  A    between atoms: O1_2  and  C2_3 
REMARK    2  A    between atoms: C2_3  and  C3_5 
REMARK    3  A    between atoms: C3_5  and  N1_6 
REMARK       I    between atoms: N1_6  and  C4_8 
REMARK    4  A    between atoms: C4_8  and  C5_10 
REMARK    5  A    between atoms: C5_10  and  O4_12 
REMARK    6  A    between atoms: O4_12  and  C7_13 
REMARK    7  A    between atoms: C7_13  and  C8_15 
REMARK    8  A    between atoms: C8_15  and  N2_16 
REMARK    9  A    between atoms: C8_15  and  C10_21 
REMARK       I    between atoms: N2_16  and  C9_18 
REMARK   10  A    between atoms: C10_21  and  C12_23 
ROOT
HETATM    1  C5  UNL     1      -3.221   0.873  11.372  1.00  0.00     0.219 C 
HETATM    2  C6  UNL     1      -2.916  -0.597  11.299  1.00  0.00     0.050 C 
ENDROOT
BRANCH   1   3
HETATM    3  C4  UNL     1      -2.070   1.622  10.811  1.00  0.00     0.247 C 
HETATM    4  N1  UNL     1      -2.238   2.975  10.446  1.00  0.00    -0.340 N 
ATOM      5  H1  UNL     1      -3.155   3.402  10.581  1.00  0.00     0.163 HD
HETATM    6  O3  UNL     1      -0.978   1.058  10.668  1.00  0.00    -0.271 OA
BRANCH   4   7
HETATM    7  C3  UNL     1      -1.178   3.789   9.889  1.00  0.00     0.121 C 
HETATM    8  C13 UNL     1      -0.472   4.475  11.053  1.00  0.00     0.041 C 
HETATM    9  C14 UNL     1       0.780   3.716  11.449  1.00  0.00     0.003 C 
HETATM   10  C15 UNL     1       1.768   3.923  10.340  1.00  0.00     0.000 C 
HETATM   11  C16 UNL     1       1.136   3.571   9.036  1.00  0.00     0.003 C 
HETATM   12  C17 UNL     1      -0.203   2.937   9.101  1.00  0.00     0.041 C 
BRANCH   7  13
HETATM   13  C2  UNL     1      -1.759   4.803   9.002  1.00  0.00     0.287 C 
HETATM   14  O2  UNL     1      -1.500   6.016   9.155  1.00  0.00    -0.262 OA
BRANCH  13  15
HETATM   15  O1  UNL     1      -2.608   4.443   7.979  1.00  0.00    -0.325 OA
HETATM   16  C1  UNL     1      -3.405   5.414   7.339  1.00  0.00     0.213 C 
ENDBRANCH  13  15
ENDBRANCH   7  13
ENDBRANCH   4   7
ENDBRANCH   1   3
BRANCH   1  17
HETATM   17  O4  UNL     1      -3.495   1.296  12.705  1.00  0.00    -0.305 OA
BRANCH  17  18
HETATM   18  C7  UNL     1      -4.464   2.252  12.939  1.00  0.00     0.283 C 
HETATM   19  O5  UNL     1      -5.069   2.710  11.941  1.00  0.00    -0.263 OA
BRANCH  18  20
HETATM   20  C8  UNL     1      -4.762   2.712  14.337  1.00  0.00     0.198 C 
BRANCH  20  21
HETATM   21  N2  UNL     1      -4.326   1.637  15.226  1.00  0.00    -0.331 N 
HETATM   22  C9  UNL     1      -5.240   1.277  16.280  1.00  0.00     0.329 C 
HETATM   23  N3  UNL     1      -4.918   0.241  17.213  1.00  0.00    -0.040 NA
HETATM   24  O6  UNL     1      -6.341   1.848  16.421  1.00  0.00    -0.251 OA
ATOM     25  H2  UNL     1      -3.427   1.170  15.108  1.00  0.00     0.164 HD
ENDBRANCH  20  21
BRANCH  20  26
HETATM   26  C10 UNL     1      -4.041   3.964  14.718  1.00  0.00     0.122 C 
HETATM   27  C11 UNL     1      -2.681   4.126  14.078  1.00  0.00     0.021 C 
BRANCH  26  28
HETATM   28  C12 UNL     1      -4.818   5.227  14.662  1.00  0.00     0.393 C 
HETATM   29  F1  UNL     1      -5.921   5.240  15.497  1.00  0.00    -0.171 F 
HETATM   30  F2  UNL     1      -3.963   6.227  15.173  1.00  0.00    -0.171 F 
HETATM   31  F3  UNL     1      -5.194   5.672  13.438  1.00  0.00    -0.171 F 
ENDBRANCH  26  28
ENDBRANCH  20  26
ENDBRANCH  18  20
ENDBRANCH  17  18
ENDBRANCH   1  17
TORSDOF 10
ENDMDL
