MODEL 1
REMARK VINA RESULT: -8.064264626      0.000      0.000
REMARK  3 active torsions:
REMARK  status: ('A' for Active; 'I' for Inactive)
REMARK    1  A    between atoms: C2_2  and  C3_3 
REMARK    2  A    between atoms: C3_3  and  C4_4 
REMARK    3  A    between atoms: C13_15  and  O3_16 
ROOT
HETATM    1  C4  UNL     1     -20.909  54.917   1.618  1.00  0.00     0.169 C 
HETATM    2  C5  UNL     1     -21.440  54.020   0.575  1.00  0.00     0.040 C 
HETATM    3  C6  UNL     1     -20.775  52.667   0.457  1.00  0.00    -0.011 C 
HETATM    4  C7  UNL     1     -20.337  52.424  -0.944  1.00  0.00     0.009 C 
HETATM    5  C8  UNL     1     -18.968  51.974  -1.236  1.00  0.00    -0.013 C 
HETATM    6  C9  UNL     1     -18.163  51.566  -0.007  1.00  0.00     0.012 C 
HETATM    7  C10 UNL     1     -18.408  52.754   0.895  1.00  0.00     0.027 C 
HETATM    8  C11 UNL     1     -19.767  52.377   1.508  1.00  0.00     0.012 C 
HETATM    9  C12 UNL     1     -18.501  54.070   0.359  1.00  0.00     0.132 A 
HETATM   10  O1  UNL     1     -18.629  54.784   1.542  1.00  0.00    -0.226 OA
HETATM   11  O2  UNL     1     -19.715  55.510   1.424  1.00  0.00    -0.234 OA
HETATM   12  C13 UNL     1     -18.349  55.107  -0.603  1.00  0.00     0.163 A 
HETATM   13  C14 UNL     1     -17.530  53.980  -0.710  1.00  0.00     0.059 A 
HETATM   14  C15 UNL     1     -18.044  53.036  -1.816  1.00  0.00     0.015 C 
ENDROOT
BRANCH   1  15
HETATM   15  C3  UNL     1     -21.924  56.100   1.675  1.00  0.00    -0.011 A 
HETATM   16  C16 UNL     1     -22.904  56.055   2.818  1.00  0.00     0.013 A 
HETATM   17  C17 UNL     1     -21.808  57.072   2.760  1.00  0.00     0.013 A 
BRANCH  15  18
HETATM   18  C2  UNL     1     -22.443  56.555   0.352  1.00  0.00     0.007 C 
HETATM   19  C1  UNL     1     -22.019  57.955   0.029  1.00  0.00     0.006 C 
ENDBRANCH  15  18
ENDBRANCH   1  15
BRANCH  12  20
HETATM   20  O3  UNL     1     -17.635  56.322  -0.403  1.00  0.00    -0.392 OA
ATOM     21  H3  UNL     1     -17.758  57.122  -0.900  1.00  0.00     0.210 HD
ENDBRANCH  12  20
TORSDOF 3
ENDMDL
MODEL 2
REMARK VINA RESULT: -8.047421213      2.151      4.512
REMARK  3 active torsions:
REMARK  status: ('A' for Active; 'I' for Inactive)
REMARK    1  A    between atoms: C2_2  and  C3_3 
REMARK    2  A    between atoms: C3_3  and  C4_4 
REMARK    3  A    between atoms: C13_15  and  O3_16 
ROOT
HETATM    1  C4  UNL     1     -20.894  54.090  -1.652  1.00  0.00     0.169 C 
HETATM    2  C5  UNL     1     -21.428  54.953  -0.583  1.00  0.00     0.040 C 
HETATM    3  C6  UNL     1     -20.784  56.315  -0.442  1.00  0.00    -0.011 C 
HETATM    4  C7  UNL     1     -20.336  56.533   0.960  1.00  0.00     0.009 C 
HETATM    5  C8  UNL     1     -18.971  57.000   1.248  1.00  0.00    -0.013 C 
HETATM    6  C9  UNL     1     -18.187  57.449   0.021  1.00  0.00     0.012 C 
HETATM    7  C10 UNL     1     -18.421  56.278  -0.906  1.00  0.00     0.027 C 
HETATM    8  C11 UNL     1     -19.792  56.645  -1.496  1.00  0.00     0.012 C 
HETATM    9  C12 UNL     1     -18.486  54.949  -0.399  1.00  0.00     0.132 A 
HETATM   10  O1  UNL     1     -18.615  54.259  -1.597  1.00  0.00    -0.226 OA
HETATM   11  O2  UNL     1     -19.687  53.513  -1.483  1.00  0.00    -0.234 OA
HETATM   12  C13 UNL     1     -18.307  53.893   0.538  1.00  0.00     0.163 A 
HETATM   13  C14 UNL     1     -17.506  55.031   0.662  1.00  0.00     0.059 A 
HETATM   14  C15 UNL     1     -18.024  55.940   1.794  1.00  0.00     0.015 C 
ENDROOT
BRANCH   1  15
HETATM   15  C3  UNL     1     -21.889  52.891  -1.725  1.00  0.00    -0.011 A 
HETATM   16  C16 UNL     1     -22.855  52.925  -2.881  1.00  0.00     0.013 A 
HETATM   17  C17 UNL     1     -21.744  51.924  -2.812  1.00  0.00     0.013 A 
BRANCH  15  18
HETATM   18  C2  UNL     1     -22.417  52.424  -0.411  1.00  0.00     0.007 C 
HETATM   19  C1  UNL     1     -21.729  51.182   0.067  1.00  0.00     0.006 C 
ENDBRANCH  15  18
ENDBRANCH   1  15
BRANCH  12  20
HETATM   20  O3  UNL     1     -17.575  52.695   0.303  1.00  0.00    -0.392 OA
ATOM     21  H3  UNL     1     -16.650  52.570   0.481  1.00  0.00     0.210 HD
ENDBRANCH  12  20
TORSDOF 3
ENDMDL
MODEL 3
REMARK VINA RESULT: -7.935094442      1.803      5.282
REMARK  3 active torsions:
REMARK  status: ('A' for Active; 'I' for Inactive)
REMARK    1  A    between atoms: C2_2  and  C3_3 
REMARK    2  A    between atoms: C3_3  and  C4_4 
REMARK    3  A    between atoms: C13_15  and  O3_16 
ROOT
HETATM    1  C4  UNL     1     -19.421  53.920   0.247  1.00  0.00     0.169 C 
HETATM    2  C5  UNL     1     -19.207  55.252  -0.348  1.00  0.00     0.040 C 
HETATM    3  C6  UNL     1     -19.795  56.423   0.408  1.00  0.00    -0.011 C 
HETATM    4  C7  UNL     1     -20.650  57.245  -0.491  1.00  0.00     0.009 C 
HETATM    5  C8  UNL     1     -22.011  57.630  -0.088  1.00  0.00    -0.013 C 
HETATM    6  C9  UNL     1     -22.347  57.326   1.368  1.00  0.00     0.012 C 
HETATM    7  C10 UNL     1     -21.892  55.888   1.466  1.00  0.00     0.027 C 
HETATM    8  C11 UNL     1     -20.388  56.077   1.725  1.00  0.00     0.012 C 
HETATM    9  C12 UNL     1     -22.055  54.994   0.370  1.00  0.00     0.132 A 
HETATM   10  O1  UNL     1     -21.590  53.827   0.961  1.00  0.00    -0.226 OA
HETATM   11  O2  UNL     1     -20.646  53.363   0.179  1.00  0.00    -0.234 OA
HETATM   12  C13 UNL     1     -22.571  54.519  -0.868  1.00  0.00     0.163 A 
HETATM   13  C14 UNL     1     -23.314  55.469  -0.162  1.00  0.00     0.059 A 
HETATM   14  C15 UNL     1     -23.133  56.870  -0.782  1.00  0.00     0.015 C 
ENDROOT
BRANCH   1  15
HETATM   15  C3  UNL     1     -18.514  52.965  -0.587  1.00  0.00    -0.011 A 
HETATM   16  C16 UNL     1     -17.335  52.387   0.152  1.00  0.00     0.013 A 
HETATM   17  C17 UNL     1     -18.500  51.542  -0.254  1.00  0.00     0.013 A 
BRANCH  15  18
HETATM   18  C2  UNL     1     -18.293  53.376  -2.004  1.00  0.00     0.007 C 
HETATM   19  C1  UNL     1     -19.127  52.580  -2.961  1.00  0.00     0.006 C 
ENDBRANCH  15  18
ENDBRANCH   1  15
BRANCH  12  20
HETATM   20  O3  UNL     1     -23.250  53.283  -1.060  1.00  0.00    -0.392 OA
ATOM     21  H3  UNL     1     -22.880  52.421  -0.910  1.00  0.00     0.210 HD
ENDBRANCH  12  20
TORSDOF 3
ENDMDL
MODEL 4
REMARK VINA RESULT: -7.932781471      2.048      4.133
REMARK  3 active torsions:
REMARK  status: ('A' for Active; 'I' for Inactive)
REMARK    1  A    between atoms: C2_2  and  C3_3 
REMARK    2  A    between atoms: C3_3  and  C4_4 
REMARK    3  A    between atoms: C13_15  and  O3_16 
ROOT
HETATM    1  C4  UNL     1     -19.447  55.054  -0.301  1.00  0.00     0.169 C 
HETATM    2  C5  UNL     1     -19.213  53.721   0.284  1.00  0.00     0.040 C 
HETATM    3  C6  UNL     1     -19.806  52.550  -0.466  1.00  0.00    -0.011 C 
HETATM    4  C7  UNL     1     -20.639  51.718   0.445  1.00  0.00     0.009 C 
HETATM    5  C8  UNL     1     -22.004  51.325   0.066  1.00  0.00    -0.013 C 
HETATM    6  C9  UNL     1     -22.370  51.634  -1.381  1.00  0.00     0.012 C 
HETATM    7  C10 UNL     1     -21.927  53.075  -1.482  1.00  0.00     0.027 C 
HETATM    8  C11 UNL     1     -20.427  52.897  -1.770  1.00  0.00     0.012 C 
HETATM    9  C12 UNL     1     -22.075  53.963  -0.378  1.00  0.00     0.132 A 
HETATM   10  O1  UNL     1     -21.630  55.135  -0.973  1.00  0.00    -0.226 OA
HETATM   11  O2  UNL     1     -20.674  55.602  -0.207  1.00  0.00    -0.234 OA
HETATM   12  C13 UNL     1     -22.571  54.429   0.871  1.00  0.00     0.163 A 
HETATM   13  C14 UNL     1     -23.320  53.477   0.176  1.00  0.00     0.059 A 
HETATM   14  C15 UNL     1     -23.118  52.075   0.786  1.00  0.00     0.015 C 
ENDROOT
BRANCH   1  15
HETATM   15  C3  UNL     1     -18.530  56.012   0.520  1.00  0.00    -0.011 A 
HETATM   16  C16 UNL     1     -17.378  56.613  -0.243  1.00  0.00     0.013 A 
HETATM   17  C17 UNL     1     -18.543  57.438   0.203  1.00  0.00     0.013 A 
BRANCH  15  18
HETATM   18  C2  UNL     1     -18.267  55.588   1.926  1.00  0.00     0.007 C 
HETATM   19  C1  UNL     1     -19.084  56.364   2.913  1.00  0.00     0.006 C 
ENDBRANCH  15  18
ENDBRANCH   1  15
BRANCH  12  20
HETATM   20  O3  UNL     1     -23.254  55.659   1.082  1.00  0.00    -0.392 OA
ATOM     21  H3  UNL     1     -23.337  56.360   0.445  1.00  0.00     0.210 HD
ENDBRANCH  12  20
TORSDOF 3
ENDMDL
MODEL 5
REMARK VINA RESULT: -7.908093176      1.783      2.446
REMARK  3 active torsions:
REMARK  status: ('A' for Active; 'I' for Inactive)
REMARK    1  A    between atoms: C2_2  and  C3_3 
REMARK    2  A    between atoms: C3_3  and  C4_4 
REMARK    3  A    between atoms: C13_15  and  O3_16 
ROOT
HETATM    1  C4  UNL     1     -18.431  54.978   1.622  1.00  0.00     0.169 C 
HETATM    2  C5  UNL     1     -19.377  53.849   1.686  1.00  0.00     0.040 C 
HETATM    3  C6  UNL     1     -18.957  52.586   0.969  1.00  0.00    -0.011 C 
HETATM    4  C7  UNL     1     -20.024  52.144   0.030  1.00  0.00     0.009 C 
HETATM    5  C8  UNL     1     -19.705  51.813  -1.367  1.00  0.00    -0.013 C 
HETATM    6  C9  UNL     1     -18.213  51.735  -1.671  1.00  0.00     0.012 C 
HETATM    7  C10 UNL     1     -17.734  53.030  -1.057  1.00  0.00     0.027 C 
HETATM    8  C11 UNL     1     -17.580  52.614   0.415  1.00  0.00     0.012 C 
HETATM    9  C12 UNL     1     -18.535  54.206  -1.116  1.00  0.00     0.132 A 
HETATM   10  O1  UNL     1     -17.658  55.104  -0.525  1.00  0.00    -0.226 OA
HETATM   11  O2  UNL     1     -18.308  55.662   0.467  1.00  0.00    -0.234 OA
HETATM   12  C13 UNL     1     -19.578  55.060  -1.572  1.00  0.00     0.163 A 
HETATM   13  C14 UNL     1     -19.142  54.037  -2.418  1.00  0.00     0.059 A 
HETATM   14  C15 UNL     1     -20.130  52.853  -2.395  1.00  0.00     0.015 C 
ENDROOT
BRANCH   1  15
HETATM   15  C3  UNL     1     -18.993  56.023   2.633  1.00  0.00    -0.011 A 
HETATM   16  C16 UNL     1     -18.184  56.205   3.891  1.00  0.00     0.013 A 
HETATM   17  C17 UNL     1     -18.256  57.268   2.840  1.00  0.00     0.013 A 
BRANCH  15  18
HETATM   18  C2  UNL     1     -20.479  56.034   2.774  1.00  0.00     0.007 C 
HETATM   19  C1  UNL     1     -21.141  56.861   1.715  1.00  0.00     0.006 C 
ENDBRANCH  15  18
ENDBRANCH   1  15
BRANCH  12  20
HETATM   20  O3  UNL     1     -19.401  56.366  -2.107  1.00  0.00    -0.392 OA
ATOM     21  H3  UNL     1     -18.839  57.040  -1.743  1.00  0.00     0.210 HD
ENDBRANCH  12  20
TORSDOF 3
ENDMDL
