MODEL 1
REMARK VINA RESULT: -9.835229142      0.000      0.000
REMARK  7 active torsions:
REMARK  status: ('A' for Active; 'I' for Inactive)
REMARK    1  A    between atoms: N1_2  and  C3_4 
REMARK    2  A    between atoms: C3_4  and  C4_5 
REMARK    3  A    between atoms: C4_5  and  C5_6 
REMARK    4  A    between atoms: C8_9  and  N2_10 
REMARK       I    between atoms: N2_10  and  C9_12 
REMARK    5  A    between atoms: C9_12  and  C10_14 
REMARK    6  A    between atoms: C14_21  and  C15_22 
REMARK       I    between atoms: C15_22  and  N4_24 
REMARK    7  A    between atoms: N4_24  and  C16_26 
ROOT
HETATM    1  C10 UNL     1      47.212  17.073   9.698  1.00  0.00     0.109 C 
HETATM    2  C11 UNL     1      47.275  15.754   8.981  1.00  0.00     0.103 C 
HETATM    3  N3  UNL     1      48.543  15.341   8.513  1.00  0.00    -0.364 N 
ATOM      4  H3  UNL     1      49.125  16.019   8.022  1.00  0.00     0.162 HD
HETATM    5  C12 UNL     1      48.985  14.175   8.674  1.00  0.00     0.162 C 
HETATM    6  F1  UNL     1      50.203  13.829   8.208  1.00  0.00    -0.192 F 
HETATM    7  C13 UNL     1      48.169  13.180   9.382  1.00  0.00     0.104 C 
HETATM    8  C14 UNL     1      47.454  13.807  10.592  1.00  0.00     0.092 C 
HETATM    9  C21 UNL     1      46.815  15.113  10.257  1.00  0.00     0.031 C 
HETATM   10  C22 UNL     1      47.229  16.317  11.000  1.00  0.00    -0.027 C 
HETATM   11  C23 UNL     1      46.157  16.906  11.929  1.00  0.00     0.016 C 
HETATM   12  C24 UNL     1      48.553  16.311  11.698  1.00  0.00     0.016 C 
ENDROOT
BRANCH   1  13
HETATM   13  C9  UNL     1      48.306  18.002   9.468  1.00  0.00     0.225 C 
HETATM   14  N2  UNL     1      48.044  19.365   9.206  1.00  0.00    -0.356 N 
ATOM     15  H2  UNL     1      47.077  19.690   9.177  1.00  0.00     0.162 HD
HETATM   16  O1  UNL     1      49.493  17.610   9.499  1.00  0.00    -0.273 OA
BRANCH  14  17
HETATM   17  C8  UNL     1      49.132  20.329   8.972  1.00  0.00     0.084 C 
HETATM   18  C7  UNL     1      49.053  20.739   7.532  1.00  0.00     0.025 C 
HETATM   19  C6  UNL     1      48.988  22.248   7.378  1.00  0.00     0.007 C 
HETATM   20  C5  UNL     1      47.668  22.649   8.051  1.00  0.00    -0.013 C 
HETATM   21  C26 UNL     1      47.832  22.424   9.514  1.00  0.00     0.007 C 
HETATM   22  C25 UNL     1      48.896  21.472   9.920  1.00  0.00     0.025 C 
BRANCH  20  23
HETATM   23  C4  UNL     1      47.443  24.093   7.748  1.00  0.00     0.034 C 
BRANCH  23  24
HETATM   24  C3  UNL     1      46.578  24.733   8.795  1.00  0.00     0.271 C 
BRANCH  24  25
HETATM   25  N1  UNL     1      45.562  25.587   8.234  1.00  0.00     0.080 N 
HETATM   26  C1  UNL     1      44.582  25.915   9.246  1.00  0.00     0.309 C 
HETATM   27  C2  UNL     1      44.910  24.919   7.140  1.00  0.00     0.309 C 
ENDBRANCH  24  25
ENDBRANCH  23  24
ENDBRANCH  20  23
ENDBRANCH  14  17
ENDBRANCH   1  13
BRANCH   8  28
HETATM   28  C15 UNL     1      46.397  12.842  10.968  1.00  0.00     0.223 C 
HETATM   29  O2  UNL     1      46.631  11.597  10.856  1.00  0.00    -0.273 OA
HETATM   30  N4  UNL     1      45.121  13.242  11.454  1.00  0.00    -0.352 N 
ATOM     31  H4  UNL     1      44.929  14.240  11.547  1.00  0.00     0.163 HD
BRANCH  30  32
HETATM   32  C16 UNL     1      44.095  12.319  11.817  1.00  0.00     0.141 C 
HETATM   33  C17 UNL     1      44.115  11.927  13.291  1.00  0.00     0.195 C 
HETATM   34  O3  UNL     1      42.849  11.426  13.474  1.00  0.00    -0.380 OA
HETATM   35  C18 UNL     1      41.948  12.139  12.728  1.00  0.00     0.179 C 
HETATM   36  C19 UNL     1      41.446  11.450  11.473  1.00  0.00     0.266 C 
HETATM   37  C20 UNL     1      42.725  13.011  11.760  1.00  0.00     0.240 C 
HETATM   38  N5  UNL     1      41.893  12.597  10.668  1.00  0.00    -0.064 N 
ATOM     39  H52 UNL     1      42.292  12.452   9.741  1.00  0.00     0.277 HD
ATOM     40  H51 UNL     1      41.213  13.241  10.266  1.00  0.00     0.277 HD
ENDBRANCH  30  32
ENDBRANCH   8  28
TORSDOF 7
ENDMDL
MODEL 2
REMARK VINA RESULT: -9.822577807      2.627      3.176
REMARK  7 active torsions:
REMARK  status: ('A' for Active; 'I' for Inactive)
REMARK    1  A    between atoms: N1_2  and  C3_4 
REMARK    2  A    between atoms: C3_4  and  C4_5 
REMARK    3  A    between atoms: C4_5  and  C5_6 
REMARK    4  A    between atoms: C8_9  and  N2_10 
REMARK       I    between atoms: N2_10  and  C9_12 
REMARK    5  A    between atoms: C9_12  and  C10_14 
REMARK    6  A    between atoms: C14_21  and  C15_22 
REMARK       I    between atoms: C15_22  and  N4_24 
REMARK    7  A    between atoms: N4_24  and  C16_26 
ROOT
HETATM    1  C10 UNL     1      47.900  16.598   9.328  1.00  0.00     0.109 C 
HETATM    2  C11 UNL     1      48.558  15.402   8.699  1.00  0.00     0.103 C 
HETATM    3  N3  UNL     1      49.970  15.364   8.720  1.00  0.00    -0.364 N 
ATOM      4  H3  UNL     1      50.484  16.206   8.461  1.00  0.00     0.162 HD
HETATM    5  C12 UNL     1      50.622  14.339   9.044  1.00  0.00     0.162 C 
HETATM    6  F1  UNL     1      51.971  14.354   9.049  1.00  0.00    -0.192 F 
HETATM    7  C13 UNL     1      49.908  13.115   9.428  1.00  0.00     0.104 C 
HETATM    8  C14 UNL     1      48.677  13.437  10.293  1.00  0.00     0.092 C 
HETATM    9  C21 UNL     1      47.872  14.561   9.735  1.00  0.00     0.031 C 
HETATM   10  C22 UNL     1      47.664  15.765  10.560  1.00  0.00    -0.027 C 
HETATM   11  C23 UNL     1      46.221  15.984  11.037  1.00  0.00     0.016 C 
HETATM   12  C24 UNL     1      48.613  16.037  11.685  1.00  0.00     0.016 C 
ENDROOT
BRANCH   1  13
HETATM   13  C9  UNL     1      48.716  17.789   9.491  1.00  0.00     0.225 C 
HETATM   14  N2  UNL     1      48.226  19.052   9.092  1.00  0.00    -0.356 N 
ATOM     15  H2  UNL     1      47.292  19.118   8.685  1.00  0.00     0.162 HD
HETATM   16  O1  UNL     1      49.862  17.716   9.987  1.00  0.00    -0.273 OA
BRANCH  14  17
HETATM   17  C8  UNL     1      49.029  20.277   9.248  1.00  0.00     0.084 C 
HETATM   18  C7  UNL     1      49.342  20.775   7.869  1.00  0.00     0.025 C 
HETATM   19  C6  UNL     1      48.933  22.227   7.688  1.00  0.00     0.007 C 
HETATM   20  C5  UNL     1      47.406  22.221   7.847  1.00  0.00    -0.013 C 
HETATM   21  C26 UNL     1      47.113  21.920   9.276  1.00  0.00     0.007 C 
HETATM   22  C25 UNL     1      48.186  21.237  10.041  1.00  0.00     0.025 C 
BRANCH  20  23
HETATM   23  C4  UNL     1      46.922  23.581   7.471  1.00  0.00     0.034 C 
BRANCH  23  24
HETATM   24  C3  UNL     1      46.313  24.281   8.652  1.00  0.00     0.271 C 
BRANCH  24  25
HETATM   25  N1  UNL     1      45.559  25.450   8.280  1.00  0.00     0.080 N 
HETATM   26  C1  UNL     1      44.645  25.804   9.344  1.00  0.00     0.309 C 
HETATM   27  C2  UNL     1      44.812  25.190   7.079  1.00  0.00     0.309 C 
ENDBRANCH  24  25
ENDBRANCH  23  24
ENDBRANCH  20  23
ENDBRANCH  14  17
ENDBRANCH   1  13
BRANCH   8  28
HETATM   28  C15 UNL     1      47.853  12.208  10.280  1.00  0.00     0.223 C 
HETATM   29  O2  UNL     1      46.718  12.221  10.855  1.00  0.00    -0.273 OA
HETATM   30  N4  UNL     1      48.270  11.003   9.650  1.00  0.00    -0.352 N 
ATOM     31  H4  UNL     1      49.179  10.988   9.187  1.00  0.00     0.163 HD
BRANCH  30  32
HETATM   32  C16 UNL     1      47.483   9.812   9.634  1.00  0.00     0.141 C 
HETATM   33  C17 UNL     1      47.739   8.924   8.421  1.00  0.00     0.195 C 
HETATM   34  O3  UNL     1      47.235   7.715   8.838  1.00  0.00    -0.380 OA
HETATM   35  C18 UNL     1      47.484   7.537  10.173  1.00  0.00     0.179 C 
HETATM   36  C19 UNL     1      46.292   7.728  11.092  1.00  0.00     0.266 C 
HETATM   37  C20 UNL     1      47.950   8.862  10.745  1.00  0.00     0.240 C 
HETATM   38  N5  UNL     1      47.042   8.742  11.849  1.00  0.00    -0.064 N 
ATOM     39  H52 UNL     1      46.568   9.565  12.218  1.00  0.00     0.277 HD
ATOM     40  H51 UNL     1      47.392   8.533  12.783  1.00  0.00     0.277 HD
ENDBRANCH  30  32
ENDBRANCH   8  28
TORSDOF 7
ENDMDL
MODEL 3
REMARK VINA RESULT: -9.637874078      2.103      2.616
REMARK  7 active torsions:
REMARK  status: ('A' for Active; 'I' for Inactive)
REMARK    1  A    between atoms: N1_2  and  C3_4 
REMARK    2  A    between atoms: C3_4  and  C4_5 
REMARK    3  A    between atoms: C4_5  and  C5_6 
REMARK    4  A    between atoms: C8_9  and  N2_10 
REMARK       I    between atoms: N2_10  and  C9_12 
REMARK    5  A    between atoms: C9_12  and  C10_14 
REMARK    6  A    between atoms: C14_21  and  C15_22 
REMARK       I    between atoms: C15_22  and  N4_24 
REMARK    7  A    between atoms: N4_24  and  C16_26 
ROOT
HETATM    1  C10 UNL     1      47.629  16.994   9.686  1.00  0.00     0.109 C 
HETATM    2  C11 UNL     1      48.027  15.669   9.098  1.00  0.00     0.103 C 
HETATM    3  N3  UNL     1      49.404  15.465   8.857  1.00  0.00    -0.364 N 
ATOM      4  H3  UNL     1      49.935  16.208   8.403  1.00  0.00     0.162 HD
HETATM    5  C12 UNL     1      50.006  14.409   9.177  1.00  0.00     0.162 C 
HETATM    6  F1  UNL     1      51.323  14.262   8.926  1.00  0.00    -0.192 F 
HETATM    7  C13 UNL     1      49.268  13.324   9.839  1.00  0.00     0.104 C 
HETATM    8  C14 UNL     1      48.274  13.879  10.874  1.00  0.00     0.092 C 
HETATM    9  C21 UNL     1      47.485  15.028  10.342  1.00  0.00     0.031 C 
HETATM   10  C22 UNL     1      47.566  16.327  11.035  1.00  0.00    -0.027 C 
HETATM   11  C23 UNL     1      46.276  16.764  11.744  1.00  0.00     0.016 C 
HETATM   12  C24 UNL     1      48.744  16.598  11.918  1.00  0.00     0.016 C 
ENDROOT
BRANCH   1  13
HETATM   13  C9  UNL     1      48.572  18.089   9.543  1.00  0.00     0.225 C 
HETATM   14  N2  UNL     1      48.113  19.398   9.278  1.00  0.00    -0.356 N 
ATOM     15  H2  UNL     1      47.111  19.566   9.186  1.00  0.00     0.162 HD
HETATM   16  O1  UNL     1      49.802  17.891   9.651  1.00  0.00    -0.273 OA
BRANCH  14  17
HETATM   17  C8  UNL     1      49.046  20.529   9.131  1.00  0.00     0.084 C 
HETATM   18  C7  UNL     1      49.048  20.910   7.681  1.00  0.00     0.025 C 
HETATM   19  C6  UNL     1      48.752  22.386   7.485  1.00  0.00     0.007 C 
HETATM   20  C5  UNL     1      47.321  22.566   8.013  1.00  0.00    -0.013 C 
HETATM   21  C26 UNL     1      47.370  22.382   9.490  1.00  0.00     0.007 C 
HETATM   22  C25 UNL     1      48.528  21.623  10.024  1.00  0.00     0.025 C 
BRANCH  20  23
HETATM   23  C4  UNL     1      46.894  23.950   7.655  1.00  0.00     0.034 C 
BRANCH  23  24
HETATM   24  C3  UNL     1      46.079  24.563   8.757  1.00  0.00     0.271 C 
BRANCH  24  25
HETATM   25  N1  UNL     1      45.159  25.564   8.281  1.00  0.00     0.080 N 
HETATM   26  C1  UNL     1      44.005  25.625   9.152  1.00  0.00     0.309 C 
HETATM   27  C2  UNL     1      44.731  25.241   6.946  1.00  0.00     0.309 C 
ENDBRANCH  24  25
ENDBRANCH  23  24
ENDBRANCH  20  23
ENDBRANCH  14  17
ENDBRANCH   1  13
BRANCH   8  28
HETATM   28  C15 UNL     1      47.349  12.763  11.169  1.00  0.00     0.223 C 
HETATM   29  O2  UNL     1      46.318  12.988  11.880  1.00  0.00    -0.273 OA
HETATM   30  N4  UNL     1      47.556  11.438  10.693  1.00  0.00    -0.352 N 
ATOM     31  H4  UNL     1      48.380  11.253  10.122  1.00  0.00     0.163 HD
BRANCH  30  32
HETATM   32  C16 UNL     1      46.671  10.355  10.975  1.00  0.00     0.141 C 
HETATM   33  C17 UNL     1      45.408  10.356  10.119  1.00  0.00     0.195 C 
HETATM   34  O3  UNL     1      44.970   9.060  10.251  1.00  0.00    -0.380 OA
HETATM   35  C18 UNL     1      46.039   8.205  10.306  1.00  0.00     0.179 C 
HETATM   36  C19 UNL     1      46.365   7.654  11.682  1.00  0.00     0.266 C 
HETATM   37  C20 UNL     1      47.294   9.034  10.503  1.00  0.00     0.240 C 
HETATM   38  N5  UNL     1      47.736   8.172  11.560  1.00  0.00    -0.064 N 
ATOM     39  H52 UNL     1      48.216   8.557  12.373  1.00  0.00     0.277 HD
ATOM     40  H51 UNL     1      48.517   7.534  11.411  1.00  0.00     0.277 HD
ENDBRANCH  30  32
ENDBRANCH   8  28
TORSDOF 7
ENDMDL
MODEL 4
REMARK VINA RESULT: -8.693468374      4.305     11.341
REMARK  7 active torsions:
REMARK  status: ('A' for Active; 'I' for Inactive)
REMARK    1  A    between atoms: N1_2  and  C3_4 
REMARK    2  A    between atoms: C3_4  and  C4_5 
REMARK    3  A    between atoms: C4_5  and  C5_6 
REMARK    4  A    between atoms: C8_9  and  N2_10 
REMARK       I    between atoms: N2_10  and  C9_12 
REMARK    5  A    between atoms: C9_12  and  C10_14 
REMARK    6  A    between atoms: C14_21  and  C15_22 
REMARK       I    between atoms: C15_22  and  N4_24 
REMARK    7  A    between atoms: N4_24  and  C16_26 
ROOT
HETATM    1  C10 UNL     1      46.671  13.129   9.671  1.00  0.00     0.109 C 
HETATM    2  C11 UNL     1      46.030  14.275  10.402  1.00  0.00     0.103 C 
HETATM    3  N3  UNL     1      46.048  14.223  11.814  1.00  0.00    -0.364 N 
ATOM      4  H3  UNL     1      45.796  13.347  12.272  1.00  0.00     0.162 HD
HETATM    5  C12 UNL     1      46.362  15.207  12.531  1.00  0.00     0.162 C 
HETATM    6  F1  UNL     1      46.364  15.106  13.876  1.00  0.00    -0.192 F 
HETATM    7  C13 UNL     1      46.736  16.478  11.898  1.00  0.00     0.104 C 
HETATM    8  C14 UNL     1      47.607  16.242  10.652  1.00  0.00     0.092 C 
HETATM    9  C21 UNL     1      47.061  15.167   9.774  1.00  0.00     0.031 C 
HETATM   10  C22 UNL     1      47.897  13.987   9.492  1.00  0.00    -0.027 C 
HETATM   11  C23 UNL     1      48.378  13.865   8.039  1.00  0.00     0.016 C 
HETATM   12  C24 UNL     1      49.022  13.664  10.425  1.00  0.00     0.016 C 
ENDROOT
BRANCH   1  13
HETATM   13  C9  UNL     1      46.844  11.890  10.409  1.00  0.00     0.225 C 
HETATM   14  N2  UNL     1      47.370  10.745   9.771  1.00  0.00    -0.356 N 
ATOM     15  H2  UNL     1      47.626  10.798   8.785  1.00  0.00     0.162 HD
HETATM   16  O1  UNL     1      46.530  11.817  11.618  1.00  0.00    -0.273 OA
BRANCH  14  17
HETATM   17  C8  UNL     1      47.558   9.476  10.496  1.00  0.00     0.084 C 
HETATM   18  C7  UNL     1      46.280   8.703  10.366  1.00  0.00     0.025 C 
HETATM   19  C6  UNL     1      46.518   7.307   9.819  1.00  0.00     0.007 C 
HETATM   20  C5  UNL     1      47.071   7.535   8.406  1.00  0.00    -0.013 C 
HETATM   21  C26 UNL     1      48.432   8.121   8.553  1.00  0.00     0.007 C 
HETATM   22  C25 UNL     1      48.727   8.788   9.846  1.00  0.00     0.025 C 
BRANCH  20  23
HETATM   23  C4  UNL     1      47.127   6.202   7.738  1.00  0.00     0.034 C 
BRANCH  23  24
HETATM   24  C3  UNL     1      46.081   5.277   8.292  1.00  0.00     0.271 C 
BRANCH  24  25
HETATM   25  N1  UNL     1      45.717   4.231   7.373  1.00  0.00     0.080 N 
HETATM   26  C1  UNL     1      46.664   4.182   6.281  1.00  0.00     0.309 C 
HETATM   27  C2  UNL     1      44.400   4.475   6.849  1.00  0.00     0.309 C 
ENDBRANCH  24  25
ENDBRANCH  23  24
ENDBRANCH  20  23
ENDBRANCH  14  17
ENDBRANCH   1  13
BRANCH   8  28
HETATM   28  C15 UNL     1      47.584  17.521   9.908  1.00  0.00     0.223 C 
HETATM   29  O2  UNL     1      47.521  17.495   8.637  1.00  0.00    -0.273 OA
HETATM   30  N4  UNL     1      47.629  18.791  10.548  1.00  0.00    -0.352 N 
ATOM     31  H4  UNL     1      47.678  18.817  11.567  1.00  0.00     0.163 HD
BRANCH  30  32
HETATM   32  C16 UNL     1      47.610  20.029   9.839  1.00  0.00     0.141 C 
HETATM   33  C17 UNL     1      47.257  21.230  10.711  1.00  0.00     0.195 C 
HETATM   34  O3  UNL     1      47.718  22.281   9.954  1.00  0.00    -0.380 OA
HETATM   35  C18 UNL     1      48.872  21.925   9.308  1.00  0.00     0.179 C 
HETATM   36  C19 UNL     1      48.730  21.635   7.826  1.00  0.00     0.266 C 
HETATM   37  C20 UNL     1      49.038  20.422   9.435  1.00  0.00     0.240 C 
HETATM   38  N5  UNL     1      49.315  20.302   8.034  1.00  0.00    -0.064 N 
ATOM     39  H52 UNL     1      48.971  19.500   7.506  1.00  0.00     0.277 HD
ATOM     40  H51 UNL     1      50.261  20.098   7.711  1.00  0.00     0.277 HD
ENDBRANCH  30  32
ENDBRANCH   8  28
TORSDOF 7
ENDMDL
MODEL 5
REMARK VINA RESULT: -8.679693263      4.250      8.995
REMARK  7 active torsions:
REMARK  status: ('A' for Active; 'I' for Inactive)
REMARK    1  A    between atoms: N1_2  and  C3_4 
REMARK    2  A    between atoms: C3_4  and  C4_5 
REMARK    3  A    between atoms: C4_5  and  C5_6 
REMARK    4  A    between atoms: C8_9  and  N2_10 
REMARK       I    between atoms: N2_10  and  C9_12 
REMARK    5  A    between atoms: C9_12  and  C10_14 
REMARK    6  A    between atoms: C14_21  and  C15_22 
REMARK       I    between atoms: C15_22  and  N4_24 
REMARK    7  A    between atoms: N4_24  and  C16_26 
ROOT
HETATM    1  C10 UNL     1      47.334  15.521   9.095  1.00  0.00     0.109 C 
HETATM    2  C11 UNL     1      46.558  14.831  10.181  1.00  0.00     0.103 C 
HETATM    3  N3  UNL     1      47.144  13.681  10.754  1.00  0.00    -0.364 N 
ATOM      4  H3  UNL     1      47.549  12.980  10.132  1.00  0.00     0.162 HD
HETATM    5  C12 UNL     1      47.190  13.480  11.993  1.00  0.00     0.162 C 
HETATM    6  F1  UNL     1      47.761  12.364  12.491  1.00  0.00    -0.192 F 
HETATM    7  C13 UNL     1      46.620  14.475  12.912  1.00  0.00     0.104 C 
HETATM    8  C14 UNL     1      46.935  15.907  12.444  1.00  0.00     0.092 C 
HETATM    9  C21 UNL     1      46.689  16.092  10.985  1.00  0.00     0.031 C 
HETATM   10  C22 UNL     1      47.808  16.513  10.123  1.00  0.00    -0.027 C 
HETATM   11  C23 UNL     1      47.682  17.929   9.542  1.00  0.00     0.016 C 
HETATM   12  C24 UNL     1      49.209  16.289  10.604  1.00  0.00     0.016 C 
ENDROOT
BRANCH   1  13
HETATM   13  C9  UNL     1      48.357  14.742   8.419  1.00  0.00     0.225 C 
HETATM   14  N2  UNL     1      48.160  13.365   8.170  1.00  0.00    -0.356 N 
ATOM     15  H2  UNL     1      47.291  12.924   8.472  1.00  0.00     0.162 HD
HETATM   16  O1  UNL     1      49.425  15.275   8.047  1.00  0.00    -0.273 OA
BRANCH  14  17
HETATM   17  C8  UNL     1      49.178  12.551   7.484  1.00  0.00     0.084 C 
HETATM   18  C7  UNL     1      50.151  12.095   8.529  1.00  0.00     0.025 C 
HETATM   19  C6  UNL     1      50.330  10.587   8.513  1.00  0.00     0.007 C 
HETATM   20  C5  UNL     1      48.949  10.030   8.886  1.00  0.00    -0.013 C 
HETATM   21  C26 UNL     1      48.035  10.315   7.745  1.00  0.00     0.007 C 
HETATM   22  C25 UNL     1      48.441  11.414   6.833  1.00  0.00     0.025 C 
BRANCH  20  23
HETATM   23  C4  UNL     1      49.111   8.562   9.094  1.00  0.00     0.034 C 
BRANCH  23  24
HETATM   24  C3  UNL     1      48.429   8.118  10.355  1.00  0.00     0.271 C 
BRANCH  24  25
HETATM   25  N1  UNL     1      46.998   8.033  10.216  1.00  0.00     0.080 N 
HETATM   26  C1  UNL     1      46.354   8.633  11.364  1.00  0.00     0.309 C 
HETATM   27  C2  UNL     1      46.596   6.655  10.112  1.00  0.00     0.309 C 
ENDBRANCH  24  25
ENDBRANCH  23  24
ENDBRANCH  20  23
ENDBRANCH  14  17
ENDBRANCH   1  13
BRANCH   8  28
HETATM   28  C15 UNL     1      46.008  16.780  13.198  1.00  0.00     0.223 C 
HETATM   29  O2  UNL     1      45.580  16.392  14.332  1.00  0.00    -0.273 OA
HETATM   30  N4  UNL     1      45.568  18.043  12.714  1.00  0.00    -0.352 N 
ATOM     31  H4  UNL     1      45.909  18.359  11.806  1.00  0.00     0.163 HD
BRANCH  30  32
HETATM   32  C16 UNL     1      44.672  18.891  13.432  1.00  0.00     0.141 C 
HETATM   33  C17 UNL     1      44.508  20.275  12.813  1.00  0.00     0.195 C 
HETATM   34  O3  UNL     1      43.337  20.710  13.387  1.00  0.00    -0.380 OA
HETATM   35  C18 UNL     1      42.467  19.662  13.532  1.00  0.00     0.179 C 
HETATM   36  C19 UNL     1      42.317  19.127  14.944  1.00  0.00     0.266 C 
HETATM   37  C20 UNL     1      43.234  18.377  13.285  1.00  0.00     0.240 C 
HETATM   38  N5  UNL     1      42.687  17.784  14.471  1.00  0.00    -0.064 N 
ATOM     39  H52 UNL     1      43.259  17.172  15.052  1.00  0.00     0.277 HD
ATOM     40  H51 UNL     1      41.984  17.050  14.403  1.00  0.00     0.277 HD
ENDBRANCH  30  32
ENDBRANCH   8  28
TORSDOF 7
ENDMDL
