MODEL 1
REMARK VINA RESULT: -7.031348797      0.000      0.000
REMARK  11 active torsions:
REMARK  status: ('A' for Active; 'I' for Inactive)
REMARK       I    between atoms: N1_2  and  C2_4 
REMARK    1  A    between atoms: C2_4  and  C3_6 
REMARK    2  A    between atoms: C5_13  and  C6_14 
REMARK    3  A    between atoms: C9_21  and  O4_22 
REMARK    4  A    between atoms: C10_24  and  N6_25 
REMARK    5  A    between atoms: N6_25  and  O5_27 
REMARK    6  A    between atoms: C12_29  and  N7_30 
REMARK    7  A    between atoms: N7_30  and  N8_32 
REMARK    8  A    between atoms: N9_34  and  N10_36 
REMARK    9  A    between atoms: N10_36  and  N11_38 
REMARK   10  A    between atoms: N12_41  and  C13_42 
REMARK   11  A    between atoms: C13_42  and  N13_43 
ROOT
HETATM    1  C3  UNL     1      -4.384   2.809   1.053  1.00  0.00     0.148 A 
HETATM    2  N2  UNL     1      -4.667   1.799   0.138  1.00  0.00    -0.279 N 
ATOM      3  H2  UNL     1      -4.531   1.870  -0.870  1.00  0.00     0.189 HD
HETATM    4  N3  UNL     1      -5.127   0.759   0.749  1.00  0.00    -0.234 N 
ATOM      5  H3  UNL     1      -5.412  -0.116   0.310  1.00  0.00     0.209 HD
HETATM    6  N4  UNL     1      -5.165   1.026   2.043  1.00  0.00    -0.231 N 
HETATM    7  C4  UNL     1      -4.703   2.296   2.262  1.00  0.00     0.126 A 
HETATM    8  C5  UNL     1      -4.656   2.808   3.540  1.00  0.00     0.143 A 
HETATM    9  N5  UNL     1      -5.098   1.997   4.576  1.00  0.00    -0.333 N 
ATOM     10  H5  UNL     1      -5.081   2.344   5.535  1.00  0.00     0.168 HD
HETATM   11  C7  UNL     1      -5.543   0.768   4.327  1.00  0.00     0.143 A 
HETATM   12  C8  UNL     1      -5.583   0.264   3.060  1.00  0.00     0.138 A 
HETATM   13  C9  UNL     1      -6.059  -1.032   2.834  1.00  0.00     0.131 A 
HETATM   14  C10 UNL     1      -6.490  -1.814   3.864  1.00  0.00     0.135 A 
HETATM   15  C12 UNL     1      -6.443  -1.278   5.172  1.00  0.00     0.158 A 
HETATM   16  N12 UNL     1      -5.980  -0.034   5.344  1.00  0.00    -0.289 N 
ENDROOT
BRANCH  15  17
HETATM   17  N7  UNL     1      -6.841  -2.052   6.066  1.00  0.00    -0.268 N 
ATOM     18  H7  UNL     1      -7.117  -1.410   6.808  1.00  0.00     0.190 HD
BRANCH  17  19
HETATM   19  N8  UNL     1      -7.097  -3.182   6.572  1.00  0.00    -0.225 N 
HETATM   20  N9  UNL     1      -8.018  -3.954   6.723  1.00  0.00    -0.214 N 
ATOM     21  H9  UNL     1      -7.819  -4.823   7.219  1.00  0.00     0.211 HD
ATOM     22  H8  UNL     1      -6.252  -3.570   6.992  1.00  0.00     0.210 HD
BRANCH  20  23
HETATM   23  N10 UNL     1      -9.309  -3.765   6.284  1.00  0.00    -0.234 N 
ATOM     24  H10 UNL     1      -9.516  -3.647   5.292  1.00  0.00     0.209 HD
BRANCH  23  25
HETATM   25  N11 UNL     1     -10.337  -3.737   7.249  1.00  0.00    -0.330 N 
ATOM     26 2H11 UNL     1     -10.170  -3.313   8.161  1.00  0.00     0.178 HD
ATOM     27 1H11 UNL     1     -11.235  -4.151   7.001  1.00  0.00     0.178 HD
ENDBRANCH  23  25
ENDBRANCH  20  23
ENDBRANCH  17  19
ENDBRANCH  15  17
BRANCH  14  28
HETATM   28  N6  UNL     1      -6.976  -3.145   3.645  1.00  0.00    -0.261 N 
ATOM     29  H6  UNL     1      -6.327  -3.912   3.462  1.00  0.00     0.194 HD
BRANCH  28  30
HETATM   30  O5  UNL     1      -8.308  -3.368   3.685  1.00  0.00    -0.285 OA
HETATM   31  C11 UNL     1      -8.766  -3.697   2.409  1.00  0.00     0.237 C 
ENDBRANCH  28  30
ENDBRANCH  14  28
BRANCH  16  32
HETATM   32  C13 UNL     1      -5.886   0.552   6.674  1.00  0.00     0.362 C 
BRANCH  32  33
HETATM   33  N13 UNL     1      -4.634   0.333   7.320  1.00  0.00    -0.063 N 
ATOM     34 3H13 UNL     1      -4.277  -0.597   7.102  1.00  0.00     0.276 HD
ATOM     35 2H13 UNL     1      -3.905   0.903   6.889  1.00  0.00     0.276 HD
ATOM     36 1H13 UNL     1      -4.653   0.481   8.329  1.00  0.00     0.276 HD
ENDBRANCH  32  33
ENDBRANCH  16  32
BRANCH  13  37
HETATM   37  O4  UNL     1      -6.079  -1.502   1.522  1.00  0.00    -0.356 OA
ATOM     38  H4  UNL     1      -5.814  -2.401   1.367  1.00  0.00     0.218 HD
ENDBRANCH  13  37
BRANCH   8  39
HETATM   39  C6  UNL     1      -4.045   4.044   3.917  1.00  0.00     0.229 C 
HETATM   40  O2  UNL     1      -4.369   5.191   3.742  1.00  0.00    -0.643 OA
HETATM   41  O3  UNL     1      -2.812   3.935   4.651  1.00  0.00    -0.643 OA
ENDBRANCH   8  39
BRANCH   1  42
HETATM   42  C2  UNL     1      -3.895   4.098   0.611  1.00  0.00     0.271 C 
HETATM   43  N1  UNL     1      -4.824   5.176   0.581  1.00  0.00    -0.360 N 
HETATM   44  C1  UNL     1      -4.373   6.473   0.150  1.00  0.00     0.149 C 
ATOM     45  H1  UNL     1      -5.794   5.031   0.862  1.00  0.00     0.162 HD
HETATM   46  O1  UNL     1      -2.709   4.336   0.256  1.00  0.00    -0.266 OA
ENDBRANCH   1  42
TORSDOF 11
ENDMDL
MODEL 2
REMARK VINA RESULT: -6.984566653      2.349      7.463
REMARK  11 active torsions:
REMARK  status: ('A' for Active; 'I' for Inactive)
REMARK       I    between atoms: N1_2  and  C2_4 
REMARK    1  A    between atoms: C2_4  and  C3_6 
REMARK    2  A    between atoms: C5_13  and  C6_14 
REMARK    3  A    between atoms: C9_21  and  O4_22 
REMARK    4  A    between atoms: C10_24  and  N6_25 
REMARK    5  A    between atoms: N6_25  and  O5_27 
REMARK    6  A    between atoms: C12_29  and  N7_30 
REMARK    7  A    between atoms: N7_30  and  N8_32 
REMARK    8  A    between atoms: N9_34  and  N10_36 
REMARK    9  A    between atoms: N10_36  and  N11_38 
REMARK   10  A    between atoms: N12_41  and  C13_42 
REMARK   11  A    between atoms: C13_42  and  N13_43 
ROOT
HETATM    1  C3  UNL     1      -8.394  -3.844   2.467  1.00  0.00     0.148 A 
HETATM    2  N2  UNL     1      -8.184  -3.409   1.161  1.00  0.00    -0.279 N 
ATOM      3  H2  UNL     1      -8.689  -3.752   0.344  1.00  0.00     0.189 HD
HETATM    4  N3  UNL     1      -7.258  -2.511   1.133  1.00  0.00    -0.234 N 
ATOM      5  H3  UNL     1      -6.914  -2.032   0.301  1.00  0.00     0.209 HD
HETATM    6  N4  UNL     1      -6.834  -2.319   2.370  1.00  0.00    -0.231 N 
HETATM    7  C4  UNL     1      -7.528  -3.134   3.223  1.00  0.00     0.126 A 
HETATM    8  C5  UNL     1      -7.255  -3.120   4.574  1.00  0.00     0.143 A 
HETATM    9  N5  UNL     1      -6.257  -2.265   5.021  1.00  0.00    -0.333 N 
ATOM     10  H5  UNL     1      -6.025  -2.231   6.013  1.00  0.00     0.168 HD
HETATM   11  C7  UNL     1      -5.600  -1.489   4.163  1.00  0.00     0.143 A 
HETATM   12  C8  UNL     1      -5.878  -1.502   2.827  1.00  0.00     0.138 A 
HETATM   13  C9  UNL     1      -5.166  -0.673   1.953  1.00  0.00     0.131 A 
HETATM   14  C10 UNL     1      -4.188   0.159   2.410  1.00  0.00     0.135 A 
HETATM   15  C12 UNL     1      -3.911   0.162   3.797  1.00  0.00     0.158 A 
HETATM   16  N12 UNL     1      -4.616  -0.646   4.598  1.00  0.00    -0.289 N 
ENDROOT
BRANCH  15  17
HETATM   17  N7  UNL     1      -3.014   0.956   4.146  1.00  0.00    -0.268 N 
ATOM     18  H7  UNL     1      -2.181   0.367   4.133  1.00  0.00     0.190 HD
BRANCH  17  19
HETATM   19  N8  UNL     1      -2.551   2.076   4.506  1.00  0.00    -0.225 N 
HETATM   20  N9  UNL     1      -2.883   3.236   4.613  1.00  0.00    -0.214 N 
ATOM     21  H9  UNL     1      -2.182   3.889   4.963  1.00  0.00     0.211 HD
ATOM     22  H8  UNL     1      -1.582   1.967   4.805  1.00  0.00     0.210 HD
BRANCH  20  23
HETATM   23  N10 UNL     1      -4.122   3.752   4.303  1.00  0.00    -0.234 N 
ATOM     24  H10 UNL     1      -4.976   3.320   4.658  1.00  0.00     0.209 HD
BRANCH  23  25
HETATM   25  N11 UNL     1      -4.173   4.895   3.481  1.00  0.00    -0.330 N 
ATOM     26 2H11 UNL     1      -3.310   5.342   3.172  1.00  0.00     0.178 HD
ATOM     27 1H11 UNL     1      -5.091   5.250   3.214  1.00  0.00     0.178 HD
ENDBRANCH  23  25
ENDBRANCH  20  23
ENDBRANCH  17  19
ENDBRANCH  15  17
BRANCH  14  28
HETATM   28  N6  UNL     1      -3.456   1.016   1.524  1.00  0.00    -0.261 N 
ATOM     29  H6  UNL     1      -2.865   0.623   0.791  1.00  0.00     0.194 HD
BRANCH  28  30
HETATM   30  O5  UNL     1      -3.562   2.355   1.678  1.00  0.00    -0.285 OA
HETATM   31  C11 UNL     1      -2.650   2.995   0.838  1.00  0.00     0.237 C 
ENDBRANCH  28  30
ENDBRANCH  14  28
BRANCH  16  32
HETATM   32  C13 UNL     1      -4.387  -0.659   6.037  1.00  0.00     0.362 C 
BRANCH  32  33
HETATM   33  N13 UNL     1      -5.075   0.369   6.745  1.00  0.00    -0.063 N 
ATOM     34 3H13 UNL     1      -4.551   1.243   6.707  1.00  0.00     0.276 HD
ATOM     35 2H13 UNL     1      -5.916   0.650   6.240  1.00  0.00     0.276 HD
ATOM     36 1H13 UNL     1      -5.302   0.131   7.711  1.00  0.00     0.276 HD
ENDBRANCH  32  33
ENDBRANCH  16  32
BRANCH  13  37
HETATM   37  O4  UNL     1      -5.487  -0.723   0.598  1.00  0.00    -0.356 OA
ATOM     38  H4  UNL     1      -4.790  -0.915  -0.018  1.00  0.00     0.218 HD
ENDBRANCH  13  37
BRANCH   8  39
HETATM   39  C6  UNL     1      -8.014  -3.792   5.581  1.00  0.00     0.229 C 
HETATM   40  O2  UNL     1      -9.181  -3.743   5.879  1.00  0.00    -0.643 OA
HETATM   41  O3  UNL     1      -7.280  -4.710   6.410  1.00  0.00    -0.643 OA
ENDBRANCH   8  39
BRANCH   1  42
HETATM   42  C2  UNL     1      -9.356  -4.885   2.760  1.00  0.00     0.271 C 
HETATM   43  N1  UNL     1     -10.651  -4.477   3.190  1.00  0.00    -0.360 N 
HETATM   44  C1  UNL     1     -11.634  -5.485   3.489  1.00  0.00     0.149 C 
ATOM     45  H1  UNL     1     -10.877  -3.487   3.284  1.00  0.00     0.162 HD
HETATM   46  O1  UNL     1      -9.134  -6.121   2.659  1.00  0.00    -0.266 OA
ENDBRANCH   1  42
TORSDOF 11
ENDMDL
MODEL 3
REMARK VINA RESULT: -6.935379765      2.610      7.730
REMARK  11 active torsions:
REMARK  status: ('A' for Active; 'I' for Inactive)
REMARK       I    between atoms: N1_2  and  C2_4 
REMARK    1  A    between atoms: C2_4  and  C3_6 
REMARK    2  A    between atoms: C5_13  and  C6_14 
REMARK    3  A    between atoms: C9_21  and  O4_22 
REMARK    4  A    between atoms: C10_24  and  N6_25 
REMARK    5  A    between atoms: N6_25  and  O5_27 
REMARK    6  A    between atoms: C12_29  and  N7_30 
REMARK    7  A    between atoms: N7_30  and  N8_32 
REMARK    8  A    between atoms: N9_34  and  N10_36 
REMARK    9  A    between atoms: N10_36  and  N11_38 
REMARK   10  A    between atoms: N12_41  and  C13_42 
REMARK   11  A    between atoms: C13_42  and  N13_43 
ROOT
HETATM    1  C3  UNL     1      -8.857  -3.868   2.906  1.00  0.00     0.148 A 
HETATM    2  N2  UNL     1      -9.254  -3.273   1.713  1.00  0.00    -0.279 N 
ATOM      3  H2  UNL     1      -9.863  -3.706   1.019  1.00  0.00     0.189 HD
HETATM    4  N3  UNL     1      -8.739  -2.094   1.608  1.00  0.00    -0.234 N 
ATOM      5  H3  UNL     1      -8.871  -1.450   0.829  1.00  0.00     0.209 HD
HETATM    6  N4  UNL     1      -8.010  -1.867   2.687  1.00  0.00    -0.231 N 
HETATM    7  C4  UNL     1      -8.068  -2.955   3.516  1.00  0.00     0.126 A 
HETATM    8  C5  UNL     1      -7.377  -2.959   4.708  1.00  0.00     0.143 A 
HETATM    9  N5  UNL     1      -6.624  -1.835   5.020  1.00  0.00    -0.333 N 
ATOM     10  H5  UNL     1      -6.096  -1.805   5.892  1.00  0.00     0.168 HD
HETATM   11  C7  UNL     1      -6.587  -0.797   4.189  1.00  0.00     0.143 A 
HETATM   12  C8  UNL     1      -7.278  -0.796   3.012  1.00  0.00     0.138 A 
HETATM   13  C9  UNL     1      -7.215   0.314   2.162  1.00  0.00     0.131 A 
HETATM   14  C10 UNL     1      -6.469   1.408   2.484  1.00  0.00     0.135 A 
HETATM   15  C12 UNL     1      -5.758   1.393   3.707  1.00  0.00     0.158 A 
HETATM   16  N12 UNL     1      -5.846   0.311   4.491  1.00  0.00    -0.289 N 
ENDROOT
BRANCH  15  17
HETATM   17  N7  UNL     1      -5.107   2.430   3.942  1.00  0.00    -0.268 N 
ATOM     18  H7  UNL     1      -4.169   2.178   3.631  1.00  0.00     0.190 HD
BRANCH  17  19
HETATM   19  N8  UNL     1      -4.951   3.618   4.348  1.00  0.00    -0.225 N 
HETATM   20  N9  UNL     1      -4.575   4.700   3.956  1.00  0.00    -0.214 N 
ATOM     21  H9  UNL     1      -4.596   5.469   4.625  1.00  0.00     0.211 HD
ATOM     22  H8  UNL     1      -5.235   3.686   5.326  1.00  0.00     0.210 HD
BRANCH  20  23
HETATM   23  N10 UNL     1      -4.120   4.984   2.687  1.00  0.00    -0.234 N 
ATOM     24  H10 UNL     1      -3.325   4.483   2.288  1.00  0.00     0.209 HD
BRANCH  23  25
HETATM   25  N11 UNL     1      -4.787   5.989   1.957  1.00  0.00    -0.330 N 
ATOM     26 2H11 UNL     1      -4.791   5.963   0.938  1.00  0.00     0.178 HD
ATOM     27 1H11 UNL     1      -5.255   6.728   2.482  1.00  0.00     0.178 HD
ENDBRANCH  23  25
ENDBRANCH  20  23
ENDBRANCH  17  19
ENDBRANCH  15  17
BRANCH  14  28
HETATM   28  N6  UNL     1      -6.401   2.552   1.622  1.00  0.00    -0.261 N 
ATOM     29  H6  UNL     1      -5.996   2.476   0.689  1.00  0.00     0.194 HD
BRANCH  28  30
HETATM   30  O5  UNL     1      -6.883   3.733   2.068  1.00  0.00    -0.285 OA
HETATM   31  C11 UNL     1      -7.867   4.196   1.195  1.00  0.00     0.237 C 
ENDBRANCH  28  30
ENDBRANCH  14  28
BRANCH  16  32
HETATM   32  C13 UNL     1      -5.155   0.259   5.773  1.00  0.00     0.362 C 
BRANCH  32  33
HETATM   33  N13 UNL     1      -5.912   0.775   6.865  1.00  0.00    -0.063 N 
ATOM     34 3H13 UNL     1      -6.807   1.139   6.539  1.00  0.00     0.276 HD
ATOM     35 2H13 UNL     1      -6.240   0.017   7.462  1.00  0.00     0.276 HD
ATOM     36 1H13 UNL     1      -5.421   1.479   7.417  1.00  0.00     0.276 HD
ENDBRANCH  32  33
ENDBRANCH  16  32
BRANCH  13  37
HETATM   37  O4  UNL     1      -7.939   0.266   0.972  1.00  0.00    -0.356 OA
ATOM     38  H4  UNL     1      -8.229   1.089   0.594  1.00  0.00     0.218 HD
ENDBRANCH  13  37
BRANCH   8  39
HETATM   39  C6  UNL     1      -7.488  -3.953   5.729  1.00  0.00     0.229 C 
HETATM   40  O2  UNL     1      -8.329  -4.157   6.568  1.00  0.00    -0.643 OA
HETATM   41  O3  UNL     1      -6.415  -4.908   5.793  1.00  0.00    -0.643 OA
ENDBRANCH   8  39
BRANCH   1  42
HETATM   42  C2  UNL     1      -9.268  -5.216   3.240  1.00  0.00     0.271 C 
HETATM   43  N1  UNL     1     -10.657  -5.515   3.160  1.00  0.00    -0.360 N 
HETATM   44  C1  UNL     1     -11.103  -6.845   3.482  1.00  0.00     0.149 C 
ATOM     45  H1  UNL     1     -11.326  -4.798   2.877  1.00  0.00     0.162 HD
HETATM   46  O1  UNL     1      -8.488  -6.141   3.593  1.00  0.00    -0.266 OA
ENDBRANCH   1  42
TORSDOF 11
ENDMDL
MODEL 4
REMARK VINA RESULT: -6.887327939      1.203      1.288
REMARK  11 active torsions:
REMARK  status: ('A' for Active; 'I' for Inactive)
REMARK       I    between atoms: N1_2  and  C2_4 
REMARK    1  A    between atoms: C2_4  and  C3_6 
REMARK    2  A    between atoms: C5_13  and  C6_14 
REMARK    3  A    between atoms: C9_21  and  O4_22 
REMARK    4  A    between atoms: C10_24  and  N6_25 
REMARK    5  A    between atoms: N6_25  and  O5_27 
REMARK    6  A    between atoms: C12_29  and  N7_30 
REMARK    7  A    between atoms: N7_30  and  N8_32 
REMARK    8  A    between atoms: N9_34  and  N10_36 
REMARK    9  A    between atoms: N10_36  and  N11_38 
REMARK   10  A    between atoms: N12_41  and  C13_42 
REMARK   11  A    between atoms: C13_42  and  N13_43 
ROOT
HETATM    1  C3  UNL     1      -5.570   3.447   0.836  1.00  0.00     0.148 A 
HETATM    2  N2  UNL     1      -6.554   2.809   0.087  1.00  0.00    -0.279 N 
ATOM      3  H2  UNL     1      -6.864   3.101  -0.839  1.00  0.00     0.189 HD
HETATM    4  N3  UNL     1      -7.019   1.794   0.735  1.00  0.00    -0.234 N 
ATOM      5  H3  UNL     1      -7.748   1.159   0.410  1.00  0.00     0.209 HD
HETATM    6  N4  UNL     1      -6.385   1.719   1.892  1.00  0.00    -0.231 N 
HETATM    7  C4  UNL     1      -5.473   2.736   1.980  1.00  0.00     0.126 A 
HETATM    8  C5  UNL     1      -4.691   2.873   3.107  1.00  0.00     0.143 A 
HETATM    9  N5  UNL     1      -4.875   1.957   4.134  1.00  0.00    -0.333 N 
ATOM     10  H5  UNL     1      -4.317   2.031   4.985  1.00  0.00     0.168 HD
HETATM   11  C7  UNL     1      -5.773   0.983   4.016  1.00  0.00     0.143 A 
HETATM   12  C8  UNL     1      -6.540   0.848   2.896  1.00  0.00     0.138 A 
HETATM   13  C9  UNL     1      -7.477  -0.188   2.807  1.00  0.00     0.131 A 
HETATM   14  C10 UNL     1      -7.644  -1.077   3.826  1.00  0.00     0.135 A 
HETATM   15  C12 UNL     1      -6.842  -0.925   4.981  1.00  0.00     0.158 A 
HETATM   16  N12 UNL     1      -5.958   0.080   5.025  1.00  0.00    -0.289 N 
ENDROOT
BRANCH  15  17
HETATM   17  N7  UNL     1      -7.040  -1.780   5.867  1.00  0.00    -0.268 N 
ATOM     18  H7  UNL     1      -7.756  -1.338   6.444  1.00  0.00     0.190 HD
BRANCH  17  19
HETATM   19  N8  UNL     1      -6.856  -2.884   6.455  1.00  0.00    -0.225 N 
HETATM   20  N9  UNL     1      -7.437  -3.913   6.720  1.00  0.00    -0.214 N 
ATOM     21  H9  UNL     1      -6.920  -4.616   7.248  1.00  0.00     0.211 HD
ATOM     22  H8  UNL     1      -5.908  -2.919   6.830  1.00  0.00     0.210 HD
BRANCH  20  23
HETATM   23  N10 UNL     1      -8.734  -4.218   6.371  1.00  0.00    -0.234 N 
ATOM     24  H10 UNL     1      -8.951  -4.637   5.466  1.00  0.00     0.209 HD
BRANCH  23  25
HETATM   25  N11 UNL     1      -9.752  -3.934   7.304  1.00  0.00    -0.330 N 
ATOM     26 2H11 UNL     1      -9.716  -3.077   7.856  1.00  0.00     0.178 HD
ATOM     27 1H11 UNL     1     -10.510  -4.609   7.402  1.00  0.00     0.178 HD
ENDBRANCH  23  25
ENDBRANCH  20  23
ENDBRANCH  17  19
ENDBRANCH  15  17
BRANCH  14  28
HETATM   28  N6  UNL     1      -8.597  -2.145   3.743  1.00  0.00    -0.261 N 
ATOM     29  H6  UNL     1      -9.599  -1.948   3.742  1.00  0.00     0.194 HD
BRANCH  28  30
HETATM   30  O5  UNL     1      -8.146  -3.416   3.667  1.00  0.00    -0.285 OA
HETATM   31  C11 UNL     1      -8.954  -4.148   2.796  1.00  0.00     0.237 C 
ENDBRANCH  28  30
ENDBRANCH  14  28
BRANCH  16  32
HETATM   32  C13 UNL     1      -5.090   0.261   6.180  1.00  0.00     0.362 C 
BRANCH  32  33
HETATM   33  N13 UNL     1      -5.712   0.926   7.278  1.00  0.00    -0.063 N 
ATOM     34 3H13 UNL     1      -5.605   1.936   7.191  1.00  0.00     0.276 HD
ATOM     35 2H13 UNL     1      -6.727   0.853   7.211  1.00  0.00     0.276 HD
ATOM     36 1H13 UNL     1      -5.390   0.610   8.194  1.00  0.00     0.276 HD
ENDBRANCH  32  33
ENDBRANCH  16  32
BRANCH  13  37
HETATM   37  O4  UNL     1      -8.236  -0.283   1.642  1.00  0.00    -0.356 OA
ATOM     38  H4  UNL     1      -8.947  -0.913   1.624  1.00  0.00     0.218 HD
ENDBRANCH  13  37
BRANCH   8  39
HETATM   39  C6  UNL     1      -3.596   3.780   3.253  1.00  0.00     0.229 C 
HETATM   40  O2  UNL     1      -2.426   3.682   2.982  1.00  0.00    -0.643 OA
HETATM   41  O3  UNL     1      -3.917   5.062   3.820  1.00  0.00    -0.643 OA
ENDBRANCH   8  39
BRANCH   1  42
HETATM   42  C2  UNL     1      -4.920   4.645   0.345  1.00  0.00     0.271 C 
HETATM   43  N1  UNL     1      -5.202   5.866   1.021  1.00  0.00    -0.360 N 
HETATM   44  C1  UNL     1      -4.573   7.077   0.562  1.00  0.00     0.149 C 
ATOM     45  H1  UNL     1      -5.839   5.881   1.817  1.00  0.00     0.162 HD
HETATM   46  O1  UNL     1      -4.124   4.684  -0.631  1.00  0.00    -0.266 OA
ENDBRANCH   1  42
TORSDOF 11
ENDMDL
MODEL 5
REMARK VINA RESULT: -6.835477328      4.661      8.057
REMARK  11 active torsions:
REMARK  status: ('A' for Active; 'I' for Inactive)
REMARK       I    between atoms: N1_2  and  C2_4 
REMARK    1  A    between atoms: C2_4  and  C3_6 
REMARK    2  A    between atoms: C5_13  and  C6_14 
REMARK    3  A    between atoms: C9_21  and  O4_22 
REMARK    4  A    between atoms: C10_24  and  N6_25 
REMARK    5  A    between atoms: N6_25  and  O5_27 
REMARK    6  A    between atoms: C12_29  and  N7_30 
REMARK    7  A    between atoms: N7_30  and  N8_32 
REMARK    8  A    between atoms: N9_34  and  N10_36 
REMARK    9  A    between atoms: N10_36  and  N11_38 
REMARK   10  A    between atoms: N12_41  and  C13_42 
REMARK   11  A    between atoms: C13_42  and  N13_43 
ROOT
HETATM    1  C3  UNL     1      -7.994  -1.863   3.563  1.00  0.00     0.148 A 
HETATM    2  N2  UNL     1      -8.552  -0.675   3.102  1.00  0.00    -0.279 N 
ATOM      3  H2  UNL     1      -8.027   0.092   2.682  1.00  0.00     0.189 HD
HETATM    4  N3  UNL     1      -9.830  -0.683   3.282  1.00  0.00    -0.234 N 
ATOM      5  H3  UNL     1     -10.474   0.068   3.032  1.00  0.00     0.209 HD
HETATM    6  N4  UNL     1     -10.158  -1.832   3.845  1.00  0.00    -0.231 N 
HETATM    7  C4  UNL     1      -9.033  -2.590   4.029  1.00  0.00     0.126 A 
HETATM    8  C5  UNL     1      -9.121  -3.835   4.612  1.00  0.00     0.143 A 
HETATM    9  N5  UNL     1     -10.377  -4.274   5.007  1.00  0.00    -0.333 N 
ATOM     10  H5  UNL     1     -10.479  -5.189   5.446  1.00  0.00     0.168 HD
HETATM   11  C7  UNL     1     -11.449  -3.510   4.817  1.00  0.00     0.143 A 
HETATM   12  C8  UNL     1     -11.358  -2.280   4.233  1.00  0.00     0.138 A 
HETATM   13  C9  UNL     1     -12.507  -1.502   4.050  1.00  0.00     0.131 A 
HETATM   14  C10 UNL     1     -13.732  -1.949   4.446  1.00  0.00     0.135 A 
HETATM   15  C12 UNL     1     -13.811  -3.227   5.049  1.00  0.00     0.158 A 
HETATM   16  N12 UNL     1     -12.688  -3.938   5.205  1.00  0.00    -0.289 N 
ENDROOT
BRANCH  15  17
HETATM   17  N7  UNL     1     -14.964  -3.577   5.374  1.00  0.00    -0.268 N 
ATOM     18  H7  UNL     1     -15.548  -3.016   4.754  1.00  0.00     0.190 HD
BRANCH  17  19
HETATM   19  N8  UNL     1     -15.818  -4.232   6.037  1.00  0.00    -0.225 N 
HETATM   20  N9  UNL     1     -16.450  -5.264   5.988  1.00  0.00    -0.214 N 
ATOM     21  H9  UNL     1     -17.083  -5.458   6.764  1.00  0.00     0.211 HD
ATOM     22  H8  UNL     1     -16.050  -3.728   6.892  1.00  0.00     0.210 HD
BRANCH  20  23
HETATM   23  N10 UNL     1     -16.391  -6.199   4.978  1.00  0.00    -0.234 N 
ATOM     24  H10 UNL     1     -15.525  -6.698   4.773  1.00  0.00     0.209 HD
BRANCH  23  25
HETATM   25  N11 UNL     1     -17.565  -6.444   4.237  1.00  0.00    -0.330 N 
ATOM     26 2H11 UNL     1     -18.477  -6.220   4.635  1.00  0.00     0.178 HD
ATOM     27 1H11 UNL     1     -17.466  -6.847   3.306  1.00  0.00     0.178 HD
ENDBRANCH  23  25
ENDBRANCH  20  23
ENDBRANCH  17  19
ENDBRANCH  15  17
BRANCH  14  28
HETATM   28  N6  UNL     1     -14.916  -1.163   4.258  1.00  0.00    -0.261 N 
ATOM     29  H6  UNL     1     -15.697  -1.524   3.710  1.00  0.00     0.194 HD
BRANCH  28  30
HETATM   30  O5  UNL     1     -14.978   0.064   4.821  1.00  0.00    -0.285 OA
HETATM   31  C11 UNL     1     -15.471  -0.042   6.122  1.00  0.00     0.237 C 
ENDBRANCH  28  30
ENDBRANCH  14  28
BRANCH  16  32
HETATM   32  C13 UNL     1     -12.722  -5.270   5.795  1.00  0.00     0.362 C 
BRANCH  32  33
HETATM   33  N13 UNL     1     -13.011  -6.312   4.866  1.00  0.00    -0.063 N 
ATOM     34 3H13 UNL     1     -13.940  -6.695   5.035  1.00  0.00     0.276 HD
ATOM     35 2H13 UNL     1     -13.150  -5.928   3.931  1.00  0.00     0.276 HD
ATOM     36 1H13 UNL     1     -12.315  -7.058   4.846  1.00  0.00     0.276 HD
ENDBRANCH  32  33
ENDBRANCH  16  32
BRANCH  13  37
HETATM   37  O4  UNL     1     -12.361  -0.254   3.449  1.00  0.00    -0.356 OA
ATOM     38  H4  UNL     1     -12.233  -0.224   2.508  1.00  0.00     0.218 HD
ENDBRANCH  13  37
BRANCH   8  39
HETATM   39  C6  UNL     1      -8.057  -4.785   4.706  1.00  0.00     0.229 C 
HETATM   40  O2  UNL     1      -7.748  -5.721   4.013  1.00  0.00    -0.643 OA
HETATM   41  O3  UNL     1      -7.166  -4.618   5.822  1.00  0.00    -0.643 OA
ENDBRANCH   8  39
BRANCH   1  42
HETATM   42  C2  UNL     1      -6.563  -2.083   3.513  1.00  0.00     0.271 C 
HETATM   43  N1  UNL     1      -5.839  -1.955   4.732  1.00  0.00    -0.360 N 
HETATM   44  C1  UNL     1      -4.415  -2.168   4.721  1.00  0.00     0.149 C 
ATOM     45  H1  UNL     1      -6.321  -1.716   5.598  1.00  0.00     0.162 HD
HETATM   46  O1  UNL     1      -5.916  -2.381   2.474  1.00  0.00    -0.266 OA
ENDBRANCH   1  42
TORSDOF 11
ENDMDL
