MODEL 1
REMARK VINA RESULT: -6.265760689      0.000      0.000
REMARK  14 active torsions:
REMARK  status: ('A' for Active; 'I' for Inactive)
REMARK    1  A    between atoms: C2_2  and  C4_4 
REMARK    2  A    between atoms: C4_4  and  O2_6 
REMARK    3  A    between atoms: O2_6  and  C5_7 
REMARK    4  A    between atoms: C8_10  and  C9_11 
REMARK    5  A    between atoms: C9_11  and  C11_13 
REMARK    6  A    between atoms: C11_13  and  N1_15 
REMARK    7  A    between atoms: N1_15  and  C13_17 
REMARK    8  A    between atoms: C13_17  and  C14_18 
REMARK    9  A    between atoms: C16_20  and  C17_21 
REMARK   10  A    between atoms: C20_27  and  O3_28 
REMARK   11  A    between atoms: C22_33  and  C24_35 
REMARK   12  A    between atoms: C24_35  and  C25_36 
REMARK   13  A    between atoms: C26_37  and  O6_38 
REMARK   14  A    between atoms: C26_37  and  C27_40 
ROOT
HETATM    1  C5  UNL     1      17.256  13.716  21.159  1.00  0.00     0.146 C 
HETATM    2  C6  UNL     1      16.956  13.906  22.563  1.00  0.00     0.036 C 
HETATM    3  C7  UNL     1      17.385  14.488  23.767  1.00  0.00     0.040 C 
HETATM    4  C8  UNL     1      16.148  14.413  24.764  1.00  0.00     0.162 C 
HETATM    5  O4  UNL     1      15.083  13.704  24.261  1.00  0.00    -0.310 OA
HETATM    6  C21 UNL     1      14.040  13.575  23.424  1.00  0.00     0.279 C 
HETATM    7  O5  UNL     1      12.991  14.329  23.471  1.00  0.00    -0.263 OA
HETATM    8  C22 UNL     1      13.928  12.548  22.322  1.00  0.00     0.099 C 
HETATM    9  C23 UNL     1      12.576  12.783  21.577  1.00  0.00     0.039 C 
HETATM   10  C31 UNL     1      14.989  12.709  21.373  1.00  0.00    -0.156 C 
HETATM   11  C32 UNL     1      16.135  12.752  20.572  1.00  0.00     0.079 C 
HETATM   12  C33 UNL     1      16.715  11.399  20.235  1.00  0.00     0.025 C 
ENDROOT
BRANCH   4  13
HETATM   13  C9  UNL     1      15.956  15.788  25.264  1.00  0.00    -0.033 C 
HETATM   14  C10 UNL     1      14.839  15.990  26.276  1.00  0.00     0.048 C 
BRANCH  13  15
HETATM   15  C11 UNL     1      17.059  16.722  25.369  1.00  0.00     0.005 C 
HETATM   16  C12 UNL     1      17.401  17.112  26.842  1.00  0.00     0.068 C 
BRANCH  15  17
HETATM   17  N1  UNL     1      17.191  17.903  24.599  1.00  0.00    -0.389 N 
ATOM     18  H1  UNL     1      17.840  17.938  23.813  1.00  0.00     0.159 HD
BRANCH  17  19
HETATM   19  C13 UNL     1      16.403  19.045  24.939  1.00  0.00     0.161 C 
BRANCH  19  20
HETATM   20  C14 UNL     1      15.329  19.319  23.970  1.00  0.00    -0.007 A 
HETATM   21  C15 UNL     1      14.017  18.913  24.263  1.00  0.00     0.027 A 
HETATM   22  C16 UNL     1      12.994  18.870  23.398  1.00  0.00     0.048 A 
HETATM   23  C18 UNL     1      13.195  19.263  22.086  1.00  0.00     0.019 A 
HETATM   24  C19 UNL     1      14.477  19.672  21.733  1.00  0.00     0.038 A 
HETATM   25  C20 UNL     1      15.504  19.692  22.647  1.00  0.00     0.073 A 
BRANCH  22  26
HETATM   26  C17 UNL     1      11.672  18.332  23.850  1.00  0.00     0.417 C 
HETATM   27  F1  UNL     1      10.964  19.360  24.388  1.00  0.00    -0.166 F 
HETATM   28  F2  UNL     1      11.029  17.642  22.875  1.00  0.00    -0.166 F 
HETATM   29  F3  UNL     1      11.958  17.423  24.904  1.00  0.00    -0.166 F 
ENDBRANCH  22  26
BRANCH  25  30
HETATM   30  O3  UNL     1      16.785  20.109  22.233  1.00  0.00    -0.360 OA
ATOM     31  H3  UNL     1      17.202  19.644  21.518  1.00  0.00     0.217 HD
ENDBRANCH  25  30
ENDBRANCH  19  20
ENDBRANCH  17  19
ENDBRANCH  15  17
ENDBRANCH  13  15
ENDBRANCH   4  13
BRANCH   1  32
HETATM   32  O2  UNL     1      17.369  14.807  20.329  1.00  0.00    -0.315 OA
BRANCH  32  33
HETATM   33  C4  UNL     1      17.678  14.937  19.029  1.00  0.00     0.262 C 
HETATM   34  O1  UNL     1      16.907  15.636  18.306  1.00  0.00    -0.265 OA
BRANCH  33  35
HETATM   35  C2  UNL     1      18.908  14.250  18.519  1.00  0.00     0.077 C 
HETATM   36  C1  UNL     1      20.112  14.728  19.287  1.00  0.00     0.020 C 
HETATM   37  C3  UNL     1      19.035  14.689  17.070  1.00  0.00     0.020 C 
ENDBRANCH  33  35
ENDBRANCH  32  33
ENDBRANCH   1  32
BRANCH   8  38
HETATM   38  C24 UNL     1      13.736  11.181  22.913  1.00  0.00     0.061 C 
BRANCH  38  39
HETATM   39  C25 UNL     1      14.889  10.264  22.835  1.00  0.00     0.008 C 
HETATM   40  C26 UNL     1      15.611  10.148  23.927  1.00  0.00     0.047 C 
BRANCH  40  41
HETATM   41  O6  UNL     1      15.185  10.919  25.048  1.00  0.00    -0.364 OA
ATOM     42  H6  UNL     1      15.347  11.854  25.000  1.00  0.00     0.217 HD
ENDBRANCH  40  41
BRANCH  40  43
HETATM   43  C27 UNL     1      16.793   9.364  24.198  1.00  0.00    -0.003 C 
HETATM   44  C28 UNL     1      18.071  10.218  23.992  1.00  0.00     0.021 C 
HETATM   45  C29 UNL     1      16.824   9.010  25.673  1.00  0.00     0.021 C 
HETATM   46  C30 UNL     1      17.016   8.134  23.373  1.00  0.00     0.021 C 
ENDBRANCH  40  43
ENDBRANCH  38  39
ENDBRANCH   8  38
TORSDOF 14
ENDMDL
MODEL 2
REMARK VINA RESULT: -6.092838833      4.977      7.988
REMARK  14 active torsions:
REMARK  status: ('A' for Active; 'I' for Inactive)
REMARK    1  A    between atoms: C2_2  and  C4_4 
REMARK    2  A    between atoms: C4_4  and  O2_6 
REMARK    3  A    between atoms: O2_6  and  C5_7 
REMARK    4  A    between atoms: C8_10  and  C9_11 
REMARK    5  A    between atoms: C9_11  and  C11_13 
REMARK    6  A    between atoms: C11_13  and  N1_15 
REMARK    7  A    between atoms: N1_15  and  C13_17 
REMARK    8  A    between atoms: C13_17  and  C14_18 
REMARK    9  A    between atoms: C16_20  and  C17_21 
REMARK   10  A    between atoms: C20_27  and  O3_28 
REMARK   11  A    between atoms: C22_33  and  C24_35 
REMARK   12  A    between atoms: C24_35  and  C25_36 
REMARK   13  A    between atoms: C26_37  and  O6_38 
REMARK   14  A    between atoms: C26_37  and  C27_40 
ROOT
HETATM    1  C5  UNL     1       8.894  11.694  25.710  1.00  0.00     0.146 C 
HETATM    2  C6  UNL     1      10.274  11.327  25.465  1.00  0.00     0.036 C 
HETATM    3  C7  UNL     1      11.152  10.643  24.610  1.00  0.00     0.040 C 
HETATM    4  C8  UNL     1      12.619  11.100  25.018  1.00  0.00     0.162 C 
HETATM    5  O4  UNL     1      12.652  11.894  26.140  1.00  0.00    -0.310 OA
HETATM    6  C21 UNL     1      12.431  13.062  26.767  1.00  0.00     0.279 C 
HETATM    7  O5  UNL     1      13.049  14.158  26.471  1.00  0.00    -0.263 OA
HETATM    8  C22 UNL     1      11.448  13.274  27.895  1.00  0.00     0.099 C 
HETATM    9  C23 UNL     1      11.489  14.782  28.295  1.00  0.00     0.039 C 
HETATM   10  C31 UNL     1      10.116  12.965  27.469  1.00  0.00    -0.156 C 
HETATM   11  C32 UNL     1       8.861  12.471  27.097  1.00  0.00     0.079 C 
HETATM   12  C33 UNL     1       8.175  11.644  28.159  1.00  0.00     0.025 C 
ENDROOT
BRANCH   4  13
HETATM   13  C9  UNL     1      13.258  11.555  23.767  1.00  0.00    -0.033 C 
HETATM   14  C10 UNL     1      14.040  10.509  22.989  1.00  0.00     0.048 C 
BRANCH  13  15
HETATM   15  C11 UNL     1      12.693  12.623  22.968  1.00  0.00     0.005 C 
HETATM   16  C12 UNL     1      13.403  12.806  21.589  1.00  0.00     0.068 C 
BRANCH  15  17
HETATM   17  N1  UNL     1      12.407  13.924  23.448  1.00  0.00    -0.389 N 
ATOM     18  H1  UNL     1      13.158  14.532  23.773  1.00  0.00     0.159 HD
BRANCH  17  19
HETATM   19  C13 UNL     1      11.051  14.373  23.471  1.00  0.00     0.161 C 
BRANCH  19  20
HETATM   20  C14 UNL     1      10.868  15.631  24.214  1.00  0.00    -0.007 A 
HETATM   21  C15 UNL     1       9.830  15.729  25.155  1.00  0.00     0.027 A 
HETATM   22  C16 UNL     1       9.387  16.859  25.724  1.00  0.00     0.048 A 
HETATM   23  C18 UNL     1       9.982  18.065  25.396  1.00  0.00     0.019 A 
HETATM   24  C19 UNL     1      11.015  18.033  24.464  1.00  0.00     0.038 A 
HETATM   25  C20 UNL     1      11.435  16.854  23.895  1.00  0.00     0.073 A 
BRANCH  22  26
HETATM   26  C17 UNL     1       8.212  16.803  26.650  1.00  0.00     0.417 C 
HETATM   27  F1  UNL     1       7.091  17.036  25.918  1.00  0.00    -0.166 F 
HETATM   28  F2  UNL     1       8.187  15.668  27.391  1.00  0.00    -0.166 F 
HETATM   29  F3  UNL     1       8.364  17.897  27.544  1.00  0.00    -0.166 F 
ENDBRANCH  22  26
BRANCH  25  30
HETATM   30  O3  UNL     1      12.481  16.881  22.950  1.00  0.00    -0.360 OA
ATOM     31  H3  UNL     1      12.287  17.182  22.071  1.00  0.00     0.217 HD
ENDBRANCH  25  30
ENDBRANCH  19  20
ENDBRANCH  17  19
ENDBRANCH  15  17
ENDBRANCH  13  15
ENDBRANCH   4  13
BRANCH   1  32
HETATM   32  O2  UNL     1       8.207  12.439  24.779  1.00  0.00    -0.315 OA
BRANCH  32  33
HETATM   33  C4  UNL     1       6.900  12.667  24.579  1.00  0.00     0.262 C 
HETATM   34  O1  UNL     1       6.201  11.720  24.110  1.00  0.00    -0.265 OA
BRANCH  33  35
HETATM   35  C2  UNL     1       6.353  14.019  24.920  1.00  0.00     0.077 C 
HETATM   36  C1  UNL     1       5.554  13.937  26.194  1.00  0.00     0.020 C 
HETATM   37  C3  UNL     1       5.425  14.374  23.771  1.00  0.00     0.020 C 
ENDBRANCH  33  35
ENDBRANCH  32  33
ENDBRANCH   1  32
BRANCH   8  38
HETATM   38  C24 UNL     1      11.946  12.598  29.140  1.00  0.00     0.061 C 
BRANCH  38  39
HETATM   39  C25 UNL     1      11.426  11.242  29.404  1.00  0.00     0.008 C 
HETATM   40  C26 UNL     1      12.283  10.382  29.906  1.00  0.00     0.047 C 
BRANCH  40  41
HETATM   41  O6  UNL     1      13.603  10.869  30.137  1.00  0.00    -0.364 OA
ATOM     42  H6  UNL     1      13.913  10.830  31.034  1.00  0.00     0.217 HD
ENDBRANCH  40  41
BRANCH  40  43
HETATM   43  C27 UNL     1      12.122   8.993  30.269  1.00  0.00    -0.003 C 
HETATM   44  C28 UNL     1      12.673   8.071  29.150  1.00  0.00     0.021 C 
HETATM   45  C29 UNL     1      13.009   8.688  31.462  1.00  0.00     0.021 C 
HETATM   46  C30 UNL     1      10.733   8.497  30.528  1.00  0.00     0.021 C 
ENDBRANCH  40  43
ENDBRANCH  38  39
ENDBRANCH   8  38
TORSDOF 14
ENDMDL
MODEL 3
REMARK VINA RESULT: -6.013639354      3.076      5.831
REMARK  14 active torsions:
REMARK  status: ('A' for Active; 'I' for Inactive)
REMARK    1  A    between atoms: C2_2  and  C4_4 
REMARK    2  A    between atoms: C4_4  and  O2_6 
REMARK    3  A    between atoms: O2_6  and  C5_7 
REMARK    4  A    between atoms: C8_10  and  C9_11 
REMARK    5  A    between atoms: C9_11  and  C11_13 
REMARK    6  A    between atoms: C11_13  and  N1_15 
REMARK    7  A    between atoms: N1_15  and  C13_17 
REMARK    8  A    between atoms: C13_17  and  C14_18 
REMARK    9  A    between atoms: C16_20  and  C17_21 
REMARK   10  A    between atoms: C20_27  and  O3_28 
REMARK   11  A    between atoms: C22_33  and  C24_35 
REMARK   12  A    between atoms: C24_35  and  C25_36 
REMARK   13  A    between atoms: C26_37  and  O6_38 
REMARK   14  A    between atoms: C26_37  and  C27_40 
ROOT
HETATM    1  C5  UNL     1      13.637  11.539  25.712  1.00  0.00     0.146 C 
HETATM    2  C6  UNL     1      14.261  12.831  25.911  1.00  0.00     0.036 C 
HETATM    3  C7  UNL     1      15.436  13.498  26.292  1.00  0.00     0.040 C 
HETATM    4  C8  UNL     1      15.247  15.017  25.859  1.00  0.00     0.162 C 
HETATM    5  O4  UNL     1      13.989  15.296  25.381  1.00  0.00    -0.310 OA
HETATM    6  C21 UNL     1      13.042  15.214  24.431  1.00  0.00     0.279 C 
HETATM    7  O5  UNL     1      13.161  15.742  23.257  1.00  0.00    -0.263 OA
HETATM    8  C22 UNL     1      11.714  14.509  24.582  1.00  0.00     0.099 C 
HETATM    9  C23 UNL     1      10.945  14.629  23.229  1.00  0.00     0.039 C 
HETATM   10  C31 UNL     1      11.909  13.117  24.858  1.00  0.00    -0.156 C 
HETATM   11  C32 UNL     1      12.119  11.814  25.322  1.00  0.00     0.079 C 
HETATM   12  C33 UNL     1      11.194  11.390  26.438  1.00  0.00     0.025 C 
ENDROOT
BRANCH   4  13
HETATM   13  C9  UNL     1      16.439  15.354  25.057  1.00  0.00    -0.033 C 
HETATM   14  C10 UNL     1      17.015  14.238  24.200  1.00  0.00     0.048 C 
BRANCH  13  15
HETATM   15  C11 UNL     1      16.666  16.695  24.557  1.00  0.00     0.005 C 
HETATM   16  C12 UNL     1      17.221  17.673  25.641  1.00  0.00     0.068 C 
BRANCH  15  17
HETATM   17  N1  UNL     1      15.739  17.435  23.784  1.00  0.00    -0.389 N 
ATOM     18  H1  UNL     1      15.365  17.050  22.917  1.00  0.00     0.159 HD
BRANCH  17  19
HETATM   19  C13 UNL     1      15.336  18.728  24.236  1.00  0.00     0.161 C 
BRANCH  19  20
HETATM   20  C14 UNL     1      13.880  18.938  24.172  1.00  0.00    -0.007 A 
HETATM   21  C15 UNL     1      13.129  18.920  25.358  1.00  0.00     0.027 A 
HETATM   22  C16 UNL     1      11.793  18.851  25.444  1.00  0.00     0.048 A 
HETATM   23  C18 UNL     1      11.038  18.804  24.285  1.00  0.00     0.019 A 
HETATM   24  C19 UNL     1      11.726  18.814  23.076  1.00  0.00     0.038 A 
HETATM   25  C20 UNL     1      13.099  18.874  23.029  1.00  0.00     0.073 A 
BRANCH  22  26
HETATM   26  C17 UNL     1      11.148  18.758  26.792  1.00  0.00     0.417 C 
HETATM   27  F1  UNL     1      11.338  19.942  27.430  1.00  0.00    -0.166 F 
HETATM   28  F2  UNL     1       9.858  18.344  26.724  1.00  0.00    -0.166 F 
HETATM   29  F3  UNL     1      11.878  17.772  27.509  1.00  0.00    -0.166 F 
ENDBRANCH  22  26
BRANCH  25  30
HETATM   30  O3  UNL     1      13.745  18.874  21.776  1.00  0.00    -0.360 OA
ATOM     31  H3  UNL     1      13.235  19.094  21.006  1.00  0.00     0.217 HD
ENDBRANCH  25  30
ENDBRANCH  19  20
ENDBRANCH  17  19
ENDBRANCH  15  17
ENDBRANCH  13  15
ENDBRANCH   4  13
BRANCH   1  32
HETATM   32  O2  UNL     1      14.166  10.655  24.800  1.00  0.00    -0.315 OA
BRANCH  32  33
HETATM   33  C4  UNL     1      14.155  10.612  23.458  1.00  0.00     0.262 C 
HETATM   34  O1  UNL     1      13.470   9.701  22.903  1.00  0.00    -0.265 OA
BRANCH  33  35
HETATM   35  C2  UNL     1      14.947  11.638  22.708  1.00  0.00     0.077 C 
HETATM   36  C1  UNL     1      14.020  12.488  21.877  1.00  0.00     0.020 C 
HETATM   37  C3  UNL     1      15.854  10.841  21.784  1.00  0.00     0.020 C 
ENDBRANCH  33  35
ENDBRANCH  32  33
ENDBRANCH   1  32
BRANCH   8  38
HETATM   38  C24 UNL     1      10.830  15.279  25.522  1.00  0.00     0.061 C 
BRANCH  38  39
HETATM   39  C25 UNL     1       9.429  15.466  25.101  1.00  0.00     0.008 C 
HETATM   40  C26 UNL     1       8.516  14.907  25.863  1.00  0.00     0.047 C 
BRANCH  40  41
HETATM   41  O6  UNL     1       8.997  14.195  27.002  1.00  0.00    -0.364 OA
ATOM     42  H6  UNL     1       8.511  14.318  27.809  1.00  0.00     0.217 HD
ENDBRANCH  40  41
BRANCH  40  43
HETATM   43  C27 UNL     1       7.078  14.878  25.746  1.00  0.00    -0.003 C 
HETATM   44  C28 UNL     1       6.654  14.251  24.392  1.00  0.00     0.021 C 
HETATM   45  C29 UNL     1       6.516  13.921  26.782  1.00  0.00     0.021 C 
HETATM   46  C30 UNL     1       6.347  16.184  25.810  1.00  0.00     0.021 C 
ENDBRANCH  40  43
ENDBRANCH  38  39
ENDBRANCH   8  38
TORSDOF 14
ENDMDL
MODEL 4
REMARK VINA RESULT: -5.852932662      1.840      2.537
REMARK  14 active torsions:
REMARK  status: ('A' for Active; 'I' for Inactive)
REMARK    1  A    between atoms: C2_2  and  C4_4 
REMARK    2  A    between atoms: C4_4  and  O2_6 
REMARK    3  A    between atoms: O2_6  and  C5_7 
REMARK    4  A    between atoms: C8_10  and  C9_11 
REMARK    5  A    between atoms: C9_11  and  C11_13 
REMARK    6  A    between atoms: C11_13  and  N1_15 
REMARK    7  A    between atoms: N1_15  and  C13_17 
REMARK    8  A    between atoms: C13_17  and  C14_18 
REMARK    9  A    between atoms: C16_20  and  C17_21 
REMARK   10  A    between atoms: C20_27  and  O3_28 
REMARK   11  A    between atoms: C22_33  and  C24_35 
REMARK   12  A    between atoms: C24_35  and  C25_36 
REMARK   13  A    between atoms: C26_37  and  O6_38 
REMARK   14  A    between atoms: C26_37  and  C27_40 
ROOT
HETATM    1  C5  UNL     1      17.308  13.749  21.169  1.00  0.00     0.146 C 
HETATM    2  C6  UNL     1      16.932  14.003  22.545  1.00  0.00     0.036 C 
HETATM    3  C7  UNL     1      17.297  14.638  23.742  1.00  0.00     0.040 C 
HETATM    4  C8  UNL     1      16.007  14.612  24.672  1.00  0.00     0.162 C 
HETATM    5  O4  UNL     1      14.967  13.885  24.143  1.00  0.00    -0.310 OA
HETATM    6  C21 UNL     1      13.971  13.722  23.257  1.00  0.00     0.279 C 
HETATM    7  O5  UNL     1      12.925  14.481  23.211  1.00  0.00    -0.263 OA
HETATM    8  C22 UNL     1      13.913  12.647  22.197  1.00  0.00     0.099 C 
HETATM    9  C23 UNL     1      12.606  12.852  21.369  1.00  0.00     0.039 C 
HETATM   10  C31 UNL     1      15.026  12.760  21.302  1.00  0.00    -0.156 C 
HETATM   11  C32 UNL     1      16.215  12.763  20.565  1.00  0.00     0.079 C 
HETATM   12  C33 UNL     1      16.804  11.394  20.322  1.00  0.00     0.025 C 
ENDROOT
BRANCH   4  13
HETATM   13  C9  UNL     1      15.795  16.010  25.097  1.00  0.00    -0.033 C 
HETATM   14  C10 UNL     1      16.667  16.508  26.239  1.00  0.00     0.048 C 
BRANCH  13  15
HETATM   15  C11 UNL     1      15.353  17.030  24.169  1.00  0.00     0.005 C 
HETATM   16  C12 UNL     1      16.286  18.282  24.135  1.00  0.00     0.068 C 
BRANCH  15  17
HETATM   17  N1  UNL     1      14.026  17.516  24.077  1.00  0.00    -0.389 N 
ATOM     18  H1  UNL     1      13.412  17.203  23.325  1.00  0.00     0.159 HD
BRANCH  17  19
HETATM   19  C13 UNL     1      13.559  18.449  25.052  1.00  0.00     0.161 C 
BRANCH  19  20
HETATM   20  C14 UNL     1      12.162  18.220  25.454  1.00  0.00    -0.007 A 
HETATM   21  C15 UNL     1      11.620  16.928  25.354  1.00  0.00     0.027 A 
HETATM   22  C16 UNL     1      10.321  16.608  25.445  1.00  0.00     0.048 A 
HETATM   23  C18 UNL     1       9.389  17.607  25.670  1.00  0.00     0.019 A 
HETATM   24  C19 UNL     1       9.865  18.910  25.774  1.00  0.00     0.038 A 
HETATM   25  C20 UNL     1      11.205  19.199  25.664  1.00  0.00     0.073 A 
BRANCH  22  26
HETATM   26  C17 UNL     1       9.898  15.188  25.233  1.00  0.00     0.417 C 
HETATM   27  F1  UNL     1       8.770  14.975  25.961  1.00  0.00    -0.166 F 
HETATM   28  F2  UNL     1       9.802  14.864  23.920  1.00  0.00    -0.166 F 
HETATM   29  F3  UNL     1      10.922  14.384  25.802  1.00  0.00    -0.166 F 
ENDBRANCH  22  26
BRANCH  25  30
HETATM   30  O3  UNL     1      11.630  20.539  25.770  1.00  0.00    -0.360 OA
ATOM     31  H3  UNL     1      12.347  20.829  25.218  1.00  0.00     0.217 HD
ENDBRANCH  25  30
ENDBRANCH  19  20
ENDBRANCH  17  19
ENDBRANCH  15  17
ENDBRANCH  13  15
ENDBRANCH   4  13
BRANCH   1  32
HETATM   32  O2  UNL     1      17.472  14.801  20.297  1.00  0.00    -0.315 OA
BRANCH  32  33
HETATM   33  C4  UNL     1      17.676  14.864  18.972  1.00  0.00     0.262 C 
HETATM   34  O1  UNL     1      16.849  15.531  18.281  1.00  0.00    -0.265 OA
BRANCH  33  35
HETATM   35  C2  UNL     1      18.860  14.147  18.399  1.00  0.00     0.077 C 
HETATM   36  C1  UNL     1      20.077  14.421  19.244  1.00  0.00     0.020 C 
HETATM   37  C3  UNL     1      19.063  14.756  17.022  1.00  0.00     0.020 C 
ENDBRANCH  33  35
ENDBRANCH  32  33
ENDBRANCH   1  32
BRANCH   8  38
HETATM   38  C24 UNL     1      13.681  11.308  22.838  1.00  0.00     0.061 C 
BRANCH  38  39
HETATM   39  C25 UNL     1      14.797  10.347  22.773  1.00  0.00     0.008 C 
HETATM   40  C26 UNL     1      15.555  10.266  23.844  1.00  0.00     0.047 C 
BRANCH  40  41
HETATM   41  O6  UNL     1      15.198  11.116  24.933  1.00  0.00    -0.364 OA
ATOM     42  H6  UNL     1      15.424  12.034  24.839  1.00  0.00     0.217 HD
ENDBRANCH  40  41
BRANCH  40  43
HETATM   43  C27 UNL     1      16.718   9.456  24.119  1.00  0.00    -0.003 C 
HETATM   44  C28 UNL     1      18.016  10.279  23.910  1.00  0.00     0.021 C 
HETATM   45  C29 UNL     1      16.741   9.107  25.595  1.00  0.00     0.021 C 
HETATM   46  C30 UNL     1      16.913   8.217  23.300  1.00  0.00     0.021 C 
ENDBRANCH  40  43
ENDBRANCH  38  39
ENDBRANCH   8  38
TORSDOF 14
ENDMDL
MODEL 5
REMARK VINA RESULT: -5.850393660      2.948      4.855
REMARK  14 active torsions:
REMARK  status: ('A' for Active; 'I' for Inactive)
REMARK    1  A    between atoms: C2_2  and  C4_4 
REMARK    2  A    between atoms: C4_4  and  O2_6 
REMARK    3  A    between atoms: O2_6  and  C5_7 
REMARK    4  A    between atoms: C8_10  and  C9_11 
REMARK    5  A    between atoms: C9_11  and  C11_13 
REMARK    6  A    between atoms: C11_13  and  N1_15 
REMARK    7  A    between atoms: N1_15  and  C13_17 
REMARK    8  A    between atoms: C13_17  and  C14_18 
REMARK    9  A    between atoms: C16_20  and  C17_21 
REMARK   10  A    between atoms: C20_27  and  O3_28 
REMARK   11  A    between atoms: C22_33  and  C24_35 
REMARK   12  A    between atoms: C24_35  and  C25_36 
REMARK   13  A    between atoms: C26_37  and  O6_38 
REMARK   14  A    between atoms: C26_37  and  C27_40 
ROOT
HETATM    1  C5  UNL     1      13.861  10.890  23.815  1.00  0.00     0.146 C 
HETATM    2  C6  UNL     1      14.461  12.008  24.513  1.00  0.00     0.036 C 
HETATM    3  C7  UNL     1      15.627  12.495  25.125  1.00  0.00     0.040 C 
HETATM    4  C8  UNL     1      15.401  14.054  25.339  1.00  0.00     0.162 C 
HETATM    5  O4  UNL     1      14.132  14.472  25.017  1.00  0.00    -0.310 OA
HETATM    6  C21 UNL     1      13.174  14.754  24.118  1.00  0.00     0.279 C 
HETATM    7  O5  UNL     1      13.268  15.712  23.254  1.00  0.00    -0.263 OA
HETATM    8  C22 UNL     1      11.863  14.017  23.978  1.00  0.00     0.099 C 
HETATM    9  C23 UNL     1      11.075  14.651  22.789  1.00  0.00     0.039 C 
HETATM   10  C31 UNL     1      12.091  12.636  23.672  1.00  0.00    -0.156 C 
HETATM   11  C32 UNL     1      12.333  11.262  23.573  1.00  0.00     0.079 C 
HETATM   12  C33 UNL     1      11.431  10.404  24.429  1.00  0.00     0.025 C 
ENDROOT
BRANCH   4  13
HETATM   13  C9  UNL     1      16.576  14.713  24.735  1.00  0.00    -0.033 C 
HETATM   14  C10 UNL     1      17.183  14.031  23.519  1.00  0.00     0.048 C 
BRANCH  13  15
HETATM   15  C11 UNL     1      16.755  16.150  24.790  1.00  0.00     0.005 C 
HETATM   16  C12 UNL     1      16.871  16.704  26.245  1.00  0.00     0.068 C 
BRANCH  15  17
HETATM   17  N1  UNL     1      15.980  17.087  24.064  1.00  0.00    -0.389 N 
ATOM     18  H1  UNL     1      15.795  16.946  23.071  1.00  0.00     0.159 HD
BRANCH  17  19
HETATM   19  C13 UNL     1      15.462  18.232  24.742  1.00  0.00     0.161 C 
BRANCH  19  20
HETATM   20  C14 UNL     1      14.131  18.639  24.261  1.00  0.00    -0.007 A 
HETATM   21  C15 UNL     1      13.012  18.449  25.087  1.00  0.00     0.027 A 
HETATM   22  C16 UNL     1      11.729  18.538  24.709  1.00  0.00     0.048 A 
HETATM   23  C18 UNL     1      11.427  18.856  23.396  1.00  0.00     0.019 A 
HETATM   24  C19 UNL     1      12.495  19.052  22.527  1.00  0.00     0.038 A 
HETATM   25  C20 UNL     1      13.798  18.942  22.950  1.00  0.00     0.073 A 
BRANCH  22  26
HETATM   26  C17 UNL     1      10.649  18.223  25.697  1.00  0.00     0.417 C 
HETATM   27  F1  UNL     1      10.187  19.398  26.200  1.00  0.00    -0.166 F 
HETATM   28  F2  UNL     1       9.696  17.405  25.184  1.00  0.00    -0.166 F 
HETATM   29  F3  UNL     1      11.282  17.530  26.764  1.00  0.00    -0.166 F 
ENDBRANCH  22  26
BRANCH  25  30
HETATM   30  O3  UNL     1      14.842  19.144  22.024  1.00  0.00    -0.360 OA
ATOM     31  H3  UNL     1      14.742  18.792  21.148  1.00  0.00     0.217 HD
ENDBRANCH  25  30
ENDBRANCH  19  20
ENDBRANCH  17  19
ENDBRANCH  15  17
ENDBRANCH  13  15
ENDBRANCH   4  13
BRANCH   1  32
HETATM   32  O2  UNL     1      14.396  10.459  22.623  1.00  0.00    -0.315 OA
BRANCH  32  33
HETATM   33  C4  UNL     1      15.656  10.241  22.214  1.00  0.00     0.262 C 
HETATM   34  O1  UNL     1      16.205   9.151  22.553  1.00  0.00    -0.265 OA
BRANCH  33  35
HETATM   35  C2  UNL     1      16.327  11.294  21.388  1.00  0.00     0.077 C 
HETATM   36  C1  UNL     1      15.290  12.213  20.795  1.00  0.00     0.020 C 
HETATM   37  C3  UNL     1      17.021  10.538  20.267  1.00  0.00     0.020 C 
ENDBRANCH  33  35
ENDBRANCH  32  33
ENDBRANCH   1  32
BRANCH   8  38
HETATM   38  C24 UNL     1      10.976  14.324  25.151  1.00  0.00     0.061 C 
BRANCH  38  39
HETATM   39  C25 UNL     1       9.594  13.815  25.079  1.00  0.00     0.008 C 
HETATM   40  C26 UNL     1       9.262  12.914  25.977  1.00  0.00     0.047 C 
BRANCH  40  41
HETATM   41  O6  UNL     1      10.278  12.549  26.908  1.00  0.00    -0.364 OA
ATOM     42  H6  UNL     1      10.552  11.639  26.894  1.00  0.00     0.217 HD
ENDBRANCH  40  41
BRANCH  40  43
HETATM   43  C27 UNL     1       8.022  12.206  26.190  1.00  0.00    -0.003 C 
HETATM   44  C28 UNL     1       7.846  11.085  25.132  1.00  0.00     0.021 C 
HETATM   45  C29 UNL     1       8.099  11.456  27.506  1.00  0.00     0.021 C 
HETATM   46  C30 UNL     1       6.750  12.995  26.127  1.00  0.00     0.021 C 
ENDBRANCH  40  43
ENDBRANCH  38  39
ENDBRANCH   8  38
TORSDOF 14
ENDMDL
