MODEL 1
REMARK VINA RESULT: -6.605783956      0.000      0.000
REMARK  10 active torsions:
REMARK  status: ('A' for Active; 'I' for Inactive)
REMARK    1  A    between atoms: C4_4  and  C5_5 
REMARK    2  A    between atoms: C5_5  and  C6_6 
REMARK    3  A    between atoms: C7_7  and  O1_8 
REMARK    4  A    between atoms: C8_10  and  C9_11 
REMARK    5  A    between atoms: C10_12  and  C11_13 
REMARK       I    between atoms: C11_13  and  N1_15 
REMARK    6  A    between atoms: N1_15  and  C12_17 
REMARK    7  A    between atoms: C12_17  and  C14_19 
REMARK    8  A    between atoms: C21_28  and  C22_29 
REMARK    9  A    between atoms: C23_33  and  C24_34 
REMARK   10  A    between atoms: C34_45  and  O5_46 
ROOT
HETATM    1  C6  UNL     1       4.132   9.850   1.916  1.00  0.00     0.013 A 
HETATM    2  C7  UNL     1       4.637  10.065   0.642  1.00  0.00     0.085 A 
HETATM    3  C8  UNL     1       3.950  10.705  -0.359  1.00  0.00    -0.001 A 
HETATM    4  C20 UNL     1       2.649  11.133   0.024  1.00  0.00     0.033 A 
HETATM    5  C21 UNL     1       2.124  10.937   1.260  1.00  0.00     0.051 A 
HETATM    6  C34 UNL     1       2.844  10.305   2.208  1.00  0.00     0.089 A 
ENDROOT
BRANCH   3   7
HETATM    7  C9  UNL     1       4.435  11.100  -1.650  1.00  0.00     0.020 C 
HETATM    8  C10 UNL     1       4.129  11.120  -2.875  1.00  0.00     0.075 C 
BRANCH   8   9
HETATM    9  C11 UNL     1       3.042  10.705  -3.697  1.00  0.00     0.241 C 
HETATM   10  O2  UNL     1       2.931   9.596  -4.232  1.00  0.00    -0.269 OA
HETATM   11  N1  UNL     1       1.935  11.618  -3.968  1.00  0.00    -0.353 N 
ATOM     12  H1  UNL     1       1.955  12.552  -3.560  1.00  0.00     0.163 HD
BRANCH  11  13
HETATM   13  C12 UNL     1       0.828  11.246  -4.785  1.00  0.00     0.084 C 
HETATM   14  C13 UNL     1       0.814  12.064  -6.053  1.00  0.00     0.032 C 
BRANCH  13  15
HETATM   15  C14 UNL     1      -0.458  11.440  -4.031  1.00  0.00     0.008 C 
HETATM   16  C15 UNL     1      -0.995  12.843  -4.172  1.00  0.00     0.012 C 
HETATM   17  C16 UNL     1      -2.409  12.868  -3.630  1.00  0.00     0.079 C 
HETATM   18  C17 UNL     1      -2.347  12.535  -2.154  1.00  0.00     0.243 C 
HETATM   19  F1  UNL     1      -1.735  13.596  -1.492  1.00  0.00    -0.206 F 
HETATM   20  F2  UNL     1      -3.639  12.428  -1.639  1.00  0.00    -0.206 F 
HETATM   21  C18 UNL     1      -1.650  11.242  -1.890  1.00  0.00     0.079 C 
HETATM   22  C19 UNL     1      -0.330  11.093  -2.579  1.00  0.00     0.012 C 
ENDBRANCH  13  15
ENDBRANCH  11  13
ENDBRANCH   8   9
ENDBRANCH   3   7
BRANCH   2  23
HETATM   23  O1  UNL     1       5.914   9.584   0.390  1.00  0.00    -0.359 OA
ATOM     24  H1  UNL     1       6.113   8.714   0.714  1.00  0.00     0.217 HD
ENDBRANCH   2  23
BRANCH   1  25
HETATM   25  C5  UNL     1       4.939   9.127   2.927  1.00  0.00     0.072 C 
BRANCH  25  26
HETATM   26  C4  UNL     1       5.894  10.035   3.627  1.00  0.00    -0.020 C 
HETATM   27  C2  UNL     1       7.188   9.798   3.755  1.00  0.00    -0.091 C 
HETATM   28  C1  UNL     1       7.990  10.848   4.501  1.00  0.00     0.042 C 
HETATM   29  C3  UNL     1       7.880   8.589   3.245  1.00  0.00     0.042 C 
ENDBRANCH  25  26
ENDBRANCH   1  25
BRANCH   5  30
HETATM   30  C22 UNL     1       0.758  11.436   1.515  1.00  0.00     0.178 C 
HETATM   31  N2  UNL     1       0.129  12.377   0.956  1.00  0.00    -0.241 N 
HETATM   32  O3  UNL     1      -1.130  12.561   1.456  1.00  0.00    -0.244 OA
ATOM     33  H2  UNL     1       0.523  12.946   0.206  1.00  0.00     0.196 HD
HETATM   34  C23 UNL     1      -1.218  11.726   2.587  1.00  0.00     0.305 C 
HETATM   35  O4  UNL     1      -0.111  10.902   2.483  1.00  0.00    -0.299 OA
BRANCH  34  36
HETATM   36  C24 UNL     1      -2.532  10.987   2.501  1.00  0.00     0.013 C 
HETATM   37  C25 UNL     1      -2.222   9.505   2.511  1.00  0.00     0.019 C 
HETATM   38  C26 UNL     1      -3.493   8.680   2.497  1.00  0.00    -0.013 C 
HETATM   39  C27 UNL     1      -4.287   9.019   3.747  1.00  0.00     0.009 C 
HETATM   40  C31 UNL     1      -4.342   9.032   1.308  1.00  0.00     0.009 C 
HETATM   41  C28 UNL     1      -4.634  10.481   3.738  1.00  0.00    -0.013 C 
HETATM   42  C29 UNL     1      -5.418  10.869   2.508  1.00  0.00     0.009 C 
HETATM   43  C33 UNL     1      -3.350  11.274   3.747  1.00  0.00     0.019 C 
HETATM   44  C30 UNL     1      -4.592  10.513   1.299  1.00  0.00    -0.013 C 
HETATM   45  C32 UNL     1      -3.300  11.304   1.263  1.00  0.00     0.019 C 
ENDBRANCH  34  36
ENDBRANCH   5  30
BRANCH   6  46
HETATM   46  O5  UNL     1       2.429  10.050   3.491  1.00  0.00    -0.359 OA
ATOM     47  H5  UNL     1       1.691  10.576   3.777  1.00  0.00     0.217 HD
ENDBRANCH   6  46
TORSDOF 10
ENDMDL
MODEL 2
REMARK VINA RESULT: -6.363906239      1.442      1.943
REMARK  10 active torsions:
REMARK  status: ('A' for Active; 'I' for Inactive)
REMARK    1  A    between atoms: C4_4  and  C5_5 
REMARK    2  A    between atoms: C5_5  and  C6_6 
REMARK    3  A    between atoms: C7_7  and  O1_8 
REMARK    4  A    between atoms: C8_10  and  C9_11 
REMARK    5  A    between atoms: C10_12  and  C11_13 
REMARK       I    between atoms: C11_13  and  N1_15 
REMARK    6  A    between atoms: N1_15  and  C12_17 
REMARK    7  A    between atoms: C12_17  and  C14_19 
REMARK    8  A    between atoms: C21_28  and  C22_29 
REMARK    9  A    between atoms: C23_33  and  C24_34 
REMARK   10  A    between atoms: C34_45  and  O5_46 
ROOT
HETATM    1  C6  UNL     1       5.119   9.256   1.120  1.00  0.00     0.013 A 
HETATM    2  C7  UNL     1       5.657   9.415  -0.148  1.00  0.00     0.085 A 
HETATM    3  C8  UNL     1       5.148  10.266  -1.097  1.00  0.00    -0.001 A 
HETATM    4  C20 UNL     1       3.998  10.983  -0.664  1.00  0.00     0.033 A 
HETATM    5  C21 UNL     1       3.446  10.849   0.567  1.00  0.00     0.051 A 
HETATM    6  C34 UNL     1       3.988  10.000   1.463  1.00  0.00     0.089 A 
ENDROOT
BRANCH   3   7
HETATM    7  C9  UNL     1       5.711  10.605  -2.372  1.00  0.00     0.020 C 
HETATM    8  C10 UNL     1       5.462  10.613  -3.610  1.00  0.00     0.075 C 
BRANCH   8   9
HETATM    9  C11 UNL     1       4.392  10.238  -4.473  1.00  0.00     0.241 C 
HETATM   10  O2  UNL     1       4.254   9.129  -5.001  1.00  0.00    -0.269 OA
HETATM   11  N1  UNL     1       3.340  11.196  -4.799  1.00  0.00    -0.353 N 
ATOM     12  H1  UNL     1       3.385  12.133  -4.399  1.00  0.00     0.163 HD
BRANCH  11  13
HETATM   13  C12 UNL     1       2.252  10.864  -5.657  1.00  0.00     0.084 C 
HETATM   14  C13 UNL     1       2.260  11.749  -6.880  1.00  0.00     0.032 C 
BRANCH  13  15
HETATM   15  C14 UNL     1       0.950  11.012  -4.921  1.00  0.00     0.008 C 
HETATM   16  C15 UNL     1       0.527  12.455  -4.794  1.00  0.00     0.012 C 
HETATM   17  C16 UNL     1      -0.905  12.490  -4.303  1.00  0.00     0.079 C 
HETATM   18  C17 UNL     1      -0.939  11.868  -2.924  1.00  0.00     0.243 C 
HETATM   19  F1  UNL     1      -0.281  12.721  -2.043  1.00  0.00    -0.206 F 
HETATM   20  F2  UNL     1      -2.259  11.769  -2.482  1.00  0.00    -0.206 F 
HETATM   21  C18 UNL     1      -0.355  10.494  -2.903  1.00  0.00     0.079 C 
HETATM   22  C19 UNL     1       0.981  10.374  -3.566  1.00  0.00     0.012 C 
ENDBRANCH  13  15
ENDBRANCH  11  13
ENDBRANCH   8   9
ENDBRANCH   3   7
BRANCH   2  23
HETATM   23  O1  UNL     1       6.770   8.645  -0.453  1.00  0.00    -0.359 OA
ATOM     24  H1  UNL     1       7.229   8.860  -1.256  1.00  0.00     0.217 HD
ENDBRANCH   2  23
BRANCH   1  25
HETATM   25  C5  UNL     1       5.723   8.293   2.073  1.00  0.00     0.072 C 
BRANCH  25  26
HETATM   26  C4  UNL     1       6.913   8.870   2.763  1.00  0.00    -0.020 C 
HETATM   27  C2  UNL     1       8.065   8.239   2.909  1.00  0.00    -0.091 C 
HETATM   28  C1  UNL     1       9.156   8.999   3.641  1.00  0.00     0.042 C 
HETATM   29  C3  UNL     1       8.342   6.862   2.431  1.00  0.00     0.042 C 
ENDBRANCH  25  26
ENDBRANCH   1  25
BRANCH   5  30
HETATM   30  C22 UNL     1       2.249  11.658   0.877  1.00  0.00     0.178 C 
HETATM   31  N2  UNL     1       1.911  12.791   0.438  1.00  0.00    -0.241 N 
HETATM   32  O3  UNL     1       0.726  13.241   0.952  1.00  0.00    -0.244 OA
ATOM     33  H2  UNL     1       2.467  13.321  -0.234  1.00  0.00     0.196 HD
HETATM   34  C23 UNL     1       0.382  12.331   1.970  1.00  0.00     0.305 C 
HETATM   35  O4  UNL     1       1.237  11.262   1.769  1.00  0.00    -0.299 OA
BRANCH  34  36
HETATM   36  C24 UNL     1      -1.077  11.983   1.789  1.00  0.00     0.013 C 
HETATM   37  C25 UNL     1      -1.536  11.280   3.050  1.00  0.00     0.019 C 
HETATM   38  C26 UNL     1      -3.013  10.951   2.986  1.00  0.00    -0.013 C 
HETATM   39  C27 UNL     1      -3.780  12.256   2.849  1.00  0.00     0.009 C 
HETATM   40  C31 UNL     1      -3.320  10.114   1.777  1.00  0.00     0.009 C 
HETATM   41  C28 UNL     1      -3.362  12.952   1.584  1.00  0.00    -0.013 C 
HETATM   42  C29 UNL     1      -3.587  12.091   0.365  1.00  0.00     0.009 C 
HETATM   43  C33 UNL     1      -1.888  13.260   1.677  1.00  0.00     0.019 C 
HETATM   44  C30 UNL     1      -2.810  10.813   0.548  1.00  0.00    -0.013 C 
HETATM   45  C32 UNL     1      -1.320  11.081   0.627  1.00  0.00     0.019 C 
ENDBRANCH  34  36
ENDBRANCH   5  30
BRANCH   6  46
HETATM   46  O5  UNL     1       3.527   9.780   2.737  1.00  0.00    -0.359 OA
ATOM     47  H5  UNL     1       2.662  10.133   2.909  1.00  0.00     0.217 HD
ENDBRANCH   6  46
TORSDOF 10
ENDMDL
MODEL 3
REMARK VINA RESULT: -6.337264154      4.986      8.925
REMARK  10 active torsions:
REMARK  status: ('A' for Active; 'I' for Inactive)
REMARK    1  A    between atoms: C4_4  and  C5_5 
REMARK    2  A    between atoms: C5_5  and  C6_6 
REMARK    3  A    between atoms: C7_7  and  O1_8 
REMARK    4  A    between atoms: C8_10  and  C9_11 
REMARK    5  A    between atoms: C10_12  and  C11_13 
REMARK       I    between atoms: C11_13  and  N1_15 
REMARK    6  A    between atoms: N1_15  and  C12_17 
REMARK    7  A    between atoms: C12_17  and  C14_19 
REMARK    8  A    between atoms: C21_28  and  C22_29 
REMARK    9  A    between atoms: C23_33  and  C24_34 
REMARK   10  A    between atoms: C34_45  and  O5_46 
ROOT
HETATM    1  C6  UNL     1      -5.248  11.440   1.418  1.00  0.00     0.013 A 
HETATM    2  C7  UNL     1      -3.865  11.422   1.324  1.00  0.00     0.085 A 
HETATM    3  C8  UNL     1      -3.032  10.983   2.323  1.00  0.00    -0.001 A 
HETATM    4  C20 UNL     1      -3.719  10.544   3.488  1.00  0.00     0.033 A 
HETATM    5  C21 UNL     1      -5.070  10.550   3.614  1.00  0.00     0.051 A 
HETATM    6  C34 UNL     1      -5.842  10.988   2.600  1.00  0.00     0.089 A 
ENDROOT
BRANCH   3   7
HETATM    7  C9  UNL     1      -1.611  10.793   2.268  1.00  0.00     0.020 C 
HETATM    8  C10 UNL     1      -0.530  11.377   1.983  1.00  0.00     0.075 C 
BRANCH   8   9
HETATM    9  C11 UNL     1      -0.115  12.654   1.504  1.00  0.00     0.241 C 
HETATM   10  O2  UNL     1       0.371  12.877   0.389  1.00  0.00    -0.269 OA
HETATM   11  N1  UNL     1      -0.250  13.837   2.349  1.00  0.00    -0.353 N 
ATOM     12  H1  UNL     1      -0.644  13.732   3.284  1.00  0.00     0.163 HD
BRANCH  11  13
HETATM   13  C12 UNL     1       0.152  15.131   1.912  1.00  0.00     0.084 C 
HETATM   14  C13 UNL     1       1.550  15.437   2.392  1.00  0.00     0.032 C 
BRANCH  13  15
HETATM   15  C14 UNL     1      -0.808  16.169   2.423  1.00  0.00     0.008 C 
HETATM   16  C15 UNL     1      -0.364  16.757   3.740  1.00  0.00     0.012 C 
HETATM   17  C16 UNL     1      -1.221  17.972   4.032  1.00  0.00     0.079 C 
HETATM   18  C17 UNL     1      -2.653  17.506   4.184  1.00  0.00     0.243 C 
HETATM   19  F1  UNL     1      -2.748  16.761   5.357  1.00  0.00    -0.206 F 
HETATM   20  F2  UNL     1      -3.496  18.607   4.334  1.00  0.00    -0.206 F 
HETATM   21  C18 UNL     1      -3.130  16.733   2.999  1.00  0.00     0.079 C 
HETATM   22  C19 UNL     1      -2.206  15.646   2.549  1.00  0.00     0.012 C 
ENDBRANCH  13  15
ENDBRANCH  11  13
ENDBRANCH   8   9
ENDBRANCH   3   7
BRANCH   2  23
HETATM   23  O1  UNL     1      -3.316  11.893   0.140  1.00  0.00    -0.359 OA
ATOM     24  H1  UNL     1      -2.846  11.262  -0.393  1.00  0.00     0.217 HD
ENDBRANCH   2  23
BRANCH   1  25
HETATM   25  C5  UNL     1      -6.068  11.954   0.295  1.00  0.00     0.072 C 
BRANCH  25  26
HETATM   26  C4  UNL     1      -6.511  10.858  -0.615  1.00  0.00    -0.020 C 
HETATM   27  C2  UNL     1      -6.238  10.809  -1.908  1.00  0.00    -0.091 C 
HETATM   28  C1  UNL     1      -6.778   9.607  -2.660  1.00  0.00     0.042 C 
HETATM   29  C3  UNL     1      -5.473  11.841  -2.649  1.00  0.00     0.042 C 
ENDBRANCH  25  26
ENDBRANCH   1  25
BRANCH   5  30
HETATM   30  C22 UNL     1      -5.645  10.065   4.884  1.00  0.00     0.178 C 
HETATM   31  N2  UNL     1      -5.150  10.075   6.046  1.00  0.00    -0.241 N 
HETATM   32  O3  UNL     1      -5.976   9.535   6.992  1.00  0.00    -0.244 OA
ATOM     33  H2  UNL     1      -4.225  10.448   6.257  1.00  0.00     0.196 HD
HETATM   34  C23 UNL     1      -7.051   8.967   6.282  1.00  0.00     0.305 C 
HETATM   35  O4  UNL     1      -6.918   9.478   5.003  1.00  0.00    -0.299 OA
BRANCH  34  36
HETATM   36  C24 UNL     1      -8.325   9.392   6.975  1.00  0.00     0.013 C 
HETATM   37  C25 UNL     1      -9.181   8.155   7.150  1.00  0.00     0.019 C 
HETATM   38  C26 UNL     1     -10.457   8.475   7.901  1.00  0.00    -0.013 C 
HETATM   39  C27 UNL     1     -10.075   9.000   9.274  1.00  0.00     0.009 C 
HETATM   40  C31 UNL     1     -11.231   9.555   7.199  1.00  0.00     0.009 C 
HETATM   41  C28 UNL     1      -9.252  10.248   9.121  1.00  0.00    -0.013 C 
HETATM   42  C29 UNL     1      -9.984  11.317   8.346  1.00  0.00     0.009 C 
HETATM   43  C33 UNL     1      -7.994   9.898   8.366  1.00  0.00     0.019 C 
HETATM   44  C30 UNL     1     -10.342  10.749   6.996  1.00  0.00    -0.013 C 
HETATM   45  C32 UNL     1      -9.100  10.401   6.199  1.00  0.00     0.019 C 
ENDBRANCH  34  36
ENDBRANCH   5  30
BRANCH   6  46
HETATM   46  O5  UNL     1      -7.213  11.039   2.602  1.00  0.00    -0.359 OA
ATOM     47  H5  UNL     1      -7.636  10.230   2.862  1.00  0.00     0.217 HD
ENDBRANCH   6  46
TORSDOF 10
ENDMDL
MODEL 4
REMARK VINA RESULT: -6.282631820      4.021      5.760
REMARK  10 active torsions:
REMARK  status: ('A' for Active; 'I' for Inactive)
REMARK    1  A    between atoms: C4_4  and  C5_5 
REMARK    2  A    between atoms: C5_5  and  C6_6 
REMARK    3  A    between atoms: C7_7  and  O1_8 
REMARK    4  A    between atoms: C8_10  and  C9_11 
REMARK    5  A    between atoms: C10_12  and  C11_13 
REMARK       I    between atoms: C11_13  and  N1_15 
REMARK    6  A    between atoms: N1_15  and  C12_17 
REMARK    7  A    between atoms: C12_17  and  C14_19 
REMARK    8  A    between atoms: C21_28  and  C22_29 
REMARK    9  A    between atoms: C23_33  and  C24_34 
REMARK   10  A    between atoms: C34_45  and  O5_46 
ROOT
HETATM    1  C6  UNL     1       1.122  11.023  -4.308  1.00  0.00     0.013 A 
HETATM    2  C7  UNL     1       0.680  11.982  -5.208  1.00  0.00     0.085 A 
HETATM    3  C8  UNL     1      -0.143  13.029  -4.872  1.00  0.00    -0.001 A 
HETATM    4  C20 UNL     1      -0.515  13.045  -3.499  1.00  0.00     0.033 A 
HETATM    5  C21 UNL     1      -0.102  12.123  -2.595  1.00  0.00     0.051 A 
HETATM    6  C34 UNL     1       0.709  11.116  -2.977  1.00  0.00     0.089 A 
ENDROOT
BRANCH   3   7
HETATM    7  C9  UNL     1      -0.535  14.141  -5.689  1.00  0.00     0.020 C 
HETATM    8  C10 UNL     1      -1.540  14.703  -6.205  1.00  0.00     0.075 C 
BRANCH   8   9
HETATM    9  C11 UNL     1      -2.949  14.497  -6.264  1.00  0.00     0.241 C 
HETATM   10  O2  UNL     1      -3.688  14.864  -7.185  1.00  0.00    -0.269 OA
HETATM   11  N1  UNL     1      -3.637  13.803  -5.179  1.00  0.00    -0.353 N 
ATOM     12  H1  UNL     1      -3.093  13.470  -4.383  1.00  0.00     0.163 HD
BRANCH  11  13
HETATM   13  C12 UNL     1      -5.043  13.577  -5.196  1.00  0.00     0.084 C 
HETATM   14  C13 UNL     1      -5.768  14.731  -4.547  1.00  0.00     0.032 C 
BRANCH  13  15
HETATM   15  C14 UNL     1      -5.368  12.295  -4.481  1.00  0.00     0.008 C 
HETATM   16  C15 UNL     1      -6.709  11.737  -4.891  1.00  0.00     0.012 C 
HETATM   17  C16 UNL     1      -6.824  10.328  -4.348  1.00  0.00     0.079 C 
HETATM   18  C17 UNL     1      -6.791  10.407  -2.837  1.00  0.00     0.243 C 
HETATM   19  F1  UNL     1      -7.969  11.011  -2.405  1.00  0.00    -0.206 F 
HETATM   20  F2  UNL     1      -6.773   9.122  -2.295  1.00  0.00    -0.206 F 
HETATM   21  C18 UNL     1      -5.585  11.125  -2.329  1.00  0.00     0.079 C 
HETATM   22  C19 UNL     1      -5.317  12.441  -2.991  1.00  0.00     0.012 C 
ENDBRANCH  13  15
ENDBRANCH  11  13
ENDBRANCH   8   9
ENDBRANCH   3   7
BRANCH   2  23
HETATM   23  O1  UNL     1       1.101  11.843  -6.522  1.00  0.00    -0.359 OA
ATOM     24  H1  UNL     1       0.522  11.371  -7.108  1.00  0.00     0.217 HD
ENDBRANCH   2  23
BRANCH   1  25
HETATM   25  C5  UNL     1       1.991   9.913  -4.767  1.00  0.00     0.072 C 
BRANCH  25  26
HETATM   26  C4  UNL     1       3.435  10.283  -4.716  1.00  0.00    -0.020 C 
HETATM   27  C2  UNL     1       4.401   9.591  -5.296  1.00  0.00    -0.091 C 
HETATM   28  C1  UNL     1       5.808  10.135  -5.129  1.00  0.00     0.042 C 
HETATM   29  C3  UNL     1       4.198   8.337  -6.063  1.00  0.00     0.042 C 
ENDBRANCH  25  26
ENDBRANCH   1  25
BRANCH   5  30
HETATM   30  C22 UNL     1      -0.570  12.267  -1.202  1.00  0.00     0.178 C 
HETATM   31  N2  UNL     1      -0.752  13.313  -0.520  1.00  0.00    -0.241 N 
HETATM   32  O3  UNL     1      -1.196  13.064   0.749  1.00  0.00    -0.244 OA
ATOM     33  H2  UNL     1      -0.585  14.253  -0.880  1.00  0.00     0.196 HD
HETATM   34  C23 UNL     1      -1.111  11.668   0.916  1.00  0.00     0.305 C 
HETATM   35  O4  UNL     1      -0.908  11.188  -0.365  1.00  0.00    -0.299 OA
BRANCH  34  36
HETATM   36  C24 UNL     1      -2.408  11.208   1.537  1.00  0.00     0.013 C 
HETATM   37  C25 UNL     1      -3.293  10.701   0.418  1.00  0.00     0.019 C 
HETATM   38  C26 UNL     1      -4.598  10.153   0.957  1.00  0.00    -0.013 C 
HETATM   39  C27 UNL     1      -4.273   8.993   1.885  1.00  0.00     0.009 C 
HETATM   40  C31 UNL     1      -5.319  11.194   1.765  1.00  0.00     0.009 C 
HETATM   41  C28 UNL     1      -3.424   9.485   3.022  1.00  0.00    -0.013 C 
HETATM   42  C29 UNL     1      -4.099  10.591   3.796  1.00  0.00     0.009 C 
HETATM   43  C33 UNL     1      -2.137  10.029   2.452  1.00  0.00     0.019 C 
HETATM   44  C30 UNL     1      -4.401  11.713   2.836  1.00  0.00    -0.013 C 
HETATM   45  C32 UNL     1      -3.129  12.298   2.256  1.00  0.00     0.019 C 
ENDBRANCH  34  36
ENDBRANCH   5  30
BRANCH   6  46
HETATM   46  O5  UNL     1       1.197  10.128  -2.160  1.00  0.00    -0.359 OA
ATOM     47  H5  UNL     1       0.533   9.554  -1.797  1.00  0.00     0.217 HD
ENDBRANCH   6  46
TORSDOF 10
ENDMDL
MODEL 5
REMARK VINA RESULT: -6.251781731      4.469      8.265
REMARK  10 active torsions:
REMARK  status: ('A' for Active; 'I' for Inactive)
REMARK    1  A    between atoms: C4_4  and  C5_5 
REMARK    2  A    between atoms: C5_5  and  C6_6 
REMARK    3  A    between atoms: C7_7  and  O1_8 
REMARK    4  A    between atoms: C8_10  and  C9_11 
REMARK    5  A    between atoms: C10_12  and  C11_13 
REMARK       I    between atoms: C11_13  and  N1_15 
REMARK    6  A    between atoms: N1_15  and  C12_17 
REMARK    7  A    between atoms: C12_17  and  C14_19 
REMARK    8  A    between atoms: C21_28  and  C22_29 
REMARK    9  A    between atoms: C23_33  and  C24_34 
REMARK   10  A    between atoms: C34_45  and  O5_46 
ROOT
HETATM    1  C6  UNL     1      -5.254  11.416   1.546  1.00  0.00     0.013 A 
HETATM    2  C7  UNL     1      -3.870  11.365   1.473  1.00  0.00     0.085 A 
HETATM    3  C8  UNL     1      -3.063  10.906   2.485  1.00  0.00    -0.001 A 
HETATM    4  C20 UNL     1      -3.780  10.483   3.639  1.00  0.00     0.033 A 
HETATM    5  C21 UNL     1      -5.131  10.520   3.743  1.00  0.00     0.051 A 
HETATM    6  C34 UNL     1      -5.876  10.978   2.717  1.00  0.00     0.089 A 
ENDROOT
BRANCH   3   7
HETATM    7  C9  UNL     1      -1.647  10.682   2.453  1.00  0.00     0.020 C 
HETATM    8  C10 UNL     1      -0.576  11.097   1.930  1.00  0.00     0.075 C 
BRANCH   8   9
HETATM    9  C11 UNL     1      -0.177  12.095   0.994  1.00  0.00     0.241 C 
HETATM   10  O2  UNL     1       0.438  13.131   1.271  1.00  0.00    -0.269 OA
HETATM   11  N1  UNL     1      -0.488  11.941  -0.424  1.00  0.00    -0.353 N 
ATOM     12  H1  UNL     1      -0.993  11.109  -0.730  1.00  0.00     0.163 HD
BRANCH  11  13
HETATM   13  C12 UNL     1      -0.109  12.913  -1.394  1.00  0.00     0.084 C 
HETATM   14  C13 UNL     1      -1.320  13.675  -1.873  1.00  0.00     0.032 C 
BRANCH  13  15
HETATM   15  C14 UNL     1       0.574  12.245  -2.554  1.00  0.00     0.008 C 
HETATM   16  C15 UNL     1      -0.353  12.055  -3.730  1.00  0.00     0.012 C 
HETATM   17  C16 UNL     1       0.477  11.646  -4.929  1.00  0.00     0.079 C 
HETATM   18  C17 UNL     1       1.118  10.311  -4.617  1.00  0.00     0.243 C 
HETATM   19  F1  UNL     1       0.118   9.344  -4.579  1.00  0.00    -0.206 F 
HETATM   20  F2  UNL     1       1.989   9.952  -5.647  1.00  0.00    -0.206 F 
HETATM   21  C18 UNL     1       1.909  10.340  -3.351  1.00  0.00     0.079 C 
HETATM   22  C19 UNL     1       1.189  10.931  -2.180  1.00  0.00     0.012 C 
ENDBRANCH  13  15
ENDBRANCH  11  13
ENDBRANCH   8   9
ENDBRANCH   3   7
BRANCH   2  23
HETATM   23  O1  UNL     1      -3.291  11.824   0.298  1.00  0.00    -0.359 OA
ATOM     24  H1  UNL     1      -3.800  12.440  -0.215  1.00  0.00     0.217 HD
ENDBRANCH   2  23
BRANCH   1  25
HETATM   25  C5  UNL     1      -6.043  11.950   0.410  1.00  0.00     0.072 C 
BRANCH  25  26
HETATM   26  C4  UNL     1      -6.485  10.867  -0.515  1.00  0.00    -0.020 C 
HETATM   27  C2  UNL     1      -6.204  10.831  -1.807  1.00  0.00    -0.091 C 
HETATM   28  C1  UNL     1      -6.745   9.641  -2.577  1.00  0.00     0.042 C 
HETATM   29  C3  UNL     1      -5.428  11.867  -2.531  1.00  0.00     0.042 C 
ENDBRANCH  25  26
ENDBRANCH   1  25
BRANCH   5  30
HETATM   30  C22 UNL     1      -5.738  10.048   5.004  1.00  0.00     0.178 C 
HETATM   31  N2  UNL     1      -5.261  10.043   6.172  1.00  0.00    -0.241 N 
HETATM   32  O3  UNL     1      -6.115   9.524   7.105  1.00  0.00    -0.244 OA
ATOM     33  H2  UNL     1      -4.329  10.391   6.398  1.00  0.00     0.196 HD
HETATM   34  C23 UNL     1      -7.194   8.985   6.378  1.00  0.00     0.305 C 
HETATM   35  O4  UNL     1      -7.027   9.495   5.102  1.00  0.00    -0.299 OA
BRANCH  34  36
HETATM   36  C24 UNL     1      -8.465   9.442   7.052  1.00  0.00     0.013 C 
HETATM   37  C25 UNL     1      -9.370   8.234   7.181  1.00  0.00     0.019 C 
HETATM   38  C26 UNL     1     -10.650   8.585   7.912  1.00  0.00    -0.013 C 
HETATM   39  C27 UNL     1     -10.279   9.067   9.305  1.00  0.00     0.009 C 
HETATM   40  C31 UNL     1     -11.368   9.707   7.218  1.00  0.00     0.009 C 
HETATM   41  C28 UNL     1      -9.409  10.286   9.197  1.00  0.00    -0.013 C 
HETATM   42  C29 UNL     1     -10.084  11.397   8.430  1.00  0.00     0.009 C 
HETATM   43  C33 UNL     1      -8.148   9.906   8.461  1.00  0.00     0.019 C 
HETATM   44  C30 UNL     1     -10.432  10.872   7.061  1.00  0.00    -0.013 C 
HETATM   45  C32 UNL     1      -9.187  10.496   6.283  1.00  0.00     0.019 C 
ENDBRANCH  34  36
ENDBRANCH   5  30
BRANCH   6  46
HETATM   46  O5  UNL     1      -7.246  11.061   2.698  1.00  0.00    -0.359 OA
ATOM     47  H5  UNL     1      -7.673  10.697   3.464  1.00  0.00     0.217 HD
ENDBRANCH   6  46
TORSDOF 10
ENDMDL
