MODEL 1
REMARK VINA RESULT: -7.991652469      0.000      0.000
REMARK  9 active torsions:
REMARK  status: ('A' for Active; 'I' for Inactive)
REMARK    1  A    between atoms: N4_11  and  C4_12 
REMARK    2  A    between atoms: C4_12  and  O2_13 
REMARK    3  A    between atoms: O2_13  and  C5_14 
REMARK    4  A    between atoms: C5_14  and  N5_15 
REMARK    5  A    between atoms: N7_18  and  C6_19 
REMARK    6  A    between atoms: C9_24  and  N9_25 
REMARK    7  A    between atoms: C10_30  and  N11_31 
REMARK    8  A    between atoms: N11_31  and  C11_33 
REMARK    9  A    between atoms: C11_33  and  O3_37 
ROOT
HETATM    1  C1  UNL     1      -4.137   7.255  82.301  1.00  0.00     0.021 C 
HETATM    2  C2  UNL     1      -4.101   7.361  81.093  1.00  0.00    -0.038 C 
HETATM    3  C3  UNL     1      -4.081   7.488  79.673  1.00  0.00     0.197 A 
HETATM    4  N1  UNL     1      -5.073   8.027  79.056  1.00  0.00    -0.255 N 
ATOM      5  H1  UNL     1      -5.875   8.362  79.589  1.00  0.00     0.191 HD
HETATM    6  N2  UNL     1      -5.066   8.161  77.651  1.00  0.00    -0.179 N 
ATOM      7  H2  UNL     1      -5.849   8.587  77.156  1.00  0.00     0.218 HD
HETATM    8  O1  UNL     1      -3.967   7.695  76.978  1.00  0.00    -0.125 OA
HETATM    9  N3  UNL     1      -2.943   7.132  77.677  1.00  0.00    -0.174 N 
ATOM     10  H3  UNL     1      -2.129   6.789  77.166  1.00  0.00     0.218 HD
HETATM   11  N4  UNL     1      -2.963   7.019  78.939  1.00  0.00    -0.222 N 
ENDROOT
BRANCH  11  12
HETATM   12  C4  UNL     1      -1.863   6.413  79.700  1.00  0.00     0.329 C 
BRANCH  12  13
HETATM   13  O2  UNL     1      -1.964   5.049  79.720  1.00  0.00    -0.323 OA
BRANCH  13  14
HETATM   14  C5  UNL     1      -0.853   4.333  80.090  1.00  0.00     0.258 C 
BRANCH  14  15
HETATM   15  N5  UNL     1      -0.948   3.678  81.377  1.00  0.00    -0.194 N 
HETATM   16  N6  UNL     1      -1.089   4.399  82.501  1.00  0.00    -0.228 N 
HETATM   17  N7  UNL     1      -1.202   3.870  83.701  1.00  0.00    -0.261 N 
ATOM     18  H6  UNL     1      -1.110   5.415  82.420  1.00  0.00     0.209 HD
HETATM   19  C8  UNL     1      -1.173   2.530  83.799  1.00  0.00     0.158 A 
HETATM   20  N8  UNL     1      -1.280   1.883  84.974  1.00  0.00    -0.174 N 
HETATM   21  C12 UNL     1      -1.029   1.732  82.665  1.00  0.00     0.124 A 
HETATM   22  C9  UNL     1      -1.248   0.533  85.054  1.00  0.00     0.679 A 
ATOM     23  H8  UNL     1      -1.388   2.426  85.829  1.00  0.00     0.186 HD
HETATM   24  N10 UNL     1      -1.109  -0.243  83.958  1.00  0.00    -0.176 N 
HETATM   25  C10 UNL     1      -0.998   0.360  82.753  1.00  0.00     0.143 A 
ATOM     26  H10 UNL     1      -1.088  -1.260  84.038  1.00  0.00     0.186 HD
HETATM   27  C13 UNL     1      -0.914   2.338  81.421  1.00  0.00     0.286 A 
HETATM   28  O4  UNL     1      -0.783   1.615  80.429  1.00  0.00    -0.265 OA
BRANCH  17  29
HETATM   29  C6  UNL     1      -1.357   4.689  84.900  1.00  0.00     0.148 C 
HETATM   30  C7  UNL     1      -2.770   5.171  85.082  1.00  0.00     0.028 C 
ENDBRANCH  17  29
BRANCH  22  31
HETATM   31  N9  UNL     1      -1.352  -0.076  86.189  1.00  0.00    -0.234 N 
ATOM     32  H92 UNL     1      -0.983   0.410  87.006  1.00  0.00     0.174 HD
ATOM     33  H91 UNL     1      -1.780  -0.999  86.260  1.00  0.00     0.174 HD
ENDBRANCH  22  31
BRANCH  25  34
HETATM   34  N11 UNL     1      -0.862  -0.306  81.659  1.00  0.00    -0.307 N 
ATOM     35  H11 UNL     1      -0.953   0.152  80.752  1.00  0.00     0.171 HD
BRANCH  34  36
HETATM   36  C11 UNL     1      -0.583  -1.687  81.751  1.00  0.00     0.216 C 
HETATM   37  N12 UNL     1       0.605  -2.130  81.572  1.00  0.00    -0.365 N 
ATOM     38 2H12 UNL     1       1.356  -1.473  81.361  1.00  0.00     0.159 HD
ATOM     39 1H12 UNL     1       0.806  -3.128  81.637  1.00  0.00     0.159 HD
BRANCH  36  40
HETATM   40  O3  UNL     1      -1.596  -2.575  82.035  1.00  0.00    -0.333 OA
ATOM     41  H3  UNL     1      -2.218  -2.379  82.726  1.00  0.00     0.220 HD
ENDBRANCH  36  40
ENDBRANCH  34  36
ENDBRANCH  25  34
ENDBRANCH  14  15
ENDBRANCH  13  14
ENDBRANCH  12  13
ENDBRANCH  11  12
TORSDOF 9
ENDMDL
MODEL 2
REMARK VINA RESULT: -7.900751793      3.628      6.449
REMARK  9 active torsions:
REMARK  status: ('A' for Active; 'I' for Inactive)
REMARK    1  A    between atoms: N4_11  and  C4_12 
REMARK    2  A    between atoms: C4_12  and  O2_13 
REMARK    3  A    between atoms: O2_13  and  C5_14 
REMARK    4  A    between atoms: C5_14  and  N5_15 
REMARK    5  A    between atoms: N7_18  and  C6_19 
REMARK    6  A    between atoms: C9_24  and  N9_25 
REMARK    7  A    between atoms: C10_30  and  N11_31 
REMARK    8  A    between atoms: N11_31  and  C11_33 
REMARK    9  A    between atoms: C11_33  and  O3_37 
ROOT
HETATM    1  C1  UNL     1      -3.341   2.335  88.980  1.00  0.00     0.021 C 
HETATM    2  C2  UNL     1      -2.863   1.890  87.957  1.00  0.00    -0.038 C 
HETATM    3  C3  UNL     1      -2.289   1.353  86.768  1.00  0.00     0.197 A 
HETATM    4  N1  UNL     1      -1.767   0.176  86.774  1.00  0.00    -0.255 N 
ATOM      5  H1  UNL     1      -1.766  -0.369  87.635  1.00  0.00     0.191 HD
HETATM    6  N2  UNL     1      -1.196  -0.368  85.604  1.00  0.00    -0.179 N 
ATOM      7  H2  UNL     1      -0.781  -1.300  85.601  1.00  0.00     0.218 HD
HETATM    8  O1  UNL     1      -1.221   0.403  84.471  1.00  0.00    -0.125 OA
HETATM    9  N3  UNL     1      -1.785   1.642  84.517  1.00  0.00    -0.174 N 
ATOM     10  H3  UNL     1      -1.797   2.207  83.668  1.00  0.00     0.218 HD
HETATM   11  N4  UNL     1      -2.293   2.118  85.575  1.00  0.00    -0.222 N 
ENDROOT
BRANCH  11  12
HETATM   12  C4  UNL     1      -2.903   3.453  85.632  1.00  0.00     0.329 C 
BRANCH  12  13
HETATM   13  O2  UNL     1      -3.255   3.893  84.385  1.00  0.00    -0.323 OA
BRANCH  13  14
HETATM   14  C5  UNL     1      -2.769   5.110  83.979  1.00  0.00     0.258 C 
BRANCH  14  15
HETATM   15  N5  UNL     1      -1.358   5.128  83.654  1.00  0.00    -0.194 N 
HETATM   16  N6  UNL     1      -0.539   6.027  84.223  1.00  0.00    -0.228 N 
HETATM   17  N7  UNL     1       0.756   6.087  83.990  1.00  0.00    -0.261 N 
ATOM     18  H6  UNL     1      -0.942   6.701  84.873  1.00  0.00     0.209 HD
HETATM   19  C8  UNL     1       1.279   5.195  83.131  1.00  0.00     0.158 A 
HETATM   20  N8  UNL     1       2.587   5.166  82.819  1.00  0.00    -0.174 N 
HETATM   21  C12 UNL     1       0.475   4.240  82.511  1.00  0.00     0.124 A 
HETATM   22  C9  UNL     1       3.097   4.262  81.952  1.00  0.00     0.679 A 
ATOM     23  H8  UNL     1       3.213   5.845  83.249  1.00  0.00     0.186 HD
HETATM   24  N10 UNL     1       2.321   3.335  81.350  1.00  0.00    -0.176 N 
HETATM   25  C10 UNL     1       0.999   3.323  81.631  1.00  0.00     0.143 A 
ATOM     26  H10 UNL     1       2.723   2.659  80.700  1.00  0.00     0.186 HD
HETATM   27  C13 UNL     1      -0.885   4.217  82.791  1.00  0.00     0.286 A 
HETATM   28  O4  UNL     1      -1.583   3.367  82.230  1.00  0.00    -0.265 OA
BRANCH  17  29
HETATM   29  C6  UNL     1       1.615   7.079  84.631  1.00  0.00     0.148 C 
HETATM   30  C7  UNL     1       0.824   8.129  85.363  1.00  0.00     0.028 C 
ENDBRANCH  17  29
BRANCH  22  31
HETATM   31  N9  UNL     1       4.356   4.244  81.661  1.00  0.00    -0.234 N 
ATOM     32  H92 UNL     1       4.984   4.718  82.311  1.00  0.00     0.174 HD
ATOM     33  H91 UNL     1       4.701   3.778  80.821  1.00  0.00     0.174 HD
ENDBRANCH  22  31
BRANCH  25  34
HETATM   34  N11 UNL     1       0.189   2.474  81.101  1.00  0.00    -0.307 N 
ATOM     35  H11 UNL     1      -0.653   2.784  80.616  1.00  0.00     0.171 HD
BRANCH  34  36
HETATM   36  C11 UNL     1       0.499   1.100  81.211  1.00  0.00     0.216 C 
HETATM   37  N12 UNL     1      -0.335   0.278  81.729  1.00  0.00    -0.365 N 
ATOM     38 2H12 UNL     1      -1.233   0.626  82.065  1.00  0.00     0.159 HD
ATOM     39 1H12 UNL     1      -0.112  -0.713  81.808  1.00  0.00     0.159 HD
BRANCH  36  40
HETATM   40  O3  UNL     1       1.710   0.631  80.756  1.00  0.00    -0.333 OA
ATOM     41  H3  UNL     1       1.836  -0.300  80.616  1.00  0.00     0.220 HD
ENDBRANCH  36  40
ENDBRANCH  34  36
ENDBRANCH  25  34
ENDBRANCH  14  15
ENDBRANCH  13  14
ENDBRANCH  12  13
ENDBRANCH  11  12
TORSDOF 9
ENDMDL
MODEL 3
REMARK VINA RESULT: -7.820018927      1.007      1.007
REMARK  9 active torsions:
REMARK  status: ('A' for Active; 'I' for Inactive)
REMARK    1  A    between atoms: N4_11  and  C4_12 
REMARK    2  A    between atoms: C4_12  and  O2_13 
REMARK    3  A    between atoms: O2_13  and  C5_14 
REMARK    4  A    between atoms: C5_14  and  N5_15 
REMARK    5  A    between atoms: N7_18  and  C6_19 
REMARK    6  A    between atoms: C9_24  and  N9_25 
REMARK    7  A    between atoms: C10_30  and  N11_31 
REMARK    8  A    between atoms: N11_31  and  C11_33 
REMARK    9  A    between atoms: C11_33  and  O3_37 
ROOT
HETATM    1  C1  UNL     1      -4.124   7.260  82.224  1.00  0.00     0.021 C 
HETATM    2  C2  UNL     1      -4.057   7.398  81.021  1.00  0.00    -0.038 C 
HETATM    3  C3  UNL     1      -4.000   7.561  79.606  1.00  0.00     0.197 A 
HETATM    4  N1  UNL     1      -5.007   8.047  78.968  1.00  0.00    -0.255 N 
ATOM      5  H1  UNL     1      -5.847   8.313  79.482  1.00  0.00     0.191 HD
HETATM    6  N2  UNL     1      -4.965   8.215  77.567  1.00  0.00    -0.179 N 
ATOM      7  H2  UNL     1      -5.759   8.599  77.056  1.00  0.00     0.218 HD
HETATM    8  O1  UNL     1      -3.815   7.841  76.922  1.00  0.00    -0.125 OA
HETATM    9  N3  UNL     1      -2.777   7.332  77.642  1.00  0.00    -0.174 N 
ATOM     10  H3  UNL     1      -1.927   7.058  77.150  1.00  0.00     0.218 HD
HETATM   11  N4  UNL     1      -2.830   7.187  78.899  1.00  0.00    -0.222 N 
ENDROOT
BRANCH  11  12
HETATM   12  C4  UNL     1      -1.715   6.640  79.683  1.00  0.00     0.329 C 
BRANCH  12  13
HETATM   13  O2  UNL     1      -1.535   5.307  79.427  1.00  0.00    -0.323 OA
BRANCH  13  14
HETATM   14  C5  UNL     1      -0.341   4.743  79.800  1.00  0.00     0.258 C 
BRANCH  14  15
HETATM   15  N5  UNL     1      -0.343   4.113  81.103  1.00  0.00    -0.194 N 
HETATM   16  N6  UNL     1       0.031   4.800  82.194  1.00  0.00    -0.228 N 
HETATM   17  N7  UNL     1       0.034   4.297  83.411  1.00  0.00    -0.261 N 
ATOM     18  H6  UNL     1       0.330   5.767  82.074  1.00  0.00     0.209 HD
HETATM   19  C8  UNL     1      -0.361   3.021  83.562  1.00  0.00     0.158 A 
HETATM   20  N8  UNL     1      -0.398   2.406  84.757  1.00  0.00    -0.174 N 
HETATM   21  C12 UNL     1      -0.760   2.261  82.464  1.00  0.00     0.124 A 
HETATM   22  C9  UNL     1      -0.798   1.121  84.891  1.00  0.00     0.679 A 
ATOM     23  H8  UNL     1      -0.115   2.925  85.589  1.00  0.00     0.186 HD
HETATM   24  N10 UNL     1      -1.185   0.381  83.830  1.00  0.00    -0.176 N 
HETATM   25  C10 UNL     1      -1.167   0.955  82.605  1.00  0.00     0.143 A 
ATOM     26  H10 UNL     1      -1.485  -0.586  83.949  1.00  0.00     0.186 HD
HETATM   27  C13 UNL     1      -0.746   2.837  81.200  1.00  0.00     0.286 A 
HETATM   28  O4  UNL     1      -1.099   2.147  80.239  1.00  0.00    -0.265 OA
BRANCH  17  29
HETATM   29  C6  UNL     1       0.446   5.079  84.574  1.00  0.00     0.148 C 
HETATM   30  C7  UNL     1      -0.009   6.510  84.488  1.00  0.00     0.028 C 
ENDBRANCH  17  29
BRANCH  22  31
HETATM   31  N9  UNL     1      -0.828   0.542  86.046  1.00  0.00    -0.234 N 
ATOM     32  H92 UNL     1      -0.069   0.763  86.690  1.00  0.00     0.174 HD
ATOM     33  H91 UNL     1      -1.576  -0.105  86.297  1.00  0.00     0.174 HD
ENDBRANCH  22  31
BRANCH  25  34
HETATM   34  N11 UNL     1      -1.520   0.320  81.542  1.00  0.00    -0.307 N 
ATOM     35  H11 UNL     1      -2.280   0.664  80.954  1.00  0.00     0.171 HD
BRANCH  34  36
HETATM   36  C11 UNL     1      -0.827  -0.864  81.212  1.00  0.00     0.216 C 
HETATM   37  N12 UNL     1       0.102  -0.858  80.331  1.00  0.00    -0.365 N 
ATOM     38 2H12 UNL     1       0.340   0.017  79.864  1.00  0.00     0.159 HD
ATOM     39 1H12 UNL     1       0.603  -1.713  80.092  1.00  0.00     0.159 HD
BRANCH  36  40
HETATM   40  O3  UNL     1      -1.147  -2.046  81.841  1.00  0.00    -0.333 OA
ATOM     41  H3  UNL     1      -1.213  -2.849  81.338  1.00  0.00     0.220 HD
ENDBRANCH  36  40
ENDBRANCH  34  36
ENDBRANCH  25  34
ENDBRANCH  14  15
ENDBRANCH  13  14
ENDBRANCH  12  13
ENDBRANCH  11  12
TORSDOF 9
ENDMDL
MODEL 4
REMARK VINA RESULT: -7.569987346      3.013      4.762
REMARK  9 active torsions:
REMARK  status: ('A' for Active; 'I' for Inactive)
REMARK    1  A    between atoms: N4_11  and  C4_12 
REMARK    2  A    between atoms: C4_12  and  O2_13 
REMARK    3  A    between atoms: O2_13  and  C5_14 
REMARK    4  A    between atoms: C5_14  and  N5_15 
REMARK    5  A    between atoms: N7_18  and  C6_19 
REMARK    6  A    between atoms: C9_24  and  N9_25 
REMARK    7  A    between atoms: C10_30  and  N11_31 
REMARK    8  A    between atoms: N11_31  and  C11_33 
REMARK    9  A    between atoms: C11_33  and  O3_37 
ROOT
HETATM    1  C1  UNL     1       2.182   1.644  80.829  1.00  0.00     0.021 C 
HETATM    2  C2  UNL     1       2.629   2.762  80.974  1.00  0.00    -0.038 C 
HETATM    3  C3  UNL     1       3.161   4.072  81.163  1.00  0.00     0.197 A 
HETATM    4  N1  UNL     1       4.078   4.277  82.043  1.00  0.00    -0.255 N 
ATOM      5  H1  UNL     1       4.421   3.498  82.604  1.00  0.00     0.191 HD
HETATM    6  N2  UNL     1       4.615   5.567  82.241  1.00  0.00    -0.179 N 
ATOM      7  H2  UNL     1       5.341   5.738  82.936  1.00  0.00     0.218 HD
HETATM    8  O1  UNL     1       4.122   6.582  81.464  1.00  0.00    -0.125 OA
HETATM    9  N3  UNL     1       3.151   6.313  80.547  1.00  0.00    -0.174 N 
ATOM     10  H3  UNL     1       2.792   7.076  79.973  1.00  0.00     0.218 HD
HETATM   11  N4  UNL     1       2.679   5.149  80.380  1.00  0.00    -0.222 N 
ENDROOT
BRANCH  11  12
HETATM   12  C4  UNL     1       1.633   4.850  79.394  1.00  0.00     0.329 C 
BRANCH  12  13
HETATM   13  O2  UNL     1       0.520   5.621  79.599  1.00  0.00    -0.323 OA
BRANCH  13  14
HETATM   14  C5  UNL     1      -0.637   4.983  79.969  1.00  0.00     0.258 C 
BRANCH  14  15
HETATM   15  N5  UNL     1      -0.578   4.302  81.246  1.00  0.00    -0.194 N 
HETATM   16  N6  UNL     1      -0.187   4.956  82.351  1.00  0.00    -0.228 N 
HETATM   17  N7  UNL     1      -0.130   4.405  83.545  1.00  0.00    -0.261 N 
ATOM     18  H6  UNL     1       0.081   5.935  82.260  1.00  0.00     0.209 HD
HETATM   19  C8  UNL     1      -0.484   3.113  83.657  1.00  0.00     0.158 A 
HETATM   20  N8  UNL     1      -0.464   2.451  84.827  1.00  0.00    -0.174 N 
HETATM   21  C12 UNL     1      -0.898   2.386  82.542  1.00  0.00     0.124 A 
HETATM   22  C9  UNL     1      -0.823   1.150  84.921  1.00  0.00     0.679 A 
ATOM     23  H8  UNL     1      -0.168   2.944  85.669  1.00  0.00     0.186 HD
HETATM   24  N10 UNL     1      -1.225   0.442  83.844  1.00  0.00    -0.176 N 
HETATM   25  C10 UNL     1      -1.264   1.064  82.644  1.00  0.00     0.143 A 
ATOM     26  H10 UNL     1      -1.494  -0.537  83.933  1.00  0.00     0.186 HD
HETATM   27  C13 UNL     1      -0.942   3.012  81.304  1.00  0.00     0.286 A 
HETATM   28  O4  UNL     1      -1.308   2.351  80.327  1.00  0.00    -0.265 OA
BRANCH  17  29
HETATM   29  C6  UNL     1       0.300   5.151  84.725  1.00  0.00     0.148 C 
HETATM   30  C7  UNL     1       0.137   6.637  84.549  1.00  0.00     0.028 C 
ENDBRANCH  17  29
BRANCH  22  31
HETATM   31  N9  UNL     1      -0.799   0.525  86.052  1.00  0.00    -0.234 N 
ATOM     32  H92 UNL     1      -0.076  -0.185  86.168  1.00  0.00     0.174 HD
ATOM     33  H91 UNL     1      -1.472   0.734  86.789  1.00  0.00     0.174 HD
ENDBRANCH  22  31
BRANCH  25  34
HETATM   34  N11 UNL     1      -1.634   0.462  81.568  1.00  0.00    -0.307 N 
ATOM     35  H11 UNL     1      -2.400   0.827  81.000  1.00  0.00     0.171 HD
BRANCH  34  36
HETATM   36  C11 UNL     1      -0.952  -0.716  81.194  1.00  0.00     0.216 C 
HETATM   37  N12 UNL     1      -0.245  -0.755  80.127  1.00  0.00    -0.365 N 
ATOM     38 2H12 UNL     1      -0.178   0.078  79.544  1.00  0.00     0.159 HD
ATOM     39 1H12 UNL     1       0.248  -1.606  79.858  1.00  0.00     0.159 HD
BRANCH  36  40
HETATM   40  O3  UNL     1      -1.042  -1.841  81.982  1.00  0.00    -0.333 OA
ATOM     41  H3  UNL     1      -0.346  -2.048  82.594  1.00  0.00     0.220 HD
ENDBRANCH  36  40
ENDBRANCH  34  36
ENDBRANCH  25  34
ENDBRANCH  14  15
ENDBRANCH  13  14
ENDBRANCH  12  13
ENDBRANCH  11  12
TORSDOF 9
ENDMDL
MODEL 5
REMARK VINA RESULT: -7.555544354      3.660      6.574
REMARK  9 active torsions:
REMARK  status: ('A' for Active; 'I' for Inactive)
REMARK    1  A    between atoms: N4_11  and  C4_12 
REMARK    2  A    between atoms: C4_12  and  O2_13 
REMARK    3  A    between atoms: O2_13  and  C5_14 
REMARK    4  A    between atoms: C5_14  and  N5_15 
REMARK    5  A    between atoms: N7_18  and  C6_19 
REMARK    6  A    between atoms: C9_24  and  N9_25 
REMARK    7  A    between atoms: C10_30  and  N11_31 
REMARK    8  A    between atoms: N11_31  and  C11_33 
REMARK    9  A    between atoms: C11_33  and  O3_37 
ROOT
HETATM    1  C1  UNL     1       0.514   2.834  85.708  1.00  0.00     0.021 C 
HETATM    2  C2  UNL     1      -0.505   2.283  86.065  1.00  0.00    -0.038 C 
HETATM    3  C3  UNL     1      -1.694   1.615  86.484  1.00  0.00     0.197 A 
HETATM    4  N1  UNL     1      -1.640   0.402  86.910  1.00  0.00    -0.255 N 
ATOM      5  H1  UNL     1      -0.742  -0.080  86.945  1.00  0.00     0.191 HD
HETATM    6  N2  UNL     1      -2.808  -0.272  87.328  1.00  0.00    -0.179 N 
ATOM      7  H2  UNL     1      -2.772  -1.233  87.666  1.00  0.00     0.218 HD
HETATM    8  O1  UNL     1      -3.991   0.417  87.261  1.00  0.00    -0.125 OA
HETATM    9  N3  UNL     1      -3.995   1.699  86.803  1.00  0.00    -0.174 N 
ATOM     10  H3  UNL     1      -4.881   2.202  86.758  1.00  0.00     0.218 HD
HETATM   11  N4  UNL     1      -2.938   2.291  86.431  1.00  0.00    -0.222 N 
ENDROOT
BRANCH  11  12
HETATM   12  C4  UNL     1      -2.934   3.673  85.936  1.00  0.00     0.329 C 
BRANCH  12  13
HETATM   13  O2  UNL     1      -3.275   3.729  84.611  1.00  0.00    -0.323 OA
BRANCH  13  14
HETATM   14  C5  UNL     1      -2.906   4.845  83.905  1.00  0.00     0.258 C 
BRANCH  14  15
HETATM   15  N5  UNL     1      -1.505   4.903  83.541  1.00  0.00    -0.194 N 
HETATM   16  N6  UNL     1      -0.715   5.875  84.022  1.00  0.00    -0.228 N 
HETATM   17  N7  UNL     1       0.569   5.977  83.750  1.00  0.00    -0.261 N 
ATOM     18  H6  UNL     1      -1.133   6.576  84.634  1.00  0.00     0.209 HD
HETATM   19  C8  UNL     1       1.113   5.051  82.942  1.00  0.00     0.158 A 
HETATM   20  N8  UNL     1       2.413   5.057  82.598  1.00  0.00    -0.174 N 
HETATM   21  C12 UNL     1       0.339   4.018  82.414  1.00  0.00     0.124 A 
HETATM   22  C9  UNL     1       2.944   4.117  81.783  1.00  0.00     0.679 A 
ATOM     23  H8  UNL     1       3.017   5.793  82.962  1.00  0.00     0.186 HD
HETATM   24  N10 UNL     1       2.198   3.115  81.270  1.00  0.00    -0.176 N 
HETATM   25  C10 UNL     1       0.884   3.065  81.587  1.00  0.00     0.143 A 
ATOM     26  H10 UNL     1       2.615   2.414  80.658  1.00  0.00     0.186 HD
HETATM   27  C13 UNL     1      -1.011   3.954  82.731  1.00  0.00     0.286 A 
HETATM   28  O4  UNL     1      -1.681   3.035  82.251  1.00  0.00    -0.265 OA
BRANCH  17  29
HETATM   29  C6  UNL     1       1.397   7.050  84.296  1.00  0.00     0.148 C 
HETATM   30  C7  UNL     1       0.677   7.839  85.356  1.00  0.00     0.028 C 
ENDBRANCH  17  29
BRANCH  22  31
HETATM   31  N9  UNL     1       4.195   4.135  81.460  1.00  0.00    -0.234 N 
ATOM     32  H92 UNL     1       4.418   4.409  80.503  1.00  0.00     0.174 HD
ATOM     33  H91 UNL     1       4.921   3.885  82.131  1.00  0.00     0.174 HD
ENDBRANCH  22  31
BRANCH  25  34
HETATM   34  N11 UNL     1       0.103   2.144  81.140  1.00  0.00    -0.307 N 
ATOM     35  H11 UNL     1      -0.707   2.377  80.565  1.00  0.00     0.171 HD
BRANCH  34  36
HETATM   36  C11 UNL     1       0.397   0.803  81.469  1.00  0.00     0.216 C 
HETATM   37  N12 UNL     1      -0.438   0.089  82.127  1.00  0.00    -0.365 N 
ATOM     38 2H12 UNL     1      -1.326   0.500  82.414  1.00  0.00     0.159 HD
ATOM     39 1H12 UNL     1      -0.226  -0.879  82.364  1.00  0.00     0.159 HD
BRANCH  36  40
HETATM   40  O3  UNL     1       1.596   0.248  81.081  1.00  0.00    -0.333 OA
ATOM     41  H3  UNL     1       2.106  -0.260  81.701  1.00  0.00     0.220 HD
ENDBRANCH  36  40
ENDBRANCH  34  36
ENDBRANCH  25  34
ENDBRANCH  14  15
ENDBRANCH  13  14
ENDBRANCH  12  13
ENDBRANCH  11  12
TORSDOF 9
ENDMDL
