MODEL 1
REMARK VINA RESULT: -6.167656723      0.000      0.000
REMARK  5 active torsions:
REMARK  status: ('A' for Active; 'I' for Inactive)
REMARK    1  A    between atoms: C2_2  and  C3_3 
REMARK    2  A    between atoms: C5_8  and  C6_9 
REMARK    3  A    between atoms: C6_9  and  C7_10 
REMARK    4  A    between atoms: C7_10  and  O1_11 
REMARK    5  A    between atoms: C11_16  and  N2_17 
ROOT
HETATM    1  N2  UNL     1     136.515  -0.600 -56.405  1.00  0.00    -0.363 N 
ATOM      2  H2  UNL     1     136.969   0.297 -56.575  1.00  0.00     0.161 HD
HETATM    3  C12 UNL     1     136.060  -1.282 -57.403  1.00  0.00     0.179 C 
HETATM    4  C13 UNL     1     135.427  -2.533 -57.163  1.00  0.00     0.104 C 
HETATM    5  N3  UNL     1     134.898  -3.538 -56.962  1.00  0.00    -0.191 NA
ENDROOT
BRANCH   1   6
HETATM    6  C11 UNL     1     136.390  -1.090 -55.049  1.00  0.00     0.285 C 
HETATM    7  C10 UNL     1     137.750  -1.092 -54.345  1.00  0.00     0.061 C 
HETATM    8  C9  UNL     1     137.526  -1.149 -52.834  1.00  0.00     0.022 C 
HETATM    9  C3  UNL     1     137.510   0.221 -52.217  1.00  0.00     0.190 C 
HETATM   10  C8  UNL     1     136.184  -1.824 -52.641  1.00  0.00     0.047 C 
HETATM   11  N1  UNL     1     136.392   0.445 -51.343  1.00  0.00    -0.068 N 
HETATM   12  C4  UNL     1     135.106   0.246 -51.962  1.00  0.00     0.271 C 
ATOM     13  H12 UNL     1     136.476  -0.129 -50.504  1.00  0.00     0.277 HD
ATOM     14  H11 UNL     1     136.448   1.373 -50.925  1.00  0.00     0.277 HD
HETATM   15  C5  UNL     1     135.125  -0.820 -53.035  1.00  0.00     0.154 C 
HETATM   16  N4  UNL     1     135.541  -0.205 -54.306  1.00  0.00    -0.044 N 
ATOM     17  H42 UNL     1     134.738   0.100 -54.857  1.00  0.00     0.280 HD
ATOM     18  H41 UNL     1     135.981   0.704 -54.159  1.00  0.00     0.280 HD
BRANCH   9  19
HETATM   19  C2  UNL     1     138.768   0.537 -51.450  1.00  0.00     0.029 C 
HETATM   20  C1  UNL     1     139.829   1.185 -52.268  1.00  0.00     0.007 C 
ENDBRANCH   9  19
BRANCH  15  21
HETATM   21  C6  UNL     1     133.794  -1.450 -53.280  1.00  0.00     0.067 C 
BRANCH  21  22
HETATM   22  C7  UNL     1     133.793  -2.938 -53.313  1.00  0.00     0.166 C 
BRANCH  22  23
HETATM   23  O1  UNL     1     132.993  -3.320 -54.415  1.00  0.00    -0.401 OA
ATOM     24  H1  UNL     1     133.408  -4.082 -54.802  1.00  0.00     0.209 HD
ENDBRANCH  22  23
ENDBRANCH  21  22
ENDBRANCH  15  21
ENDBRANCH   1   6
TORSDOF 5
ENDMDL
MODEL 2
REMARK VINA RESULT: -5.692378981      1.888      3.391
REMARK  5 active torsions:
REMARK  status: ('A' for Active; 'I' for Inactive)
REMARK    1  A    between atoms: C2_2  and  C3_3 
REMARK    2  A    between atoms: C5_8  and  C6_9 
REMARK    3  A    between atoms: C6_9  and  C7_10 
REMARK    4  A    between atoms: C7_10  and  O1_11 
REMARK    5  A    between atoms: C11_16  and  N2_17 
ROOT
HETATM    1  N2  UNL     1     134.264  -1.266 -52.172  1.00  0.00    -0.363 N 
ATOM      2  H2  UNL     1     134.414  -0.728 -51.319  1.00  0.00     0.161 HD
HETATM    3  C12 UNL     1     133.292  -2.114 -52.226  1.00  0.00     0.179 C 
HETATM    4  C13 UNL     1     133.086  -2.864 -53.418  1.00  0.00     0.104 C 
HETATM    5  N3  UNL     1     132.934  -3.483 -54.379  1.00  0.00    -0.191 NA
ENDROOT
BRANCH   1   6
HETATM    6  C11 UNL     1     135.144  -1.068 -53.303  1.00  0.00     0.285 C 
HETATM    7  C10 UNL     1     135.743   0.342 -53.284  1.00  0.00     0.061 C 
HETATM    8  C9  UNL     1     136.987   0.364 -54.173  1.00  0.00     0.022 C 
HETATM    9  C3  UNL     1     138.243   0.110 -53.389  1.00  0.00     0.190 C 
HETATM   10  C8  UNL     1     136.781  -0.733 -55.198  1.00  0.00     0.047 C 
HETATM   11  N1  UNL     1     139.095  -0.886 -53.974  1.00  0.00    -0.068 N 
HETATM   12  C4  UNL     1     138.461  -2.164 -54.178  1.00  0.00     0.271 C 
ATOM     13  H12 UNL     1     139.496  -0.544 -54.848  1.00  0.00     0.277 HD
ATOM     14  H11 UNL     1     139.946  -0.994 -53.423  1.00  0.00     0.277 HD
HETATM   15  C5  UNL     1     136.983  -2.048 -54.481  1.00  0.00     0.154 C 
HETATM   16  N4  UNL     1     136.243  -1.985 -53.211  1.00  0.00    -0.044 N 
ATOM     17  H42 UNL     1     135.938  -2.910 -52.906  1.00  0.00     0.280 HD
ATOM     18  H41 UNL     1     136.857  -1.759 -52.427  1.00  0.00     0.280 HD
BRANCH   9  19
HETATM   19  C2  UNL     1     139.065   1.355 -53.174  1.00  0.00     0.029 C 
HETATM   20  C1  UNL     1     140.138   1.203 -52.155  1.00  0.00     0.007 C 
ENDBRANCH   9  19
BRANCH  15  21
HETATM   21  C6  UNL     1     136.432  -3.210 -55.239  1.00  0.00     0.067 C 
BRANCH  21  22
HETATM   22  C7  UNL     1     135.990  -2.909 -56.629  1.00  0.00     0.166 C 
BRANCH  22  23
HETATM   23  O1  UNL     1     134.715  -3.501 -56.787  1.00  0.00    -0.401 OA
ATOM     24  H1  UNL     1     134.686  -3.854 -57.669  1.00  0.00     0.209 HD
ENDBRANCH  22  23
ENDBRANCH  21  22
ENDBRANCH  15  21
ENDBRANCH   1   6
TORSDOF 5
ENDMDL
MODEL 3
REMARK VINA RESULT: -5.683951028      1.643      1.837
REMARK  5 active torsions:
REMARK  status: ('A' for Active; 'I' for Inactive)
REMARK    1  A    between atoms: C2_2  and  C3_3 
REMARK    2  A    between atoms: C5_8  and  C6_9 
REMARK    3  A    between atoms: C6_9  and  C7_10 
REMARK    4  A    between atoms: C7_10  and  O1_11 
REMARK    5  A    between atoms: C11_16  and  N2_17 
ROOT
HETATM    1  N2  UNL     1     137.133  -0.913 -56.482  1.00  0.00    -0.363 N 
ATOM      2  H2  UNL     1     137.697  -0.075 -56.624  1.00  0.00     0.161 HD
HETATM    3  C12 UNL     1     136.295  -1.278 -57.394  1.00  0.00     0.179 C 
HETATM    4  C13 UNL     1     135.510  -2.447 -57.193  1.00  0.00     0.104 C 
HETATM    5  N3  UNL     1     134.863  -3.385 -57.017  1.00  0.00    -0.191 NA
ENDROOT
BRANCH   1   6
HETATM    6  C11 UNL     1     137.286  -1.676 -55.262  1.00  0.00     0.285 C 
HETATM    7  C10 UNL     1     138.767  -1.863 -54.920  1.00  0.00     0.061 C 
HETATM    8  C9  UNL     1     138.892  -2.233 -53.442  1.00  0.00     0.022 C 
HETATM    9  C3  UNL     1     139.122  -1.026 -52.578  1.00  0.00     0.190 C 
HETATM   10  C8  UNL     1     137.582  -2.898 -53.071  1.00  0.00     0.047 C 
HETATM   11  N1  UNL     1     138.255  -0.963 -51.435  1.00  0.00    -0.068 N 
HETATM   12  C4  UNL     1     136.850  -0.991 -51.754  1.00  0.00     0.271 C 
ATOM     13  H12 UNL     1     138.485  -1.703 -50.772  1.00  0.00     0.277 HD
ATOM     14  H11 UNL     1     138.475  -0.146 -50.866  1.00  0.00     0.277 HD
HETATM   15  C5  UNL     1     136.541  -1.806 -52.991  1.00  0.00     0.154 C 
HETATM   16  N4  UNL     1     136.700  -0.946 -54.175  1.00  0.00    -0.044 N 
ATOM     17  H42 UNL     1     135.818  -0.511 -54.445  1.00  0.00     0.280 HD
ATOM     18  H41 UNL     1     137.230  -0.102 -53.959  1.00  0.00     0.280 HD
BRANCH   9  19
HETATM   19  C2  UNL     1     140.543  -0.913 -52.088  1.00  0.00     0.029 C 
HETATM   20  C1  UNL     1     141.301  -2.193 -52.130  1.00  0.00     0.007 C 
ENDBRANCH   9  19
BRANCH  15  21
HETATM   21  C6  UNL     1     135.146  -2.334 -53.030  1.00  0.00     0.067 C 
BRANCH  21  22
HETATM   22  C7  UNL     1     134.075  -1.300 -52.994  1.00  0.00     0.166 C 
BRANCH  22  23
HETATM   23  O1  UNL     1     133.797  -0.955 -54.338  1.00  0.00    -0.401 OA
ATOM     24  H1  UNL     1     134.535  -0.443 -54.646  1.00  0.00     0.209 HD
ENDBRANCH  22  23
ENDBRANCH  21  22
ENDBRANCH  15  21
ENDBRANCH   1   6
TORSDOF 5
ENDMDL
MODEL 4
REMARK VINA RESULT: -5.653372852      2.581      5.305
REMARK  5 active torsions:
REMARK  status: ('A' for Active; 'I' for Inactive)
REMARK    1  A    between atoms: C2_2  and  C3_3 
REMARK    2  A    between atoms: C5_8  and  C6_9 
REMARK    3  A    between atoms: C6_9  and  C7_10 
REMARK    4  A    between atoms: C7_10  and  O1_11 
REMARK    5  A    between atoms: C11_16  and  N2_17 
ROOT
HETATM    1  N2  UNL     1     135.867   0.508 -53.681  1.00  0.00    -0.363 N 
ATOM      2  H2  UNL     1     134.932   0.266 -53.354  1.00  0.00     0.161 HD
HETATM    3  C12 UNL     1     136.421   1.600 -53.274  1.00  0.00     0.179 C 
HETATM    4  C13 UNL     1     137.725   1.935 -53.733  1.00  0.00     0.104 C 
HETATM    5  N3  UNL     1     138.775   2.211 -54.121  1.00  0.00    -0.191 NA
ENDROOT
BRANCH   1   6
HETATM    6  C11 UNL     1     136.553  -0.380 -54.595  1.00  0.00     0.285 C 
HETATM    7  C10 UNL     1     137.036  -1.639 -53.869  1.00  0.00     0.061 C 
HETATM    8  C9  UNL     1     137.316  -2.731 -54.902  1.00  0.00     0.022 C 
HETATM    9  C3  UNL     1     136.129  -3.629 -55.105  1.00  0.00     0.190 C 
HETATM   10  C8  UNL     1     137.646  -2.006 -56.190  1.00  0.00     0.047 C 
HETATM   11  N1  UNL     1     135.792  -3.836 -56.486  1.00  0.00    -0.068 N 
HETATM   12  C4  UNL     1     135.534  -2.623 -57.221  1.00  0.00     0.271 C 
ATOM     13  H12 UNL     1     136.515  -4.386 -56.950  1.00  0.00     0.277 HD
ATOM     14  H11 UNL     1     135.005  -4.478 -56.568  1.00  0.00     0.277 HD
HETATM   15  C5  UNL     1     136.349  -1.448 -56.728  1.00  0.00     0.154 C 
HETATM   16  N4  UNL     1     135.634  -0.814 -55.608  1.00  0.00    -0.044 N 
ATOM     17  H42 UNL     1     135.036  -0.052 -55.927  1.00  0.00     0.280 HD
ATOM     18  H41 UNL     1     134.914  -1.426 -55.225  1.00  0.00     0.280 HD
BRANCH   9  19
HETATM   19  C2  UNL     1     136.296  -4.982 -54.462  1.00  0.00     0.029 C 
HETATM   20  C1  UNL     1     135.201  -5.344 -53.521  1.00  0.00     0.007 C 
ENDBRANCH   9  19
BRANCH  15  21
HETATM   21  C6  UNL     1     136.558  -0.388 -57.757  1.00  0.00     0.067 C 
BRANCH  21  22
HETATM   22  C7  UNL     1     135.512  -0.315 -58.815  1.00  0.00     0.166 C 
BRANCH  22  23
HETATM   23  O1  UNL     1     135.740   0.884 -59.530  1.00  0.00    -0.401 OA
ATOM     24  H1  UNL     1     135.315   1.579 -59.040  1.00  0.00     0.209 HD
ENDBRANCH  22  23
ENDBRANCH  21  22
ENDBRANCH  15  21
ENDBRANCH   1   6
TORSDOF 5
ENDMDL
MODEL 5
REMARK VINA RESULT: -5.613801731      1.031      1.201
REMARK  5 active torsions:
REMARK  status: ('A' for Active; 'I' for Inactive)
REMARK    1  A    between atoms: C2_2  and  C3_3 
REMARK    2  A    between atoms: C5_8  and  C6_9 
REMARK    3  A    between atoms: C6_9  and  C7_10 
REMARK    4  A    between atoms: C7_10  and  O1_11 
REMARK    5  A    between atoms: C11_16  and  N2_17 
ROOT
HETATM    1  N2  UNL     1     136.868  -0.948 -56.467  1.00  0.00    -0.363 N 
ATOM      2  H2  UNL     1     137.354  -0.066 -56.623  1.00  0.00     0.161 HD
HETATM    3  C12 UNL     1     136.039  -1.383 -57.356  1.00  0.00     0.179 C 
HETATM    4  C13 UNL     1     135.361  -2.614 -57.135  1.00  0.00     0.104 C 
HETATM    5  N3  UNL     1     134.800  -3.603 -56.943  1.00  0.00    -0.191 NA
ENDROOT
BRANCH   1   6
HETATM    6  C11 UNL     1     137.116  -1.693 -55.252  1.00  0.00     0.285 C 
HETATM    7  C10 UNL     1     138.546  -1.458 -54.754  1.00  0.00     0.061 C 
HETATM    8  C9  UNL     1     138.628  -1.849 -53.279  1.00  0.00     0.022 C 
HETATM    9  C3  UNL     1     138.405  -0.672 -52.373  1.00  0.00     0.190 C 
HETATM   10  C8  UNL     1     137.541  -2.883 -53.065  1.00  0.00     0.047 C 
HETATM   11  N1  UNL     1     137.450  -0.920 -51.330  1.00  0.00    -0.068 N 
HETATM   12  C4  UNL     1     136.154  -1.340 -51.800  1.00  0.00     0.271 C 
ATOM     13  H12 UNL     1     137.821  -1.594 -50.660  1.00  0.00     0.277 HD
ATOM     14  H11 UNL     1     137.363  -0.104 -50.725  1.00  0.00     0.277 HD
HETATM   15  C5  UNL     1     136.222  -2.146 -53.078  1.00  0.00     0.154 C 
HETATM   16  N4  UNL     1     136.237  -1.220 -54.222  1.00  0.00    -0.044 N 
ATOM     17  H42 UNL     1     135.297  -1.047 -54.578  1.00  0.00     0.280 HD
ATOM     18  H41 UNL     1     136.471  -0.270 -53.934  1.00  0.00     0.280 HD
BRANCH   9  19
HETATM   19  C2  UNL     1     139.675  -0.175 -51.729  1.00  0.00     0.029 C 
HETATM   20  C1  UNL     1     140.061   1.203 -52.136  1.00  0.00     0.007 C 
ENDBRANCH   9  19
BRANCH  15  21
HETATM   21  C6  UNL     1     135.055  -3.054 -53.279  1.00  0.00     0.067 C 
BRANCH  21  22
HETATM   22  C7  UNL     1     133.771  -2.374 -53.604  1.00  0.00     0.166 C 
BRANCH  22  23
HETATM   23  O1  UNL     1     133.013  -3.284 -54.378  1.00  0.00    -0.401 OA
ATOM     24  H1  UNL     1     132.142  -3.306 -53.999  1.00  0.00     0.209 HD
ENDBRANCH  22  23
ENDBRANCH  21  22
ENDBRANCH  15  21
ENDBRANCH   1   6
TORSDOF 5
ENDMDL
