MODEL 1
REMARK VINA RESULT: -7.218289694      0.000      0.000
REMARK  7 active torsions:
REMARK  status: ('A' for Active; 'I' for Inactive)
REMARK    1  A    between atoms: C4_4  and  C5_5 
REMARK    2  A    between atoms: C5_5  and  C6_6 
REMARK    3  A    between atoms: C6_6  and  C7_7 
REMARK    4  A    between atoms: C8_8  and  C9_9 
REMARK    5  A    between atoms: C9_9  and  O1_10 
REMARK    6  A    between atoms: N1_12  and  O2_14 
REMARK    7  A    between atoms: C12_20  and  C13_21 
ROOT
HETATM    1  C7  UNL     1      89.177  72.004  30.100  1.00  0.00     0.037 C 
HETATM    2  C8  UNL     1      87.989  72.812  30.339  1.00  0.00     0.072 C 
HETATM    3  C10 UNL     1      88.292  72.717  31.855  1.00  0.00     0.057 C 
HETATM    4  C11 UNL     1      89.121  71.512  31.529  1.00  0.00     0.091 C 
HETATM    5  N2  UNL     1      88.409  70.314  31.729  1.00  0.00    -0.389 N 
ATOM      6  H2  UNL     1      87.406  70.295  31.545  1.00  0.00     0.155 HD
HETATM    7  C12 UNL     1      89.042  69.150  32.173  1.00  0.00     0.190 C 
HETATM    8  C14 UNL     1      90.265  68.715  31.350  1.00  0.00     0.122 C 
HETATM    9  S1  UNL     1      91.653  69.692  32.062  1.00  0.00    -0.092 SA
HETATM   10  S2  UNL     1      90.720  71.611  32.370  1.00  0.00    -0.066 SA
ENDROOT
BRANCH   1  11
HETATM   11  C6  UNL     1      90.506  72.545  29.771  1.00  0.00     0.009 C 
BRANCH  11  12
HETATM   12  C5  UNL     1      91.261  71.961  28.644  1.00  0.00     0.005 C 
BRANCH  12  13
HETATM   13  C4  UNL     1      90.666  70.571  28.364  1.00  0.00    -0.010 A 
HETATM   14  C2  UNL     1      90.893  70.083  26.967  1.00  0.00    -0.014 A 
HETATM   15  C1  UNL     1      89.830  69.217  26.313  1.00  0.00     0.010 C 
HETATM   16  C3  UNL     1      91.650  69.438  28.095  1.00  0.00     0.009 A 
ENDBRANCH  12  13
ENDBRANCH  11  12
ENDBRANCH   1  11
BRANCH   2  17
HETATM   17  C9  UNL     1      87.835  74.187  29.901  1.00  0.00     0.140 C 
HETATM   18  N1  UNL     1      88.347  75.146  30.563  1.00  0.00    -0.251 N 
ATOM     19  H1  UNL     1      88.872  74.933  31.411  1.00  0.00     0.196 HD
BRANCH  17  20
HETATM   20  O1  UNL     1      87.128  74.472  28.757  1.00  0.00    -0.348 OA
ATOM     21  H1  UNL     1      86.393  73.926  28.502  1.00  0.00     0.219 HD
ENDBRANCH  17  20
BRANCH  18  22
HETATM   22  O2  UNL     1      88.219  76.467  30.174  1.00  0.00    -0.288 OA
ATOM     23  H2  UNL     1      88.894  77.114  30.339  1.00  0.00     0.244 HD
ENDBRANCH  18  22
ENDBRANCH   2  17
BRANCH   7  24
HETATM   24  C13 UNL     1      89.323  69.059  33.609  1.00  0.00     0.197 C 
HETATM   25  O3  UNL     1      88.997  69.958  34.403  1.00  0.00    -0.646 OA
HETATM   26  O4  UNL     1      89.968  67.945  34.098  1.00  0.00    -0.646 OA
ENDBRANCH   7  24
TORSDOF 7
ENDMDL
MODEL 2
REMARK VINA RESULT: -7.130011625      2.813      3.994
REMARK  7 active torsions:
REMARK  status: ('A' for Active; 'I' for Inactive)
REMARK    1  A    between atoms: C4_4  and  C5_5 
REMARK    2  A    between atoms: C5_5  and  C6_6 
REMARK    3  A    between atoms: C6_6  and  C7_7 
REMARK    4  A    between atoms: C8_8  and  C9_9 
REMARK    5  A    between atoms: C9_9  and  O1_10 
REMARK    6  A    between atoms: N1_12  and  O2_14 
REMARK    7  A    between atoms: C12_20  and  C13_21 
ROOT
HETATM    1  C7  UNL     1      88.413  72.336  30.818  1.00  0.00     0.037 C 
HETATM    2  C8  UNL     1      88.149  73.744  31.078  1.00  0.00     0.072 C 
HETATM    3  C10 UNL     1      89.624  74.036  30.709  1.00  0.00     0.057 C 
HETATM    4  C11 UNL     1      89.894  72.590  30.989  1.00  0.00     0.091 C 
HETATM    5  N2  UNL     1      90.396  72.391  32.289  1.00  0.00    -0.389 N 
ATOM      6  H2  UNL     1      90.071  72.994  33.045  1.00  0.00     0.155 HD
HETATM    7  C12 UNL     1      91.327  71.387  32.571  1.00  0.00     0.190 C 
HETATM    8  C14 UNL     1      90.926  69.976  32.115  1.00  0.00     0.122 C 
HETATM    9  S1  UNL     1      91.451  69.910  30.352  1.00  0.00    -0.092 SA
HETATM   10  S2  UNL     1      90.889  71.873  29.659  1.00  0.00    -0.066 SA
ENDROOT
BRANCH   1  11
HETATM   11  C6  UNL     1      88.130  71.651  29.546  1.00  0.00     0.009 C 
BRANCH  11  12
HETATM   12  C5  UNL     1      87.123  70.570  29.519  1.00  0.00     0.005 C 
BRANCH  12  13
HETATM   13  C4  UNL     1      86.166  70.806  30.699  1.00  0.00    -0.010 A 
HETATM   14  C2  UNL     1      84.896  71.504  30.321  1.00  0.00    -0.014 A 
HETATM   15  C1  UNL     1      84.254  72.448  31.323  1.00  0.00     0.010 C 
HETATM   16  C3  UNL     1      84.846  70.045  30.682  1.00  0.00     0.009 A 
ENDBRANCH  12  13
ENDBRANCH  11  12
ENDBRANCH   1  11
BRANCH   2  17
HETATM   17  C9  UNL     1      87.224  74.557  30.309  1.00  0.00     0.140 C 
HETATM   18  N1  UNL     1      86.386  75.319  30.889  1.00  0.00    -0.251 N 
ATOM     19  H1  UNL     1      86.373  75.350  31.909  1.00  0.00     0.196 HD
BRANCH  17  20
HETATM   20  O1  UNL     1      87.245  74.514  28.935  1.00  0.00    -0.348 OA
ATOM     21  H1  UNL     1      87.535  75.270  28.439  1.00  0.00     0.219 HD
ENDBRANCH  17  20
BRANCH  18  22
HETATM   22  O2  UNL     1      85.491  76.106  30.188  1.00  0.00    -0.288 OA
ATOM     23  H2  UNL     1      85.184  76.943  30.516  1.00  0.00     0.244 HD
ENDBRANCH  18  22
ENDBRANCH   2  17
BRANCH   7  24
HETATM   24  C13 UNL     1      92.724  71.668  32.226  1.00  0.00     0.197 C 
HETATM   25  O3  UNL     1      93.090  72.781  31.810  1.00  0.00    -0.646 OA
HETATM   26  O4  UNL     1      93.664  70.671  32.366  1.00  0.00    -0.646 OA
ENDBRANCH   7  24
TORSDOF 7
ENDMDL
MODEL 3
REMARK VINA RESULT: -7.106343383      2.476      4.269
REMARK  7 active torsions:
REMARK  status: ('A' for Active; 'I' for Inactive)
REMARK    1  A    between atoms: C4_4  and  C5_5 
REMARK    2  A    between atoms: C5_5  and  C6_6 
REMARK    3  A    between atoms: C6_6  and  C7_7 
REMARK    4  A    between atoms: C8_8  and  C9_9 
REMARK    5  A    between atoms: C9_9  and  O1_10 
REMARK    6  A    between atoms: N1_12  and  O2_14 
REMARK    7  A    between atoms: C12_20  and  C13_21 
ROOT
HETATM    1  C7  UNL     1      87.719  72.095  31.186  1.00  0.00     0.037 C 
HETATM    2  C8  UNL     1      88.383  73.387  31.096  1.00  0.00     0.072 C 
HETATM    3  C10 UNL     1      89.648  72.645  30.602  1.00  0.00     0.057 C 
HETATM    4  C11 UNL     1      89.067  71.412  31.223  1.00  0.00     0.091 C 
HETATM    5  N2  UNL     1      89.590  71.175  32.509  1.00  0.00    -0.389 N 
ATOM      6  H2  UNL     1      89.829  71.969  33.103  1.00  0.00     0.155 HD
HETATM    7  C12 UNL     1      89.789  69.878  32.992  1.00  0.00     0.190 C 
HETATM    8  C14 UNL     1      88.562  68.957  32.922  1.00  0.00     0.122 C 
HETATM    9  S1  UNL     1      88.607  68.282  31.210  1.00  0.00    -0.092 SA
HETATM   10  S2  UNL     1      89.184  70.021  30.073  1.00  0.00    -0.066 SA
ENDROOT
BRANCH   1  11
HETATM   11  C6  UNL     1      86.856  71.521  30.140  1.00  0.00     0.009 C 
BRANCH  11  12
HETATM   12  C5  UNL     1      85.441  71.232  30.452  1.00  0.00     0.005 C 
BRANCH  12  13
HETATM   13  C4  UNL     1      84.924  72.376  31.339  1.00  0.00    -0.010 A 
HETATM   14  C2  UNL     1      84.326  73.516  30.574  1.00  0.00    -0.014 A 
HETATM   15  C1  UNL     1      84.478  74.925  31.121  1.00  0.00     0.010 C 
HETATM   16  C3  UNL     1      83.419  72.610  31.360  1.00  0.00     0.009 A 
ENDBRANCH  12  13
ENDBRANCH  11  12
ENDBRANCH   1  11
BRANCH   2  17
HETATM   17  C9  UNL     1      87.986  74.449  30.190  1.00  0.00     0.140 C 
HETATM   18  N1  UNL     1      88.166  75.671  30.496  1.00  0.00    -0.251 N 
ATOM     19  H1  UNL     1      88.597  75.895  31.393  1.00  0.00     0.196 HD
BRANCH  17  20
HETATM   20  O1  UNL     1      87.407  74.144  28.981  1.00  0.00    -0.348 OA
ATOM     21  H1  UNL     1      86.462  74.069  28.910  1.00  0.00     0.219 HD
ENDBRANCH  17  20
BRANCH  18  22
HETATM   22  O2  UNL     1      87.800  76.707  29.656  1.00  0.00    -0.288 OA
ATOM     23  H2  UNL     1      88.103  77.598  29.784  1.00  0.00     0.244 HD
ENDBRANCH  18  22
ENDBRANCH   2  17
BRANCH   7  24
HETATM   24  C13 UNL     1      90.991  69.179  32.527  1.00  0.00     0.197 C 
HETATM   25  O3  UNL     1      91.870  69.750  31.859  1.00  0.00    -0.646 OA
HETATM   26  O4  UNL     1      91.156  67.848  32.837  1.00  0.00    -0.646 OA
ENDBRANCH   7  24
TORSDOF 7
ENDMDL
MODEL 4
REMARK VINA RESULT: -6.995842410      2.711      4.423
REMARK  7 active torsions:
REMARK  status: ('A' for Active; 'I' for Inactive)
REMARK    1  A    between atoms: C4_4  and  C5_5 
REMARK    2  A    between atoms: C5_5  and  C6_6 
REMARK    3  A    between atoms: C6_6  and  C7_7 
REMARK    4  A    between atoms: C8_8  and  C9_9 
REMARK    5  A    between atoms: C9_9  and  O1_10 
REMARK    6  A    between atoms: N1_12  and  O2_14 
REMARK    7  A    between atoms: C12_20  and  C13_21 
ROOT
HETATM    1  C7  UNL     1      87.265  71.900  31.017  1.00  0.00     0.037 C 
HETATM    2  C8  UNL     1      87.536  73.324  31.142  1.00  0.00     0.072 C 
HETATM    3  C10 UNL     1      89.003  73.027  30.743  1.00  0.00     0.057 C 
HETATM    4  C11 UNL     1      88.742  71.612  31.159  1.00  0.00     0.091 C 
HETATM    5  N2  UNL     1      89.186  71.359  32.471  1.00  0.00    -0.389 N 
ATOM      6  H2  UNL     1      89.130  72.103  33.167  1.00  0.00     0.155 HD
HETATM    7  C12 UNL     1      89.701  70.115  32.845  1.00  0.00     0.190 C 
HETATM    8  C14 UNL     1      88.801  68.911  32.526  1.00  0.00     0.122 C 
HETATM    9  S1  UNL     1      89.201  68.505  30.775  1.00  0.00    -0.092 SA
HETATM   10  S2  UNL     1      89.361  70.470  29.901  1.00  0.00    -0.066 SA
ENDROOT
BRANCH   1  11
HETATM   11  C6  UNL     1      86.706  71.255  29.817  1.00  0.00     0.009 C 
BRANCH  11  12
HETATM   12  C5  UNL     1      85.254  70.992  29.751  1.00  0.00     0.005 C 
BRANCH  12  13
HETATM   13  C4  UNL     1      84.680  71.233  31.157  1.00  0.00    -0.010 A 
HETATM   14  C2  UNL     1      83.741  72.396  31.239  1.00  0.00    -0.014 A 
HETATM   15  C1  UNL     1      83.699  73.214  32.518  1.00  0.00     0.010 C 
HETATM   16  C3  UNL     1      83.185  71.002  31.343  1.00  0.00     0.009 A 
ENDBRANCH  12  13
ENDBRANCH  11  12
ENDBRANCH   1  11
BRANCH   2  17
HETATM   17  C9  UNL     1      86.940  74.347  30.303  1.00  0.00     0.140 C 
HETATM   18  N1  UNL     1      86.113  75.187  30.783  1.00  0.00    -0.251 N 
ATOM     19  H1  UNL     1      85.873  75.130  31.773  1.00  0.00     0.196 HD
BRANCH  17  20
HETATM   20  O1  UNL     1      87.266  74.421  28.970  1.00  0.00    -0.348 OA
ATOM     21  H1  UNL     1      87.746  75.171  28.637  1.00  0.00     0.219 HD
ENDBRANCH  17  20
BRANCH  18  22
HETATM   22  O2  UNL     1      85.527  76.173  30.011  1.00  0.00    -0.288 OA
ATOM     23  H2  UNL     1      85.855  76.409  29.152  1.00  0.00     0.244 HD
ENDBRANCH  18  22
ENDBRANCH   2  17
BRANCH   7  24
HETATM   24  C13 UNL     1      91.092  69.838  32.471  1.00  0.00     0.197 C 
HETATM   25  O3  UNL     1      91.583  68.699  32.555  1.00  0.00    -0.646 OA
HETATM   26  O4  UNL     1      91.882  70.868  32.013  1.00  0.00    -0.646 OA
ENDBRANCH   7  24
TORSDOF 7
ENDMDL
MODEL 5
REMARK VINA RESULT: -6.901310747      3.779      5.506
REMARK  7 active torsions:
REMARK  status: ('A' for Active; 'I' for Inactive)
REMARK    1  A    between atoms: C4_4  and  C5_5 
REMARK    2  A    between atoms: C5_5  and  C6_6 
REMARK    3  A    between atoms: C6_6  and  C7_7 
REMARK    4  A    between atoms: C8_8  and  C9_9 
REMARK    5  A    between atoms: C9_9  and  O1_10 
REMARK    6  A    between atoms: N1_12  and  O2_14 
REMARK    7  A    between atoms: C12_20  and  C13_21 
ROOT
HETATM    1  C7  UNL     1      86.405  71.817  30.987  1.00  0.00     0.037 C 
HETATM    2  C8  UNL     1      87.225  73.009  30.830  1.00  0.00     0.072 C 
HETATM    3  C10 UNL     1      88.048  72.241  29.767  1.00  0.00     0.057 C 
HETATM    4  C11 UNL     1      87.511  70.984  30.380  1.00  0.00     0.091 C 
HETATM    5  N2  UNL     1      88.416  70.419  31.299  1.00  0.00    -0.389 N 
ATOM      6  H2  UNL     1      89.007  71.035  31.857  1.00  0.00     0.155 HD
HETATM    7  C12 UNL     1      88.526  69.036  31.466  1.00  0.00     0.190 C 
HETATM    8  C14 UNL     1      87.206  68.305  31.758  1.00  0.00     0.122 C 
HETATM    9  S1  UNL     1      86.482  68.006  30.091  1.00  0.00    -0.092 SA
HETATM   10  S2  UNL     1      86.922  69.863  29.088  1.00  0.00    -0.066 SA
ENDROOT
BRANCH   1  11
HETATM   11  C6  UNL     1      85.123  71.586  30.301  1.00  0.00     0.009 C 
BRANCH  11  12
HETATM   12  C5  UNL     1      84.041  70.879  31.017  1.00  0.00     0.005 C 
BRANCH  12  13
HETATM   13  C4  UNL     1      82.956  71.916  31.348  1.00  0.00    -0.010 A 
HETATM   14  C2  UNL     1      82.064  71.521  32.484  1.00  0.00    -0.014 A 
HETATM   15  C1  UNL     1      80.608  71.954  32.456  1.00  0.00     0.010 C 
HETATM   16  C3  UNL     1      83.064  72.625  32.693  1.00  0.00     0.009 A 
ENDBRANCH  12  13
ENDBRANCH  11  12
ENDBRANCH   1  11
BRANCH   2  17
HETATM   17  C9  UNL     1      86.735  74.278  30.325  1.00  0.00     0.140 C 
HETATM   18  N1  UNL     1      86.015  75.037  31.051  1.00  0.00    -0.251 N 
ATOM     19  H1  UNL     1      85.787  74.738  31.999  1.00  0.00     0.196 HD
BRANCH  17  20
HETATM   20  O1  UNL     1      87.045  74.679  29.047  1.00  0.00    -0.348 OA
ATOM     21  H1  UNL     1      86.628  75.447  28.674  1.00  0.00     0.219 HD
ENDBRANCH  17  20
BRANCH  18  22
HETATM   22  O2  UNL     1      85.531  76.252  30.601  1.00  0.00    -0.288 OA
ATOM     23  H2  UNL     1      84.963  76.800  31.129  1.00  0.00     0.244 HD
ENDBRANCH  18  22
ENDBRANCH   2  17
BRANCH   7  24
HETATM   24  C13 UNL     1      89.310  68.311  30.461  1.00  0.00     0.197 C 
HETATM   25  O3  UNL     1      89.289  67.070  30.377  1.00  0.00    -0.646 OA
HETATM   26  O4  UNL     1      90.096  69.021  29.582  1.00  0.00    -0.646 OA
ENDBRANCH   7  24
TORSDOF 7
ENDMDL
