MODEL 1
REMARK VINA RESULT: -6.510578699      0.000      0.000
REMARK  11 active torsions:
REMARK  status: ('A' for Active; 'I' for Inactive)
REMARK    1  A    between atoms: C2_2  and  C4_4 
REMARK    2  A    between atoms: C2_2  and  C5_8 
REMARK    3  A    between atoms: C5_8  and  O2_10 
REMARK    4  A    between atoms: O2_10  and  C6_11 
REMARK    5  A    between atoms: C6_11  and  O3_12 
REMARK    6  A    between atoms: C8_17  and  C9_18 
REMARK    7  A    between atoms: C8_17  and  C10_21 
REMARK    8  A    between atoms: C11_25  and  C12_26 
REMARK    9  A    between atoms: C13_29  and  O13_30 
REMARK   10  A    between atoms: C14_32  and  N2_33 
REMARK   11  A    between atoms: C15_37  and  O14_38 
ROOT
HETATM    1  C6  UNL     1      -5.729  28.165  -5.637  1.00  0.00     0.319 C 
HETATM    2  O4  UNL     1      -5.353  27.333  -4.561  1.00  0.00    -0.288 OA
HETATM    3  C7  UNL     1      -4.440  26.419  -5.000  1.00  0.00     0.233 C 
HETATM    4  O5  UNL     1      -3.199  26.744  -4.545  1.00  0.00    -0.295 OA
HETATM    5  C8  UNL     1      -2.797  26.249  -3.352  1.00  0.00     0.351 C 
HETATM    6  O10 UNL     1      -3.405  25.201  -2.795  1.00  0.00    -0.319 OA
HETATM    7  C11 UNL     1      -4.618  24.767  -3.159  1.00  0.00     0.261 C 
HETATM    8  C13 UNL     1      -4.906  25.041  -4.616  1.00  0.00     0.222 C 
HETATM    9  C14 UNL     1      -4.418  26.478  -6.510  1.00  0.00     0.284 C 
HETATM   10  C15 UNL     1      -4.759  27.958  -6.723  1.00  0.00     0.247 C 
ENDROOT
BRANCH   8  11
HETATM   11  O13 UNL     1      -6.283  24.923  -4.795  1.00  0.00    -0.387 OA
ATOM     12  H13 UNL     1      -6.600  24.110  -4.418  1.00  0.00     0.210 HD
ENDBRANCH   8  11
BRANCH   9  13
HETATM   13  N2  UNL     1      -3.181  26.105  -7.106  1.00  0.00    -0.067 N 
ATOM     14  H23 UNL     1      -2.464  25.990  -6.389  1.00  0.00     0.275 HD
ATOM     15  H22 UNL     1      -3.233  25.149  -7.458  1.00  0.00     0.275 HD
ATOM     16  H21 UNL     1      -2.850  26.733  -7.837  1.00  0.00     0.275 HD
ENDBRANCH   9  13
BRANCH   1  17
HETATM   17  O2  UNL     1      -5.834  29.426  -5.089  1.00  0.00    -0.255 OA
BRANCH  17  18
HETATM   18  C5  UNL     1      -6.764  29.720  -4.121  1.00  0.00     0.276 C 
HETATM   19  O1  UNL     1      -7.951  29.625  -4.467  1.00  0.00    -0.264 OA
BRANCH  18  20
HETATM   20  C2  UNL     1      -6.438  30.130  -2.739  1.00  0.00     0.072 C 
HETATM   21  C1  UNL     1      -7.636  30.817  -2.134  1.00  0.00     0.031 C 
HETATM   22  C3  UNL     1      -6.160  28.907  -1.854  1.00  0.00     0.031 C 
BRANCH  20  23
HETATM   23  C4  UNL     1      -5.293  31.052  -2.687  1.00  0.00     0.072 C 
HETATM   24  N1  UNL     1      -4.326  30.803  -1.892  1.00  0.00    -0.410 N 
ATOM     25  H12 UNL     1      -4.362  29.969  -1.306  1.00  0.00     0.155 HD
ATOM     26  H11 UNL     1      -3.532  31.442  -1.857  1.00  0.00     0.155 HD
ENDBRANCH  20  23
ENDBRANCH  18  20
ENDBRANCH  17  18
ENDBRANCH   1  17
BRANCH   1  27
HETATM   27  O3  UNL     1      -6.978  27.637  -6.042  1.00  0.00    -0.341 OA
ATOM     28  H3  UNL     1      -7.702  27.961  -5.520  1.00  0.00     0.215 HD
ENDBRANCH   1  27
BRANCH   5  29
HETATM   29  C9  UNL     1      -1.337  25.875  -3.512  1.00  0.00     0.251 C 
HETATM   30  O6  UNL     1      -0.618  25.517  -2.566  1.00  0.00    -0.643 OA
HETATM   31  O7  UNL     1      -0.769  25.935  -4.778  1.00  0.00    -0.643 OA
ENDBRANCH   5  29
BRANCH   5  32
HETATM   32  C10 UNL     1      -2.778  27.377  -2.382  1.00  0.00     0.251 C 
HETATM   33  O8  UNL     1      -2.692  28.540  -2.839  1.00  0.00    -0.643 OA
HETATM   34  O9  UNL     1      -2.848  27.211  -1.012  1.00  0.00    -0.643 OA
ENDBRANCH   5  32
BRANCH   7  35
HETATM   35  C12 UNL     1      -5.740  25.203  -2.281  1.00  0.00     0.206 C 
HETATM   36  O11 UNL     1      -6.945  25.212  -2.639  1.00  0.00    -0.646 OA
HETATM   37  O12 UNL     1      -5.501  25.633  -0.982  1.00  0.00    -0.646 OA
ENDBRANCH   7  35
BRANCH  10  38
HETATM   38  O14 UNL     1      -5.311  27.972  -8.026  1.00  0.00    -0.385 OA
ATOM     39  H14 UNL     1      -4.730  27.661  -8.710  1.00  0.00     0.210 HD
ENDBRANCH  10  38
TORSDOF 11
ENDMDL
MODEL 2
REMARK VINA RESULT: -6.046878400      4.272      6.482
REMARK  11 active torsions:
REMARK  status: ('A' for Active; 'I' for Inactive)
REMARK    1  A    between atoms: C2_2  and  C4_4 
REMARK    2  A    between atoms: C2_2  and  C5_8 
REMARK    3  A    between atoms: C5_8  and  O2_10 
REMARK    4  A    between atoms: O2_10  and  C6_11 
REMARK    5  A    between atoms: C6_11  and  O3_12 
REMARK    6  A    between atoms: C8_17  and  C9_18 
REMARK    7  A    between atoms: C8_17  and  C10_21 
REMARK    8  A    between atoms: C11_25  and  C12_26 
REMARK    9  A    between atoms: C13_29  and  O13_30 
REMARK   10  A    between atoms: C14_32  and  N2_33 
REMARK   11  A    between atoms: C15_37  and  O14_38 
ROOT
HETATM    1  C6  UNL     1      -5.779  31.916   0.718  1.00  0.00     0.319 C 
HETATM    2  O4  UNL     1      -5.969  31.105  -0.420  1.00  0.00    -0.288 OA
HETATM    3  C7  UNL     1      -4.842  31.139  -1.187  1.00  0.00     0.233 C 
HETATM    4  O5  UNL     1      -4.161  29.966  -1.068  1.00  0.00    -0.295 OA
HETATM    5  C8  UNL     1      -4.450  28.960  -1.924  1.00  0.00     0.351 C 
HETATM    6  O10 UNL     1      -5.097  29.184  -3.068  1.00  0.00    -0.319 OA
HETATM    7  C11 UNL     1      -5.791  30.301  -3.320  1.00  0.00     0.261 C 
HETATM    8  C13 UNL     1      -5.224  31.500  -2.598  1.00  0.00     0.222 C 
HETATM    9  C14 UNL     1      -3.962  32.250  -0.666  1.00  0.00     0.284 C 
HETATM   10  C15 UNL     1      -4.341  32.214   0.820  1.00  0.00     0.247 C 
ENDROOT
BRANCH   8  11
HETATM   11  O13 UNL     1      -6.206  32.489  -2.601  1.00  0.00    -0.387 OA
ATOM     12  H13 UNL     1      -5.810  33.350  -2.537  1.00  0.00     0.210 HD
ENDBRANCH   8  11
BRANCH   9  13
HETATM   13  N2  UNL     1      -2.568  32.063  -0.884  1.00  0.00    -0.067 N 
ATOM     14  H23 UNL     1      -2.393  31.817  -1.858  1.00  0.00     0.275 HD
ATOM     15  H22 UNL     1      -2.081  32.958  -0.837  1.00  0.00     0.275 HD
ATOM     16  H21 UNL     1      -2.124  31.386  -0.264  1.00  0.00     0.275 HD
ENDBRANCH   9  13
BRANCH   1  17
HETATM   17  O2  UNL     1      -6.376  31.223   1.751  1.00  0.00    -0.255 OA
BRANCH  17  18
HETATM   18  C5  UNL     1      -6.563  31.787   2.989  1.00  0.00     0.276 C 
HETATM   19  O1  UNL     1      -7.278  32.799   3.018  1.00  0.00    -0.264 OA
BRANCH  18  20
HETATM   20  C2  UNL     1      -5.980  31.270   4.245  1.00  0.00     0.072 C 
HETATM   21  C1  UNL     1      -7.093  30.807   5.150  1.00  0.00     0.031 C 
HETATM   22  C3  UNL     1      -5.109  30.035   3.979  1.00  0.00     0.031 C 
BRANCH  20  23
HETATM   23  C4  UNL     1      -5.194  32.291   4.955  1.00  0.00     0.072 C 
HETATM   24  N1  UNL     1      -4.561  33.171   4.281  1.00  0.00    -0.410 N 
ATOM     25  H12 UNL     1      -4.610  33.153   3.262  1.00  0.00     0.155 HD
ATOM     26  H11 UNL     1      -4.016  33.879   4.773  1.00  0.00     0.155 HD
ENDBRANCH  20  23
ENDBRANCH  18  20
ENDBRANCH  17  18
ENDBRANCH   1  17
BRANCH   1  27
HETATM   27  O3  UNL     1      -6.464  33.110   0.391  1.00  0.00    -0.341 OA
ATOM     28  H3  UNL     1      -5.915  33.881   0.462  1.00  0.00     0.215 HD
ENDBRANCH   1  27
BRANCH   5  29
HETATM   29  C9  UNL     1      -3.130  28.311  -2.286  1.00  0.00     0.251 C 
HETATM   30  O6  UNL     1      -3.044  27.250  -2.926  1.00  0.00    -0.643 OA
HETATM   31  O7  UNL     1      -1.952  28.928  -1.885  1.00  0.00    -0.643 OA
ENDBRANCH   5  29
BRANCH   5  32
HETATM   32  C10 UNL     1      -5.170  27.909  -1.153  1.00  0.00     0.251 C 
HETATM   33  O8  UNL     1      -4.772  27.660   0.008  1.00  0.00    -0.643 OA
HETATM   34  O9  UNL     1      -6.248  27.199  -1.647  1.00  0.00    -0.643 OA
ENDBRANCH   5  32
BRANCH   7  35
HETATM   35  C12 UNL     1      -7.265  30.190  -3.135  1.00  0.00     0.206 C 
HETATM   36  O11 UNL     1      -7.860  30.486  -2.067  1.00  0.00    -0.646 OA
HETATM   37  O12 UNL     1      -8.080  29.737  -4.165  1.00  0.00    -0.646 OA
ENDBRANCH   7  35
BRANCH  10  38
HETATM   38  O14 UNL     1      -4.034  33.524   1.259  1.00  0.00    -0.385 OA
ATOM     39  H14 UNL     1      -3.515  34.037   0.651  1.00  0.00     0.210 HD
ENDBRANCH  10  38
TORSDOF 11
ENDMDL
MODEL 3
REMARK VINA RESULT: -5.874341386      1.827      4.887
REMARK  11 active torsions:
REMARK  status: ('A' for Active; 'I' for Inactive)
REMARK    1  A    between atoms: C2_2  and  C4_4 
REMARK    2  A    between atoms: C2_2  and  C5_8 
REMARK    3  A    between atoms: C5_8  and  O2_10 
REMARK    4  A    between atoms: O2_10  and  C6_11 
REMARK    5  A    between atoms: C6_11  and  O3_12 
REMARK    6  A    between atoms: C8_17  and  C9_18 
REMARK    7  A    between atoms: C8_17  and  C10_21 
REMARK    8  A    between atoms: C11_25  and  C12_26 
REMARK    9  A    between atoms: C13_29  and  O13_30 
REMARK   10  A    between atoms: C14_32  and  N2_33 
REMARK   11  A    between atoms: C15_37  and  O14_38 
ROOT
HETATM    1  C6  UNL     1      -4.896  28.899  -3.638  1.00  0.00     0.319 C 
HETATM    2  O4  UNL     1      -4.076  27.877  -3.116  1.00  0.00    -0.288 OA
HETATM    3  C7  UNL     1      -3.802  28.146  -1.807  1.00  0.00     0.233 C 
HETATM    4  O5  UNL     1      -4.517  27.314  -1.001  1.00  0.00    -0.295 OA
HETATM    5  C8  UNL     1      -3.968  26.130  -0.645  1.00  0.00     0.351 C 
HETATM    6  O10 UNL     1      -2.657  25.911  -0.753  1.00  0.00    -0.319 OA
HETATM    7  C11 UNL     1      -1.839  26.663  -1.500  1.00  0.00     0.261 C 
HETATM    8  C13 UNL     1      -2.313  28.093  -1.599  1.00  0.00     0.222 C 
HETATM    9  C14 UNL     1      -4.241  29.565  -1.527  1.00  0.00     0.284 C 
HETATM   10  C15 UNL     1      -5.419  29.676  -2.503  1.00  0.00     0.247 C 
ENDROOT
BRANCH   8  11
HETATM   11  O13 UNL     1      -1.648  28.676  -2.676  1.00  0.00    -0.387 OA
ATOM     12  H13 UNL     1      -0.712  28.708  -2.512  1.00  0.00     0.210 HD
ENDBRANCH   8  11
BRANCH   9  13
HETATM   13  N2  UNL     1      -4.616  29.820  -0.178  1.00  0.00    -0.067 N 
ATOM     14  H23 UNL     1      -5.121  29.021   0.205  1.00  0.00     0.275 HD
ATOM     15  H22 UNL     1      -3.793  29.814   0.424  1.00  0.00     0.275 HD
ATOM     16  H21 UNL     1      -5.150  30.677  -0.036  1.00  0.00     0.275 HD
ENDBRANCH   9  13
BRANCH   1  17
HETATM   17  O2  UNL     1      -5.798  28.248  -4.453  1.00  0.00    -0.255 OA
BRANCH  17  18
HETATM   18  C5  UNL     1      -5.669  28.246  -5.821  1.00  0.00     0.276 C 
HETATM   19  O1  UNL     1      -5.750  29.353  -6.371  1.00  0.00    -0.264 OA
BRANCH  18  20
HETATM   20  C2  UNL     1      -5.447  27.037  -6.641  1.00  0.00     0.072 C 
HETATM   21  C1  UNL     1      -6.746  26.282  -6.767  1.00  0.00     0.031 C 
HETATM   22  C3  UNL     1      -5.035  27.412  -8.072  1.00  0.00     0.031 C 
BRANCH  20  23
HETATM   23  C4  UNL     1      -4.440  26.141  -6.051  1.00  0.00     0.072 C 
HETATM   24  N1  UNL     1      -4.727  25.496  -4.987  1.00  0.00    -0.410 N 
ATOM     25  H12 UNL     1      -5.648  25.611  -4.564  1.00  0.00     0.155 HD
ATOM     26  H11 UNL     1      -4.029  24.874  -4.578  1.00  0.00     0.155 HD
ENDBRANCH  20  23
ENDBRANCH  18  20
ENDBRANCH  17  18
ENDBRANCH   1  17
BRANCH   1  27
HETATM   27  O3  UNL     1      -3.991  29.712  -4.361  1.00  0.00    -0.341 OA
ATOM     28  H3  UNL     1      -3.800  30.532  -3.921  1.00  0.00     0.215 HD
ENDBRANCH   1  27
BRANCH   5  29
HETATM   29  C9  UNL     1      -4.331  25.908   0.809  1.00  0.00     0.251 C 
HETATM   30  O6  UNL     1      -5.062  24.981   1.196  1.00  0.00    -0.643 OA
HETATM   31  O7  UNL     1      -3.826  26.782   1.763  1.00  0.00    -0.643 OA
ENDBRANCH   5  29
BRANCH   5  32
HETATM   32  C10 UNL     1      -4.705  25.059  -1.370  1.00  0.00     0.251 C 
HETATM   33  O8  UNL     1      -5.766  25.374  -1.957  1.00  0.00    -0.643 OA
HETATM   34  O9  UNL     1      -4.284  23.744  -1.429  1.00  0.00    -0.643 OA
ENDBRANCH   5  32
BRANCH   7  35
HETATM   35  C12 UNL     1      -1.498  26.098  -2.836  1.00  0.00     0.206 C 
HETATM   36  O11 UNL     1      -2.223  25.277  -3.454  1.00  0.00    -0.646 OA
HETATM   37  O12 UNL     1      -0.325  26.463  -3.484  1.00  0.00    -0.646 OA
ENDBRANCH   7  35
BRANCH  10  38
HETATM   38  O14 UNL     1      -5.514  31.070  -2.728  1.00  0.00    -0.385 OA
ATOM     39  H14 UNL     1      -5.035  31.609  -2.109  1.00  0.00     0.210 HD
ENDBRANCH  10  38
TORSDOF 11
ENDMDL
MODEL 4
REMARK VINA RESULT: -5.818180787      4.423      7.494
REMARK  11 active torsions:
REMARK  status: ('A' for Active; 'I' for Inactive)
REMARK    1  A    between atoms: C2_2  and  C4_4 
REMARK    2  A    between atoms: C2_2  and  C5_8 
REMARK    3  A    between atoms: C5_8  and  O2_10 
REMARK    4  A    between atoms: O2_10  and  C6_11 
REMARK    5  A    between atoms: C6_11  and  O3_12 
REMARK    6  A    between atoms: C8_17  and  C9_18 
REMARK    7  A    between atoms: C8_17  and  C10_21 
REMARK    8  A    between atoms: C11_25  and  C12_26 
REMARK    9  A    between atoms: C13_29  and  O13_30 
REMARK   10  A    between atoms: C14_32  and  N2_33 
REMARK   11  A    between atoms: C15_37  and  O14_38 
ROOT
HETATM    1  C6  UNL     1      -4.101  30.552   1.472  1.00  0.00     0.319 C 
HETATM    2  O4  UNL     1      -4.805  31.253   0.471  1.00  0.00    -0.288 OA
HETATM    3  C7  UNL     1      -4.214  31.021  -0.737  1.00  0.00     0.233 C 
HETATM    4  O5  UNL     1      -4.980  30.173  -1.476  1.00  0.00    -0.295 OA
HETATM    5  C8  UNL     1      -5.929  30.697  -2.286  1.00  0.00     0.351 C 
HETATM    6  O10 UNL     1      -5.902  31.979  -2.649  1.00  0.00    -0.319 OA
HETATM    7  C11 UNL     1      -5.179  32.913  -2.018  1.00  0.00     0.261 C 
HETATM    8  C13 UNL     1      -3.926  32.342  -1.399  1.00  0.00     0.222 C 
HETATM    9  C14 UNL     1      -2.885  30.352  -0.480  1.00  0.00     0.284 C 
HETATM   10  C15 UNL     1      -3.220  29.582   0.804  1.00  0.00     0.247 C 
ENDROOT
BRANCH   8  11
HETATM   11  O13 UNL     1      -3.465  33.267  -0.465  1.00  0.00    -0.387 OA
ATOM     12  H13 UNL     1      -2.991  33.968  -0.896  1.00  0.00     0.210 HD
ENDBRANCH   8  11
BRANCH   9  13
HETATM   13  N2  UNL     1      -2.428  29.505  -1.528  1.00  0.00    -0.067 N 
ATOM     14  H23 UNL     1      -1.976  30.058  -2.256  1.00  0.00     0.275 HD
ATOM     15  H22 UNL     1      -1.634  28.948  -1.210  1.00  0.00     0.275 HD
ATOM     16  H21 UNL     1      -3.142  28.902  -1.935  1.00  0.00     0.275 HD
ENDBRANCH   9  13
BRANCH   1  17
HETATM   17  O2  UNL     1      -5.076  30.071   2.320  1.00  0.00    -0.255 OA
BRANCH  17  18
HETATM   18  C5  UNL     1      -5.104  30.399   3.654  1.00  0.00     0.276 C 
HETATM   19  O1  UNL     1      -4.165  29.962   4.335  1.00  0.00    -0.264 OA
BRANCH  18  20
HETATM   20  C2  UNL     1      -6.154  31.215   4.297  1.00  0.00     0.072 C 
HETATM   21  C1  UNL     1      -7.032  30.317   5.133  1.00  0.00     0.031 C 
HETATM   22  C3  UNL     1      -5.542  32.232   5.270  1.00  0.00     0.031 C 
BRANCH  20  23
HETATM   23  C4  UNL     1      -6.999  31.910   3.314  1.00  0.00     0.072 C 
HETATM   24  N1  UNL     1      -6.462  32.741   2.507  1.00  0.00    -0.410 N 
ATOM     25  H12 UNL     1      -5.457  32.910   2.557  1.00  0.00     0.155 HD
ATOM     26  H11 UNL     1      -7.048  33.223   1.825  1.00  0.00     0.155 HD
ENDBRANCH  20  23
ENDBRANCH  18  20
ENDBRANCH  17  18
ENDBRANCH   1  17
BRANCH   1  27
HETATM   27  O3  UNL     1      -3.298  31.552   2.071  1.00  0.00    -0.341 OA
ATOM     28  H3  UNL     1      -3.799  32.307   2.354  1.00  0.00     0.215 HD
ENDBRANCH   1  27
BRANCH   5  29
HETATM   29  C9  UNL     1      -5.904  29.879  -3.562  1.00  0.00     0.251 C 
HETATM   30  O6  UNL     1      -6.221  30.337  -4.671  1.00  0.00    -0.643 OA
HETATM   31  O7  UNL     1      -5.509  28.549  -3.493  1.00  0.00    -0.643 OA
ENDBRANCH   5  29
BRANCH   5  32
HETATM   32  C10 UNL     1      -7.254  30.386  -1.683  1.00  0.00     0.251 C 
HETATM   33  O8  UNL     1      -7.275  29.679  -0.650  1.00  0.00    -0.643 OA
HETATM   34  O9  UNL     1      -8.455  30.834  -2.200  1.00  0.00    -0.643 OA
ENDBRANCH   5  32
BRANCH   7  35
HETATM   35  C12 UNL     1      -5.936  33.760  -1.053  1.00  0.00     0.206 C 
HETATM   36  O11 UNL     1      -6.963  33.373  -0.439  1.00  0.00    -0.646 OA
HETATM   37  O12 UNL     1      -5.531  35.060  -0.777  1.00  0.00    -0.646 OA
ENDBRANCH   7  35
BRANCH  10  38
HETATM   38  O14 UNL     1      -1.953  29.411   1.412  1.00  0.00    -0.385 OA
ATOM     39  H14 UNL     1      -1.962  28.912   2.220  1.00  0.00     0.210 HD
ENDBRANCH  10  38
TORSDOF 11
ENDMDL
MODEL 5
REMARK VINA RESULT: -5.782374214      1.613      2.054
REMARK  11 active torsions:
REMARK  status: ('A' for Active; 'I' for Inactive)
REMARK    1  A    between atoms: C2_2  and  C4_4 
REMARK    2  A    between atoms: C2_2  and  C5_8 
REMARK    3  A    between atoms: C5_8  and  O2_10 
REMARK    4  A    between atoms: O2_10  and  C6_11 
REMARK    5  A    between atoms: C6_11  and  O3_12 
REMARK    6  A    between atoms: C8_17  and  C9_18 
REMARK    7  A    between atoms: C8_17  and  C10_21 
REMARK    8  A    between atoms: C11_25  and  C12_26 
REMARK    9  A    between atoms: C13_29  and  O13_30 
REMARK   10  A    between atoms: C14_32  and  N2_33 
REMARK   11  A    between atoms: C15_37  and  O14_38 
ROOT
HETATM    1  C6  UNL     1      -5.305  29.088  -3.768  1.00  0.00     0.319 C 
HETATM    2  O4  UNL     1      -4.718  28.140  -2.903  1.00  0.00    -0.288 OA
HETATM    3  C7  UNL     1      -4.395  27.023  -3.616  1.00  0.00     0.233 C 
HETATM    4  O5  UNL     1      -3.048  26.962  -3.803  1.00  0.00    -0.295 OA
HETATM    5  C8  UNL     1      -2.294  26.325  -2.879  1.00  0.00     0.351 C 
HETATM    6  O10 UNL     1      -2.836  25.472  -2.008  1.00  0.00    -0.319 OA
HETATM    7  C11 UNL     1      -4.147  25.417  -1.743  1.00  0.00     0.261 C 
HETATM    8  C13 UNL     1      -4.986  25.820  -2.932  1.00  0.00     0.222 C 
HETATM    9  C14 UNL     1      -5.054  27.133  -4.972  1.00  0.00     0.284 C 
HETATM   10  C15 UNL     1      -5.039  28.657  -5.150  1.00  0.00     0.247 C 
ENDROOT
BRANCH   8  11
HETATM   11  O13 UNL     1      -6.265  26.106  -2.459  1.00  0.00    -0.387 OA
ATOM     12  H13 UNL     1      -6.780  25.311  -2.390  1.00  0.00     0.210 HD
ENDBRANCH   8  11
BRANCH   9  13
HETATM   13  N2  UNL     1      -4.382  26.448  -6.022  1.00  0.00    -0.067 N 
ATOM     14  H23 UNL     1      -4.588  25.450  -5.980  1.00  0.00     0.275 HD
ATOM     15  H22 UNL     1      -4.805  26.679  -6.921  1.00  0.00     0.275 HD
ATOM     16  H21 UNL     1      -3.374  26.599  -6.057  1.00  0.00     0.275 HD
ENDBRANCH   9  13
BRANCH   1  17
HETATM   17  O2  UNL     1      -4.800  30.303  -3.356  1.00  0.00    -0.255 OA
BRANCH  17  18
HETATM   18  C5  UNL     1      -5.492  31.121  -2.496  1.00  0.00     0.276 C 
HETATM   19  O1  UNL     1      -6.481  31.694  -2.975  1.00  0.00    -0.264 OA
BRANCH  18  20
HETATM   20  C2  UNL     1      -5.133  31.345  -1.080  1.00  0.00     0.072 C 
HETATM   21  C1  UNL     1      -5.540  32.743  -0.685  1.00  0.00     0.031 C 
HETATM   22  C3  UNL     1      -5.916  30.401  -0.158  1.00  0.00     0.031 C 
BRANCH  20  23
HETATM   23  C4  UNL     1      -3.690  31.193  -0.840  1.00  0.00     0.072 C 
HETATM   24  N1  UNL     1      -3.129  30.075  -1.098  1.00  0.00    -0.410 N 
ATOM     25  H12 UNL     1      -3.690  29.306  -1.465  1.00  0.00     0.155 HD
ATOM     26  H11 UNL     1      -2.128  29.970  -0.932  1.00  0.00     0.155 HD
ENDBRANCH  20  23
ENDBRANCH  18  20
ENDBRANCH  17  18
ENDBRANCH   1  17
BRANCH   1  27
HETATM   27  O3  UNL     1      -6.690  28.954  -3.514  1.00  0.00    -0.341 OA
ATOM     28  H3  UNL     1      -6.973  28.048  -3.482  1.00  0.00     0.215 HD
ENDBRANCH   1  27
BRANCH   5  29
HETATM   29  C9  UNL     1      -1.234  25.558  -3.643  1.00  0.00     0.251 C 
HETATM   30  O6  UNL     1      -0.204  25.108  -3.115  1.00  0.00    -0.643 OA
HETATM   31  O7  UNL     1      -1.417  25.345  -5.003  1.00  0.00    -0.643 OA
ENDBRANCH   5  29
BRANCH   5  32
HETATM   32  C10 UNL     1      -1.526  27.361  -2.135  1.00  0.00     0.251 C 
HETATM   33  O8  UNL     1      -1.135  28.367  -2.771  1.00  0.00    -0.643 OA
HETATM   34  O9  UNL     1      -1.224  27.272  -0.790  1.00  0.00    -0.643 OA
ENDBRANCH   5  32
BRANCH   7  35
HETATM   35  C12 UNL     1      -4.575  26.118  -0.500  1.00  0.00     0.206 C 
HETATM   36  O11 UNL     1      -4.337  27.330  -0.263  1.00  0.00    -0.646 OA
HETATM   37  O12 UNL     1      -5.279  25.445   0.490  1.00  0.00    -0.646 OA
ENDBRANCH   7  35
BRANCH  10  38
HETATM   38  O14 UNL     1      -6.101  28.880  -6.058  1.00  0.00    -0.385 OA
ATOM     39  H14 UNL     1      -6.943  29.056  -5.653  1.00  0.00     0.210 HD
ENDBRANCH  10  38
TORSDOF 11
ENDMDL
