MODEL 1
REMARK VINA RESULT: -8.083467105      0.000      0.000
REMARK  11 active torsions:
REMARK  status: ('A' for Active; 'I' for Inactive)
REMARK    1  A    between atoms: C2_2  and  C3_3 
REMARK       I    between atoms: C3_3  and  N1_5 
REMARK    2  A    between atoms: N1_5  and  S1_7 
REMARK    3  A    between atoms: S1_7  and  C4_10 
REMARK    4  A    between atoms: C4_10  and  C5_11 
REMARK    5  A    between atoms: C6_14  and  N3_15 
REMARK    6  A    between atoms: C9_22  and  O4_23 
REMARK    7  A    between atoms: C10_28  and  N6_29 
REMARK    8  A    between atoms: N6_29  and  C11_31 
REMARK    9  A    between atoms: C12_36  and  O5_37 
REMARK   10  A    between atoms: O5_37  and  O6_38 
REMARK   11  A    between atoms: C13_40  and  N9_41 
ROOT
HETATM    1  C5  UNL     1      -4.589  28.244  -0.756  1.00  0.00     0.099 A 
HETATM    2  N2  UNL     1      -3.460  28.948  -0.658  1.00  0.00    -0.330 N 
ATOM      3  H2  UNL     1      -2.611  28.494  -0.320  1.00  0.00     0.168 HD
HETATM    4  C6  UNL     1      -3.428  30.249  -0.999  1.00  0.00     0.129 A 
HETATM    5  C7  UNL     1      -4.551  30.887  -1.454  1.00  0.00     0.102 A 
HETATM    6  C8  UNL     1      -5.729  30.138  -1.554  1.00  0.00     0.097 A 
HETATM    7  N4  UNL     1      -5.696  28.863  -1.204  1.00  0.00    -0.343 N 
ATOM      8  H4  UNL     1      -6.557  28.321  -1.276  1.00  0.00     0.167 HD
HETATM    9  C9  UNL     1      -6.924  30.863  -2.047  1.00  0.00     0.376 C 
HETATM   10  N5  UNL     1      -6.975  32.137  -1.382  1.00  0.00    -0.004 N 
ATOM     11  H51 UNL     1      -7.095  32.007  -0.378  1.00  0.00     0.285 HD
ATOM     12  H52 UNL     1      -7.848  32.617  -1.603  1.00  0.00     0.285 HD
HETATM   13  C10 UNL     1      -5.858  32.994  -1.643  1.00  0.00     0.407 C 
HETATM   14  N11 UNL     1      -4.601  32.257  -1.830  1.00  0.00    -0.341 N 
ATOM     15  H11 UNL     1      -3.780  32.719  -2.221  1.00  0.00     0.163 HD
ENDROOT
BRANCH  13  16
HETATM   16  N6  UNL     1      -5.739  33.861  -0.478  1.00  0.00    -0.178 N 
ATOM     17  H6  UNL     1      -5.016  33.676   0.217  1.00  0.00     0.181 HD
BRANCH  16  18
HETATM   18  C11 UNL     1      -6.522  34.839  -0.320  1.00  0.00     0.697 A 
HETATM   19  N7  UNL     1      -7.811  34.768  -0.627  1.00  0.00    -0.130 N 
HETATM   20  N8  UNL     1      -8.638  35.795  -0.444  1.00  0.00    -0.260 N 
ATOM     21  H7  UNL     1      -8.180  33.900  -1.015  1.00  0.00     0.205 HD
HETATM   22  C12 UNL     1      -8.190  36.948   0.062  1.00  0.00     0.237 A 
ATOM     23  H8  UNL     1      -9.623  35.701  -0.693  1.00  0.00     0.190 HD
HETATM   24  C13 UNL     1      -6.847  37.060   0.395  1.00  0.00     0.170 A 
HETATM   25  N10 UNL     1      -6.043  36.003   0.197  1.00  0.00    -0.171 N 
ATOM     26  H10 UNL     1      -5.055  36.073   0.439  1.00  0.00     0.186 HD
BRANCH  22  27
HETATM   27  O5  UNL     1      -9.036  38.017   0.255  1.00  0.00    -0.176 OA
BRANCH  27  28
HETATM   28  O6  UNL     1     -10.347  37.914  -0.087  1.00  0.00    -0.243 OA
ATOM     29  H6  UNL     1     -10.978  38.531   0.264  1.00  0.00     0.254 HD
ENDBRANCH  27  28
ENDBRANCH  22  27
BRANCH  24  30
HETATM   30  N9  UNL     1      -6.448  38.174   0.876  1.00  0.00    -0.381 N 
ATOM     31  H92 UNL     1      -6.974  38.715   1.563  1.00  0.00     0.157 HD
ATOM     32  H91 UNL     1      -5.552  38.534   0.549  1.00  0.00     0.157 HD
ENDBRANCH  24  30
ENDBRANCH  16  18
ENDBRANCH  13  16
BRANCH   9  33
HETATM   33  O4  UNL     1      -8.106  30.191  -1.702  1.00  0.00    -0.365 OA
ATOM     34  H4  UNL     1      -8.836  30.794  -1.626  1.00  0.00     0.212 HD
ENDBRANCH   9  33
BRANCH   4  35
HETATM   35  N3  UNL     1      -2.348  30.977  -0.917  1.00  0.00    -0.384 N 
ATOM     36  H32 UNL     1      -1.495  30.486  -0.650  1.00  0.00     0.157 HD
ATOM     37  H31 UNL     1      -2.339  31.979  -1.109  1.00  0.00     0.157 HD
ENDBRANCH   4  35
BRANCH   1  38
HETATM   38  C4  UNL     1      -4.670  26.816  -0.392  1.00  0.00     0.239 C 
BRANCH  38  39
HETATM   39  S1  UNL     1      -5.150  25.935  -1.877  1.00  0.00     0.239 S 
HETATM   40  O2  UNL     1      -6.661  26.022  -1.966  1.00  0.00    -0.205 OA
HETATM   41  O3  UNL     1      -4.812  24.493  -1.639  1.00  0.00    -0.205 OA
BRANCH  39  42
HETATM   42  N1  UNL     1      -4.406  26.575  -3.266  1.00  0.00    -0.254 N 
HETATM   43  C3  UNL     1      -4.792  26.167  -4.555  1.00  0.00     0.230 C 
HETATM   44  O1  UNL     1      -5.705  25.309  -4.742  1.00  0.00    -0.273 OA
ATOM     45  H1  UNL     1      -3.666  27.268  -3.162  1.00  0.00     0.181 HD
BRANCH  43  46
HETATM   46  C2  UNL     1      -4.125  26.742  -5.734  1.00  0.00     0.099 C 
HETATM   47  C1  UNL     1      -5.121  27.269  -6.717  1.00  0.00     0.014 C 
ENDBRANCH  43  46
ENDBRANCH  39  42
ENDBRANCH  38  39
ENDBRANCH   1  38
TORSDOF 11
ENDMDL
MODEL 2
REMARK VINA RESULT: -8.010908425      2.858      9.472
REMARK  11 active torsions:
REMARK  status: ('A' for Active; 'I' for Inactive)
REMARK    1  A    between atoms: C2_2  and  C3_3 
REMARK       I    between atoms: C3_3  and  N1_5 
REMARK    2  A    between atoms: N1_5  and  S1_7 
REMARK    3  A    between atoms: S1_7  and  C4_10 
REMARK    4  A    between atoms: C4_10  and  C5_11 
REMARK    5  A    between atoms: C6_14  and  N3_15 
REMARK    6  A    between atoms: C9_22  and  O4_23 
REMARK    7  A    between atoms: C10_28  and  N6_29 
REMARK    8  A    between atoms: N6_29  and  C11_31 
REMARK    9  A    between atoms: C12_36  and  O5_37 
REMARK   10  A    between atoms: O5_37  and  O6_38 
REMARK   11  A    between atoms: C13_40  and  N9_41 
ROOT
HETATM    1  C5  UNL     1      -6.220  34.074  -1.132  1.00  0.00     0.099 A 
HETATM    2  N2  UNL     1      -4.894  34.170  -1.238  1.00  0.00    -0.330 N 
ATOM      3  H2  UNL     1      -4.450  35.088  -1.200  1.00  0.00     0.168 HD
HETATM    4  C6  UNL     1      -4.134  33.071  -1.395  1.00  0.00     0.129 A 
HETATM    5  C7  UNL     1      -4.699  31.825  -1.451  1.00  0.00     0.102 A 
HETATM    6  C8  UNL     1      -6.092  31.736  -1.338  1.00  0.00     0.097 A 
HETATM    7  N4  UNL     1      -6.783  32.853  -1.186  1.00  0.00    -0.343 N 
ATOM      8  H4  UNL     1      -7.798  32.786  -1.105  1.00  0.00     0.167 HD
HETATM    9  C9  UNL     1      -6.667  30.373  -1.407  1.00  0.00     0.376 C 
HETATM   10  N5  UNL     1      -6.021  29.672  -2.484  1.00  0.00    -0.004 N 
ATOM     11  H51 UNL     1      -6.221  30.129  -3.373  1.00  0.00     0.285 HD
ATOM     12  H52 UNL     1      -6.473  28.772  -2.642  1.00  0.00     0.285 HD
HETATM   13  C10 UNL     1      -4.609  29.497  -2.322  1.00  0.00     0.407 C 
HETATM   14  N11 UNL     1      -3.969  30.617  -1.618  1.00  0.00    -0.341 N 
ATOM     15  H11 UNL     1      -3.019  30.530  -1.257  1.00  0.00     0.163 HD
ENDROOT
BRANCH  13  16
HETATM   16  N6  UNL     1      -4.062  29.399  -3.669  1.00  0.00    -0.178 N 
ATOM     17  H6  UNL     1      -3.256  29.967  -3.929  1.00  0.00     0.181 HD
BRANCH  16  18
HETATM   18  C11 UNL     1      -4.575  28.618  -4.518  1.00  0.00     0.697 A 
HETATM   19  N7  UNL     1      -5.271  29.063  -5.556  1.00  0.00    -0.130 N 
HETATM   20  N8  UNL     1      -5.798  28.238  -6.458  1.00  0.00    -0.260 N 
ATOM     21  H7  UNL     1      -5.406  30.068  -5.667  1.00  0.00     0.205 HD
HETATM   22  C12 UNL     1      -5.641  26.915  -6.345  1.00  0.00     0.237 A 
ATOM     23  H8  UNL     1      -6.326  28.619  -7.244  1.00  0.00     0.190 HD
HETATM   24  C13 UNL     1      -4.920  26.413  -5.271  1.00  0.00     0.170 A 
HETATM   25  N10 UNL     1      -4.403  27.275  -4.382  1.00  0.00    -0.171 N 
ATOM     26  H10 UNL     1      -3.871  26.918  -3.588  1.00  0.00     0.186 HD
BRANCH  22  27
HETATM   27  O5  UNL     1      -6.182  26.053  -7.273  1.00  0.00    -0.176 OA
BRANCH  27  28
HETATM   28  O6  UNL     1      -6.566  26.519  -8.489  1.00  0.00    -0.243 OA
ATOM     29  H6  UNL     1      -7.485  26.678  -8.668  1.00  0.00     0.254 HD
ENDBRANCH  27  28
ENDBRANCH  22  27
BRANCH  24  30
HETATM   30  N9  UNL     1      -4.788  25.145  -5.189  1.00  0.00    -0.381 N 
ATOM     31  H92 UNL     1      -4.955  24.506  -5.967  1.00  0.00     0.157 HD
ATOM     32  H91 UNL     1      -4.498  24.758  -4.291  1.00  0.00     0.157 HD
ENDBRANCH  24  30
ENDBRANCH  16  18
ENDBRANCH  13  16
BRANCH   9  33
HETATM   33  O4  UNL     1      -8.033  30.411  -1.726  1.00  0.00    -0.365 OA
ATOM     34  H4  UNL     1      -8.462  29.593  -1.504  1.00  0.00     0.212 HD
ENDBRANCH   9  33
BRANCH   4  35
HETATM   35  N3  UNL     1      -2.835  33.116  -1.505  1.00  0.00    -0.384 N 
ATOM     36  H32 UNL     1      -2.459  33.881  -2.065  1.00  0.00     0.157 HD
ATOM     37  H31 UNL     1      -2.217  32.437  -1.061  1.00  0.00     0.157 HD
ENDBRANCH   4  35
BRANCH   1  38
HETATM   38  C4  UNL     1      -7.091  35.253  -0.961  1.00  0.00     0.239 C 
BRANCH  38  39
HETATM   39  S1  UNL     1      -6.938  35.760   0.752  1.00  0.00     0.239 S 
HETATM   40  O2  UNL     1      -5.828  34.922   1.357  1.00  0.00    -0.205 OA
HETATM   41  O3  UNL     1      -8.212  35.347   1.429  1.00  0.00    -0.205 OA
BRANCH  39  42
HETATM   42  N1  UNL     1      -6.613  37.423   0.897  1.00  0.00    -0.254 N 
HETATM   43  C3  UNL     1      -7.564  38.388   0.522  1.00  0.00     0.230 C 
HETATM   44  O1  UNL     1      -8.699  38.067   0.061  1.00  0.00    -0.273 OA
ATOM     45  H1  UNL     1      -5.710  37.726   1.263  1.00  0.00     0.181 HD
BRANCH  43  46
HETATM   46  C2  UNL     1      -7.246  39.819   0.659  1.00  0.00     0.099 C 
HETATM   47  C1  UNL     1      -5.816  40.091   0.322  1.00  0.00     0.014 C 
ENDBRANCH  43  46
ENDBRANCH  39  42
ENDBRANCH  38  39
ENDBRANCH   1  38
TORSDOF 11
ENDMDL
MODEL 3
REMARK VINA RESULT: -7.987878168      2.340      3.816
REMARK  11 active torsions:
REMARK  status: ('A' for Active; 'I' for Inactive)
REMARK    1  A    between atoms: C2_2  and  C3_3 
REMARK       I    between atoms: C3_3  and  N1_5 
REMARK    2  A    between atoms: N1_5  and  S1_7 
REMARK    3  A    between atoms: S1_7  and  C4_10 
REMARK    4  A    between atoms: C4_10  and  C5_11 
REMARK    5  A    between atoms: C6_14  and  N3_15 
REMARK    6  A    between atoms: C9_22  and  O4_23 
REMARK    7  A    between atoms: C10_28  and  N6_29 
REMARK    8  A    between atoms: N6_29  and  C11_31 
REMARK    9  A    between atoms: C12_36  and  O5_37 
REMARK   10  A    between atoms: O5_37  and  O6_38 
REMARK   11  A    between atoms: C13_40  and  N9_41 
ROOT
HETATM    1  C5  UNL     1      -5.555  31.744  -1.722  1.00  0.00     0.099 A 
HETATM    2  N2  UNL     1      -5.973  31.304  -0.535  1.00  0.00    -0.330 N 
ATOM      3  H2  UNL     1      -6.597  30.497  -0.487  1.00  0.00     0.168 HD
HETATM    4  C6  UNL     1      -5.583  31.911   0.601  1.00  0.00     0.129 A 
HETATM    5  C7  UNL     1      -4.748  32.996   0.570  1.00  0.00     0.102 A 
HETATM    6  C8  UNL     1      -4.315  33.448  -0.682  1.00  0.00     0.097 A 
HETATM    7  N4  UNL     1      -4.734  32.809  -1.762  1.00  0.00    -0.343 N 
ATOM      8  H4  UNL     1      -4.418  33.142  -2.672  1.00  0.00     0.167 HD
HETATM    9  C9  UNL     1      -3.416  34.626  -0.676  1.00  0.00     0.376 C 
HETATM   10  N5  UNL     1      -3.949  35.586   0.253  1.00  0.00    -0.004 N 
ATOM     11  H51 UNL     1      -4.865  35.908  -0.057  1.00  0.00     0.285 HD
ATOM     12  H52 UNL     1      -3.426  36.460   0.198  1.00  0.00     0.285 HD
HETATM   13  C10 UNL     1      -4.015  35.133   1.610  1.00  0.00     0.407 C 
HETATM   14  N11 UNL     1      -4.294  33.694   1.721  1.00  0.00    -0.341 N 
ATOM     15  H11 UNL     1      -4.164  33.206   2.607  1.00  0.00     0.163 HD
ENDROOT
BRANCH  13  16
HETATM   16  N6  UNL     1      -5.100  35.883   2.229  1.00  0.00    -0.178 N 
ATOM     17  H6  UNL     1      -5.052  36.116   3.220  1.00  0.00     0.181 HD
BRANCH  16  18
HETATM   18  C11 UNL     1      -6.100  36.247   1.550  1.00  0.00     0.697 A 
HETATM   19  N7  UNL     1      -6.977  35.379   1.062  1.00  0.00    -0.130 N 
HETATM   20  N8  UNL     1      -8.039  35.767   0.361  1.00  0.00    -0.260 N 
ATOM     21  H7  UNL     1      -6.832  34.383   1.230  1.00  0.00     0.205 HD
HETATM   22  C12 UNL     1      -8.261  37.063   0.121  1.00  0.00     0.237 A 
ATOM     23  H8  UNL     1      -8.691  35.068   0.003  1.00  0.00     0.190 HD
HETATM   24  C13 UNL     1      -7.365  38.001   0.615  1.00  0.00     0.170 A 
HETATM   25  N10 UNL     1      -6.305  37.572   1.319  1.00  0.00    -0.171 N 
ATOM     26  H10 UNL     1      -5.640  38.252   1.687  1.00  0.00     0.186 HD
BRANCH  22  27
HETATM   27  O5  UNL     1      -9.356  37.475  -0.604  1.00  0.00    -0.176 OA
BRANCH  27  28
HETATM   28  O6  UNL     1     -10.423  38.025   0.032  1.00  0.00    -0.243 OA
ATOM     29  H6  UNL     1     -11.295  37.929  -0.334  1.00  0.00     0.254 HD
ENDBRANCH  27  28
ENDBRANCH  22  27
BRANCH  24  30
HETATM   30  N9  UNL     1      -7.602  39.232   0.369  1.00  0.00    -0.381 N 
ATOM     31  H92 UNL     1      -6.903  39.884   0.014  1.00  0.00     0.157 HD
ATOM     32  H91 UNL     1      -8.548  39.572   0.540  1.00  0.00     0.157 HD
ENDBRANCH  24  30
ENDBRANCH  16  18
ENDBRANCH  13  16
BRANCH   9  33
HETATM   33  O4  UNL     1      -3.396  35.259  -1.927  1.00  0.00    -0.365 OA
ATOM     34  H4  UNL     1      -3.545  36.193  -1.844  1.00  0.00     0.212 HD
ENDBRANCH   9  33
BRANCH   4  35
HETATM   35  N3  UNL     1      -5.968  31.517   1.784  1.00  0.00    -0.384 N 
ATOM     36  H32 UNL     1      -6.317  32.245   2.407  1.00  0.00     0.157 HD
ATOM     37  H31 UNL     1      -5.930  30.543   2.083  1.00  0.00     0.157 HD
ENDBRANCH   4  35
BRANCH   1  38
HETATM   38  C4  UNL     1      -5.959  31.110  -2.993  1.00  0.00     0.239 C 
BRANCH  38  39
HETATM   39  S1  UNL     1      -7.251  29.934  -2.590  1.00  0.00     0.239 S 
HETATM   40  O2  UNL     1      -7.825  29.448  -3.907  1.00  0.00    -0.205 OA
HETATM   41  O3  UNL     1      -8.334  30.716  -1.906  1.00  0.00    -0.205 OA
BRANCH  39  42
HETATM   42  N1  UNL     1      -6.666  28.642  -1.651  1.00  0.00    -0.254 N 
HETATM   43  C3  UNL     1      -5.714  27.741  -2.161  1.00  0.00     0.230 C 
HETATM   44  O1  UNL     1      -5.252  27.848  -3.336  1.00  0.00    -0.273 OA
ATOM     45  H1  UNL     1      -7.011  28.519  -0.699  1.00  0.00     0.181 HD
BRANCH  43  46
HETATM   46  C2  UNL     1      -5.231  26.634  -1.320  1.00  0.00     0.099 C 
HETATM   47  C1  UNL     1      -5.102  25.371  -2.110  1.00  0.00     0.014 C 
ENDBRANCH  43  46
ENDBRANCH  39  42
ENDBRANCH  38  39
ENDBRANCH   1  38
TORSDOF 11
ENDMDL
MODEL 4
REMARK VINA RESULT: -7.882606168      2.336      3.039
REMARK  11 active torsions:
REMARK  status: ('A' for Active; 'I' for Inactive)
REMARK    1  A    between atoms: C2_2  and  C3_3 
REMARK       I    between atoms: C3_3  and  N1_5 
REMARK    2  A    between atoms: N1_5  and  S1_7 
REMARK    3  A    between atoms: S1_7  and  C4_10 
REMARK    4  A    between atoms: C4_10  and  C5_11 
REMARK    5  A    between atoms: C6_14  and  N3_15 
REMARK    6  A    between atoms: C9_22  and  O4_23 
REMARK    7  A    between atoms: C10_28  and  N6_29 
REMARK    8  A    between atoms: N6_29  and  C11_31 
REMARK    9  A    between atoms: C12_36  and  O5_37 
REMARK   10  A    between atoms: O5_37  and  O6_38 
REMARK   11  A    between atoms: C13_40  and  N9_41 
ROOT
HETATM    1  C5  UNL     1      -5.232  31.078  -1.988  1.00  0.00     0.099 A 
HETATM    2  N2  UNL     1      -5.547  30.532  -0.813  1.00  0.00    -0.330 N 
ATOM      3  H2  UNL     1      -6.043  29.641  -0.787  1.00  0.00     0.168 HD
HETATM    4  C6  UNL     1      -5.218  31.143   0.340  1.00  0.00     0.129 A 
HETATM    5  C7  UNL     1      -4.554  32.340   0.340  1.00  0.00     0.102 A 
HETATM    6  C8  UNL     1      -4.228  32.903  -0.900  1.00  0.00     0.097 A 
HETATM    7  N4  UNL     1      -4.578  32.254  -1.997  1.00  0.00    -0.343 N 
ATOM      8  H4  UNL     1      -4.341  32.667  -2.899  1.00  0.00     0.167 HD
HETATM    9  C9  UNL     1      -3.513  34.200  -0.860  1.00  0.00     0.376 C 
HETATM   10  N5  UNL     1      -4.155  35.031   0.123  1.00  0.00    -0.004 N 
ATOM     11  H51 UNL     1      -5.117  35.226  -0.153  1.00  0.00     0.285 HD
ATOM     12  H52 UNL     1      -3.769  35.975   0.095  1.00  0.00     0.285 HD
HETATM   13  C10 UNL     1      -4.115  34.517   1.459  1.00  0.00     0.407 C 
HETATM   14  N11 UNL     1      -4.175  33.050   1.511  1.00  0.00    -0.341 N 
ATOM     15  H11 UNL     1      -3.950  32.551   2.371  1.00  0.00     0.163 HD
ENDROOT
BRANCH  13  16
HETATM   16  N6  UNL     1      -5.281  35.072   2.135  1.00  0.00    -0.178 N 
ATOM     17  H6  UNL     1      -5.319  35.075   3.153  1.00  0.00     0.181 HD
BRANCH  16  18
HETATM   18  C11 UNL     1      -6.244  35.548   1.471  1.00  0.00     0.697 A 
HETATM   19  N7  UNL     1      -7.188  34.779   0.946  1.00  0.00    -0.130 N 
HETATM   20  N8  UNL     1      -8.211  35.285   0.261  1.00  0.00    -0.260 N 
ATOM     21  H7  UNL     1      -7.128  33.768   1.070  1.00  0.00     0.205 HD
HETATM   22  C12 UNL     1      -8.321  36.605   0.077  1.00  0.00     0.237 A 
ATOM     23  H8  UNL     1      -8.917  34.660  -0.128  1.00  0.00     0.190 HD
HETATM   24  C13 UNL     1      -7.352  37.441   0.613  1.00  0.00     0.170 A 
HETATM   25  N10 UNL     1      -6.335  36.895   1.298  1.00  0.00    -0.171 N 
ATOM     26  H10 UNL     1      -5.617  37.500   1.696  1.00  0.00     0.186 HD
BRANCH  22  27
HETATM   27  O5  UNL     1      -9.375  37.139  -0.630  1.00  0.00    -0.176 OA
BRANCH  27  28
HETATM   28  O6  UNL     1     -10.370  37.791   0.025  1.00  0.00    -0.243 OA
ATOM     29  H6  UNL     1     -11.001  38.307  -0.464  1.00  0.00     0.254 HD
ENDBRANCH  27  28
ENDBRANCH  22  27
BRANCH  24  30
HETATM   30  N9  UNL     1      -7.484  38.697   0.420  1.00  0.00    -0.381 N 
ATOM     31  H92 UNL     1      -8.320  39.125   0.022  1.00  0.00     0.157 HD
ATOM     32  H91 UNL     1      -6.703  39.299   0.683  1.00  0.00     0.157 HD
ENDBRANCH  24  30
ENDBRANCH  16  18
ENDBRANCH  13  16
BRANCH   9  33
HETATM   33  O4  UNL     1      -3.623  34.880  -2.082  1.00  0.00    -0.365 OA
ATOM     34  H4  UNL     1      -2.925  35.516  -2.187  1.00  0.00     0.212 HD
ENDBRANCH   9  33
BRANCH   4  35
HETATM   35  N3  UNL     1      -5.507  30.648   1.513  1.00  0.00    -0.384 N 
ATOM     36  H32 UNL     1      -6.474  30.355   1.650  1.00  0.00     0.157 HD
ATOM     37  H31 UNL     1      -4.817  30.550   2.258  1.00  0.00     0.157 HD
ENDBRANCH   4  35
BRANCH   1  38
HETATM   38  C4  UNL     1      -5.574  30.444  -3.276  1.00  0.00     0.239 C 
BRANCH  38  39
HETATM   39  S1  UNL     1      -4.981  28.754  -3.190  1.00  0.00     0.239 S 
HETATM   40  O2  UNL     1      -6.070  27.944  -2.513  1.00  0.00    -0.205 OA
HETATM   41  O3  UNL     1      -3.806  28.768  -2.257  1.00  0.00    -0.205 OA
BRANCH  39  42
HETATM   42  N1  UNL     1      -4.606  28.132  -4.727  1.00  0.00    -0.254 N 
HETATM   43  C3  UNL     1      -5.549  28.146  -5.770  1.00  0.00     0.230 C 
HETATM   44  O1  UNL     1      -6.714  28.619  -5.615  1.00  0.00    -0.273 OA
ATOM     45  H1  UNL     1      -3.680  27.740  -4.896  1.00  0.00     0.181 HD
BRANCH  43  46
HETATM   46  C2  UNL     1      -5.190  27.597  -7.088  1.00  0.00     0.099 C 
HETATM   47  C1  UNL     1      -4.092  26.589  -6.973  1.00  0.00     0.014 C 
ENDBRANCH  43  46
ENDBRANCH  39  42
ENDBRANCH  38  39
ENDBRANCH   1  38
TORSDOF 11
ENDMDL
MODEL 5
REMARK VINA RESULT: -7.695245877      1.244      1.466
REMARK  11 active torsions:
REMARK  status: ('A' for Active; 'I' for Inactive)
REMARK    1  A    between atoms: C2_2  and  C3_3 
REMARK       I    between atoms: C3_3  and  N1_5 
REMARK    2  A    between atoms: N1_5  and  S1_7 
REMARK    3  A    between atoms: S1_7  and  C4_10 
REMARK    4  A    between atoms: C4_10  and  C5_11 
REMARK    5  A    between atoms: C6_14  and  N3_15 
REMARK    6  A    between atoms: C9_22  and  O4_23 
REMARK    7  A    between atoms: C10_28  and  N6_29 
REMARK    8  A    between atoms: N6_29  and  C11_31 
REMARK    9  A    between atoms: C12_36  and  O5_37 
REMARK   10  A    between atoms: O5_37  and  O6_38 
REMARK   11  A    between atoms: C13_40  and  N9_41 
ROOT
HETATM    1  C5  UNL     1      -4.641  28.460  -0.867  1.00  0.00     0.099 A 
HETATM    2  N2  UNL     1      -3.539  29.189  -0.682  1.00  0.00    -0.330 N 
ATOM      3  H2  UNL     1      -2.691  28.741  -0.332  1.00  0.00     0.168 HD
HETATM    4  C6  UNL     1      -3.533  30.507  -0.950  1.00  0.00     0.129 A 
HETATM    5  C7  UNL     1      -4.654  31.137  -1.418  1.00  0.00     0.102 A 
HETATM    6  C8  UNL     1      -5.804  30.363  -1.609  1.00  0.00     0.097 A 
HETATM    7  N4  UNL     1      -5.747  29.072  -1.328  1.00  0.00    -0.343 N 
ATOM      8  H4  UNL     1      -6.587  28.510  -1.467  1.00  0.00     0.167 HD
HETATM    9  C9  UNL     1      -6.998  31.080  -2.114  1.00  0.00     0.376 C 
HETATM   10  N5  UNL     1      -7.116  32.313  -1.383  1.00  0.00    -0.004 N 
ATOM     11  H51 UNL     1      -7.274  32.124  -0.393  1.00  0.00     0.285 HD
ATOM     12  H52 UNL     1      -7.993  32.780  -1.616  1.00  0.00     0.285 HD
HETATM   13  C10 UNL     1      -6.016  33.214  -1.549  1.00  0.00     0.407 C 
HETATM   14  N11 UNL     1      -4.730  32.524  -1.721  1.00  0.00    -0.341 N 
ATOM     15  H11 UNL     1      -3.908  33.030  -2.050  1.00  0.00     0.163 HD
ENDROOT
BRANCH  13  16
HETATM   16  N6  UNL     1      -5.972  34.018  -0.334  1.00  0.00    -0.178 N 
ATOM     17  H6  UNL     1      -5.330  33.764   0.417  1.00  0.00     0.181 HD
BRANCH  16  18
HETATM   18  C11 UNL     1      -6.720  35.026  -0.201  1.00  0.00     0.697 A 
HETATM   19  N7  UNL     1      -8.020  34.980  -0.464  1.00  0.00    -0.130 N 
HETATM   20  N8  UNL     1      -8.810  36.040  -0.308  1.00  0.00    -0.260 N 
ATOM     21  H7  UNL     1      -8.427  34.105  -0.795  1.00  0.00     0.205 HD
HETATM   22  C12 UNL     1      -8.312  37.203   0.125  1.00  0.00     0.237 A 
ATOM     23  H8  UNL     1      -9.805  35.964  -0.520  1.00  0.00     0.190 HD
HETATM   24  C13 UNL     1      -6.956  37.289   0.409  1.00  0.00     0.170 A 
HETATM   25  N10 UNL     1      -6.191  36.199   0.240  1.00  0.00    -0.171 N 
ATOM     26  H10 UNL     1      -5.193  36.251   0.447  1.00  0.00     0.186 HD
BRANCH  22  27
HETATM   27  O5  UNL     1      -9.120  38.305   0.290  1.00  0.00    -0.176 OA
BRANCH  27  28
HETATM   28  O6  UNL     1     -10.421  38.256  -0.098  1.00  0.00    -0.243 OA
ATOM     29  H6  UNL     1     -11.069  38.791   0.346  1.00  0.00     0.254 HD
ENDBRANCH  27  28
ENDBRANCH  22  27
BRANCH  24  30
HETATM   30  N9  UNL     1      -6.509  38.413   0.820  1.00  0.00    -0.381 N 
ATOM     31  H92 UNL     1      -6.989  39.301   0.673  1.00  0.00     0.157 HD
ATOM     32  H91 UNL     1      -5.622  38.412   1.322  1.00  0.00     0.157 HD
ENDBRANCH  24  30
ENDBRANCH  16  18
ENDBRANCH  13  16
BRANCH   9  33
HETATM   33  O4  UNL     1      -8.173  30.357  -1.857  1.00  0.00    -0.365 OA
ATOM     34  H4  UNL     1      -8.163  29.515  -2.296  1.00  0.00     0.212 HD
ENDBRANCH   9  33
BRANCH   4  35
HETATM   35  N3  UNL     1      -2.479  31.260  -0.782  1.00  0.00    -0.384 N 
ATOM     36  H32 UNL     1      -2.253  31.505   0.182  1.00  0.00     0.157 HD
ATOM     37  H31 UNL     1      -1.905  31.589  -1.558  1.00  0.00     0.157 HD
ENDBRANCH   4  35
BRANCH   1  38
HETATM   38  C4  UNL     1      -4.693  27.012  -0.584  1.00  0.00     0.239 C 
BRANCH  38  39
HETATM   39  S1  UNL     1      -5.186  26.210  -2.110  1.00  0.00     0.239 S 
HETATM   40  O2  UNL     1      -5.030  27.238  -3.213  1.00  0.00    -0.205 OA
HETATM   41  O3  UNL     1      -6.654  25.927  -1.983  1.00  0.00    -0.205 OA
BRANCH  39  42
HETATM   42  N1  UNL     1      -4.262  24.816  -2.423  1.00  0.00    -0.254 N 
HETATM   43  C3  UNL     1      -4.331  24.158  -3.664  1.00  0.00     0.230 C 
HETATM   44  O1  UNL     1      -5.079  24.568  -4.600  1.00  0.00    -0.273 OA
ATOM     45  H1  UNL     1      -3.646  24.451  -1.697  1.00  0.00     0.181 HD
BRANCH  43  46
HETATM   46  C2  UNL     1      -3.517  22.954  -3.898  1.00  0.00     0.099 C 
HETATM   47  C1  UNL     1      -2.937  22.952  -5.276  1.00  0.00     0.014 C 
ENDBRANCH  43  46
ENDBRANCH  39  42
ENDBRANCH  38  39
ENDBRANCH   1  38
TORSDOF 11
ENDMDL
