MODEL 1
REMARK VINA RESULT: -6.545038090      0.000      0.000
REMARK  1 active torsions:
REMARK  status: ('A' for Active; 'I' for Inactive)
REMARK       I    between atoms: C2_4  and  N3_6 
REMARK    1  A    between atoms: N3_6  and  C3_8 
ROOT
HETATM    1  C3  UNL     1       7.630  12.727  12.520  1.00  0.00     0.716 A 
HETATM    2  N4  UNL     1       8.576  12.505  13.446  1.00  0.00    -0.115 N 
ATOM      3  H4  UNL     1       9.272  13.177  13.770  1.00  0.00     0.207 HD
HETATM    4  N5  UNL     1       8.440  11.239  13.870  1.00  0.00    -0.213 N 
ATOM      5  H5  UNL     1       9.027  10.793  14.575  1.00  0.00     0.210 HD
HETATM    6  N6  UNL     1       7.444  10.660  13.244  1.00  0.00    -0.213 N 
ATOM      7  H6  UNL     1       7.114   9.703  13.367  1.00  0.00     0.210 HD
HETATM    8  N7  UNL     1       6.951  11.573  12.419  1.00  0.00    -0.115 N 
ATOM      9  H7  UNL     1       6.163  11.419  11.791  1.00  0.00     0.207 HD
ENDROOT
BRANCH   1  10
HETATM   10  N3  UNL     1       7.381  13.806  11.838  1.00  0.00    -0.161 N 
HETATM   11  C2  UNL     1       6.501  14.804  12.281  1.00  0.00     0.202 C 
HETATM   12  N1  UNL     1       6.327  15.022  13.526  1.00  0.00    -0.368 N 
HETATM   13  N2  UNL     1       5.806  15.567  11.296  1.00  0.00    -0.063 NA
HETATM   14  C1  UNL     1       5.459  16.007  14.090  1.00  0.00     0.148 C 
ATOM     15  H1  UNL     1       6.854  14.441  14.178  1.00  0.00     0.161 HD
ATOM     16  H3  UNL     1       7.847  13.933  10.939  1.00  0.00     0.187 HD
ENDBRANCH   1  10
TORSDOF 1
ENDMDL
MODEL 2
REMARK VINA RESULT: -6.509588727      0.064      1.123
REMARK  1 active torsions:
REMARK  status: ('A' for Active; 'I' for Inactive)
REMARK       I    between atoms: C2_4  and  N3_6 
REMARK    1  A    between atoms: N3_6  and  C3_8 
ROOT
HETATM    1  C3  UNL     1       7.544  12.705  12.464  1.00  0.00     0.716 A 
HETATM    2  N4  UNL     1       6.886  11.537  12.386  1.00  0.00    -0.115 N 
ATOM      3  H4  UNL     1       6.090  11.333  11.782  1.00  0.00     0.207 HD
HETATM    4  N5  UNL     1       7.465  10.688  13.248  1.00  0.00    -0.213 N 
ATOM      5  H5  UNL     1       7.172   9.723  13.404  1.00  0.00     0.210 HD
HETATM    6  N6  UNL     1       8.462  11.279  13.862  1.00  0.00    -0.213 N 
ATOM      7  H6  UNL     1       9.077  10.873  14.566  1.00  0.00     0.210 HD
HETATM    8  N7  UNL     1       8.506  12.513  13.380  1.00  0.00    -0.115 N 
ATOM      9  H7  UNL     1       9.182  13.221  13.667  1.00  0.00     0.207 HD
ENDROOT
BRANCH   1  10
HETATM   10  N3  UNL     1       7.336  13.813  11.815  1.00  0.00    -0.161 N 
HETATM   11  C2  UNL     1       6.479  14.820  12.279  1.00  0.00     0.202 C 
HETATM   12  N1  UNL     1       6.292  15.002  13.528  1.00  0.00    -0.368 N 
HETATM   13  N2  UNL     1       5.821  15.636  11.310  1.00  0.00    -0.063 NA
HETATM   14  C1  UNL     1       5.444  15.993  14.112  1.00  0.00     0.148 C 
ATOM     15  H1  UNL     1       6.793  14.386  14.167  1.00  0.00     0.161 HD
ATOM     16  H3  UNL     1       7.819  13.956  10.928  1.00  0.00     0.187 HD
ENDBRANCH   1  10
TORSDOF 1
ENDMDL
MODEL 3
REMARK VINA RESULT: -6.340496190      1.555      2.219
REMARK  1 active torsions:
REMARK  status: ('A' for Active; 'I' for Inactive)
REMARK       I    between atoms: C2_4  and  N3_6 
REMARK    1  A    between atoms: N3_6  and  C3_8 
ROOT
HETATM    1  C3  UNL     1       8.351  13.028  12.967  1.00  0.00     0.716 A 
HETATM    2  N4  UNL     1       8.301  11.813  13.537  1.00  0.00    -0.115 N 
ATOM      3  H4  UNL     1       7.561  11.463  14.145  1.00  0.00     0.207 HD
HETATM    4  N5  UNL     1       9.402  11.145  13.162  1.00  0.00    -0.213 N 
ATOM      5  H5  UNL     1       9.632  10.192  13.446  1.00  0.00     0.210 HD
HETATM    6  N6  UNL     1      10.138  11.894  12.378  1.00  0.00    -0.213 N 
ATOM      7  H6  UNL     1      11.027  11.643  11.945  1.00  0.00     0.210 HD
HETATM    8  N7  UNL     1       9.492  13.045  12.261  1.00  0.00    -0.115 N 
ATOM      9  H7  UNL     1       9.819  13.838  11.710  1.00  0.00     0.207 HD
ENDROOT
BRANCH   1  10
HETATM   10  N3  UNL     1       7.503  14.012  13.048  1.00  0.00    -0.161 N 
HETATM   11  C2  UNL     1       6.304  14.048  12.322  1.00  0.00     0.202 C 
HETATM   12  N1  UNL     1       5.698  12.973  11.997  1.00  0.00    -0.368 N 
HETATM   13  N2  UNL     1       5.782  15.325  11.957  1.00  0.00    -0.063 NA
HETATM   14  C1  UNL     1       4.476  12.890  11.261  1.00  0.00     0.148 C 
ATOM     15  H1  UNL     1       6.124  12.094  12.289  1.00  0.00     0.161 HD
ATOM     16  H3  UNL     1       7.720  14.792  13.667  1.00  0.00     0.187 HD
ENDBRANCH   1  10
TORSDOF 1
ENDMDL
MODEL 4
REMARK VINA RESULT: -6.319683232      1.551      2.114
REMARK  1 active torsions:
REMARK  status: ('A' for Active; 'I' for Inactive)
REMARK       I    between atoms: C2_4  and  N3_6 
REMARK    1  A    between atoms: N3_6  and  C3_8 
ROOT
HETATM    1  C3  UNL     1       8.413  13.058  12.945  1.00  0.00     0.716 A 
HETATM    2  N4  UNL     1       9.538  13.033  12.213  1.00  0.00    -0.115 N 
ATOM      3  H4  UNL     1       9.892  13.788  11.626  1.00  0.00     0.207 HD
HETATM    4  N5  UNL     1      10.112  11.834  12.394  1.00  0.00    -0.213 N 
ATOM      5  H5  UNL     1      10.983  11.531  11.959  1.00  0.00     0.210 HD
HETATM    6  N6  UNL     1       9.389  11.108  13.213  1.00  0.00    -0.213 N 
ATOM      7  H6  UNL     1       9.586  10.158  13.529  1.00  0.00     0.210 HD
HETATM    8  N7  UNL     1       8.350  11.860  13.547  1.00  0.00    -0.115 N 
ATOM      9  H7  UNL     1       7.604  11.567  14.177  1.00  0.00     0.207 HD
ENDROOT
BRANCH   1  10
HETATM   10  N3  UNL     1       7.536  14.011  13.078  1.00  0.00    -0.161 N 
HETATM   11  C2  UNL     1       6.339  14.055  12.350  1.00  0.00     0.202 C 
HETATM   12  N1  UNL     1       5.765  12.983  11.962  1.00  0.00    -0.368 N 
HETATM   13  N2  UNL     1       5.782  15.335  12.057  1.00  0.00    -0.063 NA
HETATM   14  C1  UNL     1       4.547  12.907  11.218  1.00  0.00     0.148 C 
ATOM     15  H1  UNL     1       6.215  12.101  12.206  1.00  0.00     0.161 HD
ATOM     16  H3  UNL     1       7.730  14.761  13.741  1.00  0.00     0.187 HD
ENDBRANCH   1  10
TORSDOF 1
ENDMDL
MODEL 5
REMARK VINA RESULT: -6.001153545      1.637      2.039
REMARK  1 active torsions:
REMARK  status: ('A' for Active; 'I' for Inactive)
REMARK       I    between atoms: C2_4  and  N3_6 
REMARK    1  A    between atoms: N3_6  and  C3_8 
ROOT
HETATM    1  C3  UNL     1       7.551  11.389  12.187  1.00  0.00     0.716 A 
HETATM    2  N4  UNL     1       7.590  10.784  13.385  1.00  0.00    -0.115 N 
ATOM      3  H4  UNL     1       6.785  10.480  13.933  1.00  0.00     0.207 HD
HETATM    4  N5  UNL     1       8.879  10.650  13.730  1.00  0.00    -0.213 N 
ATOM      5  H5  UNL     1       9.212  10.224  14.595  1.00  0.00     0.210 HD
HETATM    6  N6  UNL     1       9.649  11.149  12.793  1.00  0.00    -0.213 N 
ATOM      7  H6  UNL     1      10.669  11.183  12.788  1.00  0.00     0.210 HD
HETATM    8  N7  UNL     1       8.833  11.601  11.851  1.00  0.00    -0.115 N 
ATOM      9  H7  UNL     1       9.139  12.049  10.988  1.00  0.00     0.207 HD
ENDROOT
BRANCH   1  10
HETATM   10  N3  UNL     1       6.521  11.723  11.465  1.00  0.00    -0.161 N 
HETATM   11  C2  UNL     1       5.684  12.802  11.780  1.00  0.00     0.202 C 
HETATM   12  N1  UNL     1       6.132  13.823  12.402  1.00  0.00    -0.368 N 
HETATM   13  N2  UNL     1       4.315  12.724  11.384  1.00  0.00    -0.063 NA
HETATM   14  C1  UNL     1       5.374  14.975  12.775  1.00  0.00     0.148 C 
ATOM     15  H1  UNL     1       7.120  13.815  12.655  1.00  0.00     0.161 HD
ATOM     16  H3  UNL     1       6.313  11.173  10.631  1.00  0.00     0.187 HD
ENDBRANCH   1  10
TORSDOF 1
ENDMDL
