MODEL 1
REMARK VINA RESULT: -6.077349793      0.000      0.000
REMARK  1 active torsions:
REMARK  status: ('A' for Active; 'I' for Inactive)
REMARK    1  A    between atoms: N1_2  and  C2_4 
ROOT
HETATM    1  C2  UNL     1       7.572  13.892  12.613  1.00  0.00     0.185 A 
HETATM    2  N2  UNL     1       8.433  13.161  13.345  1.00  0.00    -0.277 N 
ATOM      3  H2  UNL     1       9.146  13.633  13.902  1.00  0.00     0.189 HD
HETATM    4  N3  UNL     1       8.368  11.838  13.350  1.00  0.00    -0.250 N 
ATOM      5  H3  UNL     1       9.040  11.324  13.919  1.00  0.00     0.192 HD
HETATM    6  C3  UNL     1       7.463  11.136  12.646  1.00  0.00     0.341 A 
HETATM    7  O1  UNL     1       7.432   9.860  12.676  1.00  0.00    -0.245 OA
HETATM    8  N4  UNL     1       6.584  11.831  11.902  1.00  0.00    -0.271 N 
ATOM      9  H4  UNL     1       5.880  11.339  11.352  1.00  0.00     0.174 HD
HETATM   10  C4  UNL     1       6.635  13.189  11.883  1.00  0.00     0.294 A 
HETATM   11  O2  UNL     1       5.808  13.824  11.184  1.00  0.00    -0.264 OA
ENDROOT
BRANCH   1  12
HETATM   12  N1  UNL     1       7.634  15.182  12.607  1.00  0.00    -0.375 N 
HETATM   13  C1  UNL     1       6.976  15.918  13.669  1.00  0.00     0.148 C 
ATOM     14  H1  UNL     1       8.137  15.674  11.869  1.00  0.00     0.160 HD
ENDBRANCH   1  12
TORSDOF 1
ENDMDL
MODEL 2
REMARK VINA RESULT: -5.923289748      1.969      2.140
REMARK  1 active torsions:
REMARK  status: ('A' for Active; 'I' for Inactive)
REMARK    1  A    between atoms: N1_2  and  C2_4 
ROOT
HETATM    1  C2  UNL     1       8.336  13.374  12.294  1.00  0.00     0.185 A 
HETATM    2  N2  UNL     1       7.263  12.695  12.743  1.00  0.00    -0.277 N 
ATOM      3  H2  UNL     1       6.470  13.206  13.130  1.00  0.00     0.189 HD
HETATM    4  N3  UNL     1       7.225  11.372  12.687  1.00  0.00    -0.250 N 
ATOM      5  H3  UNL     1       6.393  10.898  13.037  1.00  0.00     0.192 HD
HETATM    6  C3  UNL     1       8.224  10.619  12.194  1.00  0.00     0.341 A 
HETATM    7  O1  UNL     1       8.150   9.345  12.158  1.00  0.00    -0.245 OA
HETATM    8  N4  UNL     1       9.313  11.262  11.736  1.00  0.00    -0.271 N 
ATOM      9  H4  UNL     1      10.095  10.731  11.353  1.00  0.00     0.174 HD
HETATM   10  C4  UNL     1       9.372  12.619  11.784  1.00  0.00     0.294 A 
HETATM   11  O2  UNL     1      10.395  13.205  11.353  1.00  0.00    -0.264 OA
ENDROOT
BRANCH   1  12
HETATM   12  N1  UNL     1       8.374  14.664  12.348  1.00  0.00    -0.375 N 
HETATM   13  C1  UNL     1       7.279  15.369  12.984  1.00  0.00     0.148 C 
ATOM     14  H1  UNL     1       9.160  15.177  11.949  1.00  0.00     0.160 HD
ENDBRANCH   1  12
TORSDOF 1
ENDMDL
MODEL 3
REMARK VINA RESULT: -5.896260863      2.706      3.905
REMARK  1 active torsions:
REMARK  status: ('A' for Active; 'I' for Inactive)
REMARK    1  A    between atoms: N1_2  and  C2_4 
ROOT
HETATM    1  C2  UNL     1       7.646  11.962  11.405  1.00  0.00     0.185 A 
HETATM    2  N2  UNL     1       7.962  12.677  10.309  1.00  0.00    -0.277 N 
ATOM      3  H2  UNL     1       7.253  12.842   9.594  1.00  0.00     0.189 HD
HETATM    4  N3  UNL     1       9.181  13.170  10.148  1.00  0.00    -0.250 N 
ATOM      5  H3  UNL     1       9.377  13.707   9.303  1.00  0.00     0.192 HD
HETATM    6  C3  UNL     1      10.174  13.002  11.037  1.00  0.00     0.341 A 
HETATM    7  O1  UNL     1      11.338  13.492  10.846  1.00  0.00    -0.245 OA
HETATM    8  N4  UNL     1       9.898  12.292  12.146  1.00  0.00    -0.271 N 
ATOM      9  H4  UNL     1      10.621  12.140  12.849  1.00  0.00     0.174 HD
HETATM   10  C4  UNL     1       8.653  11.778  12.330  1.00  0.00     0.294 A 
HETATM   11  O2  UNL     1       8.409  11.118  13.370  1.00  0.00    -0.264 OA
ENDROOT
BRANCH   1  12
HETATM   12  N1  UNL     1       6.458  11.481  11.563  1.00  0.00    -0.375 N 
HETATM   13  C1  UNL     1       5.395  11.943  10.691  1.00  0.00     0.148 C 
ATOM     14  H1  UNL     1       6.270  10.789  12.289  1.00  0.00     0.160 HD
ENDBRANCH   1  12
TORSDOF 1
ENDMDL
MODEL 4
REMARK VINA RESULT: -5.826075951      2.241      2.602
REMARK  1 active torsions:
REMARK  status: ('A' for Active; 'I' for Inactive)
REMARK    1  A    between atoms: N1_2  and  C2_4 
ROOT
HETATM    1  C2  UNL     1       6.840  12.957  12.032  1.00  0.00     0.185 A 
HETATM    2  N2  UNL     1       7.760  13.303  12.951  1.00  0.00    -0.277 N 
ATOM      3  H2  UNL     1       7.458  13.607  13.877  1.00  0.00     0.189 HD
HETATM    4  N3  UNL     1       9.054  13.254  12.669  1.00  0.00    -0.250 N 
ATOM      5  H3  UNL     1       9.717  13.524  13.395  1.00  0.00     0.192 HD
HETATM    6  C3  UNL     1       9.541  12.867  11.478  1.00  0.00     0.341 A 
HETATM    7  O1  UNL     1      10.796  12.833  11.244  1.00  0.00    -0.245 OA
HETATM    8  N4  UNL     1       8.652  12.513  10.532  1.00  0.00    -0.271 N 
ATOM      9  H4  UNL     1       8.976  12.211   9.614  1.00  0.00     0.174 HD
HETATM   10  C4  UNL     1       7.320  12.556  10.802  1.00  0.00     0.294 A 
HETATM   11  O2  UNL     1       6.502  12.223   9.910  1.00  0.00    -0.264 OA
ENDROOT
BRANCH   1  12
HETATM   12  N1  UNL     1       5.579  13.004  12.306  1.00  0.00    -0.375 N 
HETATM   13  C1  UNL     1       4.893  14.278  12.220  1.00  0.00     0.148 C 
ATOM     14  H1  UNL     1       5.074  12.160  12.577  1.00  0.00     0.160 HD
ENDBRANCH   1  12
TORSDOF 1
ENDMDL
MODEL 5
REMARK VINA RESULT: -5.791795233      2.152      2.252
REMARK  1 active torsions:
REMARK  status: ('A' for Active; 'I' for Inactive)
REMARK    1  A    between atoms: N1_2  and  C2_4 
ROOT
HETATM    1  C2  UNL     1       7.403  13.947  12.474  1.00  0.00     0.185 A 
HETATM    2  N2  UNL     1       8.492  13.468  13.103  1.00  0.00    -0.277 N 
ATOM      3  H2  UNL     1       8.521  13.457  14.123  1.00  0.00     0.189 HD
HETATM    4  N3  UNL     1       9.528  13.010  12.415  1.00  0.00    -0.250 N 
ATOM      5  H3  UNL     1      10.333  12.655  12.932  1.00  0.00     0.192 HD
HETATM    6  C3  UNL     1       9.577  12.987  11.072  1.00  0.00     0.341 A 
HETATM    7  O1  UNL     1      10.594  12.539  10.444  1.00  0.00    -0.245 OA
HETATM    8  N4  UNL     1       8.507  13.458  10.407  1.00  0.00    -0.271 N 
ATOM      9  H4  UNL     1       8.500  13.460   9.387  1.00  0.00     0.174 HD
HETATM   10  C4  UNL     1       7.434  13.932  11.094  1.00  0.00     0.294 A 
HETATM   11  O2  UNL     1       6.442  14.368  10.460  1.00  0.00    -0.264 OA
ENDROOT
BRANCH   1  12
HETATM   12  N1  UNL     1       6.393  14.393  13.143  1.00  0.00    -0.375 N 
HETATM   13  C1  UNL     1       6.430  15.755  13.638  1.00  0.00     0.148 C 
ATOM     14  H1  UNL     1       5.584  13.799  13.320  1.00  0.00     0.160 HD
ENDBRANCH   1  12
TORSDOF 1
ENDMDL
