MODEL 1
REMARK VINA RESULT: -6.176765843      0.000      0.000
REMARK  8 active torsions:
REMARK  status: ('A' for Active; 'I' for Inactive)
REMARK    1  A    between atoms: N1_6  and  C6_7 
REMARK    2  A    between atoms: C6_7  and  O1_8 
REMARK    3  A    between atoms: C6_7  and  C7_10 
REMARK    4  A    between atoms: C7_10  and  C8_11 
REMARK    5  A    between atoms: C7_10  and  N3_17 
REMARK    6  A    between atoms: C8_11  and  N2_12 
REMARK    7  A    between atoms: N2_12  and  C9_14 
REMARK    8  A    between atoms: N3_17  and  C12_19 
ROOT
HETATM    1  C7  UNL     1      -1.246   5.453  84.184  1.00  0.00     0.080 C 
ENDROOT
BRANCH   1   2
HETATM    2  C6  UNL     1      -0.151   6.348  84.534  1.00  0.00     0.163 C 
BRANCH   2   3
HETATM    3  N1  UNL     1       0.320   7.529  83.923  1.00  0.00    -0.356 N 
HETATM    4  C2  UNL     1       1.695   7.583  83.368  1.00  0.00     0.082 C 
HETATM    5  C1  UNL     1       1.865   6.594  82.248  1.00  0.00     0.032 C 
HETATM    6  C3  UNL     1       1.904   8.979  82.882  1.00  0.00     0.026 C 
HETATM    7  C4  UNL     1       0.959   9.762  83.774  1.00  0.00     0.022 C 
HETATM    8  C5  UNL     1      -0.247   8.813  83.721  1.00  0.00     0.125 C 
ENDBRANCH   2   3
BRANCH   2   9
HETATM    9  O1  UNL     1       0.474   5.935  85.622  1.00  0.00    -0.345 OA
ATOM     10  H1  UNL     1      -0.059   5.585  86.326  1.00  0.00     0.219 HD
ENDBRANCH   2   9
ENDBRANCH   1   2
BRANCH   1  11
HETATM   11  C8  UNL     1      -2.577   5.601  84.796  1.00  0.00     0.176 C 
BRANCH  11  12
HETATM   12  N2  UNL     1      -2.577   6.106  86.134  1.00  0.00    -0.412 N 
ATOM     13  H2  UNL     1      -1.911   6.820  86.428  1.00  0.00     0.153 HD
BRANCH  12  14
HETATM   14  C9  UNL     1      -3.527   5.587  87.031  1.00  0.00     0.077 A 
HETATM   15  C10 UNL     1      -2.977   4.683  88.158  1.00  0.00     0.027 A 
HETATM   16  C11 UNL     1      -3.799   4.071  87.025  1.00  0.00     0.027 A 
ENDBRANCH  12  14
ENDBRANCH  11  12
ENDBRANCH   1  11
BRANCH   1  17
HETATM   17  N3  UNL     1      -0.815   4.061  84.060  1.00  0.00    -0.333 N 
ATOM     18  H3  UNL     1      -0.328   3.791  83.205  1.00  0.00     0.168 HD
BRANCH  17  19
HETATM   19  C12 UNL     1      -1.025   3.062  85.037  1.00  0.00     0.353 C 
HETATM   20  O2  UNL     1      -0.321   3.092  86.088  1.00  0.00    -0.283 OA
ENDBRANCH  17  19
ENDBRANCH   1  17
TORSDOF 8
ENDMDL
MODEL 2
REMARK VINA RESULT: -6.075741351      1.002      1.727
REMARK  8 active torsions:
REMARK  status: ('A' for Active; 'I' for Inactive)
REMARK    1  A    between atoms: N1_6  and  C6_7 
REMARK    2  A    between atoms: C6_7  and  O1_8 
REMARK    3  A    between atoms: C6_7  and  C7_10 
REMARK    4  A    between atoms: C7_10  and  C8_11 
REMARK    5  A    between atoms: C7_10  and  N3_17 
REMARK    6  A    between atoms: C8_11  and  N2_12 
REMARK    7  A    between atoms: N2_12  and  C9_14 
REMARK    8  A    between atoms: N3_17  and  C12_19 
ROOT
HETATM    1  C7  UNL     1      -1.332   5.197  83.977  1.00  0.00     0.080 C 
ENDROOT
BRANCH   1   2
HETATM    2  C6  UNL     1      -0.204   6.118  84.013  1.00  0.00     0.163 C 
BRANCH   2   3
HETATM    3  N1  UNL     1       0.418   6.872  82.996  1.00  0.00    -0.356 N 
HETATM    4  C2  UNL     1      -0.405   7.594  81.995  1.00  0.00     0.082 C 
HETATM    5  C1  UNL     1      -1.255   8.646  82.651  1.00  0.00     0.032 C 
HETATM    6  C3  UNL     1       0.549   8.208  81.024  1.00  0.00     0.026 C 
HETATM    7  C4  UNL     1       1.737   7.270  81.120  1.00  0.00     0.022 C 
HETATM    8  C5  UNL     1       1.773   7.101  82.646  1.00  0.00     0.125 C 
ENDBRANCH   2   3
BRANCH   2   9
HETATM    9  O1  UNL     1       0.281   6.230  85.237  1.00  0.00    -0.345 OA
ATOM     10  H1  UNL     1       1.210   6.412  85.324  1.00  0.00     0.219 HD
ENDBRANCH   2   9
ENDBRANCH   1   2
BRANCH   1  11
HETATM   11  C8  UNL     1      -2.570   5.477  84.725  1.00  0.00     0.176 C 
BRANCH  11  12
HETATM   12  N2  UNL     1      -2.381   5.840  86.095  1.00  0.00    -0.412 N 
ATOM     13  H2  UNL     1      -1.535   6.320  86.402  1.00  0.00     0.153 HD
BRANCH  12  14
HETATM   14  C9  UNL     1      -3.402   5.515  87.006  1.00  0.00     0.077 A 
HETATM   15  C10 UNL     1      -2.991   4.618  88.196  1.00  0.00     0.027 A 
HETATM   16  C11 UNL     1      -3.881   4.054  87.089  1.00  0.00     0.027 A 
ENDBRANCH  12  14
ENDBRANCH  11  12
ENDBRANCH   1  11
BRANCH   1  17
HETATM   17  N3  UNL     1      -0.916   3.796  84.045  1.00  0.00    -0.333 N 
ATOM     18  H3  UNL     1      -0.554   3.369  83.192  1.00  0.00     0.168 HD
BRANCH  17  19
HETATM   19  C12 UNL     1      -0.981   2.992  85.205  1.00  0.00     0.353 C 
HETATM   20  O2  UNL     1      -0.294   3.333  86.212  1.00  0.00    -0.283 OA
ENDBRANCH  17  19
ENDBRANCH   1  17
TORSDOF 8
ENDMDL
MODEL 3
REMARK VINA RESULT: -5.853353663      2.063      2.853
REMARK  8 active torsions:
REMARK  status: ('A' for Active; 'I' for Inactive)
REMARK    1  A    between atoms: N1_6  and  C6_7 
REMARK    2  A    between atoms: C6_7  and  O1_8 
REMARK    3  A    between atoms: C6_7  and  C7_10 
REMARK    4  A    between atoms: C7_10  and  C8_11 
REMARK    5  A    between atoms: C7_10  and  N3_17 
REMARK    6  A    between atoms: C8_11  and  N2_12 
REMARK    7  A    between atoms: N2_12  and  C9_14 
REMARK    8  A    between atoms: N3_17  and  C12_19 
ROOT
HETATM    1  C7  UNL     1      -1.122   4.119  84.314  1.00  0.00     0.080 C 
ENDROOT
BRANCH   1   2
HETATM    2  C6  UNL     1      -1.242   5.507  83.891  1.00  0.00     0.163 C 
BRANCH   2   3
HETATM    3  N1  UNL     1      -0.601   6.680  84.343  1.00  0.00    -0.356 N 
HETATM    4  C2  UNL     1      -1.369   7.942  84.479  1.00  0.00     0.082 C 
HETATM    5  C1  UNL     1      -2.463   7.802  85.501  1.00  0.00     0.032 C 
HETATM    6  C3  UNL     1      -0.391   8.993  84.888  1.00  0.00     0.026 C 
HETATM    7  C4  UNL     1       0.903   8.455  84.306  1.00  0.00     0.022 C 
HETATM    8  C5  UNL     1       0.737   6.981  84.702  1.00  0.00     0.125 C 
ENDBRANCH   2   3
BRANCH   2   9
HETATM    9  O1  UNL     1      -2.116   5.632  82.908  1.00  0.00    -0.345 OA
ATOM     10  H1  UNL     1      -2.743   4.928  82.788  1.00  0.00     0.219 HD
ENDBRANCH   2   9
ENDBRANCH   1   2
BRANCH   1  11
HETATM   11  C8  UNL     1      -0.875   3.770  85.724  1.00  0.00     0.176 C 
BRANCH  11  12
HETATM   12  N2  UNL     1      -1.813   2.853  86.294  1.00  0.00    -0.412 N 
ATOM     13  H2  UNL     1      -1.968   1.933  85.881  1.00  0.00     0.153 HD
BRANCH  12  14
HETATM   14  C9  UNL     1      -2.513   3.261  87.443  1.00  0.00     0.077 A 
HETATM   15  C10 UNL     1      -3.954   3.773  87.216  1.00  0.00     0.027 A 
HETATM   16  C11 UNL     1      -2.851   4.753  87.613  1.00  0.00     0.027 A 
ENDBRANCH  12  14
ENDBRANCH  11  12
ENDBRANCH   1  11
BRANCH   1  17
HETATM   17  N3  UNL     1      -0.351   3.308  83.372  1.00  0.00    -0.333 N 
ATOM     18  H3  UNL     1       0.666   3.375  83.411  1.00  0.00     0.168 HD
BRANCH  17  19
HETATM   19  C12 UNL     1      -0.914   2.439  82.410  1.00  0.00     0.353 C 
HETATM   20  O2  UNL     1      -1.740   2.917  81.578  1.00  0.00    -0.283 OA
ENDBRANCH  17  19
ENDBRANCH   1  17
TORSDOF 8
ENDMDL
MODEL 4
REMARK VINA RESULT: -5.801692415      1.380      1.629
REMARK  8 active torsions:
REMARK  status: ('A' for Active; 'I' for Inactive)
REMARK    1  A    between atoms: N1_6  and  C6_7 
REMARK    2  A    between atoms: C6_7  and  O1_8 
REMARK    3  A    between atoms: C6_7  and  C7_10 
REMARK    4  A    between atoms: C7_10  and  C8_11 
REMARK    5  A    between atoms: C7_10  and  N3_17 
REMARK    6  A    between atoms: C8_11  and  N2_12 
REMARK    7  A    between atoms: N2_12  and  C9_14 
REMARK    8  A    between atoms: N3_17  and  C12_19 
ROOT
HETATM    1  C7  UNL     1      -1.435   4.983  84.283  1.00  0.00     0.080 C 
ENDROOT
BRANCH   1   2
HETATM    2  C6  UNL     1      -0.616   5.602  83.251  1.00  0.00     0.163 C 
BRANCH   2   3
HETATM    3  N1  UNL     1      -0.446   6.952  82.878  1.00  0.00    -0.356 N 
HETATM    4  C2  UNL     1       0.118   7.926  83.845  1.00  0.00     0.082 C 
HETATM    5  C1  UNL     1       1.525   7.555  84.226  1.00  0.00     0.032 C 
HETATM    6  C3  UNL     1       0.081   9.260  83.176  1.00  0.00     0.026 C 
HETATM    7  C4  UNL     1      -1.077   9.091  82.211  1.00  0.00     0.022 C 
HETATM    8  C5  UNL     1      -0.746   7.681  81.700  1.00  0.00     0.125 C 
ENDBRANCH   2   3
BRANCH   2   9
HETATM    9  O1  UNL     1       0.068   4.695  82.577  1.00  0.00    -0.345 OA
ATOM     10  H1  UNL     1       0.830   4.316  83.002  1.00  0.00     0.219 HD
ENDBRANCH   2   9
ENDBRANCH   1   2
BRANCH   1  11
HETATM   11  C8  UNL     1      -2.652   5.642  84.789  1.00  0.00     0.176 C 
BRANCH  11  12
HETATM   12  N2  UNL     1      -2.580   6.088  86.146  1.00  0.00    -0.412 N 
ATOM     13  H2  UNL     1      -1.847   6.727  86.453  1.00  0.00     0.153 HD
BRANCH  12  14
HETATM   14  C9  UNL     1      -3.554   5.616  87.044  1.00  0.00     0.077 A 
HETATM   15  C10 UNL     1      -3.046   4.701  88.181  1.00  0.00     0.027 A 
HETATM   16  C11 UNL     1      -3.888   4.113  87.050  1.00  0.00     0.027 A 
ENDBRANCH  12  14
ENDBRANCH  11  12
ENDBRANCH   1  11
BRANCH   1  17
HETATM   17  N3  UNL     1      -0.636   4.353  85.334  1.00  0.00    -0.333 N 
ATOM     18  H3  UNL     1       0.049   4.933  85.819  1.00  0.00     0.168 HD
BRANCH  17  19
HETATM   19  C12 UNL     1      -0.742   2.999  85.725  1.00  0.00     0.353 C 
HETATM   20  O2  UNL     1      -1.513   2.242  85.066  1.00  0.00    -0.283 OA
ENDBRANCH  17  19
ENDBRANCH   1  17
TORSDOF 8
ENDMDL
MODEL 5
REMARK VINA RESULT: -5.777348970      2.215      2.676
REMARK  8 active torsions:
REMARK  status: ('A' for Active; 'I' for Inactive)
REMARK    1  A    between atoms: N1_6  and  C6_7 
REMARK    2  A    between atoms: C6_7  and  O1_8 
REMARK    3  A    between atoms: C6_7  and  C7_10 
REMARK    4  A    between atoms: C7_10  and  C8_11 
REMARK    5  A    between atoms: C7_10  and  N3_17 
REMARK    6  A    between atoms: C8_11  and  N2_12 
REMARK    7  A    between atoms: N2_12  and  C9_14 
REMARK    8  A    between atoms: N3_17  and  C12_19 
ROOT
HETATM    1  C7  UNL     1      -1.563   4.691  83.660  1.00  0.00     0.080 C 
ENDROOT
BRANCH   1   2
HETATM    2  C6  UNL     1      -1.855   6.118  83.679  1.00  0.00     0.163 C 
BRANCH   2   3
HETATM    3  N1  UNL     1      -1.135   7.225  83.183  1.00  0.00    -0.356 N 
HETATM    4  C2  UNL     1      -0.296   8.038  84.098  1.00  0.00     0.082 C 
HETATM    5  C1  UNL     1       0.815   7.215  84.688  1.00  0.00     0.032 C 
HETATM    6  C3  UNL     1       0.249   9.165  83.285  1.00  0.00     0.026 C 
HETATM    7  C4  UNL     1      -0.810   9.314  82.209  1.00  0.00     0.022 C 
HETATM    8  C5  UNL     1      -1.036   7.826  81.903  1.00  0.00     0.125 C 
ENDBRANCH   2   3
BRANCH   2   9
HETATM    9  O1  UNL     1      -3.009   6.361  84.275  1.00  0.00    -0.345 OA
ATOM     10  H1  UNL     1      -3.768   5.875  83.973  1.00  0.00     0.219 HD
ENDBRANCH   2   9
ENDBRANCH   1   2
BRANCH   1  11
HETATM   11  C8  UNL     1      -1.087   3.994  84.867  1.00  0.00     0.176 C 
BRANCH  11  12
HETATM   12  N2  UNL     1      -1.496   4.579  86.106  1.00  0.00    -0.412 N 
ATOM     13  H2  UNL     1      -1.216   5.526  86.360  1.00  0.00     0.153 HD
BRANCH  12  14
HETATM   14  C9  UNL     1      -2.298   3.805  86.963  1.00  0.00     0.077 A 
HETATM   15  C10 UNL     1      -3.803   4.159  86.992  1.00  0.00     0.027 A 
HETATM   16  C11 UNL     1      -2.923   4.477  88.199  1.00  0.00     0.027 A 
ENDBRANCH  12  14
ENDBRANCH  11  12
ENDBRANCH   1  11
BRANCH   1  17
HETATM   17  N3  UNL     1      -0.877   4.274  82.438  1.00  0.00    -0.333 N 
ATOM     18  H3  UNL     1       0.131   4.121  82.490  1.00  0.00     0.168 HD
BRANCH  17  19
HETATM   19  C12 UNL     1      -1.507   4.066  81.190  1.00  0.00     0.353 C 
HETATM   20  O2  UNL     1      -1.142   4.775  80.208  1.00  0.00    -0.283 OA
ENDBRANCH  17  19
ENDBRANCH   1  17
TORSDOF 8
ENDMDL
