MODEL 1
REMARK VINA RESULT: -8.912565796      0.000      0.000
REMARK  7 active torsions:
REMARK  status: ('A' for Active; 'I' for Inactive)
REMARK    1  A    between atoms: C2_2  and  C3_3 
REMARK    2  A    between atoms: C3_3  and  O1_4 
REMARK    3  A    between atoms: O1_4  and  C4_5 
REMARK    4  A    between atoms: C10_13  and  C11_14 
REMARK    5  A    between atoms: C11_14  and  N2_15 
REMARK    6  A    between atoms: N2_15  and  N3_17 
REMARK    7  A    between atoms: N3_17  and  C12_19 
ROOT
HETATM    1  C4  UNL     1      24.494  -1.479   5.322  1.00  0.00     0.101 A 
HETATM    2  C5  UNL     1      24.977  -2.618   4.723  1.00  0.00     0.080 A 
HETATM    3  C6  UNL     1      26.064  -2.465   3.772  1.00  0.00     0.102 C 
HETATM    4  N1  UNL     1      26.928  -2.357   3.008  1.00  0.00    -0.191 NA
HETATM    5  C7  UNL     1      24.450  -3.858   5.013  1.00  0.00     0.044 A 
HETATM    6  C8  UNL     1      23.422  -3.999   5.911  1.00  0.00     0.013 A 
HETATM    7 BR1  UNL     1      22.661  -5.698   6.342  1.00  0.00    -0.051 Br
HETATM    8  C9  UNL     1      22.933  -2.842   6.518  1.00  0.00     0.034 A 
HETATM    9  C10 UNL     1      23.442  -1.594   6.246  1.00  0.00     0.017 A 
ENDROOT
BRANCH   1  10
HETATM   10  O1  UNL     1      25.019  -0.232   5.035  1.00  0.00    -0.345 OA
BRANCH  10  11
HETATM   11  C3  UNL     1      26.135   0.202   5.790  1.00  0.00     0.202 C 
BRANCH  11  12
HETATM   12  C2  UNL     1      27.141   0.892   4.961  1.00  0.00    -0.011 C 
HETATM   13  C1  UNL     1      26.937   1.244   3.701  1.00  0.00     0.009 C 
ENDBRANCH  11  12
ENDBRANCH  10  11
ENDBRANCH   1  10
BRANCH   9  14
HETATM   14  C11 UNL     1      22.973  -0.373   6.846  1.00  0.00     0.121 C 
BRANCH  14  15
HETATM   15  N2  UNL     1      22.299   0.536   6.300  1.00  0.00    -0.309 N 
ATOM     16  H2  UNL     1      22.718   0.827   5.416  1.00  0.00     0.186 HD
BRANCH  15  17
HETATM   17  N3  UNL     1      21.184   1.226   6.559  1.00  0.00    -0.280 N 
ATOM     18  H3  UNL     1      21.286   2.009   7.206  1.00  0.00     0.189 HD
BRANCH  17  19
HETATM   19  C12 UNL     1      19.998   1.029   6.097  1.00  0.00     0.165 A 
HETATM   20  N4  UNL     1      19.102   2.037   6.111  1.00  0.00    -0.335 N 
HETATM   21  C13 UNL     1      17.852   1.980   5.670  1.00  0.00     0.047 A 
ATOM     22  H4  UNL     1      19.415   2.928   6.498  1.00  0.00     0.168 HD
HETATM   23  C14 UNL     1      17.103   3.159   5.788  1.00  0.00     0.032 A 
HETATM   24  C18 UNL     1      17.212   0.898   5.115  1.00  0.00     0.025 A 
HETATM   25  C15 UNL     1      15.798   3.252   5.376  1.00  0.00     0.021 A 
HETATM   26  C16 UNL     1      15.160   2.185   4.826  1.00  0.00     0.012 A 
HETATM   27 BR2  UNL     1      13.349   2.345   4.265  1.00  0.00    -0.051 Br
HETATM   28  C17 UNL     1      15.875   1.015   4.700  1.00  0.00     0.035 A 
HETATM   29  C19 UNL     1      17.787  -0.340   4.920  1.00  0.00     0.083 A 
HETATM   30  N5  UNL     1      17.114  -1.299   4.392  1.00  0.00    -0.393 N 
HETATM   31  S1  UNL     1      19.412  -0.427   5.441  1.00  0.00    -0.034 SA
ATOM     32  H52 UNL     1      16.144  -1.246   4.081  1.00  0.00     0.156 HD
ATOM     33  H51 UNL     1      17.539  -2.215   4.248  1.00  0.00     0.156 HD
ENDBRANCH  17  19
ENDBRANCH  15  17
ENDBRANCH  14  15
ENDBRANCH   9  14
TORSDOF 7
ENDMDL
MODEL 2
REMARK VINA RESULT: -8.905130717      2.033      3.387
REMARK  7 active torsions:
REMARK  status: ('A' for Active; 'I' for Inactive)
REMARK    1  A    between atoms: C2_2  and  C3_3 
REMARK    2  A    between atoms: C3_3  and  O1_4 
REMARK    3  A    between atoms: O1_4  and  C4_5 
REMARK    4  A    between atoms: C10_13  and  C11_14 
REMARK    5  A    between atoms: C11_14  and  N2_15 
REMARK    6  A    between atoms: N2_15  and  N3_17 
REMARK    7  A    between atoms: N3_17  and  C12_19 
ROOT
HETATM    1  C4  UNL     1      23.767  -2.194   5.440  1.00  0.00     0.101 A 
HETATM    2  C5  UNL     1      24.613  -2.939   4.652  1.00  0.00     0.080 A 
HETATM    3  C6  UNL     1      24.188  -4.282   4.298  1.00  0.00     0.102 C 
HETATM    4  N1  UNL     1      23.864  -5.356   4.012  1.00  0.00    -0.191 NA
HETATM    5  C7  UNL     1      25.817  -2.431   4.214  1.00  0.00     0.044 A 
HETATM    6  C8  UNL     1      26.214  -1.161   4.551  1.00  0.00     0.013 A 
HETATM    7 BR1  UNL     1      27.875  -0.418   3.968  1.00  0.00    -0.051 Br
HETATM    8  C9  UNL     1      25.356  -0.407   5.351  1.00  0.00     0.034 A 
HETATM    9  C10 UNL     1      24.150  -0.891   5.800  1.00  0.00     0.017 A 
ENDROOT
BRANCH   1  10
HETATM   10  O1  UNL     1      22.558  -2.698   5.882  1.00  0.00    -0.345 OA
BRANCH  10  11
HETATM   11  C3  UNL     1      22.548  -3.405   7.108  1.00  0.00     0.202 C 
BRANCH  11  12
HETATM   12  C2  UNL     1      21.693  -4.607   7.057  1.00  0.00    -0.011 C 
HETATM   13  C1  UNL     1      20.431  -4.626   7.459  1.00  0.00     0.009 C 
ENDBRANCH  11  12
ENDBRANCH  10  11
ENDBRANCH   1  10
BRANCH   9  14
HETATM   14  C11 UNL     1      23.231  -0.153   6.625  1.00  0.00     0.121 C 
BRANCH  14  15
HETATM   15  N2  UNL     1      22.294   0.593   6.246  1.00  0.00    -0.309 N 
ATOM     16  H2  UNL     1      22.481   0.982   5.321  1.00  0.00     0.186 HD
BRANCH  15  17
HETATM   17  N3  UNL     1      21.118   1.016   6.721  1.00  0.00    -0.280 N 
ATOM     18  H3  UNL     1      21.154   1.536   7.598  1.00  0.00     0.189 HD
BRANCH  17  19
HETATM   19  C12 UNL     1      19.946   0.852   6.213  1.00  0.00     0.165 A 
HETATM   20  N4  UNL     1      19.079   1.885   6.189  1.00  0.00    -0.335 N 
HETATM   21  C13 UNL     1      17.846   1.862   5.700  1.00  0.00     0.047 A 
ATOM     22  H4  UNL     1      19.403   2.767   6.586  1.00  0.00     0.168 HD
HETATM   23  C14 UNL     1      17.127   3.062   5.785  1.00  0.00     0.032 A 
HETATM   24  C18 UNL     1      17.198   0.798   5.122  1.00  0.00     0.025 A 
HETATM   25  C15 UNL     1      15.843   3.191   5.322  1.00  0.00     0.021 A 
HETATM   26  C16 UNL     1      15.196   2.141   4.749  1.00  0.00     0.012 A 
HETATM   27 BR2  UNL     1      13.415   2.351   4.117  1.00  0.00    -0.051 Br
HETATM   28  C17 UNL     1      15.883   0.951   4.654  1.00  0.00     0.035 A 
HETATM   29  C19 UNL     1      17.745  -0.458   4.952  1.00  0.00     0.083 A 
HETATM   30  N5  UNL     1      17.065  -1.399   4.401  1.00  0.00    -0.393 N 
HETATM   31  S1  UNL     1      19.344  -0.590   5.538  1.00  0.00    -0.034 SA
ATOM     32  H52 UNL     1      16.111  -1.319   4.051  1.00  0.00     0.156 HD
ATOM     33  H51 UNL     1      17.469  -2.327   4.275  1.00  0.00     0.156 HD
ENDBRANCH  17  19
ENDBRANCH  15  17
ENDBRANCH  14  15
ENDBRANCH   9  14
TORSDOF 7
ENDMDL
MODEL 3
REMARK VINA RESULT: -8.893005601      3.774      5.832
REMARK  7 active torsions:
REMARK  status: ('A' for Active; 'I' for Inactive)
REMARK    1  A    between atoms: C2_2  and  C3_3 
REMARK    2  A    between atoms: C3_3  and  O1_4 
REMARK    3  A    between atoms: O1_4  and  C4_5 
REMARK    4  A    between atoms: C10_13  and  C11_14 
REMARK    5  A    between atoms: C11_14  and  N2_15 
REMARK    6  A    between atoms: N2_15  and  N3_17 
REMARK    7  A    between atoms: N3_17  and  C12_19 
ROOT
HETATM    1  C4  UNL     1      19.526  -1.553   6.379  1.00  0.00     0.101 A 
HETATM    2  C5  UNL     1      20.490  -2.520   6.550  1.00  0.00     0.080 A 
HETATM    3  C6  UNL     1      20.045  -3.845   6.945  1.00  0.00     0.102 C 
HETATM    4  N1  UNL     1      19.706  -4.906   7.264  1.00  0.00    -0.191 NA
HETATM    5  C7  UNL     1      21.825  -2.242   6.353  1.00  0.00     0.044 A 
HETATM    6  C8  UNL     1      22.240  -0.989   5.980  1.00  0.00     0.013 A 
HETATM    7 BR1  UNL     1      24.081  -0.560   5.698  1.00  0.00    -0.051 Br
HETATM    8  C9  UNL     1      21.262  -0.010   5.809  1.00  0.00     0.034 A 
HETATM    9  C10 UNL     1      19.924  -0.261   5.998  1.00  0.00     0.017 A 
ENDROOT
BRANCH   1  10
HETATM   10  O1  UNL     1      18.185  -1.826   6.575  1.00  0.00    -0.345 OA
BRANCH  10  11
HETATM   11  C3  UNL     1      17.589  -2.816   5.758  1.00  0.00     0.202 C 
BRANCH  11  12
HETATM   12  C2  UNL     1      17.196  -2.293   4.435  1.00  0.00    -0.011 C 
HETATM   13  C1  UNL     1      16.635  -3.033   3.491  1.00  0.00     0.009 C 
ENDBRANCH  11  12
ENDBRANCH  10  11
ENDBRANCH   1  10
BRANCH   9  14
HETATM   14  C11 UNL     1      18.879   0.714   5.833  1.00  0.00     0.121 C 
BRANCH  14  15
HETATM   15  N2  UNL     1      18.291   1.030   4.768  1.00  0.00    -0.309 N 
ATOM     16  H2  UNL     1      18.382   0.298   4.064  1.00  0.00     0.186 HD
BRANCH  15  17
HETATM   17  N3  UNL     1      17.581   2.063   4.306  1.00  0.00    -0.280 N 
ATOM     18  H3  UNL     1      18.055   2.664   3.632  1.00  0.00     0.189 HD
BRANCH  17  19
HETATM   19  C12 UNL     1      16.372   2.398   4.603  1.00  0.00     0.165 A 
HETATM   20  N4  UNL     1      15.345   1.874   3.904  1.00  0.00    -0.335 N 
HETATM   21  C13 UNL     1      14.057   2.125   4.098  1.00  0.00     0.047 A 
ATOM     22  H4  UNL     1      15.581   1.223   3.154  1.00  0.00     0.168 HD
HETATM   23  C14 UNL     1      13.165   1.462   3.244  1.00  0.00     0.032 A 
HETATM   24  C18 UNL     1      13.502   2.960   5.037  1.00  0.00     0.025 A 
HETATM   25  C15 UNL     1      11.805   1.621   3.324  1.00  0.00     0.021 A 
HETATM   26  C16 UNL     1      11.250   2.446   4.252  1.00  0.00     0.012 A 
HETATM   27 BR2  UNL     1       9.361   2.647   4.338  1.00  0.00    -0.051 Br
HETATM   28  C17 UNL     1      12.107   3.109   5.102  1.00  0.00     0.035 A 
HETATM   29  C19 UNL     1      14.220   3.693   5.959  1.00  0.00     0.083 A 
HETATM   30  N5  UNL     1      13.619   4.452   6.804  1.00  0.00    -0.393 N 
HETATM   31  S1  UNL     1      15.910   3.475   5.836  1.00  0.00    -0.034 SA
ATOM     32  H52 UNL     1      12.610   4.582   6.877  1.00  0.00     0.156 HD
ATOM     33  H51 UNL     1      14.149   4.994   7.486  1.00  0.00     0.156 HD
ENDBRANCH  17  19
ENDBRANCH  15  17
ENDBRANCH  14  15
ENDBRANCH   9  14
TORSDOF 7
ENDMDL
MODEL 4
REMARK VINA RESULT: -8.783691161      2.473      3.666
REMARK  7 active torsions:
REMARK  status: ('A' for Active; 'I' for Inactive)
REMARK    1  A    between atoms: C2_2  and  C3_3 
REMARK    2  A    between atoms: C3_3  and  O1_4 
REMARK    3  A    between atoms: O1_4  and  C4_5 
REMARK    4  A    between atoms: C10_13  and  C11_14 
REMARK    5  A    between atoms: C11_14  and  N2_15 
REMARK    6  A    between atoms: N2_15  and  N3_17 
REMARK    7  A    between atoms: N3_17  and  C12_19 
ROOT
HETATM    1  C4  UNL     1      24.948  -0.951   7.000  1.00  0.00     0.101 A 
HETATM    2  C5  UNL     1      26.319  -1.022   7.067  1.00  0.00     0.080 A 
HETATM    3  C6  UNL     1      26.900  -1.661   8.236  1.00  0.00     0.102 C 
HETATM    4  N1  UNL     1      27.377  -2.163   9.164  1.00  0.00    -0.191 NA
HETATM    5  C7  UNL     1      27.113  -0.506   6.066  1.00  0.00     0.044 A 
HETATM    6  C8  UNL     1      26.560   0.097   4.964  1.00  0.00     0.013 A 
HETATM    7 BR1  UNL     1      27.623   0.826   3.553  1.00  0.00    -0.051 Br
HETATM    8  C9  UNL     1      25.169   0.168   4.897  1.00  0.00     0.034 A 
HETATM    9  C10 UNL     1      24.355  -0.339   5.883  1.00  0.00     0.017 A 
ENDROOT
BRANCH   1  10
HETATM   10  O1  UNL     1      24.146  -1.467   8.002  1.00  0.00    -0.345 OA
BRANCH  10  11
HETATM   11  C3  UNL     1      23.787  -2.834   7.920  1.00  0.00     0.202 C 
BRANCH  11  12
HETATM   12  C2  UNL     1      23.885  -3.520   9.222  1.00  0.00    -0.011 C 
HETATM   13  C1  UNL     1      23.027  -4.443   9.630  1.00  0.00     0.009 C 
ENDBRANCH  11  12
ENDBRANCH  10  11
ENDBRANCH   1  10
BRANCH   9  14
HETATM   14  C11 UNL     1      22.918  -0.290   5.859  1.00  0.00     0.121 C 
BRANCH  14  15
HETATM   15  N2  UNL     1      22.163   0.358   6.626  1.00  0.00    -0.309 N 
ATOM     16  H2  UNL     1      22.363   0.151   7.604  1.00  0.00     0.186 HD
BRANCH  15  17
HETATM   17  N3  UNL     1      21.170   1.245   6.511  1.00  0.00    -0.280 N 
ATOM     18  H3  UNL     1      21.386   2.197   6.808  1.00  0.00     0.189 HD
BRANCH  17  19
HETATM   19  C12 UNL     1      19.974   1.052   6.072  1.00  0.00     0.165 A 
HETATM   20  N4  UNL     1      19.086   2.067   6.090  1.00  0.00    -0.335 N 
HETATM   21  C13 UNL     1      17.828   2.014   5.672  1.00  0.00     0.047 A 
ATOM     22  H4  UNL     1      19.413   2.960   6.460  1.00  0.00     0.168 HD
HETATM   23  C14 UNL     1      17.090   3.200   5.789  1.00  0.00     0.032 A 
HETATM   24  C18 UNL     1      17.169   0.931   5.142  1.00  0.00     0.025 A 
HETATM   25  C15 UNL     1      15.778   3.298   5.399  1.00  0.00     0.021 A 
HETATM   26  C16 UNL     1      15.122   2.230   4.874  1.00  0.00     0.012 A 
HETATM   27 BR2  UNL     1      13.304   2.397   4.343  1.00  0.00    -0.051 Br
HETATM   28  C17 UNL     1      15.827   1.053   4.750  1.00  0.00     0.035 A 
HETATM   29  C19 UNL     1      17.732  -0.314   4.952  1.00  0.00     0.083 A 
HETATM   30  N5  UNL     1      17.042  -1.274   4.449  1.00  0.00    -0.393 N 
HETATM   31  S1  UNL     1      19.365  -0.408   5.446  1.00  0.00    -0.034 SA
ATOM     32  H52 UNL     1      16.067  -1.218   4.154  1.00  0.00     0.156 HD
ATOM     33  H51 UNL     1      17.457  -2.195   4.308  1.00  0.00     0.156 HD
ENDBRANCH  17  19
ENDBRANCH  15  17
ENDBRANCH  14  15
ENDBRANCH   9  14
TORSDOF 7
ENDMDL
MODEL 5
REMARK VINA RESULT: -8.736652262      2.529      3.858
REMARK  7 active torsions:
REMARK  status: ('A' for Active; 'I' for Inactive)
REMARK    1  A    between atoms: C2_2  and  C3_3 
REMARK    2  A    between atoms: C3_3  and  O1_4 
REMARK    3  A    between atoms: O1_4  and  C4_5 
REMARK    4  A    between atoms: C10_13  and  C11_14 
REMARK    5  A    between atoms: C11_14  and  N2_15 
REMARK    6  A    between atoms: N2_15  and  N3_17 
REMARK    7  A    between atoms: N3_17  and  C12_19 
ROOT
HETATM    1  C4  UNL     1      23.660  -3.320   6.566  1.00  0.00     0.101 A 
HETATM    2  C5  UNL     1      23.670  -4.373   5.681  1.00  0.00     0.080 A 
HETATM    3  C6  UNL     1      22.836  -5.520   5.995  1.00  0.00     0.102 C 
HETATM    4  N1  UNL     1      22.179  -6.443   6.235  1.00  0.00    -0.191 NA
HETATM    5  C7  UNL     1      24.442  -4.341   4.540  1.00  0.00     0.044 A 
HETATM    6  C8  UNL     1      25.230  -3.256   4.247  1.00  0.00     0.013 A 
HETATM    7 BR1  UNL     1      26.316  -3.171   2.677  1.00  0.00    -0.051 Br
HETATM    8  C9  UNL     1      25.218  -2.190   5.146  1.00  0.00     0.034 A 
HETATM    9  C10 UNL     1      24.456  -2.197   6.290  1.00  0.00     0.017 A 
ENDROOT
BRANCH   1  10
HETATM   10  O1  UNL     1      22.886  -3.346   7.712  1.00  0.00    -0.345 OA
BRANCH  10  11
HETATM   11  C3  UNL     1      23.448  -3.932   8.871  1.00  0.00     0.202 C 
BRANCH  11  12
HETATM   12  C2  UNL     1      22.456  -4.696   9.653  1.00  0.00    -0.011 C 
HETATM   13  C1  UNL     1      22.629  -5.041  10.919  1.00  0.00     0.009 C 
ENDBRANCH  11  12
ENDBRANCH  10  11
ENDBRANCH   1  10
BRANCH   9  14
HETATM   14  C11 UNL     1      24.410  -1.122   7.246  1.00  0.00     0.121 C 
BRANCH  14  15
HETATM   15  N2  UNL     1      23.482  -0.294   7.419  1.00  0.00    -0.309 N 
ATOM     16  H2  UNL     1      23.179  -0.276   8.393  1.00  0.00     0.186 HD
BRANCH  15  17
HETATM   17  N3  UNL     1      22.782   0.570   6.678  1.00  0.00    -0.280 N 
ATOM     18  H3  UNL     1      23.283   1.408   6.379  1.00  0.00     0.189 HD
BRANCH  17  19
HETATM   19  C12 UNL     1      21.556   0.481   6.291  1.00  0.00     0.165 A 
HETATM   20  N4  UNL     1      20.739   1.546   6.417  1.00  0.00    -0.335 N 
HETATM   21  C13 UNL     1      19.462   1.599   6.063  1.00  0.00     0.047 A 
ATOM     22  H4  UNL     1      21.142   2.391   6.823  1.00  0.00     0.168 HD
HETATM   23  C14 UNL     1      18.810   2.820   6.290  1.00  0.00     0.032 A 
HETATM   24  C18 UNL     1      18.708   0.596   5.503  1.00  0.00     0.025 A 
HETATM   25  C15 UNL     1      17.491   3.025   5.976  1.00  0.00     0.021 A 
HETATM   26  C16 UNL     1      16.741   2.036   5.422  1.00  0.00     0.012 A 
HETATM   27 BR2  UNL     1      14.914   2.351   4.998  1.00  0.00    -0.051 Br
HETATM   28  C17 UNL     1      17.359   0.828   5.190  1.00  0.00     0.035 A 
HETATM   29  C19 UNL     1      19.177  -0.667   5.209  1.00  0.00     0.083 A 
HETATM   30  N5  UNL     1      18.402  -1.548   4.685  1.00  0.00    -0.393 N 
HETATM   31  S1  UNL     1      20.823  -0.895   5.610  1.00  0.00    -0.034 SA
ATOM     32  H52 UNL     1      17.420  -1.412   4.446  1.00  0.00     0.156 HD
ATOM     33  H51 UNL     1      18.749  -2.482   4.467  1.00  0.00     0.156 HD
ENDBRANCH  17  19
ENDBRANCH  15  17
ENDBRANCH  14  15
ENDBRANCH   9  14
TORSDOF 7
ENDMDL
