MODEL 1
REMARK VINA RESULT: -4.598631963      0.000      0.000
REMARK  3 active torsions:
REMARK  status: ('A' for Active; 'I' for Inactive)
REMARK    1  A    between atoms: C3_4  and  C5_6 
REMARK    2  A    between atoms: C6_7  and  C7_8 
REMARK    3  A    between atoms: C8_9  and  C9_10 
ROOT
HETATM    1  C5  UNL     1      12.936 -11.207 -24.838  1.00  0.00     0.018 C 
HETATM    2  C6  UNL     1      12.184 -10.188 -24.504  1.00  0.00    -0.001 C 
ENDROOT
BRANCH   1   3
HETATM    3  C3  UNL     1      12.739 -12.039 -26.037  1.00  0.00     0.139 C 
HETATM    4  O1  UNL     1      13.695 -13.021 -26.252  1.00  0.00    -0.356 OA
HETATM    5  C2  UNL     1      14.307 -12.343 -27.280  1.00  0.00     0.192 C 
HETATM    6  C1  UNL     1      14.331 -13.074 -28.618  1.00  0.00     0.048 C 
HETATM    7  C10 UNL     1      13.218 -11.357 -27.262  1.00  0.00     0.193 C 
HETATM    8  O2  UNL     1      12.924 -10.422 -27.990  1.00  0.00    -0.291 OA
HETATM    9  C4  UNL     1      11.347 -12.621 -26.124  1.00  0.00     0.059 C 
ENDBRANCH   1   3
BRANCH   2  10
HETATM   10  C7  UNL     1      12.451  -9.420 -23.302  1.00  0.00     0.001 C 
HETATM   11  C8  UNL     1      12.025  -8.192 -23.107  1.00  0.00     0.016 C 
BRANCH  11  12
HETATM   12  C9  UNL     1      11.232  -7.445 -24.070  1.00  0.00     0.080 C 
HETATM   13  N1  UNL     1      11.686  -6.353 -24.581  1.00  0.00    -0.408 N 
ATOM     14  H12 UNL     1      12.609  -6.024 -24.299  1.00  0.00     0.155 HD
ATOM     15  H11 UNL     1      11.130  -5.829 -25.257  1.00  0.00     0.155 HD
ENDBRANCH  11  12
ENDBRANCH   2  10
TORSDOF 3
ENDMDL
MODEL 2
REMARK VINA RESULT: -4.578461296      3.541      5.503
REMARK  3 active torsions:
REMARK  status: ('A' for Active; 'I' for Inactive)
REMARK    1  A    between atoms: C3_4  and  C5_6 
REMARK    2  A    between atoms: C6_7  and  C7_8 
REMARK    3  A    between atoms: C8_9  and  C9_10 
ROOT
HETATM    1  C5  UNL     1      13.808 -11.983 -25.929  1.00  0.00     0.018 C 
HETATM    2  C6  UNL     1      14.679 -12.718 -25.284  1.00  0.00    -0.001 C 
ENDROOT
BRANCH   1   3
HETATM    3  C3  UNL     1      12.585 -11.415 -25.336  1.00  0.00     0.139 C 
HETATM    4  O1  UNL     1      12.451 -10.038 -25.438  1.00  0.00    -0.356 OA
HETATM    5  C2  UNL     1      12.751  -9.808 -24.117  1.00  0.00     0.192 C 
HETATM    6  C1  UNL     1      11.660  -9.108 -23.314  1.00  0.00     0.048 C 
HETATM    7  C10 UNL     1      12.711 -11.255 -23.869  1.00  0.00     0.193 C 
HETATM    8  O2  UNL     1      12.765 -11.932 -22.854  1.00  0.00    -0.291 OA
HETATM    9  C4  UNL     1      11.328 -12.110 -25.805  1.00  0.00     0.059 C 
ENDBRANCH   1   3
BRANCH   2  10
HETATM   10  C7  UNL     1      15.859 -13.238 -25.947  1.00  0.00     0.001 C 
HETATM   11  C8  UNL     1      17.018 -13.412 -25.352  1.00  0.00     0.016 C 
BRANCH  11  12
HETATM   12  C9  UNL     1      17.266 -13.104 -23.953  1.00  0.00     0.080 C 
HETATM   13  N1  UNL     1      17.630 -14.033 -23.136  1.00  0.00    -0.408 N 
ATOM     14  H12 UNL     1      17.740 -14.983 -23.489  1.00  0.00     0.155 HD
ATOM     15  H11 UNL     1      17.804 -13.817 -22.154  1.00  0.00     0.155 HD
ENDBRANCH  11  12
ENDBRANCH   2  10
TORSDOF 3
ENDMDL
MODEL 3
REMARK VINA RESULT: -4.476506970      5.197      7.580
REMARK  3 active torsions:
REMARK  status: ('A' for Active; 'I' for Inactive)
REMARK    1  A    between atoms: C3_4  and  C5_6 
REMARK    2  A    between atoms: C6_7  and  C7_8 
REMARK    3  A    between atoms: C8_9  and  C9_10 
ROOT
HETATM    1  C5  UNL     1       8.669  -6.138 -25.559  1.00  0.00     0.018 C 
HETATM    2  C6  UNL     1       9.622  -7.015 -25.363  1.00  0.00    -0.001 C 
ENDROOT
BRANCH   1   3
HETATM    3  C3  UNL     1       7.344  -6.448 -26.125  1.00  0.00     0.139 C 
HETATM    4  O1  UNL     1       6.830  -5.505 -27.003  1.00  0.00    -0.356 OA
HETATM    5  C2  UNL     1       5.916  -5.014 -26.101  1.00  0.00     0.192 C 
HETATM    6  C1  UNL     1       4.456  -5.120 -26.531  1.00  0.00     0.048 C 
HETATM    7  C10 UNL     1       6.253  -6.109 -25.182  1.00  0.00     0.193 C 
HETATM    8  O2  UNL     1       5.776  -6.491 -24.125  1.00  0.00    -0.291 OA
HETATM    9  C4  UNL     1       7.273  -7.833 -26.726  1.00  0.00     0.059 C 
ENDBRANCH   1   3
BRANCH   2  10
HETATM   10  C7  UNL     1      10.898  -6.622 -24.798  1.00  0.00     0.001 C 
HETATM   11  C8  UNL     1      11.619  -7.389 -24.010  1.00  0.00     0.016 C 
BRANCH  11  12
HETATM   12  C9  UNL     1      11.228  -8.729 -23.603  1.00  0.00     0.080 C 
HETATM   13  N1  UNL     1      10.562  -8.912 -22.515  1.00  0.00    -0.408 N 
ATOM     14  H12 UNL     1      10.316  -8.101 -21.947  1.00  0.00     0.155 HD
ATOM     15  H11 UNL     1      10.288  -9.852 -22.229  1.00  0.00     0.155 HD
ENDBRANCH  11  12
ENDBRANCH   2  10
TORSDOF 3
ENDMDL
MODEL 4
REMARK VINA RESULT: -4.429008073      1.433      2.331
REMARK  3 active torsions:
REMARK  status: ('A' for Active; 'I' for Inactive)
REMARK    1  A    between atoms: C3_4  and  C5_6 
REMARK    2  A    between atoms: C6_7  and  C7_8 
REMARK    3  A    between atoms: C8_9  and  C9_10 
ROOT
HETATM    1  C5  UNL     1      12.184 -11.112 -24.626  1.00  0.00     0.018 C 
HETATM    2  C6  UNL     1      12.668  -9.906 -24.464  1.00  0.00    -0.001 C 
ENDROOT
BRANCH   1   3
HETATM    3  C3  UNL     1      12.216 -11.868 -25.890  1.00  0.00     0.139 C 
HETATM    4  O1  UNL     1      12.034 -11.118 -27.043  1.00  0.00    -0.356 OA
HETATM    5  C2  UNL     1      10.747 -11.556 -27.247  1.00  0.00     0.192 C 
HETATM    6  C1  UNL     1      10.507 -12.278 -28.569  1.00  0.00     0.048 C 
HETATM    7  C10 UNL     1      10.920 -12.532 -26.163  1.00  0.00     0.193 C 
HETATM    8  O2  UNL     1      10.234 -13.454 -25.749  1.00  0.00    -0.291 OA
HETATM    9  C4  UNL     1      13.435 -12.752 -26.013  1.00  0.00     0.059 C 
ENDBRANCH   1   3
BRANCH   2  10
HETATM   10  C7  UNL     1      12.594  -9.233 -23.181  1.00  0.00     0.001 C 
HETATM   11  C8  UNL     1      11.935  -8.114 -22.976  1.00  0.00     0.016 C 
BRANCH  11  12
HETATM   12  C9  UNL     1      11.196  -7.407 -24.009  1.00  0.00     0.080 C 
HETATM   13  N1  UNL     1      11.721  -6.395 -24.610  1.00  0.00    -0.408 N 
ATOM     14  H12 UNL     1      12.661  -6.101 -24.348  1.00  0.00     0.155 HD
ATOM     15  H11 UNL     1      11.202  -5.899 -25.335  1.00  0.00     0.155 HD
ENDBRANCH  11  12
ENDBRANCH   2  10
TORSDOF 3
ENDMDL
MODEL 5
REMARK VINA RESULT: -4.424274087      4.222      6.086
REMARK  3 active torsions:
REMARK  status: ('A' for Active; 'I' for Inactive)
REMARK    1  A    between atoms: C3_4  and  C5_6 
REMARK    2  A    between atoms: C6_7  and  C7_8 
REMARK    3  A    between atoms: C8_9  and  C9_10 
ROOT
HETATM    1  C5  UNL     1       9.642  -7.843 -24.986  1.00  0.00     0.018 C 
HETATM    2  C6  UNL     1      10.124  -8.520 -23.974  1.00  0.00    -0.001 C 
ENDROOT
BRANCH   1   3
HETATM    3  C3  UNL     1       8.395  -8.170 -25.700  1.00  0.00     0.139 C 
HETATM    4  O1  UNL     1       8.372  -7.845 -27.048  1.00  0.00    -0.356 OA
HETATM    5  C2  UNL     1       7.550  -6.757 -26.877  1.00  0.00     0.192 C 
HETATM    6  C1  UNL     1       6.225  -6.817 -27.631  1.00  0.00     0.048 C 
HETATM    7  C10 UNL     1       7.351  -7.143 -25.474  1.00  0.00     0.193 C 
HETATM    8  O2  UNL     1       6.616  -6.733 -24.589  1.00  0.00    -0.291 OA
HETATM    9  C4  UNL     1       7.955  -9.599 -25.485  1.00  0.00     0.059 C 
ENDBRANCH   1   3
BRANCH   2  10
HETATM   10  C7  UNL     1      11.361  -8.127 -23.328  1.00  0.00     0.001 C 
HETATM   11  C8  UNL     1      12.467  -8.837 -23.368  1.00  0.00     0.016 C 
BRANCH  11  12
HETATM   12  C9  UNL     1      12.591 -10.107 -24.065  1.00  0.00     0.080 C 
HETATM   13  N1  UNL     1      12.439 -11.218 -23.428  1.00  0.00    -0.408 N 
ATOM     14  H12 UNL     1      12.230 -11.188 -22.430  1.00  0.00     0.155 HD
ATOM     15  H11 UNL     1      12.526 -12.109 -23.917  1.00  0.00     0.155 HD
ENDBRANCH  11  12
ENDBRANCH   2  10
TORSDOF 3
ENDMDL
