MODEL 1
REMARK VINA RESULT: -8.377301361      0.000      0.000
REMARK  17 active torsions:
REMARK  status: ('A' for Active; 'I' for Inactive)
REMARK    1  A    between atoms: C2_2  and  O2_4 
REMARK    2  A    between atoms: O2_4  and  C3_5 
REMARK    3  A    between atoms: C4_6  and  O3_7 
REMARK    4  A    between atoms: N1_11  and  O5_13 
REMARK    5  A    between atoms: C6_15  and  C7_16 
REMARK    6  A    between atoms: C8_17  and  C9_18 
REMARK    7  A    between atoms: C9_18  and  O7_20 
REMARK    8  A    between atoms: O7_20  and  C10_21 
REMARK    9  A    between atoms: C11_22  and  O8_23 
REMARK   10  A    between atoms: O8_23  and  N2_24 
REMARK   11  A    between atoms: C12_30  and  O10_31 
REMARK   12  A    between atoms: O10_31  and  C13_32 
REMARK   13  A    between atoms: C15_35  and  O12_36 
REMARK   14  A    between atoms: O12_36  and  C16_37 
REMARK   15  A    between atoms: C18_40  and  O14_41 
REMARK   16  A    between atoms: O14_41  and  C19_42 
REMARK   17  A    between atoms: C21_45  and  O16_46 
ROOT
HETATM    1  C10 UNL     1      18.266   2.853  11.638  1.00  0.00     0.222 C 
HETATM    2  C11 UNL     1      17.444   1.638  12.064  1.00  0.00     0.325 C 
HETATM    3  O9  UNL     1      17.289   1.683  13.425  1.00  0.00    -0.323 OA
HETATM    4  C12 UNL     1      16.391   2.650  13.855  1.00  0.00     0.304 C 
HETATM    5  C15 UNL     1      16.411   3.880  12.980  1.00  0.00     0.219 C 
HETATM    6  C18 UNL     1      17.806   4.089  12.373  1.00  0.00     0.200 C 
ENDROOT
BRANCH   1   7
HETATM    7  O7  UNL     1      18.320   3.001  10.257  1.00  0.00    -0.305 OA
BRANCH   7   8
HETATM    8  C9  UNL     1      19.224   3.801   9.615  1.00  0.00     0.283 C 
HETATM    9  O6  UNL     1      18.814   4.756   8.951  1.00  0.00    -0.260 OA
BRANCH   8  10
HETATM   10  C8  UNL     1      20.702   3.585   9.669  1.00  0.00     0.083 C 
HETATM   11  C7  UNL     1      21.512   4.526   9.278  1.00  0.00     0.025 C 
BRANCH  11  12
HETATM   12  C6  UNL     1      22.931   4.584   9.225  1.00  0.00     0.053 A 
HETATM   13  C5  UNL     1      23.683   5.006  10.297  1.00  0.00     0.183 A 
HETATM   14  O4  UNL     1      24.988   5.034  10.181  1.00  0.00    -0.266 OA
HETATM   15  N1  UNL     1      23.203   5.383  11.421  1.00  0.00    -0.246 N 
HETATM   16  C4  UNL     1      25.636   4.687   9.111  1.00  0.00     0.223 A 
HETATM   17  C3  UNL     1      24.958   4.258   8.011  1.00  0.00     0.171 A 
HETATM   18  C21 UNL     1      23.571   4.193   8.037  1.00  0.00     0.119 A 
ATOM     19  H1  UNL     1      22.190   5.371  11.537  1.00  0.00     0.196 HD
BRANCH  16  20
HETATM   20  O3  UNL     1      27.028   4.754   9.094  1.00  0.00    -0.338 OA
ATOM     21  H3  UNL     1      27.473   5.518   9.443  1.00  0.00     0.220 HD
ENDBRANCH  16  20
BRANCH  17  22
HETATM   22  O2  UNL     1      25.620   3.871   6.832  1.00  0.00    -0.271 OA
BRANCH  22  23
HETATM   23  C2  UNL     1      25.821   2.524   6.553  1.00  0.00     0.260 C 
HETATM   24  C1  UNL     1      26.985   1.767   7.095  1.00  0.00     0.126 C 
HETATM   25  O1  UNL     1      25.020   1.866   5.818  1.00  0.00    -0.265 OA
ENDBRANCH  22  23
ENDBRANCH  17  22
BRANCH  18  26
HETATM   26  O16 UNL     1      22.919   3.755   6.907  1.00  0.00    -0.357 OA
ATOM     27  H16 UNL     1      22.251   4.314   6.529  1.00  0.00     0.218 HD
ENDBRANCH  18  26
BRANCH  15  28
HETATM   28  O5  UNL     1      23.958   5.797  12.468  1.00  0.00    -0.288 OA
ATOM     29  H5  UNL     1      24.699   6.387  12.388  1.00  0.00     0.244 HD
ENDBRANCH  15  28
ENDBRANCH  11  12
ENDBRANCH   8  10
ENDBRANCH   7   8
ENDBRANCH   1   7
BRANCH   2  30
HETATM   30  O8  UNL     1      16.241   1.541  11.344  1.00  0.00    -0.230 OA
BRANCH  30  31
HETATM   31  N2  UNL     1      16.100   0.774  10.216  1.00  0.00    -0.211 N 
HETATM   32  N3  UNL     1      17.104   0.093   9.846  1.00  0.00    -0.326 N 
ATOM     33  H32 UNL     1      17.974   0.126  10.376  1.00  0.00     0.178 HD
ATOM     34  H31 UNL     1      16.998  -0.477   9.006  1.00  0.00     0.178 HD
ATOM     35  H2  UNL     1      15.223   0.751   9.696  1.00  0.00     0.215 HD
ENDBRANCH  30  31
ENDBRANCH   2  30
BRANCH   6  36
HETATM   36  O14 UNL     1      18.630   4.394  13.485  1.00  0.00    -0.311 OA
BRANCH  36  37
HETATM   37  C19 UNL     1      19.506   5.461  13.487  1.00  0.00     0.255 C 
HETATM   38  C20 UNL     1      19.226   6.653  14.322  1.00  0.00     0.126 C 
HETATM   39  O15 UNL     1      20.523   5.357  12.754  1.00  0.00    -0.266 OA
ENDBRANCH  36  37
ENDBRANCH   6  36
BRANCH   5  40
HETATM   40  O12 UNL     1      16.152   5.044  13.747  1.00  0.00    -0.308 OA
BRANCH  40  41
HETATM   41  C16 UNL     1      15.446   6.123  13.211  1.00  0.00     0.255 C 
HETATM   42  C17 UNL     1      16.073   7.154  12.355  1.00  0.00     0.126 C 
HETATM   43  O13 UNL     1      14.212   6.164  13.510  1.00  0.00    -0.266 OA
ENDBRANCH  40  41
ENDBRANCH   5  40
BRANCH   4  44
HETATM   44  O10 UNL     1      16.741   3.047  15.165  1.00  0.00    -0.287 OA
BRANCH  44  45
HETATM   45  C13 UNL     1      16.692   2.168  16.237  1.00  0.00     0.257 C 
HETATM   46  C14 UNL     1      15.514   2.160  17.151  1.00  0.00     0.126 C 
HETATM   47  O11 UNL     1      17.645   1.395  16.414  1.00  0.00    -0.266 OA
ENDBRANCH  44  45
ENDBRANCH   4  44
TORSDOF 17
ENDMDL
MODEL 2
REMARK VINA RESULT: -8.117087745      1.465      2.744
REMARK  17 active torsions:
REMARK  status: ('A' for Active; 'I' for Inactive)
REMARK    1  A    between atoms: C2_2  and  O2_4 
REMARK    2  A    between atoms: O2_4  and  C3_5 
REMARK    3  A    between atoms: C4_6  and  O3_7 
REMARK    4  A    between atoms: N1_11  and  O5_13 
REMARK    5  A    between atoms: C6_15  and  C7_16 
REMARK    6  A    between atoms: C8_17  and  C9_18 
REMARK    7  A    between atoms: C9_18  and  O7_20 
REMARK    8  A    between atoms: O7_20  and  C10_21 
REMARK    9  A    between atoms: C11_22  and  O8_23 
REMARK   10  A    between atoms: O8_23  and  N2_24 
REMARK   11  A    between atoms: C12_30  and  O10_31 
REMARK   12  A    between atoms: O10_31  and  C13_32 
REMARK   13  A    between atoms: C15_35  and  O12_36 
REMARK   14  A    between atoms: O12_36  and  C16_37 
REMARK   15  A    between atoms: C18_40  and  O14_41 
REMARK   16  A    between atoms: O14_41  and  C19_42 
REMARK   17  A    between atoms: C21_45  and  O16_46 
ROOT
HETATM    1  C10 UNL     1      18.056   2.779  11.675  1.00  0.00     0.222 C 
HETATM    2  C11 UNL     1      17.217   1.585  12.128  1.00  0.00     0.325 C 
HETATM    3  O9  UNL     1      17.092   1.643  13.492  1.00  0.00    -0.323 OA
HETATM    4  C12 UNL     1      16.224   2.633  13.931  1.00  0.00     0.304 C 
HETATM    5  C15 UNL     1      16.252   3.855  13.046  1.00  0.00     0.219 C 
HETATM    6  C18 UNL     1      17.638   4.029  12.410  1.00  0.00     0.200 C 
ENDROOT
BRANCH   1   7
HETATM    7  O7  UNL     1      18.085   2.915  10.293  1.00  0.00    -0.305 OA
BRANCH   7   8
HETATM    8  C9  UNL     1      18.272   4.108   9.652  1.00  0.00     0.283 C 
HETATM    9  O6  UNL     1      17.286   4.760   9.300  1.00  0.00    -0.260 OA
BRANCH   8  10
HETATM   10  C8  UNL     1      19.619   4.680   9.346  1.00  0.00     0.083 C 
HETATM   11  C7  UNL     1      20.633   3.887   9.147  1.00  0.00     0.025 C 
BRANCH  11  12
HETATM   12  C6  UNL     1      21.994   4.160   8.845  1.00  0.00     0.053 A 
HETATM   13  C5  UNL     1      22.459   4.199   7.550  1.00  0.00     0.183 A 
HETATM   14  O4  UNL     1      23.727   4.457   7.343  1.00  0.00    -0.266 OA
HETATM   15  N1  UNL     1      21.740   3.999   6.511  1.00  0.00    -0.246 N 
HETATM   16  C4  UNL     1      24.593   4.682   8.283  1.00  0.00     0.223 A 
HETATM   17  C3  UNL     1      24.205   4.661   9.588  1.00  0.00     0.171 A 
HETATM   18  C21 UNL     1      22.879   4.396   9.910  1.00  0.00     0.119 A 
ATOM     19  H1  UNL     1      20.750   3.796   6.647  1.00  0.00     0.196 HD
BRANCH  16  20
HETATM   20  O3  UNL     1      25.920   4.948   7.952  1.00  0.00    -0.338 OA
ATOM     21  H3  UNL     1      26.412   4.330   7.424  1.00  0.00     0.220 HD
ENDBRANCH  16  20
BRANCH  17  22
HETATM   22  O2  UNL     1      25.109   4.900  10.638  1.00  0.00    -0.271 OA
BRANCH  22  23
HETATM   23  C2  UNL     1      25.325   6.196  11.092  1.00  0.00     0.260 C 
HETATM   24  C1  UNL     1      25.010   6.612  12.488  1.00  0.00     0.126 C 
HETATM   25  O1  UNL     1      25.805   7.098  10.335  1.00  0.00    -0.265 OA
ENDBRANCH  22  23
ENDBRANCH  17  22
BRANCH  18  26
HETATM   26  O16 UNL     1      22.523   4.381  11.239  1.00  0.00    -0.357 OA
ATOM     27  H16 UNL     1      22.551   3.552  11.702  1.00  0.00     0.218 HD
ENDBRANCH  18  26
BRANCH  15  28
HETATM   28  O5  UNL     1      22.215   4.041   5.242  1.00  0.00    -0.288 OA
ATOM     29  H5  UNL     1      21.948   3.440   4.555  1.00  0.00     0.244 HD
ENDBRANCH  15  28
ENDBRANCH  11  12
ENDBRANCH   8  10
ENDBRANCH   7   8
ENDBRANCH   1   7
BRANCH   2  30
HETATM   30  O8  UNL     1      15.998   1.509  11.433  1.00  0.00    -0.230 OA
BRANCH  30  31
HETATM   31  N2  UNL     1      15.850   0.837  10.246  1.00  0.00    -0.211 N 
HETATM   32  N3  UNL     1      16.828   0.136   9.848  1.00  0.00    -0.326 N 
ATOM     33  H32 UNL     1      17.685   0.083  10.400  1.00  0.00     0.178 HD
ATOM     34  H31 UNL     1      16.718  -0.363   8.965  1.00  0.00     0.178 HD
ATOM     35  H2  UNL     1      14.987   0.900   9.706  1.00  0.00     0.215 HD
ENDBRANCH  30  31
ENDBRANCH   2  30
BRANCH   6  36
HETATM   36  O14 UNL     1      18.491   4.325  13.502  1.00  0.00    -0.311 OA
BRANCH  36  37
HETATM   37  C19 UNL     1      19.398   5.365  13.473  1.00  0.00     0.255 C 
HETATM   38  C20 UNL     1      19.178   6.569  14.309  1.00  0.00     0.126 C 
HETATM   39  O15 UNL     1      20.391   5.227  12.713  1.00  0.00    -0.266 OA
ENDBRANCH  36  37
ENDBRANCH   6  36
BRANCH   5  40
HETATM   40  O12 UNL     1      16.034   5.031  13.809  1.00  0.00    -0.308 OA
BRANCH  40  41
HETATM   41  C16 UNL     1      15.369   6.132  13.269  1.00  0.00     0.255 C 
HETATM   42  C17 UNL     1      16.047   7.166  12.455  1.00  0.00     0.126 C 
HETATM   43  O13 UNL     1      14.125   6.193  13.524  1.00  0.00    -0.266 OA
ENDBRANCH  40  41
ENDBRANCH   5  40
BRANCH   4  44
HETATM   44  O10 UNL     1      16.609   3.031  15.231  1.00  0.00    -0.287 OA
BRANCH  44  45
HETATM   45  C13 UNL     1      16.672   2.134  16.287  1.00  0.00     0.257 C 
HETATM   46  C14 UNL     1      15.521   1.989  17.223  1.00  0.00     0.126 C 
HETATM   47  O11 UNL     1      17.703   1.459  16.431  1.00  0.00    -0.266 OA
ENDBRANCH  44  45
ENDBRANCH   4  44
TORSDOF 17
ENDMDL
MODEL 3
REMARK VINA RESULT: -7.766008874      1.372      1.862
REMARK  17 active torsions:
REMARK  status: ('A' for Active; 'I' for Inactive)
REMARK    1  A    between atoms: C2_2  and  O2_4 
REMARK    2  A    between atoms: O2_4  and  C3_5 
REMARK    3  A    between atoms: C4_6  and  O3_7 
REMARK    4  A    between atoms: N1_11  and  O5_13 
REMARK    5  A    between atoms: C6_15  and  C7_16 
REMARK    6  A    between atoms: C8_17  and  C9_18 
REMARK    7  A    between atoms: C9_18  and  O7_20 
REMARK    8  A    between atoms: O7_20  and  C10_21 
REMARK    9  A    between atoms: C11_22  and  O8_23 
REMARK   10  A    between atoms: O8_23  and  N2_24 
REMARK   11  A    between atoms: C12_30  and  O10_31 
REMARK   12  A    between atoms: O10_31  and  C13_32 
REMARK   13  A    between atoms: C15_35  and  O12_36 
REMARK   14  A    between atoms: O12_36  and  C16_37 
REMARK   15  A    between atoms: C18_40  and  O14_41 
REMARK   16  A    between atoms: O14_41  and  C19_42 
REMARK   17  A    between atoms: C21_45  and  O16_46 
ROOT
HETATM    1  C10 UNL     1      18.149   2.795  11.911  1.00  0.00     0.222 C 
HETATM    2  C11 UNL     1      17.302   1.575  12.271  1.00  0.00     0.325 C 
HETATM    3  O9  UNL     1      17.051   1.613  13.618  1.00  0.00    -0.323 OA
HETATM    4  C12 UNL     1      16.121   2.575  13.986  1.00  0.00     0.304 C 
HETATM    5  C15 UNL     1      16.200   3.809  13.121  1.00  0.00     0.219 C 
HETATM    6  C18 UNL     1      17.634   4.025  12.617  1.00  0.00     0.200 C 
ENDROOT
BRANCH   1   7
HETATM    7  O7  UNL     1      18.301   2.950  10.538  1.00  0.00    -0.305 OA
BRANCH   7   8
HETATM    8  C9  UNL     1      19.241   3.761   9.966  1.00  0.00     0.283 C 
HETATM    9  O6  UNL     1      18.994   4.294   8.882  1.00  0.00    -0.260 OA
BRANCH   8  10
HETATM   10  C8  UNL     1      20.571   4.048  10.585  1.00  0.00     0.083 C 
HETATM   11  C7  UNL     1      21.267   5.074  10.187  1.00  0.00     0.025 C 
BRANCH  11  12
HETATM   12  C6  UNL     1      22.536   5.566  10.598  1.00  0.00     0.053 A 
HETATM   13  C5  UNL     1      22.659   6.650  11.438  1.00  0.00     0.183 A 
HETATM   14  O4  UNL     1      23.859   7.051  11.777  1.00  0.00    -0.266 OA
HETATM   15  N1  UNL     1      21.678   7.311  11.923  1.00  0.00    -0.246 N 
HETATM   16  C4  UNL     1      24.960   6.494  11.374  1.00  0.00     0.223 A 
HETATM   17  C3  UNL     1      24.915   5.417  10.543  1.00  0.00     0.171 A 
HETATM   18  C21 UNL     1      23.688   4.917  10.126  1.00  0.00     0.119 A 
ATOM     19  H1  UNL     1      20.733   7.019  11.674  1.00  0.00     0.196 HD
BRANCH  16  20
HETATM   20  O3  UNL     1      26.187   7.001  11.797  1.00  0.00    -0.338 OA
ATOM     21  H3  UNL     1      26.855   6.415  12.132  1.00  0.00     0.220 HD
ENDBRANCH  16  20
BRANCH  17  22
HETATM   22  O2  UNL     1      26.083   4.782  10.082  1.00  0.00    -0.271 OA
BRANCH  22  23
HETATM   23  C2  UNL     1      26.602   5.097   8.832  1.00  0.00     0.260 C 
HETATM   24  C1  UNL     1      27.513   6.258   8.620  1.00  0.00     0.126 C 
HETATM   25  O1  UNL     1      26.325   4.409   7.799  1.00  0.00    -0.265 OA
ENDBRANCH  22  23
ENDBRANCH  17  22
BRANCH  18  26
HETATM   26  O16 UNL     1      23.681   3.828   9.285  1.00  0.00    -0.357 OA
ATOM     27  H16 UNL     1      24.516   3.460   9.020  1.00  0.00     0.218 HD
ENDBRANCH  18  26
BRANCH  15  28
HETATM   28  O5  UNL     1      21.817   8.377  12.750  1.00  0.00    -0.288 OA
ATOM     29  H5  UNL     1      21.466   8.415  13.632  1.00  0.00     0.244 HD
ENDBRANCH  15  28
ENDBRANCH  11  12
ENDBRANCH   8  10
ENDBRANCH   7   8
ENDBRANCH   1   7
BRANCH   2  30
HETATM   30  O8  UNL     1      16.155   1.479  11.466  1.00  0.00    -0.230 OA
BRANCH  30  31
HETATM   31  N2  UNL     1      16.119   0.777  10.288  1.00  0.00    -0.211 N 
HETATM   32  N3  UNL     1      17.148   0.101   9.982  1.00  0.00    -0.326 N 
ATOM     33  H32 UNL     1      17.961   0.090  10.598  1.00  0.00     0.178 HD
ATOM     34  H31 UNL     1      17.121  -0.420   9.106  1.00  0.00     0.178 HD
ATOM     35  H2  UNL     1      15.299   0.798   9.683  1.00  0.00     0.215 HD
ENDBRANCH  30  31
ENDBRANCH   2  30
BRANCH   6  36
HETATM   36  O14 UNL     1      18.375   4.327  13.786  1.00  0.00    -0.311 OA
BRANCH  36  37
HETATM   37  C19 UNL     1      19.296   5.354  13.835  1.00  0.00     0.255 C 
HETATM   38  C20 UNL     1      18.856   6.736  14.141  1.00  0.00     0.126 C 
HETATM   39  O15 UNL     1      20.496   5.048  13.608  1.00  0.00    -0.266 OA
ENDBRANCH  36  37
ENDBRANCH   6  36
BRANCH   5  40
HETATM   40  O12 UNL     1      15.883   4.969  13.874  1.00  0.00    -0.308 OA
BRANCH  40  41
HETATM   41  C16 UNL     1      15.165   6.025  13.310  1.00  0.00     0.255 C 
HETATM   42  C17 UNL     1      15.773   7.019  12.396  1.00  0.00     0.126 C 
HETATM   43  O13 UNL     1      13.938   6.081  13.635  1.00  0.00    -0.266 OA
ENDBRANCH  40  41
ENDBRANCH   5  40
BRANCH   4  44
HETATM   44  O10 UNL     1      16.376   2.966  15.321  1.00  0.00    -0.287 OA
BRANCH  44  45
HETATM   45  C13 UNL     1      16.517   2.040  16.344  1.00  0.00     0.257 C 
HETATM   46  C14 UNL     1      15.402   1.803  17.305  1.00  0.00     0.126 C 
HETATM   47  O11 UNL     1      17.586   1.418  16.437  1.00  0.00    -0.266 OA
ENDBRANCH  44  45
ENDBRANCH   4  44
TORSDOF 17
ENDMDL
MODEL 4
REMARK VINA RESULT: -7.722076623      1.487      3.196
REMARK  17 active torsions:
REMARK  status: ('A' for Active; 'I' for Inactive)
REMARK    1  A    between atoms: C2_2  and  O2_4 
REMARK    2  A    between atoms: O2_4  and  C3_5 
REMARK    3  A    between atoms: C4_6  and  O3_7 
REMARK    4  A    between atoms: N1_11  and  O5_13 
REMARK    5  A    between atoms: C6_15  and  C7_16 
REMARK    6  A    between atoms: C8_17  and  C9_18 
REMARK    7  A    between atoms: C9_18  and  O7_20 
REMARK    8  A    between atoms: O7_20  and  C10_21 
REMARK    9  A    between atoms: C11_22  and  O8_23 
REMARK   10  A    between atoms: O8_23  and  N2_24 
REMARK   11  A    between atoms: C12_30  and  O10_31 
REMARK   12  A    between atoms: O10_31  and  C13_32 
REMARK   13  A    between atoms: C15_35  and  O12_36 
REMARK   14  A    between atoms: O12_36  and  C16_37 
REMARK   15  A    between atoms: C18_40  and  O14_41 
REMARK   16  A    between atoms: O14_41  and  C19_42 
REMARK   17  A    between atoms: C21_45  and  O16_46 
ROOT
HETATM    1  C10 UNL     1      18.082   2.669  11.861  1.00  0.00     0.222 C 
HETATM    2  C11 UNL     1      17.178   1.495  12.234  1.00  0.00     0.325 C 
HETATM    3  O9  UNL     1      16.945   1.547  13.584  1.00  0.00    -0.323 OA
HETATM    4  C12 UNL     1      16.071   2.557  13.962  1.00  0.00     0.304 C 
HETATM    5  C15 UNL     1      16.202   3.784  13.093  1.00  0.00     0.219 C 
HETATM    6  C18 UNL     1      17.639   3.925  12.571  1.00  0.00     0.200 C 
ENDROOT
BRANCH   1   7
HETATM    7  O7  UNL     1      18.225   2.814  10.487  1.00  0.00    -0.305 OA
BRANCH   7   8
HETATM    8  C9  UNL     1      19.155   3.628   9.903  1.00  0.00     0.283 C 
HETATM    9  O6  UNL     1      18.794   4.423   9.032  1.00  0.00    -0.260 OA
BRANCH   8  10
HETATM   10  C8  UNL     1      20.606   3.614  10.261  1.00  0.00     0.083 C 
HETATM   11  C7  UNL     1      21.362   4.630   9.958  1.00  0.00     0.025 C 
BRANCH  11  12
HETATM   12  C6  UNL     1      22.745   4.872  10.177  1.00  0.00     0.053 A 
HETATM   13  C5  UNL     1      23.697   4.563   9.232  1.00  0.00     0.183 A 
HETATM   14  O4  UNL     1      24.955   4.813   9.500  1.00  0.00    -0.266 OA
HETATM   15  N1  UNL     1      23.449   4.041   8.091  1.00  0.00    -0.246 N 
HETATM   16  C4  UNL     1      25.379   5.339  10.608  1.00  0.00     0.223 A 
HETATM   17  C3  UNL     1      24.494   5.670  11.589  1.00  0.00     0.171 A 
HETATM   18  C21 UNL     1      23.137   5.444  11.399  1.00  0.00     0.119 A 
ATOM     19  H1  UNL     1      22.478   3.837   7.860  1.00  0.00     0.196 HD
BRANCH  16  20
HETATM   20  O3  UNL     1      26.742   5.563  10.791  1.00  0.00    -0.338 OA
ATOM     21  H3  UNL     1      27.377   5.111  10.248  1.00  0.00     0.220 HD
ENDBRANCH  16  20
BRANCH  17  22
HETATM   22  O2  UNL     1      24.909   6.243  12.805  1.00  0.00    -0.271 OA
BRANCH  22  23
HETATM   23  C2  UNL     1      25.024   7.623  12.924  1.00  0.00     0.260 C 
HETATM   24  C1  UNL     1      26.336   8.294  13.147  1.00  0.00     0.126 C 
HETATM   25  O1  UNL     1      24.011   8.387  12.850  1.00  0.00    -0.265 OA
ENDBRANCH  22  23
ENDBRANCH  17  22
BRANCH  18  26
HETATM   26  O16 UNL     1      22.272   5.791  12.411  1.00  0.00    -0.357 OA
ATOM     27  H16 UNL     1      22.614   6.291  13.143  1.00  0.00     0.218 HD
ENDBRANCH  18  26
BRANCH  15  28
HETATM   28  O5  UNL     1      24.400   3.743   7.172  1.00  0.00    -0.288 OA
ATOM     29  H5  UNL     1      24.452   2.914   6.711  1.00  0.00     0.244 HD
ENDBRANCH  15  28
ENDBRANCH  11  12
ENDBRANCH   8  10
ENDBRANCH   7   8
ENDBRANCH   1   7
BRANCH   2  30
HETATM   30  O8  UNL     1      16.017   1.457  11.444  1.00  0.00    -0.230 OA
BRANCH  30  31
HETATM   31  N2  UNL     1      15.932   0.759  10.266  1.00  0.00    -0.211 N 
HETATM   32  N3  UNL     1      16.971   0.144   9.877  1.00  0.00    -0.326 N 
ATOM     33  H32 UNL     1      17.828   0.177  10.430  1.00  0.00     0.178 HD
ATOM     34  H31 UNL     1      16.908  -0.374   9.001  1.00  0.00     0.178 HD
ATOM     35  H2  UNL     1      15.068   0.736   9.724  1.00  0.00     0.215 HD
ENDBRANCH  30  31
ENDBRANCH   2  30
BRANCH   6  36
HETATM   36  O14 UNL     1      18.409   4.190  13.731  1.00  0.00    -0.311 OA
BRANCH  36  37
HETATM   37  C19 UNL     1      19.268   5.268  13.820  1.00  0.00     0.255 C 
HETATM   38  C20 UNL     1      19.125   6.413  12.891  1.00  0.00     0.126 C 
HETATM   39  O15 UNL     1      20.152   5.212  14.714  1.00  0.00    -0.266 OA
ENDBRANCH  36  37
ENDBRANCH   6  36
BRANCH   5  40
HETATM   40  O12 UNL     1      15.954   4.960  13.847  1.00  0.00    -0.308 OA
BRANCH  40  41
HETATM   41  C16 UNL     1      15.179   6.000  13.333  1.00  0.00     0.255 C 
HETATM   42  C17 UNL     1      15.724   7.055  12.450  1.00  0.00     0.126 C 
HETATM   43  O13 UNL     1      13.955   5.985  13.677  1.00  0.00    -0.266 OA
ENDBRANCH  40  41
ENDBRANCH   5  40
BRANCH   4  44
HETATM   44  O10 UNL     1      16.361   2.936  15.292  1.00  0.00    -0.287 OA
BRANCH  44  45
HETATM   45  C13 UNL     1      16.520   2.002  16.305  1.00  0.00     0.257 C 
HETATM   46  C14 UNL     1      15.387   1.677  17.216  1.00  0.00     0.126 C 
HETATM   47  O11 UNL     1      17.623   1.447  16.431  1.00  0.00    -0.266 OA
ENDBRANCH  44  45
ENDBRANCH   4  44
TORSDOF 17
ENDMDL
MODEL 5
REMARK VINA RESULT: -7.709146135      5.260      8.801
REMARK  17 active torsions:
REMARK  status: ('A' for Active; 'I' for Inactive)
REMARK    1  A    between atoms: C2_2  and  O2_4 
REMARK    2  A    between atoms: O2_4  and  C3_5 
REMARK    3  A    between atoms: C4_6  and  O3_7 
REMARK    4  A    between atoms: N1_11  and  O5_13 
REMARK    5  A    between atoms: C6_15  and  C7_16 
REMARK    6  A    between atoms: C8_17  and  C9_18 
REMARK    7  A    between atoms: C9_18  and  O7_20 
REMARK    8  A    between atoms: O7_20  and  C10_21 
REMARK    9  A    between atoms: C11_22  and  O8_23 
REMARK   10  A    between atoms: O8_23  and  N2_24 
REMARK   11  A    between atoms: C12_30  and  O10_31 
REMARK   12  A    between atoms: O10_31  and  C13_32 
REMARK   13  A    between atoms: C15_35  and  O12_36 
REMARK   14  A    between atoms: O12_36  and  C16_37 
REMARK   15  A    between atoms: C18_40  and  O14_41 
REMARK   16  A    between atoms: O14_41  and  C19_42 
REMARK   17  A    between atoms: C21_45  and  O16_46 
ROOT
HETATM    1  C10 UNL     1      17.605   5.753  13.182  1.00  0.00     0.222 C 
HETATM    2  C11 UNL     1      18.568   5.101  14.173  1.00  0.00     0.325 C 
HETATM    3  O9  UNL     1      17.863   4.193  14.919  1.00  0.00    -0.323 OA
HETATM    4  C12 UNL     1      17.531   3.037  14.225  1.00  0.00     0.304 C 
HETATM    5  C15 UNL     1      17.258   3.304  12.764  1.00  0.00     0.219 C 
HETATM    6  C18 UNL     1      16.694   4.718  12.569  1.00  0.00     0.200 C 
ENDROOT
BRANCH   1   7
HETATM    7  O7  UNL     1      18.259   6.554  12.254  1.00  0.00    -0.305 OA
BRANCH   7   8
HETATM    8  C9  UNL     1      17.977   7.878  12.063  1.00  0.00     0.283 C 
HETATM    9  O6  UNL     1      18.329   8.696  12.916  1.00  0.00    -0.260 OA
BRANCH   8  10
HETATM   10  C8  UNL     1      17.257   8.404  10.863  1.00  0.00     0.083 C 
HETATM   11  C7  UNL     1      16.024   8.811  10.970  1.00  0.00     0.025 C 
BRANCH  11  12
HETATM   12  C6  UNL     1      15.124   9.346  10.009  1.00  0.00     0.053 A 
HETATM   13  C5  UNL     1      14.302   8.541   9.254  1.00  0.00     0.183 A 
HETATM   14  O4  UNL     1      13.495   9.100   8.386  1.00  0.00    -0.266 OA
HETATM   15  N1  UNL     1      14.261   7.265   9.330  1.00  0.00    -0.246 N 
HETATM   16  C4  UNL     1      13.411  10.379   8.182  1.00  0.00     0.223 A 
HETATM   17  C3  UNL     1      14.193  11.237   8.893  1.00  0.00     0.171 A 
HETATM   18  C21 UNL     1      15.082  10.739   9.838  1.00  0.00     0.119 A 
ATOM     19  H1  UNL     1      14.880   6.805   9.998  1.00  0.00     0.196 HD
BRANCH  16  20
HETATM   20  O3  UNL     1      12.517  10.871   7.233  1.00  0.00    -0.338 OA
ATOM     21  H3  UNL     1      12.699  11.689   6.785  1.00  0.00     0.220 HD
ENDBRANCH  16  20
BRANCH  17  22
HETATM   22  O2  UNL     1      14.134  12.630   8.705  1.00  0.00    -0.271 OA
BRANCH  22  23
HETATM   23  C2  UNL     1      13.172  13.384   9.366  1.00  0.00     0.260 C 
HETATM   24  C1  UNL     1      13.525  14.362  10.433  1.00  0.00     0.126 C 
HETATM   25  O1  UNL     1      11.934  13.276   9.094  1.00  0.00    -0.265 OA
ENDBRANCH  22  23
ENDBRANCH  17  22
BRANCH  18  26
HETATM   26  O16 UNL     1      15.856  11.635  10.538  1.00  0.00    -0.357 OA
ATOM     27  H16 UNL     1      16.719  11.844  10.198  1.00  0.00     0.218 HD
ENDBRANCH  18  26
BRANCH  15  28
HETATM   28  O5  UNL     1      13.446   6.486   8.578  1.00  0.00    -0.288 OA
ATOM     29  H5  UNL     1      13.291   5.563   8.744  1.00  0.00     0.244 HD
ENDBRANCH  15  28
ENDBRANCH  11  12
ENDBRANCH   8  10
ENDBRANCH   7   8
ENDBRANCH   1   7
BRANCH   2  30
HETATM   30  O8  UNL     1      19.701   4.575  13.532  1.00  0.00    -0.230 OA
BRANCH  30  31
HETATM   31  N2  UNL     1      20.694   5.356  12.996  1.00  0.00    -0.211 N 
HETATM   32  N3  UNL     1      21.085   5.076  11.823  1.00  0.00    -0.326 N 
ATOM     33  H32 UNL     1      20.669   4.298  11.311  1.00  0.00     0.178 HD
ATOM     34  H31 UNL     1      21.823   5.657  11.425  1.00  0.00     0.178 HD
ATOM     35  H2  UNL     1      21.100   6.131  13.520  1.00  0.00     0.215 HD
ENDBRANCH  30  31
ENDBRANCH   2  30
BRANCH   6  36
HETATM   36  O14 UNL     1      15.424   4.677  13.197  1.00  0.00    -0.311 OA
BRANCH  36  37
HETATM   37  C19 UNL     1      14.861   5.784  13.802  1.00  0.00     0.255 C 
HETATM   38  C20 UNL     1      14.889   5.922  15.277  1.00  0.00     0.126 C 
HETATM   39  O15 UNL     1      14.338   6.638  13.040  1.00  0.00    -0.266 OA
ENDBRANCH  36  37
ENDBRANCH   6  36
BRANCH   5  40
HETATM   40  O12 UNL     1      16.260   2.424  12.272  1.00  0.00    -0.308 OA
BRANCH  40  41
HETATM   41  C16 UNL     1      16.588   1.339  11.459  1.00  0.00     0.255 C 
HETATM   42  C17 UNL     1      16.948   0.007  11.994  1.00  0.00     0.126 C 
HETATM   43  O13 UNL     1      16.557   1.569  10.210  1.00  0.00    -0.266 OA
ENDBRANCH  40  41
ENDBRANCH   5  40
BRANCH   4  44
HETATM   44  O10 UNL     1      16.358   2.488  14.790  1.00  0.00    -0.287 OA
BRANCH  44  45
HETATM   45  C13 UNL     1      16.382   1.756  15.967  1.00  0.00     0.257 C 
HETATM   46  C14 UNL     1      15.202   1.751  16.877  1.00  0.00     0.126 C 
HETATM   47  O11 UNL     1      17.405   1.109  16.242  1.00  0.00    -0.266 OA
ENDBRANCH  44  45
ENDBRANCH   4  44
TORSDOF 17
ENDMDL
