MODEL 1
REMARK VINA RESULT: -6.693982479      0.000      0.000
REMARK  1 active torsions:
REMARK  status: ('A' for Active; 'I' for Inactive)
REMARK    1  A    between atoms: C5_5  and  C7_7 
ROOT
HETATM    1  C1  UNL     1      48.597  79.117  80.791  1.00  0.00     0.021 C 
HETATM    2  C2  UNL     1      48.810  79.742  79.397  1.00  0.00     0.023 C 
HETATM    3  C3  UNL     1      47.661  80.768  79.304  1.00  0.00     0.021 C 
HETATM    4  C4  UNL     1      50.070  80.507  79.408  1.00  0.00     0.054 C 
HETATM    5  C5  UNL     1      50.980  80.357  78.239  1.00  0.00     0.122 C 
HETATM    6  C6  UNL     1      52.442  80.355  78.753  1.00  0.00     0.047 C 
HETATM    7  N1  UNL     1      50.847  79.190  77.473  1.00  0.00    -0.392 N 
ATOM      8  H1  UNL     1      51.672  78.720  77.100  1.00  0.00     0.155 HD
HETATM    9  C8  UNL     1      49.553  78.670  77.224  1.00  0.00     0.086 C 
HETATM   10  C9  UNL     1      49.804  77.186  76.863  1.00  0.00     0.044 C 
HETATM   11  C10 UNL     1      48.925  79.235  75.957  1.00  0.00     0.044 C 
HETATM   12  C11 UNL     1      48.596  78.730  78.361  1.00  0.00     0.274 C 
HETATM   13  F4  UNL     1      48.537  77.459  78.963  1.00  0.00    -0.203 F 
HETATM   14  F5  UNL     1      47.309  78.833  77.797  1.00  0.00    -0.203 F 
ENDROOT
BRANCH   5  15
HETATM   15  C7  UNL     1      50.985  81.639  77.380  1.00  0.00     0.411 C 
HETATM   16  F1  UNL     1      49.707  82.032  77.109  1.00  0.00    -0.168 F 
HETATM   17  F2  UNL     1      51.535  81.239  76.150  1.00  0.00    -0.168 F 
HETATM   18  F3  UNL     1      51.801  82.601  77.864  1.00  0.00    -0.168 F 
ENDBRANCH   5  15
TORSDOF 1
ENDMDL
MODEL 2
REMARK VINA RESULT: -6.549085059      1.447      4.149
REMARK  1 active torsions:
REMARK  status: ('A' for Active; 'I' for Inactive)
REMARK    1  A    between atoms: C5_5  and  C7_7 
ROOT
HETATM    1  C1  UNL     1      51.916  82.289  79.279  1.00  0.00     0.021 C 
HETATM    2  C2  UNL     1      51.282  80.904  79.038  1.00  0.00     0.023 C 
HETATM    3  C3  UNL     1      52.380  79.936  79.528  1.00  0.00     0.021 C 
HETATM    4  C4  UNL     1      50.132  80.745  79.947  1.00  0.00     0.054 C 
HETATM    5  C5  UNL     1      48.881  80.166  79.383  1.00  0.00     0.122 C 
HETATM    6  C6  UNL     1      47.673  80.903  80.015  1.00  0.00     0.047 C 
HETATM    7  N1  UNL     1      48.701  80.267  77.996  1.00  0.00    -0.392 N 
ATOM      8  H1  UNL     1      47.779  80.466  77.608  1.00  0.00     0.155 HD
HETATM    9  C8  UNL     1      49.815  80.088  77.139  1.00  0.00     0.086 C 
HETATM   10  C9  UNL     1      49.394  80.780  75.819  1.00  0.00     0.044 C 
HETATM   11  C10 UNL     1      50.013  78.637  76.724  1.00  0.00     0.044 C 
HETATM   12  C11 UNL     1      51.096  80.686  77.603  1.00  0.00     0.274 C 
HETATM   13  F4  UNL     1      51.295  81.903  76.922  1.00  0.00    -0.203 F 
HETATM   14  F5  UNL     1      52.127  79.892  77.063  1.00  0.00    -0.203 F 
ENDROOT
BRANCH   5  15
HETATM   15  C7  UNL     1      48.649  78.737  79.914  1.00  0.00     0.411 C 
HETATM   16  F1  UNL     1      47.727  78.089  79.145  1.00  0.00    -0.168 F 
HETATM   17  F2  UNL     1      48.045  78.919  81.170  1.00  0.00    -0.168 F 
HETATM   18  F3  UNL     1      49.798  78.062  80.142  1.00  0.00    -0.168 F 
ENDBRANCH   5  15
TORSDOF 1
ENDMDL
MODEL 3
REMARK VINA RESULT: -6.446861063      1.246      3.074
REMARK  1 active torsions:
REMARK  status: ('A' for Active; 'I' for Inactive)
REMARK    1  A    between atoms: C5_5  and  C7_7 
ROOT
HETATM    1  C1  UNL     1      47.649  78.048  76.204  1.00  0.00     0.021 C 
HETATM    2  C2  UNL     1      48.943  78.478  76.925  1.00  0.00     0.023 C 
HETATM    3  C3  UNL     1      49.930  77.351  76.556  1.00  0.00     0.021 C 
HETATM    4  C4  UNL     1      49.447  79.713  76.296  1.00  0.00     0.054 C 
HETATM    5  C5  UNL     1      49.921  80.802  77.195  1.00  0.00     0.122 C 
HETATM    6  C6  UNL     1      49.494  82.161  76.585  1.00  0.00     0.047 C 
HETATM    7  N1  UNL     1      49.428  80.805  78.507  1.00  0.00    -0.392 N 
ATOM      8  H1  UNL     1      49.190  81.684  78.967  1.00  0.00     0.155 HD
HETATM    9  C8  UNL     1      49.264  79.573  79.187  1.00  0.00     0.086 C 
HETATM   10  C9  UNL     1      48.245  79.892  80.309  1.00  0.00     0.044 C 
HETATM   11  C10 UNL     1      50.509  79.154  79.956  1.00  0.00     0.044 C 
HETATM   12  C11 UNL     1      48.739  78.444  78.373  1.00  0.00     0.274 C 
HETATM   13  F4  UNL     1      47.364  78.299  78.643  1.00  0.00    -0.203 F 
HETATM   14  F5  UNL     1      49.261  77.265  78.941  1.00  0.00    -0.203 F 
ENDROOT
BRANCH   5  15
HETATM   15  C7  UNL     1      51.457  80.934  77.132  1.00  0.00     0.411 C 
HETATM   16  F1  UNL     1      51.889  81.874  78.021  1.00  0.00    -0.168 F 
HETATM   17  F2  UNL     1      51.715  81.463  75.856  1.00  0.00    -0.168 F 
HETATM   18  F3  UNL     1      52.096  79.744  77.184  1.00  0.00    -0.168 F 
ENDBRANCH   5  15
TORSDOF 1
ENDMDL
MODEL 4
REMARK VINA RESULT: -6.417675673      1.327      1.655
REMARK  1 active torsions:
REMARK  status: ('A' for Active; 'I' for Inactive)
REMARK    1  A    between atoms: C5_5  and  C7_7 
ROOT
HETATM    1  C1  UNL     1      50.407  79.531  80.902  1.00  0.00     0.021 C 
HETATM    2  C2  UNL     1      49.585  79.810  79.628  1.00  0.00     0.023 C 
HETATM    3  C3  UNL     1      48.325  80.510  80.180  1.00  0.00     0.021 C 
HETATM    4  C4  UNL     1      50.304  80.803  78.809  1.00  0.00     0.054 C 
HETATM    5  C5  UNL     1      50.389  80.557  77.342  1.00  0.00     0.122 C 
HETATM    6  C6  UNL     1      51.792  80.997  76.853  1.00  0.00     0.047 C 
HETATM    7  N1  UNL     1      50.235  79.233  76.908  1.00  0.00    -0.392 N 
ATOM      8  H1  UNL     1      50.807  78.870  76.145  1.00  0.00     0.155 HD
HETATM    9  C8  UNL     1      49.278  78.403  77.542  1.00  0.00     0.086 C 
HETATM   10  C9  UNL     1      49.747  76.964  77.216  1.00  0.00     0.044 C 
HETATM   11  C10 UNL     1      47.906  78.479  76.887  1.00  0.00     0.044 C 
HETATM   12  C11 UNL     1      49.168  78.546  79.019  1.00  0.00     0.274 C 
HETATM   13  F4  UNL     1      49.872  77.488  79.625  1.00  0.00    -0.203 F 
HETATM   14  F5  UNL     1      47.838  78.225  79.354  1.00  0.00    -0.203 F 
ENDROOT
BRANCH   5  15
HETATM   15  C7  UNL     1      49.496  81.548  76.567  1.00  0.00     0.411 C 
HETATM   16  F1  UNL     1      49.493  81.244  75.237  1.00  0.00    -0.168 F 
HETATM   17  F2  UNL     1      50.157  82.783  76.679  1.00  0.00    -0.168 F 
HETATM   18  F3  UNL     1      48.279  81.719  77.130  1.00  0.00    -0.168 F 
ENDBRANCH   5  15
TORSDOF 1
ENDMDL
MODEL 5
REMARK VINA RESULT: -6.413280251      2.020      3.106
REMARK  1 active torsions:
REMARK  status: ('A' for Active; 'I' for Inactive)
REMARK    1  A    between atoms: C5_5  and  C7_7 
ROOT
HETATM    1  C1  UNL     1      48.353  78.441  77.044  1.00  0.00     0.021 C 
HETATM    2  C2  UNL     1      49.012  79.677  77.689  1.00  0.00     0.023 C 
HETATM    3  C3  UNL     1      47.875  80.257  78.555  1.00  0.00     0.021 C 
HETATM    4  C4  UNL     1      50.067  79.223  78.613  1.00  0.00     0.054 C 
HETATM    5  C5  UNL     1      51.370  79.944  78.582  1.00  0.00     0.122 C 
HETATM    6  C6  UNL     1      52.507  78.909  78.772  1.00  0.00     0.047 C 
HETATM    7  N1  UNL     1      51.685  80.640  77.406  1.00  0.00    -0.392 N 
ATOM      8  H1  UNL     1      52.640  80.642  77.048  1.00  0.00     0.155 HD
HETATM    9  C8  UNL     1      50.661  81.339  76.720  1.00  0.00     0.086 C 
HETATM   10  C9  UNL     1      51.209  81.497  75.281  1.00  0.00     0.044 C 
HETATM   11  C10 UNL     1      50.510  82.777  77.195  1.00  0.00     0.044 C 
HETATM   12  C11 UNL     1      49.339  80.661  76.656  1.00  0.00     0.274 C 
HETATM   13  F4  UNL     1      49.204  80.062  75.389  1.00  0.00    -0.203 F 
HETATM   14  F5  UNL     1      48.369  81.680  76.588  1.00  0.00    -0.203 F 
ENDROOT
BRANCH   5  15
HETATM   15  C7  UNL     1      51.553  80.801  79.851  1.00  0.00     0.411 C 
HETATM   16  F1  UNL     1      51.883  80.011  80.913  1.00  0.00    -0.168 F 
HETATM   17  F2  UNL     1      50.269  81.302  80.128  1.00  0.00    -0.168 F 
HETATM   18  F3  UNL     1      52.345  81.879  79.656  1.00  0.00    -0.168 F 
ENDBRANCH   5  15
TORSDOF 1
ENDMDL
