MODEL 1
REMARK VINA RESULT: -8.110745929      0.000      0.000
REMARK  15 active torsions:
REMARK  status: ('A' for Active; 'I' for Inactive)
REMARK    1  A    between atoms: S1_2  and  C2_3 
REMARK    2  A    between atoms: N2_6  and  N3_7 
REMARK    3  A    between atoms: C3_10  and  S2_11 
REMARK    4  A    between atoms: S2_11  and  C4_12 
REMARK    5  A    between atoms: C4_12  and  C5_13 
REMARK    6  A    between atoms: C6_16  and  C7_17 
REMARK    7  A    between atoms: C8_20  and  S3_21 
REMARK    8  A    between atoms: S3_21  and  C9_22 
REMARK    9  A    between atoms: C10_23  and  C11_24 
REMARK   10  A    between atoms: S4_33  and  N8_35 
REMARK   11  A    between atoms: N8_35  and  N9_37 
REMARK   12  A    between atoms: N9_37  and  N10_39 
REMARK   13  A    between atoms: C15_42  and  C16_43 
REMARK   14  A    between atoms: C16_43  and  O5_44 
REMARK   15  A    between atoms: C17_46  and  C18_47 
REMARK       I    between atoms: C18_47  and  N11_49 
ROOT
HETATM    1  C5  UNL     1     -31.498  54.377 -23.999  1.00  0.00    -0.002 C 
HETATM    2  N4  UNL     1     -30.591  55.154 -23.625  1.00  0.00    -0.357 N 
ATOM      3  H4  UNL     1     -29.648  54.765 -23.611  1.00  0.00     0.165 HD
HETATM    4  C6  UNL     1     -30.710  56.518 -23.215  1.00  0.00     0.111 C 
HETATM    5  C8  UNL     1     -31.922  57.042 -23.213  1.00  0.00     0.024 C 
HETATM    6  C17 UNL     1     -33.139  56.131 -23.479  1.00  0.00     0.125 C 
HETATM    7  C21 UNL     1     -32.878  54.880 -24.124  1.00  0.00     0.072 C 
ENDROOT
BRANCH   5   8
HETATM    8  S3  UNL     1     -32.311  58.623 -22.788  1.00  0.00    -0.120 SA
BRANCH   8   9
HETATM    9  C9  UNL     1     -33.089  59.989 -23.231  1.00  0.00     0.113 C 
HETATM   10  C10 UNL     1     -34.053  60.687 -22.262  1.00  0.00     0.056 C 
HETATM   11  C12 UNL     1     -34.981  61.571 -22.595  1.00  0.00     0.021 C 
HETATM   12  C13 UNL     1     -35.823  62.139 -21.516  1.00  0.00     0.069 C 
HETATM   13  N6  UNL     1     -35.207  62.026 -23.952  1.00  0.00    -0.340 N 
HETATM   14  C14 UNL     1     -34.383  62.277 -24.900  1.00  0.00     0.193 C 
ATOM     15  H6  UNL     1     -36.188  62.171 -24.193  1.00  0.00     0.167 HD
HETATM   16  N7  UNL     1     -34.946  62.708 -26.109  1.00  0.00    -0.071 NA
HETATM   17  S4  UNL     1     -32.649  62.152 -24.869  1.00  0.00     0.108 S 
HETATM   18  O4  UNL     1     -32.094  61.745 -26.202  1.00  0.00    -0.240 OA
HETATM   19  C15 UNL     1     -32.047  61.162 -23.554  1.00  0.00     0.138 C 
BRANCH  10  20
HETATM   20  C11 UNL     1     -33.888  60.336 -20.871  1.00  0.00     0.208 C 
HETATM   21  O2  UNL     1     -34.497  59.447 -20.241  1.00  0.00    -0.644 OA
HETATM   22  O3  UNL     1     -32.951  61.048 -20.095  1.00  0.00    -0.644 OA
ENDBRANCH  10  20
BRANCH  17  23
HETATM   23  N8  UNL     1     -32.117  63.626 -24.605  1.00  0.00    -0.239 N 
ATOM     24  H8  UNL     1     -32.749  64.397 -24.390  1.00  0.00     0.198 HD
BRANCH  23  25
HETATM   25  N9  UNL     1     -30.737  63.807 -24.684  1.00  0.00    -0.242 N 
ATOM     26  H9  UNL     1     -30.128  63.647 -23.881  1.00  0.00     0.208 HD
BRANCH  25  27
HETATM   27  N10 UNL     1     -30.224  64.224 -25.934  1.00  0.00    -0.330 N 
ATOM     28 2H10 UNL     1     -29.295  64.639 -26.005  1.00  0.00     0.178 HD
ATOM     29 1H10 UNL     1     -30.829  64.086 -26.744  1.00  0.00     0.178 HD
ENDBRANCH  25  27
ENDBRANCH  23  25
ENDBRANCH  17  23
BRANCH  19  30
HETATM   30  C16 UNL     1     -30.738  60.466 -23.869  1.00  0.00     0.184 C 
BRANCH  30  31
HETATM   31  O5  UNL     1     -29.744  61.079 -23.148  1.00  0.00    -0.400 OA
ATOM     32  H5  UNL     1     -29.980  61.993 -23.039  1.00  0.00     0.209 HD
ENDBRANCH  30  31
ENDBRANCH  19  30
ENDBRANCH   8   9
ENDBRANCH   5   8
BRANCH   4  33
HETATM   33  C7  UNL     1     -29.485  57.171 -22.819  1.00  0.00     0.282 C 
HETATM   34  N5  UNL     1     -28.610  57.667 -23.857  1.00  0.00    -0.056 NA
HETATM   35  O1  UNL     1     -29.103  57.352 -21.689  1.00  0.00    -0.269 OA
ENDBRANCH   4  33
BRANCH   6  36
HETATM   36  C18 UNL     1     -33.878  55.979 -22.188  1.00  0.00     0.228 C 
HETATM   37  O6  UNL     1     -33.277  55.330 -21.270  1.00  0.00    -0.273 OA
HETATM   38  N11 UNL     1     -35.167  56.497 -21.938  1.00  0.00    -0.360 N 
HETATM   39  C19 UNL     1     -35.825  56.291 -20.672  1.00  0.00     0.152 C 
HETATM   40  C20 UNL     1     -35.869  57.267 -22.937  1.00  0.00     0.152 C 
ENDBRANCH   6  36
BRANCH   1  41
HETATM   41  C4  UNL     1     -31.191  52.952 -24.392  1.00  0.00     0.135 C 
BRANCH  41  42
HETATM   42  S2  UNL     1     -29.462  52.850 -24.912  1.00  0.00    -0.077 SA
BRANCH  42  43
HETATM   43  C3  UNL     1     -29.165  53.580 -26.501  1.00  0.00     0.227 A 
HETATM   44  N2  UNL     1     -28.502  54.711 -26.750  1.00  0.00    -0.170 N 
HETATM   45  N1  UNL     1     -28.529  54.869 -28.086  1.00  0.00    -0.250 N 
HETATM   46  C2  UNL     1     -29.198  53.851 -28.652  1.00  0.00     0.205 A 
ATOM     47  H1  UNL     1     -28.104  55.646 -28.593  1.00  0.00     0.192 HD
HETATM   48  O7  UNL     1     -29.571  53.087 -27.666  1.00  0.00    -0.260 OA
BRANCH  44  49
HETATM   49  N3  UNL     1     -27.885  55.597 -25.868  1.00  0.00    -0.321 N 
ATOM     50  H32 UNL     1     -27.593  55.459 -24.900  1.00  0.00     0.179 HD
ATOM     51  H31 UNL     1     -27.635  56.558 -26.102  1.00  0.00     0.179 HD
ENDBRANCH  44  49
BRANCH  46  52
HETATM   52  S1  UNL     1     -29.527  53.572 -30.388  1.00  0.00    -0.089 SA
HETATM   53  C1  UNL     1     -31.235  54.049 -30.767  1.00  0.00     0.099 C 
ENDBRANCH  46  52
ENDBRANCH  42  43
ENDBRANCH  41  42
ENDBRANCH   1  41
TORSDOF 15
ENDMDL
MODEL 2
REMARK VINA RESULT: -7.840456102      2.088      2.886
REMARK  15 active torsions:
REMARK  status: ('A' for Active; 'I' for Inactive)
REMARK    1  A    between atoms: S1_2  and  C2_3 
REMARK    2  A    between atoms: N2_6  and  N3_7 
REMARK    3  A    between atoms: C3_10  and  S2_11 
REMARK    4  A    between atoms: S2_11  and  C4_12 
REMARK    5  A    between atoms: C4_12  and  C5_13 
REMARK    6  A    between atoms: C6_16  and  C7_17 
REMARK    7  A    between atoms: C8_20  and  S3_21 
REMARK    8  A    between atoms: S3_21  and  C9_22 
REMARK    9  A    between atoms: C10_23  and  C11_24 
REMARK   10  A    between atoms: S4_33  and  N8_35 
REMARK   11  A    between atoms: N8_35  and  N9_37 
REMARK   12  A    between atoms: N9_37  and  N10_39 
REMARK   13  A    between atoms: C15_42  and  C16_43 
REMARK   14  A    between atoms: C16_43  and  O5_44 
REMARK   15  A    between atoms: C17_46  and  C18_47 
REMARK       I    between atoms: C18_47  and  N11_49 
ROOT
HETATM    1  C5  UNL     1     -31.084  53.950 -23.995  1.00  0.00    -0.002 C 
HETATM    2  N4  UNL     1     -30.313  54.925 -23.842  1.00  0.00    -0.357 N 
ATOM      3  H4  UNL     1     -29.321  54.700 -23.756  1.00  0.00     0.165 HD
HETATM    4  C6  UNL     1     -30.647  56.313 -23.773  1.00  0.00     0.111 C 
HETATM    5  C8  UNL     1     -31.925  56.629 -23.871  1.00  0.00     0.024 C 
HETATM    6  C17 UNL     1     -32.983  55.506 -23.880  1.00  0.00     0.125 C 
HETATM    7  C21 UNL     1     -32.522  54.191 -24.208  1.00  0.00     0.072 C 
ENDROOT
BRANCH   5   8
HETATM    8  S3  UNL     1     -32.559  58.188 -23.835  1.00  0.00    -0.120 SA
BRANCH   8   9
HETATM    9  C9  UNL     1     -33.240  59.390 -24.705  1.00  0.00     0.113 C 
HETATM   10  C10 UNL     1     -32.889  60.856 -24.419  1.00  0.00     0.056 C 
HETATM   11  C12 UNL     1     -33.597  61.911 -24.795  1.00  0.00     0.021 C 
HETATM   12  C13 UNL     1     -33.099  63.255 -24.422  1.00  0.00     0.069 C 
HETATM   13  N6  UNL     1     -34.821  61.823 -25.564  1.00  0.00    -0.340 N 
HETATM   14  C14 UNL     1     -35.154  61.041 -26.524  1.00  0.00     0.193 C 
ATOM     15  H6  UNL     1     -35.540  62.497 -25.298  1.00  0.00     0.167 HD
HETATM   16  N7  UNL     1     -36.437  61.229 -27.055  1.00  0.00    -0.071 NA
HETATM   17  S4  UNL     1     -34.206  59.778 -27.250  1.00  0.00     0.108 S 
HETATM   18  O4  UNL     1     -35.059  58.632 -27.708  1.00  0.00    -0.240 OA
HETATM   19  C15 UNL     1     -32.858  59.262 -26.256  1.00  0.00     0.138 C 
BRANCH  10  20
HETATM   20  C11 UNL     1     -31.660  61.063 -23.688  1.00  0.00     0.208 C 
HETATM   21  O2  UNL     1     -30.500  61.046 -24.146  1.00  0.00    -0.644 OA
HETATM   22  O3  UNL     1     -31.727  61.315 -22.303  1.00  0.00    -0.644 OA
ENDBRANCH  10  20
BRANCH  17  23
HETATM   23  N8  UNL     1     -33.581  60.412 -28.566  1.00  0.00    -0.239 N 
ATOM     24  H8  UNL     1     -32.891  61.161 -28.528  1.00  0.00     0.198 HD
BRANCH  23  25
HETATM   25  N9  UNL     1     -34.029  59.885 -29.777  1.00  0.00    -0.242 N 
ATOM     26  H9  UNL     1     -34.810  60.300 -30.287  1.00  0.00     0.208 HD
BRANCH  25  27
HETATM   27  N10 UNL     1     -33.346  58.746 -30.263  1.00  0.00    -0.330 N 
ATOM     28 2H10 UNL     1     -32.673  58.252 -29.677  1.00  0.00     0.178 HD
ATOM     29 1H10 UNL     1     -33.563  58.456 -31.216  1.00  0.00     0.178 HD
ENDBRANCH  25  27
ENDBRANCH  23  25
ENDBRANCH  17  23
BRANCH  19  30
HETATM   30  C16 UNL     1     -32.474  57.809 -26.460  1.00  0.00     0.184 C 
BRANCH  30  31
HETATM   31  O5  UNL     1     -32.606  57.517 -27.794  1.00  0.00    -0.400 OA
ATOM     32  H5  UNL     1     -32.314  56.623 -27.931  1.00  0.00     0.209 HD
ENDBRANCH  30  31
ENDBRANCH  19  30
ENDBRANCH   8   9
ENDBRANCH   5   8
BRANCH   4  33
HETATM   33  C7  UNL     1     -29.543  57.222 -23.577  1.00  0.00     0.282 C 
HETATM   34  N5  UNL     1     -29.015  57.915 -24.730  1.00  0.00    -0.056 NA
HETATM   35  O1  UNL     1     -29.000  57.472 -22.528  1.00  0.00    -0.269 OA
ENDBRANCH   4  33
BRANCH   6  36
HETATM   36  C18 UNL     1     -33.709  55.562 -22.575  1.00  0.00     0.228 C 
HETATM   37  O6  UNL     1     -33.073  55.129 -21.559  1.00  0.00    -0.273 OA
HETATM   38  N11 UNL     1     -35.023  56.051 -22.410  1.00  0.00    -0.360 N 
HETATM   39  C19 UNL     1     -35.666  56.053 -21.120  1.00  0.00     0.152 C 
HETATM   40  C20 UNL     1     -35.768  56.582 -23.528  1.00  0.00     0.152 C 
ENDBRANCH   6  36
BRANCH   1  41
HETATM   41  C4  UNL     1     -30.555  52.538 -24.037  1.00  0.00     0.135 C 
BRANCH  41  42
HETATM   42  S2  UNL     1     -28.957  52.537 -24.884  1.00  0.00    -0.077 SA
BRANCH  42  43
HETATM   43  C3  UNL     1     -28.957  53.491 -26.379  1.00  0.00     0.227 A 
HETATM   44  N2  UNL     1     -28.273  54.614 -26.612  1.00  0.00    -0.170 N 
HETATM   45  N1  UNL     1     -28.580  54.980 -27.869  1.00  0.00    -0.250 N 
HETATM   46  C2  UNL     1     -29.440  54.097 -28.404  1.00  0.00     0.205 A 
ATOM     47  H1  UNL     1     -28.214  55.805 -28.345  1.00  0.00     0.192 HD
HETATM   48  O7  UNL     1     -29.648  53.208 -27.477  1.00  0.00    -0.260 OA
BRANCH  44  49
HETATM   49  N3  UNL     1     -27.406  55.319 -25.779  1.00  0.00    -0.321 N 
ATOM     50  H32 UNL     1     -26.387  55.383 -25.800  1.00  0.00     0.179 HD
ATOM     51  H31 UNL     1     -27.707  55.897 -24.994  1.00  0.00     0.179 HD
ENDBRANCH  44  49
BRANCH  46  52
HETATM   52  S1  UNL     1     -30.164  54.110 -30.040  1.00  0.00    -0.089 SA
HETATM   53  C1  UNL     1     -30.380  55.823 -30.595  1.00  0.00     0.099 C 
ENDBRANCH  46  52
ENDBRANCH  42  43
ENDBRANCH  41  42
ENDBRANCH   1  41
TORSDOF 15
ENDMDL
MODEL 3
REMARK VINA RESULT: -7.702212935      2.722      3.509
REMARK  15 active torsions:
REMARK  status: ('A' for Active; 'I' for Inactive)
REMARK    1  A    between atoms: S1_2  and  C2_3 
REMARK    2  A    between atoms: N2_6  and  N3_7 
REMARK    3  A    between atoms: C3_10  and  S2_11 
REMARK    4  A    between atoms: S2_11  and  C4_12 
REMARK    5  A    between atoms: C4_12  and  C5_13 
REMARK    6  A    between atoms: C6_16  and  C7_17 
REMARK    7  A    between atoms: C8_20  and  S3_21 
REMARK    8  A    between atoms: S3_21  and  C9_22 
REMARK    9  A    between atoms: C10_23  and  C11_24 
REMARK   10  A    between atoms: S4_33  and  N8_35 
REMARK   11  A    between atoms: N8_35  and  N9_37 
REMARK   12  A    between atoms: N9_37  and  N10_39 
REMARK   13  A    between atoms: C15_42  and  C16_43 
REMARK   14  A    between atoms: C16_43  and  O5_44 
REMARK   15  A    between atoms: C17_46  and  C18_47 
REMARK       I    between atoms: C18_47  and  N11_49 
ROOT
HETATM    1  C5  UNL     1     -30.676  56.084 -25.782  1.00  0.00    -0.002 C 
HETATM    2  N4  UNL     1     -30.362  56.308 -24.591  1.00  0.00    -0.357 N 
ATOM      3  H4  UNL     1     -29.982  55.515 -24.073  1.00  0.00     0.165 HD
HETATM    4  C6  UNL     1     -30.471  57.535 -23.864  1.00  0.00     0.111 C 
HETATM    5  C8  UNL     1     -30.970  58.572 -24.508  1.00  0.00     0.024 C 
HETATM    6  C17 UNL     1     -31.559  58.373 -25.921  1.00  0.00     0.125 C 
HETATM    7  C21 UNL     1     -31.159  57.193 -26.625  1.00  0.00     0.072 C 
ENDROOT
BRANCH   5   8
HETATM    8  S3  UNL     1     -31.180  60.118 -23.875  1.00  0.00    -0.120 SA
BRANCH   8   9
HETATM    9  C9  UNL     1     -31.561  61.671 -24.201  1.00  0.00     0.113 C 
HETATM   10  C10 UNL     1     -32.917  62.249 -23.773  1.00  0.00     0.056 C 
HETATM   11  C12 UNL     1     -33.480  63.346 -24.256  1.00  0.00     0.021 C 
HETATM   12  C13 UNL     1     -34.801  63.747 -23.719  1.00  0.00     0.069 C 
HETATM   13  N6  UNL     1     -32.868  64.183 -25.267  1.00  0.00    -0.340 N 
HETATM   14  C14 UNL     1     -31.646  64.524 -25.447  1.00  0.00     0.193 C 
ATOM     15  H6  UNL     1     -33.520  64.567 -25.952  1.00  0.00     0.167 HD
HETATM   16  N7  UNL     1     -31.393  65.361 -26.541  1.00  0.00    -0.071 NA
HETATM   17  S4  UNL     1     -30.262  64.076 -24.494  1.00  0.00     0.108 S 
HETATM   18  O4  UNL     1     -29.024  63.948 -25.333  1.00  0.00    -0.240 OA
HETATM   19  C15 UNL     1     -30.540  62.674 -23.480  1.00  0.00     0.138 C 
BRANCH  10  20
HETATM   20  C11 UNL     1     -33.600  61.511 -22.735  1.00  0.00     0.208 C 
HETATM   21  O2  UNL     1     -34.478  60.637 -22.886  1.00  0.00    -0.644 OA
HETATM   22  O3  UNL     1     -33.276  61.772 -21.389  1.00  0.00    -0.644 OA
ENDBRANCH  10  20
BRANCH  17  23
HETATM   23  N8  UNL     1     -30.001  65.299 -23.514  1.00  0.00    -0.239 N 
ATOM     24  H8  UNL     1     -30.579  65.462 -22.690  1.00  0.00     0.198 HD
BRANCH  23  25
HETATM   25  N9  UNL     1     -28.937  66.138 -23.843  1.00  0.00    -0.242 N 
ATOM     26  H9  UNL     1     -28.077  66.155 -23.293  1.00  0.00     0.208 HD
BRANCH  25  27
HETATM   27  N10 UNL     1     -29.110  66.963 -24.979  1.00  0.00    -0.330 N 
ATOM     28 2H10 UNL     1     -29.275  66.557 -25.899  1.00  0.00     0.178 HD
ATOM     29 1H10 UNL     1     -29.059  67.970 -24.822  1.00  0.00     0.178 HD
ENDBRANCH  25  27
ENDBRANCH  23  25
ENDBRANCH  17  23
BRANCH  19  30
HETATM   30  C16 UNL     1     -29.289  61.859 -23.216  1.00  0.00     0.184 C 
BRANCH  30  31
HETATM   31  O5  UNL     1     -28.238  62.727 -23.063  1.00  0.00    -0.400 OA
ATOM     32  H5  UNL     1     -27.433  62.223 -23.083  1.00  0.00     0.209 HD
ENDBRANCH  30  31
ENDBRANCH  19  30
ENDBRANCH   8   9
ENDBRANCH   5   8
BRANCH   4  33
HETATM   33  C7  UNL     1     -30.041  57.496 -22.487  1.00  0.00     0.282 C 
HETATM   34  N5  UNL     1     -30.984  57.892 -21.466  1.00  0.00    -0.056 NA
HETATM   35  O1  UNL     1     -28.953  57.160 -22.085  1.00  0.00    -0.269 OA
ENDBRANCH   4  33
BRANCH   6  36
HETATM   36  C18 UNL     1     -33.044  58.513 -25.813  1.00  0.00     0.228 C 
HETATM   37  O6  UNL     1     -33.641  57.637 -25.106  1.00  0.00    -0.273 OA
HETATM   38  N11 UNL     1     -33.799  59.531 -26.434  1.00  0.00    -0.360 N 
HETATM   39  C19 UNL     1     -35.233  59.588 -26.301  1.00  0.00     0.152 C 
HETATM   40  C20 UNL     1     -33.161  60.563 -27.216  1.00  0.00     0.152 C 
ENDBRANCH   6  36
BRANCH   1  41
HETATM   41  C4  UNL     1     -30.500  54.714 -26.390  1.00  0.00     0.135 C 
BRANCH  41  42
HETATM   42  S2  UNL     1     -29.562  54.873 -27.927  1.00  0.00    -0.077 SA
BRANCH  42  43
HETATM   43  C3  UNL     1     -30.531  54.544 -29.376  1.00  0.00     0.227 A 
HETATM   44  N2  UNL     1     -30.316  53.586 -30.280  1.00  0.00    -0.170 N 
HETATM   45  N1  UNL     1     -31.294  53.715 -31.195  1.00  0.00    -0.250 N 
HETATM   46  C2  UNL     1     -32.099  54.737 -30.860  1.00  0.00     0.205 A 
ATOM     47  H1  UNL     1     -31.407  53.126 -32.019  1.00  0.00     0.192 HD
HETATM   48  O7  UNL     1     -31.610  55.218 -29.753  1.00  0.00    -0.260 OA
BRANCH  44  49
HETATM   49  N3  UNL     1     -29.313  52.619 -30.336  1.00  0.00    -0.321 N 
ATOM     50  H32 UNL     1     -28.664  52.393 -31.089  1.00  0.00     0.179 HD
ATOM     51  H31 UNL     1     -29.096  51.975 -29.575  1.00  0.00     0.179 HD
ENDBRANCH  44  49
BRANCH  46  52
HETATM   52  S1  UNL     1     -33.545  55.337 -31.726  1.00  0.00    -0.089 SA
HETATM   53  C1  UNL     1     -34.138  56.859 -30.936  1.00  0.00     0.099 C 
ENDBRANCH  46  52
ENDBRANCH  42  43
ENDBRANCH  41  42
ENDBRANCH   1  41
TORSDOF 15
ENDMDL
MODEL 4
REMARK VINA RESULT: -7.537326633      2.530      5.042
REMARK  15 active torsions:
REMARK  status: ('A' for Active; 'I' for Inactive)
REMARK    1  A    between atoms: S1_2  and  C2_3 
REMARK    2  A    between atoms: N2_6  and  N3_7 
REMARK    3  A    between atoms: C3_10  and  S2_11 
REMARK    4  A    between atoms: S2_11  and  C4_12 
REMARK    5  A    between atoms: C4_12  and  C5_13 
REMARK    6  A    between atoms: C6_16  and  C7_17 
REMARK    7  A    between atoms: C8_20  and  S3_21 
REMARK    8  A    between atoms: S3_21  and  C9_22 
REMARK    9  A    between atoms: C10_23  and  C11_24 
REMARK   10  A    between atoms: S4_33  and  N8_35 
REMARK   11  A    between atoms: N8_35  and  N9_37 
REMARK   12  A    between atoms: N9_37  and  N10_39 
REMARK   13  A    between atoms: C15_42  and  C16_43 
REMARK   14  A    between atoms: C16_43  and  O5_44 
REMARK   15  A    between atoms: C17_46  and  C18_47 
REMARK       I    between atoms: C18_47  and  N11_49 
ROOT
HETATM    1  C5  UNL     1     -29.242  56.161 -24.694  1.00  0.00    -0.002 C 
HETATM    2  N4  UNL     1     -30.176  55.410 -24.332  1.00  0.00    -0.357 N 
ATOM      3  H4  UNL     1     -30.117  54.441 -24.646  1.00  0.00     0.165 HD
HETATM    4  C6  UNL     1     -31.315  55.740 -23.533  1.00  0.00     0.111 C 
HETATM    5  C8  UNL     1     -31.421  56.990 -23.124  1.00  0.00     0.024 C 
HETATM    6  C17 UNL     1     -30.430  58.046 -23.657  1.00  0.00     0.125 C 
HETATM    7  C21 UNL     1     -29.208  57.556 -24.219  1.00  0.00     0.072 C 
ENDROOT
BRANCH   5   8
HETATM    8  S3  UNL     1     -32.657  57.612 -22.166  1.00  0.00    -0.120 SA
BRANCH   8   9
HETATM    9  C9  UNL     1     -33.945  58.613 -22.103  1.00  0.00     0.113 C 
HETATM   10  C10 UNL     1     -34.982  58.622 -23.234  1.00  0.00     0.056 C 
HETATM   11  C12 UNL     1     -35.856  59.588 -23.477  1.00  0.00     0.021 C 
HETATM   12  C13 UNL     1     -36.780  59.421 -24.622  1.00  0.00     0.069 C 
HETATM   13  N6  UNL     1     -35.968  60.789 -22.675  1.00  0.00    -0.340 N 
HETATM   14  C14 UNL     1     -35.864  60.965 -21.410  1.00  0.00     0.193 C 
ATOM     15  H6  UNL     1     -36.163  61.638 -23.207  1.00  0.00     0.167 HD
HETATM   16  N7  UNL     1     -36.032  62.280 -20.954  1.00  0.00    -0.071 NA
HETATM   17  S4  UNL     1     -35.542  59.771 -20.188  1.00  0.00     0.108 S 
HETATM   18  O4  UNL     1     -34.740  60.335 -19.052  1.00  0.00    -0.240 OA
HETATM   19  C15 UNL     1     -34.860  58.288 -20.828  1.00  0.00     0.138 C 
BRANCH  10  20
HETATM   20  C11 UNL     1     -34.985  57.449 -24.076  1.00  0.00     0.208 C 
HETATM   21  O2  UNL     1     -34.359  57.285 -25.143  1.00  0.00    -0.644 OA
HETATM   22  O3  UNL     1     -35.767  56.340 -23.695  1.00  0.00    -0.644 OA
ENDBRANCH  10  20
BRANCH  17  23
HETATM   23  N8  UNL     1     -36.958  59.390 -19.576  1.00  0.00    -0.239 N 
ATOM     24  H8  UNL     1     -37.487  60.041 -18.995  1.00  0.00     0.198 HD
BRANCH  23  25
HETATM   25  N9  UNL     1     -37.439  58.116 -19.878  1.00  0.00    -0.242 N 
ATOM     26  H9  UNL     1     -37.663  57.840 -20.835  1.00  0.00     0.208 HD
BRANCH  25  27
HETATM   27  N10 UNL     1     -37.599  57.227 -18.791  1.00  0.00    -0.330 N 
ATOM     28 2H10 UNL     1     -36.869  57.127 -18.086  1.00  0.00     0.178 HD
ATOM     29 1H10 UNL     1     -38.473  56.702 -18.756  1.00  0.00     0.178 HD
ENDBRANCH  25  27
ENDBRANCH  23  25
ENDBRANCH  17  23
BRANCH  19  30
HETATM   30  C16 UNL     1     -33.953  57.567 -19.851  1.00  0.00     0.184 C 
BRANCH  30  31
HETATM   31  O5  UNL     1     -34.568  57.557 -18.624  1.00  0.00    -0.400 OA
ATOM     32  H5  UNL     1     -33.946  57.872 -17.979  1.00  0.00     0.209 HD
ENDBRANCH  30  31
ENDBRANCH  19  30
ENDBRANCH   8   9
ENDBRANCH   5   8
BRANCH   4  33
HETATM   33  C7  UNL     1     -32.246  54.665 -23.282  1.00  0.00     0.282 C 
HETATM   34  N5  UNL     1     -32.022  53.822 -22.130  1.00  0.00    -0.056 NA
HETATM   35  O1  UNL     1     -33.215  54.388 -23.947  1.00  0.00    -0.269 OA
ENDBRANCH   4  33
BRANCH   6  36
HETATM   36  C18 UNL     1     -31.183  58.941 -24.588  1.00  0.00     0.228 C 
HETATM   37  O6  UNL     1     -31.548  58.423 -25.693  1.00  0.00    -0.273 OA
HETATM   38  N11 UNL     1     -31.502  60.290 -24.318  1.00  0.00    -0.360 N 
HETATM   39  C19 UNL     1     -32.214  61.097 -25.277  1.00  0.00     0.152 C 
HETATM   40  C20 UNL     1     -31.138  60.907 -23.065  1.00  0.00     0.152 C 
ENDBRANCH   6  36
BRANCH   1  41
HETATM   41  C4  UNL     1     -28.113  55.642 -25.551  1.00  0.00     0.135 C 
BRANCH  41  42
HETATM   42  S2  UNL     1     -28.719  54.253 -26.537  1.00  0.00    -0.077 SA
BRANCH  42  43
HETATM   43  C3  UNL     1     -29.058  54.687 -28.223  1.00  0.00     0.227 A 
HETATM   44  N2  UNL     1     -29.959  55.572 -28.655  1.00  0.00    -0.170 N 
HETATM   45  N1  UNL     1     -29.865  55.570 -29.996  1.00  0.00    -0.250 N 
HETATM   46  C2  UNL     1     -28.921  54.698 -30.386  1.00  0.00     0.205 A 
ATOM     47  H1  UNL     1     -30.427  56.146 -30.624  1.00  0.00     0.192 HD
HETATM   48  O7  UNL     1     -28.451  54.179 -29.289  1.00  0.00    -0.260 OA
BRANCH  44  49
HETATM   49  N3  UNL     1     -30.847  56.368 -27.932  1.00  0.00    -0.321 N 
ATOM     50  H32 UNL     1     -30.659  57.101 -27.248  1.00  0.00     0.179 HD
ATOM     51  H31 UNL     1     -31.862  56.307 -28.006  1.00  0.00     0.179 HD
ENDBRANCH  44  49
BRANCH  46  52
HETATM   52  S1  UNL     1     -28.395  54.306 -32.051  1.00  0.00    -0.089 SA
HETATM   53  C1  UNL     1     -26.640  53.847 -32.041  1.00  0.00     0.099 C 
ENDBRANCH  46  52
ENDBRANCH  42  43
ENDBRANCH  41  42
ENDBRANCH   1  41
TORSDOF 15
ENDMDL
MODEL 5
REMARK VINA RESULT: -7.513631609      2.597      5.041
REMARK  15 active torsions:
REMARK  status: ('A' for Active; 'I' for Inactive)
REMARK    1  A    between atoms: S1_2  and  C2_3 
REMARK    2  A    between atoms: N2_6  and  N3_7 
REMARK    3  A    between atoms: C3_10  and  S2_11 
REMARK    4  A    between atoms: S2_11  and  C4_12 
REMARK    5  A    between atoms: C4_12  and  C5_13 
REMARK    6  A    between atoms: C6_16  and  C7_17 
REMARK    7  A    between atoms: C8_20  and  S3_21 
REMARK    8  A    between atoms: S3_21  and  C9_22 
REMARK    9  A    between atoms: C10_23  and  C11_24 
REMARK   10  A    between atoms: S4_33  and  N8_35 
REMARK   11  A    between atoms: N8_35  and  N9_37 
REMARK   12  A    between atoms: N9_37  and  N10_39 
REMARK   13  A    between atoms: C15_42  and  C16_43 
REMARK   14  A    between atoms: C16_43  and  O5_44 
REMARK   15  A    between atoms: C17_46  and  C18_47 
REMARK       I    between atoms: C18_47  and  N11_49 
ROOT
HETATM    1  C5  UNL     1     -29.324  56.042 -24.910  1.00  0.00    -0.002 C 
HETATM    2  N4  UNL     1     -30.251  55.311 -24.493  1.00  0.00    -0.357 N 
ATOM      3  H4  UNL     1     -30.221  54.336 -24.794  1.00  0.00     0.165 HD
HETATM    4  C6  UNL     1     -31.346  55.670 -23.648  1.00  0.00     0.111 C 
HETATM    5  C8  UNL     1     -31.414  56.928 -23.254  1.00  0.00     0.024 C 
HETATM    6  C17 UNL     1     -30.434  57.960 -23.849  1.00  0.00     0.125 C 
HETATM    7  C21 UNL     1     -29.247  57.443 -24.460  1.00  0.00     0.072 C 
ENDROOT
BRANCH   5   8
HETATM    8  S3  UNL     1     -32.594  57.583 -22.249  1.00  0.00    -0.120 SA
BRANCH   8   9
HETATM    9  C9  UNL     1     -33.879  58.586 -22.147  1.00  0.00     0.113 C 
HETATM   10  C10 UNL     1     -34.945  58.602 -23.251  1.00  0.00     0.056 C 
HETATM   11  C12 UNL     1     -35.823  59.570 -23.466  1.00  0.00     0.021 C 
HETATM   12  C13 UNL     1     -36.778  59.410 -24.587  1.00  0.00     0.069 C 
HETATM   13  N6  UNL     1     -35.912  60.768 -22.656  1.00  0.00    -0.340 N 
HETATM   14  C14 UNL     1     -35.774  60.939 -21.394  1.00  0.00     0.193 C 
ATOM     15  H6  UNL     1     -36.119  61.620 -23.179  1.00  0.00     0.167 HD
HETATM   16  N7  UNL     1     -35.928  62.252 -20.928  1.00  0.00    -0.071 NA
HETATM   17  S4  UNL     1     -35.422  59.739 -20.187  1.00  0.00     0.108 S 
HETATM   18  O4  UNL     1     -34.589  60.296 -19.070  1.00  0.00    -0.240 OA
HETATM   19  C15 UNL     1     -34.760  58.258 -20.850  1.00  0.00     0.138 C 
BRANCH  10  20
HETATM   20  C11 UNL     1     -34.973  57.432 -24.097  1.00  0.00     0.208 C 
HETATM   21  O2  UNL     1     -34.380  57.274 -25.184  1.00  0.00    -0.644 OA
HETATM   22  O3  UNL     1     -35.741  56.321 -23.697  1.00  0.00    -0.644 OA
ENDBRANCH  10  20
BRANCH  17  23
HETATM   23  N8  UNL     1     -36.822  59.358 -19.539  1.00  0.00    -0.239 N 
ATOM     24  H8  UNL     1     -37.331  60.005 -18.937  1.00  0.00     0.198 HD
BRANCH  23  25
HETATM   25  N9  UNL     1     -37.317  58.089 -19.839  1.00  0.00    -0.242 N 
ATOM     26  H9  UNL     1     -37.587  57.830 -20.788  1.00  0.00     0.208 HD
BRANCH  25  27
HETATM   27  N10 UNL     1     -37.423  57.181 -18.761  1.00  0.00    -0.330 N 
ATOM     28 2H10 UNL     1     -36.999  57.390 -17.857  1.00  0.00     0.178 HD
ATOM     29 1H10 UNL     1     -37.941  56.320 -18.940  1.00  0.00     0.178 HD
ENDBRANCH  25  27
ENDBRANCH  23  25
ENDBRANCH  17  23
BRANCH  19  30
HETATM   30  C16 UNL     1     -33.828  57.531 -19.900  1.00  0.00     0.184 C 
BRANCH  30  31
HETATM   31  O5  UNL     1     -34.418  57.504 -18.661  1.00  0.00    -0.400 OA
ATOM     32  H5  UNL     1     -34.320  58.364 -18.270  1.00  0.00     0.209 HD
ENDBRANCH  30  31
ENDBRANCH  19  30
ENDBRANCH   8   9
ENDBRANCH   5   8
BRANCH   4  33
HETATM   33  C7  UNL     1     -32.280  54.614 -23.337  1.00  0.00     0.282 C 
HETATM   34  N5  UNL     1     -32.016  53.788 -22.181  1.00  0.00    -0.056 NA
HETATM   35  O1  UNL     1     -33.281  54.339 -23.953  1.00  0.00    -0.269 OA
ENDBRANCH   4  33
BRANCH   6  36
HETATM   36  C18 UNL     1     -31.217  58.853 -24.757  1.00  0.00     0.228 C 
HETATM   37  O6  UNL     1     -31.630  58.327 -25.842  1.00  0.00    -0.273 OA
HETATM   38  N11 UNL     1     -31.512  60.207 -24.490  1.00  0.00    -0.360 N 
HETATM   39  C19 UNL     1     -32.256  61.011 -25.426  1.00  0.00     0.152 C 
HETATM   40  C20 UNL     1     -31.092  60.834 -23.259  1.00  0.00     0.152 C 
ENDBRANCH   6  36
BRANCH   1  41
HETATM   41  C4  UNL     1     -28.244  55.493 -25.810  1.00  0.00     0.135 C 
BRANCH  41  42
HETATM   42  S2  UNL     1     -28.973  54.256 -26.910  1.00  0.00    -0.077 SA
BRANCH  42  43
HETATM   43  C3  UNL     1     -29.587  54.943 -28.426  1.00  0.00     0.227 A 
HETATM   44  N2  UNL     1     -28.862  55.353 -29.469  1.00  0.00    -0.170 N 
HETATM   45  N1  UNL     1     -29.745  55.795 -30.382  1.00  0.00    -0.250 N 
HETATM   46  C2  UNL     1     -30.996  55.660 -29.909  1.00  0.00     0.205 A 
ATOM     47  H1  UNL     1     -29.502  56.176 -31.297  1.00  0.00     0.192 HD
HETATM   48  O7  UNL     1     -30.866  55.141 -28.722  1.00  0.00    -0.260 OA
BRANCH  44  49
HETATM   49  N3  UNL     1     -27.480  55.356 -29.650  1.00  0.00    -0.321 N 
ATOM     50  H32 UNL     1     -26.858  54.603 -29.946  1.00  0.00     0.179 HD
ATOM     51  H31 UNL     1     -26.883  56.169 -29.497  1.00  0.00     0.179 HD
ENDBRANCH  44  49
BRANCH  46  52
HETATM   52  S1  UNL     1     -32.535  56.091 -30.712  1.00  0.00    -0.089 SA
HETATM   53  C1  UNL     1     -33.271  54.607 -31.451  1.00  0.00     0.099 C 
ENDBRANCH  46  52
ENDBRANCH  42  43
ENDBRANCH  41  42
ENDBRANCH   1  41
TORSDOF 15
ENDMDL
