MODEL 1
REMARK VINA RESULT: -7.639718745      0.000      0.000
REMARK  9 active torsions:
REMARK  status: ('A' for Active; 'I' for Inactive)
REMARK    1  A    between atoms: S1_2  and  C2_3 
REMARK    2  A    between atoms: C3_5  and  C4_6 
REMARK    3  A    between atoms: C5_10  and  O2_11 
REMARK    4  A    between atoms: O2_11  and  C6_12 
REMARK    5  A    between atoms: C7_14  and  O4_15 
REMARK    6  A    between atoms: C8_17  and  O5_18 
REMARK    7  A    between atoms: C9_20  and  O6_21 
REMARK    8  A    between atoms: C11_25  and  O8_26 
REMARK    9  A    between atoms: C12_28  and  O9_29 
ROOT
HETATM    1  C4  UNL     1       9.277  -3.316  -4.531  1.00  0.00     0.359 C 
HETATM    2  N1  UNL     1       8.804  -3.776  -3.238  1.00  0.00     0.004 N 
ATOM      3  H11 UNL     1       8.029  -4.430  -3.130  1.00  0.00     0.286 HD
ATOM      4  H12 UNL     1       8.305  -3.175  -2.583  1.00  0.00     0.286 HD
HETATM    5  C5  UNL     1      10.192  -4.159  -3.062  1.00  0.00     0.476 C 
HETATM    6  O7  UNL     1      10.266  -4.306  -4.445  1.00  0.00    -0.302 OA
ENDROOT
BRANCH   1   7
HETATM    7  C3  UNL     1       8.241  -3.549  -5.582  1.00  0.00     0.182 C 
HETATM    8  O1  UNL     1       8.681  -4.091  -6.747  1.00  0.00    -0.363 OA
HETATM    9  C2  UNL     1       7.986  -3.743  -7.878  1.00  0.00     0.214 C 
HETATM   10  C12 UNL     1       6.556  -3.396  -7.697  1.00  0.00     0.185 C 
HETATM   11  C11 UNL     1       6.203  -2.612  -6.483  1.00  0.00     0.152 C 
HETATM   12  C10 UNL     1       7.498  -2.230  -5.784  1.00  0.00     0.071 C 
BRANCH   9  13
HETATM   13  S1  UNL     1       8.022  -5.222  -8.971  1.00  0.00    -0.139 SA
HETATM   14  C1  UNL     1       8.753  -4.810 -10.559  1.00  0.00     0.092 C 
ENDBRANCH   9  13
BRANCH  10  15
HETATM   15  O9  UNL     1       5.749  -4.549  -7.796  1.00  0.00    -0.390 OA
ATOM     16  H9  UNL     1       4.876  -4.376  -7.464  1.00  0.00     0.210 HD
ENDBRANCH  10  15
BRANCH  11  17
HETATM   17  O8  UNL     1       5.482  -3.375  -5.543  1.00  0.00    -0.393 OA
ATOM     18  H8  UNL     1       4.568  -3.271  -5.782  1.00  0.00     0.210 HD
ENDBRANCH  11  17
ENDBRANCH   1   7
BRANCH   5  19
HETATM   19  O2  UNL     1      10.935  -3.082  -2.599  1.00  0.00    -0.305 OA
BRANCH  19  20
HETATM   20  C6  UNL     1      11.978  -3.558  -1.812  1.00  0.00     0.299 C 
HETATM   21  O3  UNL     1      12.037  -4.960  -1.822  1.00  0.00    -0.326 OA
HETATM   22  C7  UNL     1      13.301  -5.220  -1.261  1.00  0.00     0.291 C 
HETATM   23  C8  UNL     1      14.233  -4.252  -1.974  1.00  0.00     0.206 C 
HETATM   24  C9  UNL     1      13.274  -3.213  -2.512  1.00  0.00     0.207 C 
BRANCH  22  25
HETATM   25  O4  UNL     1      13.690  -6.541  -1.460  1.00  0.00    -0.368 OA
ATOM     26  H4  UNL     1      13.914  -6.969  -0.641  1.00  0.00     0.212 HD
ENDBRANCH  22  25
BRANCH  23  27
HETATM   27  O5  UNL     1      14.825  -4.975  -3.012  1.00  0.00    -0.388 OA
ATOM     28  H5  UNL     1      14.682  -4.468  -3.803  1.00  0.00     0.210 HD
ENDBRANCH  23  27
BRANCH  24  29
HETATM   29  O6  UNL     1      13.148  -3.416  -3.871  1.00  0.00    -0.388 OA
ATOM     30  H6  UNL     1      13.993  -3.629  -4.249  1.00  0.00     0.210 HD
ENDBRANCH  24  29
ENDBRANCH  19  20
ENDBRANCH   5  19
TORSDOF 9
ENDMDL
MODEL 2
REMARK VINA RESULT: -7.363463454      1.854      2.311
REMARK  9 active torsions:
REMARK  status: ('A' for Active; 'I' for Inactive)
REMARK    1  A    between atoms: S1_2  and  C2_3 
REMARK    2  A    between atoms: C3_5  and  C4_6 
REMARK    3  A    between atoms: C5_10  and  O2_11 
REMARK    4  A    between atoms: O2_11  and  C6_12 
REMARK    5  A    between atoms: C7_14  and  O4_15 
REMARK    6  A    between atoms: C8_17  and  O5_18 
REMARK    7  A    between atoms: C9_20  and  O6_21 
REMARK    8  A    between atoms: C11_25  and  O8_26 
REMARK    9  A    between atoms: C12_28  and  O9_29 
ROOT
HETATM    1  C4  UNL     1      10.449  -3.304  -4.685  1.00  0.00     0.359 C 
HETATM    2  N1  UNL     1      11.568  -3.874  -5.411  1.00  0.00     0.004 N 
ATOM      3  H11 UNL     1      11.560  -4.018  -6.421  1.00  0.00     0.286 HD
ATOM      4  H12 UNL     1      11.838  -4.854  -5.337  1.00  0.00     0.286 HD
HETATM    5  C5  UNL     1      12.305  -2.800  -4.772  1.00  0.00     0.476 C 
HETATM    6  O7  UNL     1      11.117  -2.073  -4.757  1.00  0.00    -0.302 OA
ENDROOT
BRANCH   1   7
HETATM    7  C3  UNL     1       9.197  -3.391  -5.496  1.00  0.00     0.182 C 
HETATM    8  O1  UNL     1       9.351  -3.746  -6.799  1.00  0.00    -0.363 OA
HETATM    9  C2  UNL     1       8.425  -3.241  -7.677  1.00  0.00     0.214 C 
HETATM   10  C12 UNL     1       7.081  -2.946  -7.127  1.00  0.00     0.185 C 
HETATM   11  C11 UNL     1       7.028  -2.358  -5.761  1.00  0.00     0.152 C 
HETATM   12  C10 UNL     1       8.456  -2.068  -5.325  1.00  0.00     0.071 C 
BRANCH   9  13
HETATM   13  S1  UNL     1       8.183  -4.538  -8.959  1.00  0.00    -0.139 SA
HETATM   14  C1  UNL     1       8.965  -4.049 -10.501  1.00  0.00     0.092 C 
ENDBRANCH   9  13
BRANCH  10  15
HETATM   15  O9  UNL     1       6.249  -4.081  -7.211  1.00  0.00    -0.390 OA
ATOM     16  H9  UNL     1       6.092  -4.316  -8.118  1.00  0.00     0.210 HD
ENDBRANCH  10  15
BRANCH  11  17
HETATM   17  O8  UNL     1       6.523  -3.265  -4.807  1.00  0.00    -0.393 OA
ATOM     18  H8  UNL     1       5.973  -3.865  -5.297  1.00  0.00     0.210 HD
ENDBRANCH  11  17
ENDBRANCH   1   7
BRANCH   5  19
HETATM   19  O2  UNL     1      12.712  -3.183  -3.502  1.00  0.00    -0.305 OA
BRANCH  19  20
HETATM   20  C6  UNL     1      13.954  -2.616  -3.236  1.00  0.00     0.299 C 
HETATM   21  O3  UNL     1      14.060  -2.204  -1.899  1.00  0.00    -0.326 OA
HETATM   22  C7  UNL     1      15.440  -1.971  -1.756  1.00  0.00     0.291 C 
HETATM   23  C8  UNL     1      16.093  -3.184  -2.403  1.00  0.00     0.206 C 
HETATM   24  C9  UNL     1      14.981  -3.724  -3.275  1.00  0.00     0.207 C 
BRANCH  22  25
HETATM   25  O4  UNL     1      15.806  -1.849  -0.419  1.00  0.00    -0.368 OA
ATOM     26  H4  UNL     1      16.321  -1.066  -0.265  1.00  0.00     0.212 HD
ENDBRANCH  22  25
BRANCH  23  27
HETATM   27  O5  UNL     1      16.390  -4.066  -1.363  1.00  0.00    -0.388 OA
ATOM     28  H5  UNL     1      16.856  -4.794  -1.758  1.00  0.00     0.210 HD
ENDBRANCH  23  27
BRANCH  24  29
HETATM   29  O6  UNL     1      14.480  -4.858  -2.669  1.00  0.00    -0.388 OA
ATOM     30  H6  UNL     1      14.984  -5.619  -2.933  1.00  0.00     0.210 HD
ENDBRANCH  24  29
ENDBRANCH  19  20
ENDBRANCH   5  19
TORSDOF 9
ENDMDL
MODEL 3
REMARK VINA RESULT: -7.322750884      3.553      8.272
REMARK  9 active torsions:
REMARK  status: ('A' for Active; 'I' for Inactive)
REMARK    1  A    between atoms: S1_2  and  C2_3 
REMARK    2  A    between atoms: C3_5  and  C4_6 
REMARK    3  A    between atoms: C5_10  and  O2_11 
REMARK    4  A    between atoms: O2_11  and  C6_12 
REMARK    5  A    between atoms: C7_14  and  O4_15 
REMARK    6  A    between atoms: C8_17  and  O5_18 
REMARK    7  A    between atoms: C9_20  and  O6_21 
REMARK    8  A    between atoms: C11_25  and  O8_26 
REMARK    9  A    between atoms: C12_28  and  O9_29 
ROOT
HETATM    1  C4  UNL     1      12.486  -2.381  -4.095  1.00  0.00     0.359 C 
HETATM    2  N1  UNL     1      11.507  -3.412  -3.806  1.00  0.00     0.004 N 
ATOM      3  H11 UNL     1      11.637  -4.112  -3.075  1.00  0.00     0.286 HD
ATOM      4  H12 UNL     1      11.322  -4.194  -4.434  1.00  0.00     0.286 HD
HETATM    5  C5  UNL     1      10.612  -2.280  -3.667  1.00  0.00     0.476 C 
HETATM    6  O7  UNL     1      11.720  -1.524  -3.291  1.00  0.00    -0.302 OA
ENDROOT
BRANCH   1   7
HETATM    7  C3  UNL     1      13.820  -2.749  -3.533  1.00  0.00     0.182 C 
HETATM    8  O1  UNL     1      14.295  -1.948  -2.544  1.00  0.00    -0.363 OA
HETATM    9  C2  UNL     1      15.660  -1.836  -2.460  1.00  0.00     0.214 C 
HETATM   10  C12 UNL     1      16.452  -2.992  -2.943  1.00  0.00     0.185 C 
HETATM   11  C11 UNL     1      15.959  -3.681  -4.166  1.00  0.00     0.152 C 
HETATM   12  C10 UNL     1      14.785  -2.879  -4.708  1.00  0.00     0.071 C 
BRANCH   9  13
HETATM   13  S1  UNL     1      16.045  -1.661  -0.669  1.00  0.00    -0.139 SA
HETATM   14  C1  UNL     1      16.966  -0.148  -0.371  1.00  0.00     0.092 C 
ENDBRANCH   9  13
BRANCH  10  15
HETATM   15  O9  UNL     1      16.662  -3.921  -1.902  1.00  0.00    -0.390 OA
ATOM     16  H9  UNL     1      15.834  -4.234  -1.560  1.00  0.00     0.210 HD
ENDBRANCH  10  15
BRANCH  11  17
HETATM   17  O8  UNL     1      15.439  -4.961  -3.888  1.00  0.00    -0.393 OA
ATOM     18  H8  UNL     1      15.793  -5.528  -4.563  1.00  0.00     0.210 HD
ENDBRANCH  11  17
ENDBRANCH   1   7
BRANCH   5  19
HETATM   19  O2  UNL     1      10.107  -1.908  -4.905  1.00  0.00    -0.305 OA
BRANCH  19  20
HETATM   20  C6  UNL     1       8.746  -1.651  -4.779  1.00  0.00     0.299 C 
HETATM   21  O3  UNL     1       8.199  -1.156  -5.972  1.00  0.00    -0.326 OA
HETATM   22  C7  UNL     1       6.814  -1.269  -5.747  1.00  0.00     0.291 C 
HETATM   23  C8  UNL     1       6.642  -2.662  -5.161  1.00  0.00     0.206 C 
HETATM   24  C9  UNL     1       8.037  -2.982  -4.670  1.00  0.00     0.207 C 
BRANCH  22  25
HETATM   25  O4  UNL     1       6.088  -1.119  -6.924  1.00  0.00    -0.368 OA
ATOM     26  H4  UNL     1       5.702  -1.940  -7.206  1.00  0.00     0.212 HD
ENDBRANCH  22  25
BRANCH  23  27
HETATM   27  O5  UNL     1       6.281  -3.490  -6.225  1.00  0.00    -0.388 OA
ATOM     28  H5  UNL     1       5.937  -4.286  -5.837  1.00  0.00     0.210 HD
ENDBRANCH  23  27
BRANCH  24  29
HETATM   29  O6  UNL     1       8.596  -3.891  -5.546  1.00  0.00    -0.388 OA
ATOM     30  H6  UNL     1       8.583  -4.761  -5.167  1.00  0.00     0.210 HD
ENDBRANCH  24  29
ENDBRANCH  19  20
ENDBRANCH   5  19
TORSDOF 9
ENDMDL
MODEL 4
REMARK VINA RESULT: -7.309801107      3.514      8.156
REMARK  9 active torsions:
REMARK  status: ('A' for Active; 'I' for Inactive)
REMARK    1  A    between atoms: S1_2  and  C2_3 
REMARK    2  A    between atoms: C3_5  and  C4_6 
REMARK    3  A    between atoms: C5_10  and  O2_11 
REMARK    4  A    between atoms: O2_11  and  C6_12 
REMARK    5  A    between atoms: C7_14  and  O4_15 
REMARK    6  A    between atoms: C8_17  and  O5_18 
REMARK    7  A    between atoms: C9_20  and  O6_21 
REMARK    8  A    between atoms: C11_25  and  O8_26 
REMARK    9  A    between atoms: C12_28  and  O9_29 
ROOT
HETATM    1  C4  UNL     1      13.091  -2.538  -3.439  1.00  0.00     0.359 C 
HETATM    2  N1  UNL     1      12.229  -2.833  -2.310  1.00  0.00     0.004 N 
ATOM      3  H11 UNL     1      12.501  -2.661  -1.342  1.00  0.00     0.286 HD
ATOM      4  H12 UNL     1      12.009  -3.783  -2.012  1.00  0.00     0.286 HD
HETATM    5  C5  UNL     1      11.291  -1.993  -3.029  1.00  0.00     0.476 C 
HETATM    6  O7  UNL     1      12.390  -1.330  -3.571  1.00  0.00    -0.302 OA
ENDROOT
BRANCH   1   7
HETATM    7  C3  UNL     1      14.510  -2.398  -2.994  1.00  0.00     0.182 C 
HETATM    8  O1  UNL     1      15.460  -2.762  -3.894  1.00  0.00    -0.363 OA
HETATM    9  C2  UNL     1      16.632  -3.250  -3.373  1.00  0.00     0.214 C 
HETATM   10  C12 UNL     1      17.014  -2.762  -2.027  1.00  0.00     0.185 C 
HETATM   11  C11 UNL     1      15.916  -2.594  -1.037  1.00  0.00     0.152 C 
HETATM   12  C10 UNL     1      14.640  -3.134  -1.663  1.00  0.00     0.071 C 
BRANCH   9  13
HETATM   13  S1  UNL     1      17.963  -2.698  -4.517  1.00  0.00    -0.139 SA
HETATM   14  C1  UNL     1      17.331  -1.469  -5.666  1.00  0.00     0.092 C 
ENDBRANCH   9  13
BRANCH  10  15
HETATM   15  O9  UNL     1      17.779  -1.582  -2.125  1.00  0.00    -0.390 OA
ATOM     16  H9  UNL     1      18.035  -1.276  -1.263  1.00  0.00     0.210 HD
ENDBRANCH  10  15
BRANCH  11  17
HETATM   17  O8  UNL     1      15.650  -1.238  -0.758  1.00  0.00    -0.393 OA
ATOM     18  H8  UNL     1      16.449  -0.899  -0.371  1.00  0.00     0.210 HD
ENDBRANCH  11  17
ENDBRANCH   1   7
BRANCH   5  19
HETATM   19  O2  UNL     1      10.599  -2.738  -3.973  1.00  0.00    -0.305 OA
BRANCH  19  20
HETATM   20  C6  UNL     1       9.419  -2.075  -4.295  1.00  0.00     0.299 C 
HETATM   21  O3  UNL     1       9.425  -1.622  -5.623  1.00  0.00    -0.326 OA
HETATM   22  C7  UNL     1       8.076  -1.286  -5.841  1.00  0.00     0.291 C 
HETATM   23  C8  UNL     1       7.300  -2.464  -5.270  1.00  0.00     0.206 C 
HETATM   24  C9  UNL     1       8.315  -3.106  -4.350  1.00  0.00     0.207 C 
BRANCH  22  25
HETATM   25  O4  UNL     1       7.803  -1.104  -7.193  1.00  0.00    -0.368 OA
ATOM     26  H4  UNL     1       7.740  -0.184  -7.418  1.00  0.00     0.212 HD
ENDBRANCH  22  25
BRANCH  23  27
HETATM   27  O5  UNL     1       7.005  -3.296  -6.351  1.00  0.00    -0.388 OA
ATOM     28  H5  UNL     1       6.219  -2.943  -6.751  1.00  0.00     0.210 HD
ENDBRANCH  23  27
BRANCH  24  29
HETATM   29  O6  UNL     1       8.770  -4.258  -4.959  1.00  0.00    -0.388 OA
ATOM     30  H6  UNL     1       8.204  -4.490  -5.685  1.00  0.00     0.210 HD
ENDBRANCH  24  29
ENDBRANCH  19  20
ENDBRANCH   5  19
TORSDOF 9
ENDMDL
MODEL 5
REMARK VINA RESULT: -7.268567923      3.291      8.063
REMARK  9 active torsions:
REMARK  status: ('A' for Active; 'I' for Inactive)
REMARK    1  A    between atoms: S1_2  and  C2_3 
REMARK    2  A    between atoms: C3_5  and  C4_6 
REMARK    3  A    between atoms: C5_10  and  O2_11 
REMARK    4  A    between atoms: O2_11  and  C6_12 
REMARK    5  A    between atoms: C7_14  and  O4_15 
REMARK    6  A    between atoms: C8_17  and  O5_18 
REMARK    7  A    between atoms: C9_20  and  O6_21 
REMARK    8  A    between atoms: C11_25  and  O8_26 
REMARK    9  A    between atoms: C12_28  and  O9_29 
ROOT
HETATM    1  C4  UNL     1      12.174  -2.505  -3.452  1.00  0.00     0.359 C 
HETATM    2  N1  UNL     1      11.755  -3.436  -4.483  1.00  0.00     0.004 N 
ATOM      3  H11 UNL     1      12.206  -4.339  -4.633  1.00  0.00     0.286 HD
ATOM      4  H12 UNL     1      11.904  -3.268  -5.478  1.00  0.00     0.286 HD
HETATM    5  C5  UNL     1      10.462  -3.295  -3.842  1.00  0.00     0.476 C 
HETATM    6  O7  UNL     1      11.144  -3.028  -2.657  1.00  0.00    -0.302 OA
ENDROOT
BRANCH   1   7
HETATM    7  C3  UNL     1      13.556  -2.824  -2.985  1.00  0.00     0.182 C 
HETATM    8  O1  UNL     1      14.152  -1.894  -2.195  1.00  0.00    -0.363 OA
HETATM    9  C2  UNL     1      15.520  -1.816  -2.278  1.00  0.00     0.214 C 
HETATM   10  C12 UNL     1      16.234  -3.059  -2.653  1.00  0.00     0.185 C 
HETATM   11  C11 UNL     1      15.596  -3.914  -3.690  1.00  0.00     0.152 C 
HETATM   12  C10 UNL     1      14.381  -3.169  -4.223  1.00  0.00     0.071 C 
BRANCH   9  13
HETATM   13  S1  UNL     1      16.105  -1.375  -0.591  1.00  0.00    -0.139 SA
HETATM   14  C1  UNL     1      17.153   0.083  -0.652  1.00  0.00     0.092 C 
ENDBRANCH   9  13
BRANCH  10  15
HETATM   15  O9  UNL     1      16.545  -3.819  -1.506  1.00  0.00    -0.390 OA
ATOM     16  H9  UNL     1      17.183  -3.367  -0.968  1.00  0.00     0.210 HD
ENDBRANCH  10  15
BRANCH  11  17
HETATM   17  O8  UNL     1      15.091  -5.117  -3.156  1.00  0.00    -0.393 OA
ATOM     18  H8  UNL     1      15.788  -5.462  -2.610  1.00  0.00     0.210 HD
ENDBRANCH  11  17
ENDBRANCH   1   7
BRANCH   5  19
HETATM   19  O2  UNL     1       9.796  -2.182  -4.336  1.00  0.00    -0.305 OA
BRANCH  19  20
HETATM   20  C6  UNL     1       9.443  -2.419  -5.660  1.00  0.00     0.299 C 
HETATM   21  O3  UNL     1       9.320  -3.790  -5.927  1.00  0.00    -0.326 OA
HETATM   22  C7  UNL     1       8.664  -3.806  -7.172  1.00  0.00     0.291 C 
HETATM   23  C8  UNL     1       7.541  -2.792  -7.016  1.00  0.00     0.206 C 
HETATM   24  C9  UNL     1       8.012  -1.964  -5.840  1.00  0.00     0.207 C 
BRANCH  22  25
HETATM   25  O4  UNL     1       8.169  -5.070  -7.478  1.00  0.00    -0.368 OA
ATOM     26  H4  UNL     1       8.742  -5.758  -7.161  1.00  0.00     0.212 HD
ENDBRANCH  22  25
BRANCH  23  27
HETATM   27  O5  UNL     1       6.399  -3.524  -6.689  1.00  0.00    -0.388 OA
ATOM     28  H5  UNL     1       5.721  -3.241  -7.293  1.00  0.00     0.210 HD
ENDBRANCH  23  27
BRANCH  24  29
HETATM   29  O6  UNL     1       7.258  -2.322  -4.741  1.00  0.00    -0.388 OA
ATOM     30  H6  UNL     1       6.584  -2.940  -4.994  1.00  0.00     0.210 HD
ENDBRANCH  24  29
ENDBRANCH  19  20
ENDBRANCH   5  19
TORSDOF 9
ENDMDL
