MODEL 1
REMARK VINA RESULT: -5.027120779      0.000      0.000
REMARK  3 active torsions:
REMARK  status: ('A' for Active; 'I' for Inactive)
REMARK    1  A    between atoms: N1_1  and  C1_4 
REMARK    2  A    between atoms: N6_17  and  C5_18 
REMARK    3  A    between atoms: C7_23  and  N8_24 
ROOT
HETATM    1  C1  UNL     1     -62.663 -41.257  51.270  1.00  0.00     0.135 A 
HETATM    2  N2  UNL     1     -62.706 -41.346  49.921  1.00  0.00    -0.293 N 
ATOM      3  H2  UNL     1     -62.432 -40.540  49.360  1.00  0.00     0.172 HD
HETATM    4  C2  UNL     1     -63.096 -42.461  49.311  1.00  0.00     0.327 A 
HETATM    5  O1  UNL     1     -63.154 -42.598  48.063  1.00  0.00    -0.247 OA
HETATM    6  N3  UNL     1     -63.456 -43.523  50.053  1.00  0.00    -0.291 N 
ATOM      7  H3  UNL     1     -63.754 -44.374  49.577  1.00  0.00     0.172 HD
HETATM    8  C3  UNL     1     -63.439 -43.508  51.416  1.00  0.00     0.162 A 
HETATM    9  C4  UNL     1     -63.031 -42.345  52.035  1.00  0.00     0.139 A 
HETATM   10  N4  UNL     1     -63.114 -42.616  53.348  1.00  0.00    -0.279 N 
ATOM     11  H4  UNL     1     -62.882 -41.966  54.099  1.00  0.00     0.189 HD
HETATM   12  N5  UNL     1     -63.539 -43.853  53.518  1.00  0.00    -0.236 N 
ATOM     13  H5  UNL     1     -63.687 -44.305  54.420  1.00  0.00     0.208 HD
HETATM   14  N6  UNL     1     -63.741 -44.408  52.359  1.00  0.00    -0.233 N 
ENDROOT
BRANCH  14  15
HETATM   15  C5  UNL     1     -64.204 -45.742  52.038  1.00  0.00     0.251 C 
HETATM   16  N7  UNL     1     -64.646 -46.537  53.146  1.00  0.00    -0.334 N 
HETATM   17  C6  UNL     1     -64.119 -47.667  52.483  1.00  0.00     0.254 C 
ATOM     18  H7  UNL     1     -65.129 -46.363  54.027  1.00  0.00     0.164 HD
HETATM   19  O2  UNL     1     -64.386 -48.877  52.481  1.00  0.00    -0.271 OA
HETATM   20  C7  UNL     1     -63.146 -46.775  51.829  1.00  0.00     0.318 C 
BRANCH  20  21
HETATM   21  N8  UNL     1     -61.952 -46.654  52.621  1.00  0.00    -0.063 N 
ATOM     22  H83 UNL     1     -61.536 -45.734  52.472  1.00  0.00     0.275 HD
ATOM     23  H82 UNL     1     -62.202 -46.589  53.607  1.00  0.00     0.275 HD
ATOM     24  H81 UNL     1     -61.239 -47.373  52.497  1.00  0.00     0.275 HD
ENDBRANCH  20  21
ENDBRANCH  14  15
BRANCH   1  25
HETATM   25  N1  UNL     1     -62.281 -40.167  51.854  1.00  0.00    -0.383 N 
ATOM     26  H12 UNL     1     -62.217 -39.304  51.315  1.00  0.00     0.157 HD
ATOM     27  H11 UNL     1     -62.044 -40.159  52.845  1.00  0.00     0.157 HD
ENDBRANCH   1  25
TORSDOF 3
ENDMDL
MODEL 2
REMARK VINA RESULT: -4.922200342      3.317      5.044
REMARK  3 active torsions:
REMARK  status: ('A' for Active; 'I' for Inactive)
REMARK    1  A    between atoms: N1_1  and  C1_4 
REMARK    2  A    between atoms: N6_17  and  C5_18 
REMARK    3  A    between atoms: C7_23  and  N8_24 
ROOT
HETATM    1  C1  UNL     1     -63.153 -42.324  49.976  1.00  0.00     0.135 A 
HETATM    2  N2  UNL     1     -63.464 -43.618  50.218  1.00  0.00    -0.293 N 
ATOM      3  H2  UNL     1     -63.747 -44.216  49.441  1.00  0.00     0.172 HD
HETATM    4  C2  UNL     1     -63.409 -44.128  51.444  1.00  0.00     0.327 A 
HETATM    5  O1  UNL     1     -63.686 -45.321  51.724  1.00  0.00    -0.247 OA
HETATM    6  N3  UNL     1     -63.035 -43.339  52.466  1.00  0.00    -0.291 N 
ATOM      7  H3  UNL     1     -62.995 -43.738  53.404  1.00  0.00     0.172 HD
HETATM    8  C3  UNL     1     -62.707 -42.026  52.299  1.00  0.00     0.162 A 
HETATM    9  C4  UNL     1     -62.769 -41.511  51.022  1.00  0.00     0.139 A 
HETATM   10  N4  UNL     1     -62.401 -40.226  51.159  1.00  0.00    -0.279 N 
ATOM     11  H4  UNL     1     -62.337 -39.548  50.400  1.00  0.00     0.189 HD
HETATM   12  N5  UNL     1     -62.134 -39.976  52.426  1.00  0.00    -0.236 N 
ATOM     13  H5  UNL     1     -61.833 -39.074  52.797  1.00  0.00     0.208 HD
HETATM   14  N6  UNL     1     -62.314 -41.053  53.131  1.00  0.00    -0.233 N 
ENDROOT
BRANCH  14  15
HETATM   15  C5  UNL     1     -62.148 -41.270  54.554  1.00  0.00     0.251 C 
HETATM   16  N7  UNL     1     -61.799 -40.115  55.328  1.00  0.00    -0.334 N 
HETATM   17  C6  UNL     1     -61.017 -40.959  56.146  1.00  0.00     0.254 C 
ATOM     18  H7  UNL     1     -62.020 -39.119  55.300  1.00  0.00     0.164 HD
HETATM   19  O2  UNL     1     -60.655 -40.929  57.331  1.00  0.00    -0.271 OA
HETATM   20  C7  UNL     1     -60.840 -41.847  54.985  1.00  0.00     0.318 C 
BRANCH  20  21
HETATM   21  N8  UNL     1     -59.679 -41.470  54.226  1.00  0.00    -0.063 N 
ATOM     22  H83 UNL     1     -59.604 -42.063  53.399  1.00  0.00     0.275 HD
ATOM     23  H82 UNL     1     -59.837 -40.560  53.791  1.00  0.00     0.275 HD
ATOM     24  H81 UNL     1     -58.786 -41.460  54.719  1.00  0.00     0.275 HD
ENDBRANCH  20  21
ENDBRANCH  14  15
BRANCH   1  25
HETATM   25  N1  UNL     1     -63.210 -41.838  48.778  1.00  0.00    -0.383 N 
ATOM     26  H12 UNL     1     -62.364 -41.467  48.346  1.00  0.00     0.157 HD
ATOM     27  H11 UNL     1     -64.087 -41.821  48.259  1.00  0.00     0.157 HD
ENDBRANCH   1  25
TORSDOF 3
ENDMDL
MODEL 3
REMARK VINA RESULT: -4.898511670      2.831      5.647
REMARK  3 active torsions:
REMARK  status: ('A' for Active; 'I' for Inactive)
REMARK    1  A    between atoms: N1_1  and  C1_4 
REMARK    2  A    between atoms: N6_17  and  C5_18 
REMARK    3  A    between atoms: C7_23  and  N8_24 
ROOT
HETATM    1  C1  UNL     1     -63.412 -44.125  51.278  1.00  0.00     0.135 A 
HETATM    2  N2  UNL     1     -63.934 -43.598  50.147  1.00  0.00    -0.293 N 
ATOM      3  H2  UNL     1     -64.381 -44.216  49.469  1.00  0.00     0.172 HD
HETATM    4  C2  UNL     1     -63.880 -42.293  49.900  1.00  0.00     0.327 A 
HETATM    5  O1  UNL     1     -64.349 -41.751  48.867  1.00  0.00    -0.247 OA
HETATM    6  N3  UNL     1     -63.292 -41.480  50.795  1.00  0.00    -0.291 N 
ATOM      7  H3  UNL     1     -63.254 -40.480  50.597  1.00  0.00     0.172 HD
HETATM    8  C3  UNL     1     -62.744 -41.938  51.955  1.00  0.00     0.162 A 
HETATM    9  C4  UNL     1     -62.808 -43.294  52.198  1.00  0.00     0.139 A 
HETATM   10  N4  UNL     1     -62.202 -43.452  53.387  1.00  0.00    -0.279 N 
ATOM     11  H4  UNL     1     -62.074 -44.342  53.869  1.00  0.00     0.189 HD
HETATM   12  N5  UNL     1     -61.798 -42.279  53.837  1.00  0.00    -0.236 N 
ATOM     13  H5  UNL     1     -61.310 -42.124  54.719  1.00  0.00     0.208 HD
HETATM   14  N6  UNL     1     -62.117 -41.352  52.983  1.00  0.00    -0.233 N 
ENDROOT
BRANCH  14  15
HETATM   15  C5  UNL     1     -61.887 -39.923  53.037  1.00  0.00     0.251 C 
HETATM   16  N7  UNL     1     -61.285 -39.429  54.240  1.00  0.00    -0.334 N 
HETATM   17  C6  UNL     1     -62.069 -38.263  54.097  1.00  0.00     0.254 C 
ATOM     18  H7  UNL     1     -60.592 -39.770  54.907  1.00  0.00     0.164 HD
HETATM   19  O2  UNL     1     -61.939 -37.080  54.442  1.00  0.00    -0.271 OA
HETATM   20  C7  UNL     1     -63.068 -39.077  53.382  1.00  0.00     0.318 C 
BRANCH  20  21
HETATM   21  N8  UNL     1     -64.024 -39.635  54.300  1.00  0.00    -0.063 N 
ATOM     22  H83 UNL     1     -64.933 -39.197  54.153  1.00  0.00     0.275 HD
ATOM     23  H82 UNL     1     -64.232 -40.597  54.031  1.00  0.00     0.275 HD
ATOM     24  H81 UNL     1     -63.787 -39.603  55.291  1.00  0.00     0.275 HD
ENDBRANCH  20  21
ENDBRANCH  14  15
BRANCH   1  25
HETATM   25  N1  UNL     1     -63.471 -45.397  51.509  1.00  0.00    -0.383 N 
ATOM     26  H12 UNL     1     -64.256 -45.776  52.038  1.00  0.00     0.157 HD
ATOM     27  H11 UNL     1     -62.745 -46.027  51.169  1.00  0.00     0.157 HD
ENDBRANCH   1  25
TORSDOF 3
ENDMDL
MODEL 4
REMARK VINA RESULT: -4.841076837      2.068      5.454
REMARK  3 active torsions:
REMARK  status: ('A' for Active; 'I' for Inactive)
REMARK    1  A    between atoms: N1_1  and  C1_4 
REMARK    2  A    between atoms: N6_17  and  C5_18 
REMARK    3  A    between atoms: C7_23  and  N8_24 
ROOT
HETATM    1  C1  UNL     1     -65.460 -46.702  51.454  1.00  0.00     0.135 A 
HETATM    2  N2  UNL     1     -64.294 -47.386  51.487  1.00  0.00    -0.293 N 
ATOM      3  H2  UNL     1     -64.305 -48.396  51.350  1.00  0.00     0.172 HD
HETATM    4  C2  UNL     1     -63.134 -46.771  51.693  1.00  0.00     0.327 A 
HETATM    5  O1  UNL     1     -62.023 -47.357  51.733  1.00  0.00    -0.247 OA
HETATM    6  N3  UNL     1     -63.120 -45.438  51.872  1.00  0.00    -0.291 N 
ATOM      7  H3  UNL     1     -62.226 -44.975  52.029  1.00  0.00     0.172 HD
HETATM    8  C3  UNL     1     -64.255 -44.683  51.852  1.00  0.00     0.162 A 
HETATM    9  C4  UNL     1     -65.451 -45.334  51.637  1.00  0.00     0.139 A 
HETATM   10  N4  UNL     1     -66.375 -44.360  51.669  1.00  0.00    -0.279 N 
ATOM     11  H4  UNL     1     -67.378 -44.496  51.544  1.00  0.00     0.189 HD
HETATM   12  N5  UNL     1     -65.787 -43.199  51.887  1.00  0.00    -0.236 N 
ATOM     13  H5  UNL     1     -66.265 -42.301  51.956  1.00  0.00     0.208 HD
HETATM   14  N6  UNL     1     -64.503 -43.376  52.000  1.00  0.00    -0.233 N 
ENDROOT
BRANCH  14  15
HETATM   15  C5  UNL     1     -63.452 -42.409  52.241  1.00  0.00     0.251 C 
HETATM   16  N7  UNL     1     -63.878 -41.053  52.428  1.00  0.00    -0.334 N 
HETATM   17  C6  UNL     1     -62.698 -40.642  51.767  1.00  0.00     0.254 C 
ATOM     18  H7  UNL     1     -64.680 -40.588  52.852  1.00  0.00     0.164 HD
HETATM   19  O2  UNL     1     -61.985 -39.630  51.811  1.00  0.00    -0.271 OA
HETATM   20  C7  UNL     1     -62.716 -41.922  51.037  1.00  0.00     0.318 C 
BRANCH  20  21
HETATM   21  N8  UNL     1     -63.467 -41.803  49.817  1.00  0.00    -0.063 N 
ATOM     22  H83 UNL     1     -64.042 -42.635  49.688  1.00  0.00     0.275 HD
ATOM     23  H82 UNL     1     -64.190 -41.091  49.930  1.00  0.00     0.275 HD
ATOM     24  H81 UNL     1     -62.940 -41.619  48.964  1.00  0.00     0.275 HD
ENDBRANCH  20  21
ENDBRANCH  14  15
BRANCH   1  25
HETATM   25  N1  UNL     1     -66.584 -47.310  51.252  1.00  0.00    -0.383 N 
ATOM     26  H12 UNL     1     -67.153 -47.592  52.050  1.00  0.00     0.157 HD
ATOM     27  H11 UNL     1     -66.910 -47.510  50.307  1.00  0.00     0.157 HD
ENDBRANCH   1  25
TORSDOF 3
ENDMDL
MODEL 5
REMARK VINA RESULT: -4.699163594      1.195      1.207
REMARK  3 active torsions:
REMARK  status: ('A' for Active; 'I' for Inactive)
REMARK    1  A    between atoms: N1_1  and  C1_4 
REMARK    2  A    between atoms: N6_17  and  C5_18 
REMARK    3  A    between atoms: C7_23  and  N8_24 
ROOT
HETATM    1  C1  UNL     1     -62.444 -41.699  51.488  1.00  0.00     0.135 A 
HETATM    2  N2  UNL     1     -62.722 -41.474  50.184  1.00  0.00    -0.293 N 
ATOM      3  H2  UNL     1     -62.255 -40.707  49.700  1.00  0.00     0.172 HD
HETATM    4  C2  UNL     1     -63.589 -42.230  49.518  1.00  0.00     0.327 A 
HETATM    5  O1  UNL     1     -63.884 -42.065  48.308  1.00  0.00    -0.247 OA
HETATM    6  N3  UNL     1     -64.204 -43.241  50.157  1.00  0.00    -0.291 N 
ATOM      7  H3  UNL     1     -64.867 -43.816  49.639  1.00  0.00     0.172 HD
HETATM    8  C3  UNL     1     -63.974 -43.528  51.470  1.00  0.00     0.162 A 
HETATM    9  C4  UNL     1     -63.072 -42.736  52.147  1.00  0.00     0.139 A 
HETATM   10  N4  UNL     1     -63.049 -43.241  53.392  1.00  0.00    -0.279 N 
ATOM     11  H4  UNL     1     -62.479 -42.886  54.161  1.00  0.00     0.189 HD
HETATM   12  N5  UNL     1     -63.876 -44.266  53.469  1.00  0.00    -0.236 N 
ATOM     13  H5  UNL     1     -64.043 -44.825  54.305  1.00  0.00     0.208 HD
HETATM   14  N6  UNL     1     -64.444 -44.454  52.315  1.00  0.00    -0.233 N 
ENDROOT
BRANCH  14  15
HETATM   15  C5  UNL     1     -65.417 -45.449  51.911  1.00  0.00     0.251 C 
HETATM   16  N7  UNL     1     -65.865 -46.341  52.940  1.00  0.00    -0.334 N 
HETATM   17  C6  UNL     1     -65.940 -47.356  51.960  1.00  0.00     0.254 C 
ATOM     18  H7  UNL     1     -66.050 -46.273  53.940  1.00  0.00     0.164 HD
HETATM   19  O2  UNL     1     -66.621 -48.381  51.821  1.00  0.00    -0.271 OA
HETATM   20  C7  UNL     1     -64.876 -46.656  51.219  1.00  0.00     0.318 C 
BRANCH  20  21
HETATM   21  N8  UNL     1     -63.578 -47.118  51.631  1.00  0.00    -0.063 N 
ATOM     22  H83 UNL     1     -62.939 -46.326  51.694  1.00  0.00     0.275 HD
ATOM     23  H82 UNL     1     -63.615 -47.409  52.608  1.00  0.00     0.275 HD
ATOM     24  H81 UNL     1     -63.150 -47.856  51.073  1.00  0.00     0.275 HD
ENDBRANCH  20  21
ENDBRANCH  14  15
BRANCH   1  25
HETATM   25  N1  UNL     1     -61.598 -40.957  52.127  1.00  0.00    -0.383 N 
ATOM     26  H12 UNL     1     -61.363 -40.034  51.762  1.00  0.00     0.157 HD
ATOM     27  H11 UNL     1     -61.162 -41.281  52.990  1.00  0.00     0.157 HD
ENDBRANCH   1  25
TORSDOF 3
ENDMDL
