MODEL 1
REMARK VINA RESULT: -8.227937252      0.000      0.000
REMARK  10 active torsions:
REMARK  status: ('A' for Active; 'I' for Inactive)
REMARK    1  A    between atoms: C5_5  and  N1_6 
REMARK    2  A    between atoms: N1_6  and  C6_7 
REMARK    3  A    between atoms: C6_7  and  C7_8 
REMARK    4  A    between atoms: C6_7  and  N3_16 
REMARK    5  A    between atoms: C7_8  and  N2_9 
REMARK    6  A    between atoms: N3_16  and  C14_18 
REMARK    7  A    between atoms: C14_18  and  C16_20 
REMARK    8  A    between atoms: C16_20  and  N4_21 
REMARK       I    between atoms: C17_23  and  N5_24 
REMARK       I    between atoms: C17_23  and  N7_28 
REMARK    9  A    between atoms: N7_28  and  C19_30 
REMARK   10  A    between atoms: C19_30  and  C20_31 
ROOT
HETATM    1  N4  UNL     1     -23.597  -7.356  14.944  1.00  0.00    -0.224 N 
ATOM      2  H4  UNL     1     -23.697  -8.100  14.253  1.00  0.00     0.177 HD
HETATM    3  C17 UNL     1     -22.468  -6.797  15.111  1.00  0.00     0.683 C 
HETATM    4  N5  UNL     1     -22.326  -5.759  16.076  1.00  0.00    -0.126 N 
ATOM      5  H5  UNL     1     -22.319  -4.778  15.797  1.00  0.00     0.197 HD
HETATM    6  C18 UNL     1     -22.197  -6.131  17.418  1.00  0.00     0.196 C 
HETATM    7  N6  UNL     1     -22.090  -6.458  18.523  1.00  0.00    -0.171 NA
HETATM    8  N7  UNL     1     -21.313  -7.163  14.364  1.00  0.00    -0.223 N 
ATOM      9  H7  UNL     1     -21.387  -7.910  13.673  1.00  0.00     0.177 HD
ENDROOT
BRANCH   1  10
HETATM   10  C16 UNL     1     -24.742  -6.945  15.729  1.00  0.00     0.163 C 
BRANCH  10  11
HETATM   11  C14 UNL     1     -25.893  -7.836  15.300  1.00  0.00     0.098 C 
HETATM   12  C15 UNL     1     -25.419  -8.909  14.350  1.00  0.00     0.034 C 
BRANCH  11  13
HETATM   13  N3  UNL     1     -26.924  -7.061  14.688  1.00  0.00    -0.362 N 
ATOM     14  H3  UNL     1     -26.698  -6.559  13.829  1.00  0.00     0.162 HD
BRANCH  13  15
HETATM   15  C6  UNL     1     -28.243  -6.944  15.199  1.00  0.00     0.163 C 
BRANCH  15  16
HETATM   16  N1  UNL     1     -29.237  -7.190  14.599  1.00  0.00    -0.428 NA
BRANCH  16  17
HETATM   17  C5  UNL     1     -30.356  -7.413  13.904  1.00  0.00     0.165 C 
HETATM   18  C4  UNL     1     -31.639  -7.615  14.717  1.00  0.00     0.040 C 
HETATM   19  C3  UNL     1     -32.619  -8.419  13.891  1.00  0.00     0.007 C 
HETATM   20  C2  UNL     1     -32.714  -7.935  12.477  1.00  0.00    -0.019 C 
HETATM   21  C1  UNL     1     -32.113  -8.890  11.469  1.00  0.00     0.010 C 
HETATM   22  C25 UNL     1     -32.149  -6.558  12.362  1.00  0.00     0.007 C 
HETATM   23  C24 UNL     1     -30.719  -6.424  12.802  1.00  0.00     0.040 C 
ENDBRANCH  16  17
ENDBRANCH  15  16
BRANCH  15  24
HETATM   24  C7  UNL     1     -28.334  -6.456  16.635  1.00  0.00     0.208 C 
BRANCH  24  25
HETATM   25  N2  UNL     1     -28.651  -5.069  16.694  1.00  0.00    -0.405 N 
HETATM   26  C8  UNL     1     -27.709  -4.202  16.070  1.00  0.00     0.117 C 
HETATM   27  C9  UNL     1     -27.892  -2.774  16.462  1.00  0.00     0.019 C 
HETATM   28  C10 UNL     1     -28.779  -2.025  15.483  1.00  0.00     0.002 C 
HETATM   29  C11 UNL     1     -30.217  -2.422  15.755  1.00  0.00     0.002 C 
HETATM   30  C12 UNL     1     -30.384  -3.893  15.391  1.00  0.00     0.019 C 
HETATM   31  C13 UNL     1     -30.022  -4.734  16.575  1.00  0.00     0.117 C 
ENDBRANCH  24  25
ENDBRANCH  15  24
ENDBRANCH  13  15
ENDBRANCH  11  13
ENDBRANCH  10  11
ENDBRANCH   1  10
BRANCH   8  32
HETATM   32  C19 UNL     1     -20.042  -6.512  14.556  1.00  0.00     0.170 C 
BRANCH  32  33
HETATM   33  C20 UNL     1     -19.074  -7.039  13.538  1.00  0.00     0.139 C 
HETATM   34  C21 UNL     1     -17.659  -6.566  13.793  1.00  0.00     0.035 C 
HETATM   35  C22 UNL     1     -16.885  -7.601  12.966  1.00  0.00     0.029 C 
HETATM   36  C23 UNL     1     -17.729  -8.822  13.239  1.00  0.00     0.168 C 
HETATM   37  O1  UNL     1     -18.985  -8.404  13.575  1.00  0.00    -0.384 OA
ENDBRANCH  32  33
ENDBRANCH   8  32
TORSDOF 10
ENDMDL
MODEL 2
REMARK VINA RESULT: -8.042707273      1.132      3.896
REMARK  10 active torsions:
REMARK  status: ('A' for Active; 'I' for Inactive)
REMARK    1  A    between atoms: C5_5  and  N1_6 
REMARK    2  A    between atoms: N1_6  and  C6_7 
REMARK    3  A    between atoms: C6_7  and  C7_8 
REMARK    4  A    between atoms: C6_7  and  N3_16 
REMARK    5  A    between atoms: C7_8  and  N2_9 
REMARK    6  A    between atoms: N3_16  and  C14_18 
REMARK    7  A    between atoms: C14_18  and  C16_20 
REMARK    8  A    between atoms: C16_20  and  N4_21 
REMARK       I    between atoms: C17_23  and  N5_24 
REMARK       I    between atoms: C17_23  and  N7_28 
REMARK    9  A    between atoms: N7_28  and  C19_30 
REMARK   10  A    between atoms: C19_30  and  C20_31 
ROOT
HETATM    1  N4  UNL     1     -23.535  -7.496  14.888  1.00  0.00    -0.224 N 
ATOM      2  H4  UNL     1     -23.606  -8.255  14.210  1.00  0.00     0.177 HD
HETATM    3  C17 UNL     1     -22.429  -6.892  15.046  1.00  0.00     0.683 C 
HETATM    4  N5  UNL     1     -22.327  -5.833  15.992  1.00  0.00    -0.126 N 
ATOM      5  H5  UNL     1     -22.356  -4.857  15.695  1.00  0.00     0.197 HD
HETATM    6  C18 UNL     1     -22.186  -6.175  17.341  1.00  0.00     0.196 C 
HETATM    7  N6  UNL     1     -22.069  -6.478  18.451  1.00  0.00    -0.171 NA
HETATM    8  N7  UNL     1     -21.259  -7.228  14.307  1.00  0.00    -0.223 N 
ATOM      9  H7  UNL     1     -21.304  -7.990  13.629  1.00  0.00     0.177 HD
ENDROOT
BRANCH   1  10
HETATM   10  C16 UNL     1     -24.696  -7.114  15.664  1.00  0.00     0.163 C 
BRANCH  10  11
HETATM   11  C14 UNL     1     -25.654  -8.290  15.602  1.00  0.00     0.098 C 
HETATM   12  C15 UNL     1     -24.930  -9.554  15.207  1.00  0.00     0.034 C 
BRANCH  11  13
HETATM   13  N3  UNL     1     -26.713  -8.024  14.683  1.00  0.00    -0.362 N 
ATOM     14  H3  UNL     1     -26.529  -8.163  13.689  1.00  0.00     0.162 HD
BRANCH  13  15
HETATM   15  C6  UNL     1     -28.006  -7.579  15.064  1.00  0.00     0.163 C 
BRANCH  15  16
HETATM   16  N1  UNL     1     -28.379  -6.453  15.042  1.00  0.00    -0.428 NA
BRANCH  16  17
HETATM   17  C5  UNL     1     -28.843  -5.201  14.984  1.00  0.00     0.165 C 
HETATM   18  C4  UNL     1     -29.454  -4.757  13.650  1.00  0.00     0.040 C 
HETATM   19  C3  UNL     1     -29.363  -3.250  13.548  1.00  0.00     0.007 C 
HETATM   20  C2  UNL     1     -29.779  -2.562  14.812  1.00  0.00    -0.019 C 
HETATM   21  C1  UNL     1     -28.630  -1.910  15.551  1.00  0.00     0.010 C 
HETATM   22  C25 UNL     1     -30.555  -3.496  15.680  1.00  0.00     0.007 C 
HETATM   23  C24 UNL     1     -29.831  -4.757  16.056  1.00  0.00     0.040 C 
ENDBRANCH  16  17
ENDBRANCH  15  16
BRANCH  15  24
HETATM   24  C7  UNL     1     -28.948  -8.674  15.534  1.00  0.00     0.208 C 
BRANCH  24  25
HETATM   25  N2  UNL     1     -30.308  -8.330  15.294  1.00  0.00    -0.405 N 
HETATM   26  C8  UNL     1     -30.798  -8.654  13.997  1.00  0.00     0.117 C 
HETATM   27  C9  UNL     1     -32.083  -7.967  13.676  1.00  0.00     0.019 C 
HETATM   28  C10 UNL     1     -33.288  -8.826  14.018  1.00  0.00     0.002 C 
HETATM   29  C11 UNL     1     -33.484  -8.780  15.521  1.00  0.00     0.002 C 
HETATM   30  C12 UNL     1     -32.302  -9.481  16.180  1.00  0.00     0.019 C 
HETATM   31  C13 UNL     1     -31.198  -8.491  16.384  1.00  0.00     0.117 C 
ENDBRANCH  24  25
ENDBRANCH  15  24
ENDBRANCH  13  15
ENDBRANCH  11  13
ENDBRANCH  10  11
ENDBRANCH   1  10
BRANCH   8  32
HETATM   32  C19 UNL     1     -20.013  -6.527  14.489  1.00  0.00     0.170 C 
BRANCH  32  33
HETATM   33  C20 UNL     1     -19.017  -7.053  13.498  1.00  0.00     0.139 C 
HETATM   34  C21 UNL     1     -17.608  -6.592  13.801  1.00  0.00     0.035 C 
HETATM   35  C22 UNL     1     -16.815  -7.626  12.991  1.00  0.00     0.029 C 
HETATM   36  C23 UNL     1     -17.676  -8.843  13.227  1.00  0.00     0.168 C 
HETATM   37  O1  UNL     1     -18.939  -8.418  13.526  1.00  0.00    -0.384 OA
ENDBRANCH  32  33
ENDBRANCH   8  32
TORSDOF 10
ENDMDL
MODEL 3
REMARK VINA RESULT: -8.011754714      1.744      4.749
REMARK  10 active torsions:
REMARK  status: ('A' for Active; 'I' for Inactive)
REMARK    1  A    between atoms: C5_5  and  N1_6 
REMARK    2  A    between atoms: N1_6  and  C6_7 
REMARK    3  A    between atoms: C6_7  and  C7_8 
REMARK    4  A    between atoms: C6_7  and  N3_16 
REMARK    5  A    between atoms: C7_8  and  N2_9 
REMARK    6  A    between atoms: N3_16  and  C14_18 
REMARK    7  A    between atoms: C14_18  and  C16_20 
REMARK    8  A    between atoms: C16_20  and  N4_21 
REMARK       I    between atoms: C17_23  and  N5_24 
REMARK       I    between atoms: C17_23  and  N7_28 
REMARK    9  A    between atoms: N7_28  and  C19_30 
REMARK   10  A    between atoms: C19_30  and  C20_31 
ROOT
HETATM    1  N4  UNL     1     -22.731  -5.954  16.674  1.00  0.00    -0.224 N 
ATOM      2  H4  UNL     1     -22.751  -4.934  16.663  1.00  0.00     0.177 HD
HETATM    3  C17 UNL     1     -22.106  -6.583  15.764  1.00  0.00     0.683 C 
HETATM    4  N5  UNL     1     -22.077  -8.006  15.776  1.00  0.00    -0.126 N 
ATOM      5  H5  UNL     1     -21.264  -8.514  16.125  1.00  0.00     0.197 HD
HETATM    6  C18 UNL     1     -23.201  -8.685  15.294  1.00  0.00     0.196 C 
HETATM    7  N6  UNL     1     -24.139  -9.229  14.890  1.00  0.00    -0.171 NA
HETATM    8  N7  UNL     1     -21.416  -5.920  14.709  1.00  0.00    -0.223 N 
ATOM      9  H7  UNL     1     -21.429  -4.900  14.674  1.00  0.00     0.177 HD
ENDROOT
BRANCH   1  10
HETATM   10  C16 UNL     1     -23.416  -6.676  17.726  1.00  0.00     0.163 C 
BRANCH  10  11
HETATM   11  C14 UNL     1     -24.886  -6.321  17.598  1.00  0.00     0.098 C 
HETATM   12  C15 UNL     1     -25.757  -7.516  17.902  1.00  0.00     0.034 C 
BRANCH  11  13
HETATM   13  N3  UNL     1     -25.169  -5.828  16.289  1.00  0.00    -0.362 N 
ATOM     14  H3  UNL     1     -24.423  -5.864  15.593  1.00  0.00     0.162 HD
BRANCH  13  15
HETATM   15  C6  UNL     1     -26.423  -5.293  15.892  1.00  0.00     0.163 C 
BRANCH  15  16
HETATM   16  N1  UNL     1     -27.004  -4.421  16.449  1.00  0.00    -0.428 NA
BRANCH  16  17
HETATM   17  C5  UNL     1     -27.607  -3.416  17.091  1.00  0.00     0.165 C 
HETATM   18  C4  UNL     1     -28.645  -2.619  16.294  1.00  0.00     0.040 C 
HETATM   19  C3  UNL     1     -28.768  -1.237  16.897  1.00  0.00     0.007 C 
HETATM   20  C2  UNL     1     -28.855  -1.267  18.392  1.00  0.00    -0.019 C 
HETATM   21  C1  UNL     1     -27.620  -0.725  19.080  1.00  0.00     0.010 C 
HETATM   22  C25 UNL     1     -29.211  -2.637  18.863  1.00  0.00     0.007 C 
HETATM   23  C24 UNL     1     -28.264  -3.720  18.432  1.00  0.00     0.040 C 
ENDBRANCH  16  17
ENDBRANCH  15  16
BRANCH  15  24
HETATM   24  C7  UNL     1     -27.027  -5.926  14.651  1.00  0.00     0.208 C 
BRANCH  24  25
HETATM   25  N2  UNL     1     -28.449  -5.921  14.704  1.00  0.00    -0.405 N 
HETATM   26  C8  UNL     1     -29.096  -5.246  13.629  1.00  0.00     0.117 C 
HETATM   27  C9  UNL     1     -30.533  -4.961  13.908  1.00  0.00     0.019 C 
HETATM   28  C10 UNL     1     -31.444  -6.053  13.374  1.00  0.00     0.002 C 
HETATM   29  C11 UNL     1     -31.358  -7.237  14.319  1.00  0.00     0.002 C 
HETATM   30  C12 UNL     1     -29.952  -7.819  14.230  1.00  0.00     0.019 C 
HETATM   31  C13 UNL     1     -29.063  -7.099  15.195  1.00  0.00     0.117 C 
ENDBRANCH  24  25
ENDBRANCH  15  24
ENDBRANCH  13  15
ENDBRANCH  11  13
ENDBRANCH  10  11
ENDBRANCH   1  10
BRANCH   8  32
HETATM   32  C19 UNL     1     -20.701  -6.646  13.690  1.00  0.00     0.170 C 
BRANCH  32  33
HETATM   33  C20 UNL     1     -19.302  -6.896  14.172  1.00  0.00     0.139 C 
HETATM   34  C21 UNL     1     -18.509  -7.754  13.210  1.00  0.00     0.035 C 
HETATM   35  C22 UNL     1     -17.087  -7.430  13.682  1.00  0.00     0.029 C 
HETATM   36  C23 UNL     1     -17.258  -5.965  14.005  1.00  0.00     0.168 C 
HETATM   37  O1  UNL     1     -18.579  -5.740  14.267  1.00  0.00    -0.384 OA
ENDBRANCH  32  33
ENDBRANCH   8  32
TORSDOF 10
ENDMDL
MODEL 4
REMARK VINA RESULT: -7.989697578      2.534      4.561
REMARK  10 active torsions:
REMARK  status: ('A' for Active; 'I' for Inactive)
REMARK    1  A    between atoms: C5_5  and  N1_6 
REMARK    2  A    between atoms: N1_6  and  C6_7 
REMARK    3  A    between atoms: C6_7  and  C7_8 
REMARK    4  A    between atoms: C6_7  and  N3_16 
REMARK    5  A    between atoms: C7_8  and  N2_9 
REMARK    6  A    between atoms: N3_16  and  C14_18 
REMARK    7  A    between atoms: C14_18  and  C16_20 
REMARK    8  A    between atoms: C16_20  and  N4_21 
REMARK       I    between atoms: C17_23  and  N5_24 
REMARK       I    between atoms: C17_23  and  N7_28 
REMARK    9  A    between atoms: N7_28  and  C19_30 
REMARK   10  A    between atoms: C19_30  and  C20_31 
ROOT
HETATM    1  N4  UNL     1     -22.947  -7.676  14.199  1.00  0.00    -0.224 N 
ATOM      2  H4  UNL     1     -23.346  -7.155  14.979  1.00  0.00     0.177 HD
HETATM    3  C17 UNL     1     -21.899  -7.249  13.623  1.00  0.00     0.683 C 
HETATM    4  N5  UNL     1     -21.341  -7.976  12.533  1.00  0.00    -0.126 N 
ATOM      5  H5  UNL     1     -20.534  -8.586  12.665  1.00  0.00     0.197 HD
HETATM    6  C18 UNL     1     -21.937  -7.825  11.276  1.00  0.00     0.196 C 
HETATM    7  N6  UNL     1     -22.442  -7.687  10.245  1.00  0.00    -0.171 NA
HETATM    8  N7  UNL     1     -21.237  -6.053  14.023  1.00  0.00    -0.223 N 
ATOM      9  H7  UNL     1     -21.622  -5.510  14.797  1.00  0.00     0.177 HD
ENDROOT
BRANCH   1  10
HETATM   10  C16 UNL     1     -23.580  -8.900  13.754  1.00  0.00     0.163 C 
BRANCH  10  11
HETATM   11  C14 UNL     1     -24.936  -8.950  14.436  1.00  0.00     0.098 C 
HETATM   12  C15 UNL     1     -25.771 -10.083  13.891  1.00  0.00     0.034 C 
BRANCH  11  13
HETATM   13  N3  UNL     1     -25.624  -7.710  14.271  1.00  0.00    -0.362 N 
ATOM     14  H3  UNL     1     -25.538  -7.233  13.373  1.00  0.00     0.162 HD
BRANCH  13  15
HETATM   15  C6  UNL     1     -26.419  -7.100  15.276  1.00  0.00     0.163 C 
BRANCH  15  16
HETATM   16  N1  UNL     1     -27.134  -6.167  15.114  1.00  0.00    -0.428 NA
BRANCH  16  17
HETATM   17  C5  UNL     1     -27.951  -5.117  14.987  1.00  0.00     0.165 C 
HETATM   18  C4  UNL     1     -28.790  -5.051  13.707  1.00  0.00     0.040 C 
HETATM   19  C3  UNL     1     -29.158  -3.608  13.438  1.00  0.00     0.007 C 
HETATM   20  C2  UNL     1     -29.636  -2.898  14.667  1.00  0.00    -0.019 C 
HETATM   21  C1  UNL     1     -28.667  -1.853  15.177  1.00  0.00     0.010 C 
HETATM   22  C25 UNL     1     -30.015  -3.884  15.721  1.00  0.00     0.007 C 
HETATM   23  C24 UNL     1     -28.919  -4.826  16.127  1.00  0.00     0.040 C 
ENDBRANCH  16  17
ENDBRANCH  15  16
BRANCH  15  24
HETATM   24  C7  UNL     1     -26.305  -7.729  16.654  1.00  0.00     0.208 C 
BRANCH  24  25
HETATM   25  N2  UNL     1     -25.837  -6.792  17.617  1.00  0.00    -0.405 N 
HETATM   26  C8  UNL     1     -26.610  -6.707  18.810  1.00  0.00     0.117 C 
HETATM   27  C9  UNL     1     -26.302  -5.488  19.613  1.00  0.00     0.019 C 
HETATM   28  C10 UNL     1     -25.247  -5.757  20.672  1.00  0.00     0.002 C 
HETATM   29  C11 UNL     1     -23.895  -5.809  19.985  1.00  0.00     0.002 C 
HETATM   30  C12 UNL     1     -23.866  -7.035  19.080  1.00  0.00     0.019 C 
HETATM   31  C13 UNL     1     -24.431  -6.670  17.743  1.00  0.00     0.117 C 
ENDBRANCH  24  25
ENDBRANCH  15  24
ENDBRANCH  13  15
ENDBRANCH  11  13
ENDBRANCH  10  11
ENDBRANCH   1  10
BRANCH   8  32
HETATM   32  C19 UNL     1     -20.041  -5.586  13.369  1.00  0.00     0.170 C 
BRANCH  32  33
HETATM   33  C20 UNL     1     -18.851  -6.101  14.121  1.00  0.00     0.139 C 
HETATM   34  C21 UNL     1     -18.002  -7.035  13.284  1.00  0.00     0.035 C 
HETATM   35  C22 UNL     1     -16.695  -6.988  14.085  1.00  0.00     0.029 C 
HETATM   36  C23 UNL     1     -16.702  -5.535  14.492  1.00  0.00     0.168 C 
HETATM   37  O1  UNL     1     -17.995  -5.096  14.477  1.00  0.00    -0.384 OA
ENDBRANCH  32  33
ENDBRANCH   8  32
TORSDOF 10
ENDMDL
MODEL 5
REMARK VINA RESULT: -7.958709060      0.720      1.143
REMARK  10 active torsions:
REMARK  status: ('A' for Active; 'I' for Inactive)
REMARK    1  A    between atoms: C5_5  and  N1_6 
REMARK    2  A    between atoms: N1_6  and  C6_7 
REMARK    3  A    between atoms: C6_7  and  C7_8 
REMARK    4  A    between atoms: C6_7  and  N3_16 
REMARK    5  A    between atoms: C7_8  and  N2_9 
REMARK    6  A    between atoms: N3_16  and  C14_18 
REMARK    7  A    between atoms: C14_18  and  C16_20 
REMARK    8  A    between atoms: C16_20  and  N4_21 
REMARK       I    between atoms: C17_23  and  N5_24 
REMARK       I    between atoms: C17_23  and  N7_28 
REMARK    9  A    between atoms: N7_28  and  C19_30 
REMARK   10  A    between atoms: C19_30  and  C20_31 
ROOT
HETATM    1  N4  UNL     1     -23.717  -7.293  15.089  1.00  0.00    -0.224 N 
ATOM      2  H4  UNL     1     -23.833  -8.007  14.370  1.00  0.00     0.177 HD
HETATM    3  C17 UNL     1     -22.587  -6.737  15.249  1.00  0.00     0.683 C 
HETATM    4  N5  UNL     1     -22.422  -5.740  16.253  1.00  0.00    -0.126 N 
ATOM      5  H5  UNL     1     -22.425  -4.748  16.016  1.00  0.00     0.197 HD
HETATM    6  C18 UNL     1     -22.255  -6.167  17.575  1.00  0.00     0.196 C 
HETATM    7  N6  UNL     1     -22.118  -6.540  18.661  1.00  0.00    -0.171 NA
HETATM    8  N7  UNL     1     -21.450  -7.067  14.457  1.00  0.00    -0.223 N 
ATOM      9  H7  UNL     1     -21.541  -7.784  13.737  1.00  0.00     0.177 HD
ENDROOT
BRANCH   1  10
HETATM   10  C16 UNL     1     -24.842  -6.920  15.921  1.00  0.00     0.163 C 
BRANCH  10  11
HETATM   11  C14 UNL     1     -26.026  -7.729  15.422  1.00  0.00     0.098 C 
HETATM   12  C15 UNL     1     -25.570  -8.850  14.520  1.00  0.00     0.034 C 
BRANCH  11  13
HETATM   13  N3  UNL     1     -26.950  -6.889  14.731  1.00  0.00    -0.362 N 
ATOM     14  H3  UNL     1     -26.608  -6.365  13.925  1.00  0.00     0.162 HD
BRANCH  13  15
HETATM   15  C6  UNL     1     -28.314  -6.736  15.093  1.00  0.00     0.163 C 
BRANCH  15  16
HETATM   16  N1  UNL     1     -29.242  -7.050  14.424  1.00  0.00    -0.428 NA
BRANCH  16  17
HETATM   17  C5  UNL     1     -30.304  -7.350  13.671  1.00  0.00     0.165 C 
HETATM   18  C4  UNL     1     -31.460  -8.071  14.372  1.00  0.00     0.040 C 
HETATM   19  C3  UNL     1     -32.251  -8.844  13.339  1.00  0.00     0.007 C 
HETATM   20  C2  UNL     1     -32.528  -8.039  12.106  1.00  0.00    -0.019 C 
HETATM   21  C1  UNL     1     -31.760  -8.512  10.891  1.00  0.00     0.010 C 
HETATM   22  C25 UNL     1     -32.321  -6.587  12.378  1.00  0.00     0.007 C 
HETATM   23  C24 UNL     1     -30.949  -6.225  12.869  1.00  0.00     0.040 C 
ENDBRANCH  16  17
ENDBRANCH  15  16
BRANCH  15  24
HETATM   24  C7  UNL     1     -28.548  -6.110  16.457  1.00  0.00     0.208 C 
BRANCH  24  25
HETATM   25  N2  UNL     1     -28.155  -4.742  16.477  1.00  0.00    -0.405 N 
HETATM   26  C8  UNL     1     -29.107  -3.827  15.945  1.00  0.00     0.117 C 
HETATM   27  C9  UNL     1     -28.522  -2.484  15.660  1.00  0.00     0.019 C 
HETATM   28  C10 UNL     1     -28.700  -1.528  16.826  1.00  0.00     0.002 C 
HETATM   29  C11 UNL     1     -27.684  -1.893  17.891  1.00  0.00     0.002 C 
HETATM   30  C12 UNL     1     -28.047  -3.264  18.449  1.00  0.00     0.019 C 
HETATM   31  C13 UNL     1     -27.407  -4.320  17.604  1.00  0.00     0.117 C 
ENDBRANCH  24  25
ENDBRANCH  15  24
ENDBRANCH  13  15
ENDBRANCH  11  13
ENDBRANCH  10  11
ENDBRANCH   1  10
BRANCH   8  32
HETATM   32  C19 UNL     1     -20.176  -6.419  14.643  1.00  0.00     0.170 C 
BRANCH  32  33
HETATM   33  C20 UNL     1     -19.221  -6.934  13.607  1.00  0.00     0.139 C 
HETATM   34  C21 UNL     1     -17.804  -6.459  13.847  1.00  0.00     0.035 C 
HETATM   35  C22 UNL     1     -17.039  -7.484  13.000  1.00  0.00     0.029 C 
HETATM   36  C23 UNL     1     -17.876  -8.710  13.272  1.00  0.00     0.168 C 
HETATM   37  O1  UNL     1     -19.129  -8.298  13.629  1.00  0.00    -0.384 OA
ENDBRANCH  32  33
ENDBRANCH   8  32
TORSDOF 10
ENDMDL
