MODEL 1
REMARK VINA RESULT: -9.050402416      0.000      0.000
REMARK  6 active torsions:
REMARK  status: ('A' for Active; 'I' for Inactive)
REMARK       I    between atoms: C1_2  and  N1_3 
REMARK    1  A    between atoms: C1_2  and  C5_8 
REMARK    2  A    between atoms: N1_3  and  C2_5 
REMARK    3  A    between atoms: C8_11  and  O2_12 
REMARK    4  A    between atoms: O2_12  and  C9_13 
REMARK    5  A    between atoms: C12_16  and  N2_17 
REMARK       I    between atoms: N2_17  and  C13_19 
REMARK    6  A    between atoms: C13_19  and  C14_21 
ROOT
HETATM    1  C9  UNL     1      33.482  56.860  45.320  1.00  0.00     0.129 C 
HETATM    2  C10 UNL     1      33.326  58.296  45.790  1.00  0.00     0.034 C 
HETATM    3  C11 UNL     1      34.579  58.714  46.576  1.00  0.00     0.028 C 
HETATM    4  C12 UNL     1      35.721  58.603  45.569  1.00  0.00     0.084 C 
HETATM    5  C20 UNL     1      35.980  57.148  45.355  1.00  0.00     0.028 C 
HETATM    6  C21 UNL     1      34.826  56.293  45.724  1.00  0.00     0.034 C 
ENDROOT
BRANCH   1   7
HETATM    7  O2  UNL     1      33.244  56.710  43.960  1.00  0.00    -0.344 OA
BRANCH   7   8
HETATM    8  C8  UNL     1      33.148  57.692  42.998  1.00  0.00     0.091 A 
HETATM    9  C7  UNL     1      34.228  58.238  42.355  1.00  0.00     0.039 A 
HETATM   10  C6  UNL     1      34.041  59.230  41.391  1.00  0.00     0.020 A 
HETATM   11  C5  UNL     1      32.801  59.703  41.039  1.00  0.00     0.033 A 
HETATM   12  C23 UNL     1      31.726  59.137  41.701  1.00  0.00     0.043 A 
HETATM   13  C22 UNL     1      31.860  58.161  42.654  1.00  0.00     0.068 A 
HETATM   14 CL1  UNL     1      30.483  57.466  43.472  1.00  0.00    -0.081 Cl
BRANCH  11  15
HETATM   15  C1  UNL     1      32.585  60.740  40.034  1.00  0.00     0.252 C 
HETATM   16  O1  UNL     1      31.719  60.507  39.139  1.00  0.00    -0.268 OA
HETATM   17  N1  UNL     1      33.300  61.965  40.038  1.00  0.00    -0.352 N 
ATOM     18  H1  UNL     1      33.993  62.139  40.766  1.00  0.00     0.163 HD
BRANCH  17  19
HETATM   19  C2  UNL     1      33.062  62.964  39.033  1.00  0.00     0.084 A 
HETATM   20  C3  UNL     1      33.601  62.790  37.665  1.00  0.00     0.027 A 
HETATM   21  C4  UNL     1      34.215  63.809  38.546  1.00  0.00     0.027 A 
ENDBRANCH  17  19
ENDBRANCH  11  15
ENDBRANCH   7   8
ENDBRANCH   1   7
BRANCH   4  22
HETATM   22  N2  UNL     1      36.869  59.340  45.990  1.00  0.00    -0.355 N 
HETATM   23  C13 UNL     1      37.367  60.432  45.269  1.00  0.00     0.249 C 
HETATM   24  O3  UNL     1      36.773  60.773  44.204  1.00  0.00    -0.271 OA
ATOM     25  H2  UNL     1      37.344  59.061  46.848  1.00  0.00     0.162 HD
BRANCH  23  26
HETATM   26  C14 UNL     1      38.549  61.230  45.659  1.00  0.00     0.281 C 
HETATM   27  N3  UNL     1      39.513  60.457  46.405  1.00  0.00    -0.058 N 
HETATM   28  C15 UNL     1      40.767  60.510  45.682  1.00  0.00     0.187 C 
ATOM     29  H32 UNL     1      39.600  60.759  47.375  1.00  0.00     0.278 HD
ATOM     30  H31 UNL     1      39.201  59.503  46.590  1.00  0.00     0.278 HD
HETATM   31  C16 UNL     1      41.344  61.894  45.785  1.00  0.00     0.033 C 
HETATM   32  C19 UNL     1      40.249  60.551  44.234  1.00  0.00     0.040 C 
HETATM   33  C17 UNL     1      40.334  62.744  45.015  1.00  0.00     0.009 C 
HETATM   34  C18 UNL     1      39.324  61.755  44.479  1.00  0.00     0.028 C 
ENDBRANCH  23  26
ENDBRANCH   4  22
TORSDOF 6
ENDMDL
MODEL 2
REMARK VINA RESULT: -8.938187660      3.093      3.956
REMARK  6 active torsions:
REMARK  status: ('A' for Active; 'I' for Inactive)
REMARK       I    between atoms: C1_2  and  N1_3 
REMARK    1  A    between atoms: C1_2  and  C5_8 
REMARK    2  A    between atoms: N1_3  and  C2_5 
REMARK    3  A    between atoms: C8_11  and  O2_12 
REMARK    4  A    between atoms: O2_12  and  C9_13 
REMARK    5  A    between atoms: C12_16  and  N2_17 
REMARK       I    between atoms: N2_17  and  C13_19 
REMARK    6  A    between atoms: C13_19  and  C14_21 
ROOT
HETATM    1  C9  UNL     1      32.305  58.884  44.143  1.00  0.00     0.129 C 
HETATM    2  C10 UNL     1      32.319  59.217  45.625  1.00  0.00     0.034 C 
HETATM    3  C11 UNL     1      33.210  58.207  46.365  1.00  0.00     0.028 C 
HETATM    4  C12 UNL     1      34.599  58.403  45.762  1.00  0.00     0.084 C 
HETATM    5  C20 UNL     1      34.569  57.817  44.389  1.00  0.00     0.028 C 
HETATM    6  C21 UNL     1      33.197  57.700  43.837  1.00  0.00     0.034 C 
ENDROOT
BRANCH   1   7
HETATM    7  O2  UNL     1      32.606  59.979  43.343  1.00  0.00    -0.344 OA
BRANCH   7   8
HETATM    8  C8  UNL     1      32.497  60.091  41.974  1.00  0.00     0.091 A 
HETATM    9  C7  UNL     1      31.337  59.865  41.280  1.00  0.00     0.039 A 
HETATM   10  C6  UNL     1      31.315  60.001  39.891  1.00  0.00     0.020 A 
HETATM   11  C5  UNL     1      32.420  60.358  39.158  1.00  0.00     0.033 A 
HETATM   12  C23 UNL     1      33.579  60.581  39.881  1.00  0.00     0.043 A 
HETATM   13  C22 UNL     1      33.649  60.461  41.244  1.00  0.00     0.068 A 
HETATM   14 CL1  UNL     1      35.129  60.749  42.127  1.00  0.00    -0.081 Cl
BRANCH  11  15
HETATM   15  C1  UNL     1      32.417  60.505  37.705  1.00  0.00     0.252 C 
HETATM   16  O1  UNL     1      33.363  59.956  37.067  1.00  0.00    -0.268 OA
HETATM   17  N1  UNL     1      31.409  61.226  37.016  1.00  0.00    -0.352 N 
ATOM     18  H1  UNL     1      30.653  61.662  37.544  1.00  0.00     0.163 HD
BRANCH  17  19
HETATM   19  C2  UNL     1      31.437  61.352  35.586  1.00  0.00     0.084 A 
HETATM   20  C3  UNL     1      31.873  62.619  34.955  1.00  0.00     0.027 A 
HETATM   21  C4  UNL     1      30.439  62.258  34.905  1.00  0.00     0.027 A 
ENDBRANCH  17  19
ENDBRANCH  11  15
ENDBRANCH   7   8
ENDBRANCH   1   7
BRANCH   4  22
HETATM   22  N2  UNL     1      35.620  57.862  46.601  1.00  0.00    -0.355 N 
HETATM   23  C13 UNL     1      36.909  58.405  46.661  1.00  0.00     0.249 C 
HETATM   24  O3  UNL     1      37.174  59.411  45.940  1.00  0.00    -0.271 OA
ATOM     25  H2  UNL     1      35.401  57.051  47.179  1.00  0.00     0.162 HD
BRANCH  23  26
HETATM   26  C14 UNL     1      38.001  57.887  47.511  1.00  0.00     0.281 C 
HETATM   27  N3  UNL     1      37.552  57.554  48.843  1.00  0.00    -0.058 N 
HETATM   28  C15 UNL     1      37.852  56.155  49.067  1.00  0.00     0.187 C 
ATOM     29  H32 UNL     1      37.945  58.164  49.559  1.00  0.00     0.278 HD
ATOM     30  H31 UNL     1      36.570  57.780  48.999  1.00  0.00     0.278 HD
HETATM   31  C16 UNL     1      39.339  55.977  49.196  1.00  0.00     0.033 C 
HETATM   32  C19 UNL     1      37.645  55.598  47.647  1.00  0.00     0.040 C 
HETATM   33  C17 UNL     1      39.849  56.338  47.801  1.00  0.00     0.009 C 
HETATM   34  C18 UNL     1      38.602  56.608  46.990  1.00  0.00     0.028 C 
ENDBRANCH  23  26
ENDBRANCH   4  22
TORSDOF 6
ENDMDL
MODEL 3
REMARK VINA RESULT: -8.918364705      3.220      9.287
REMARK  6 active torsions:
REMARK  status: ('A' for Active; 'I' for Inactive)
REMARK       I    between atoms: C1_2  and  N1_3 
REMARK    1  A    between atoms: C1_2  and  C5_8 
REMARK    2  A    between atoms: N1_3  and  C2_5 
REMARK    3  A    between atoms: C8_11  and  O2_12 
REMARK    4  A    between atoms: O2_12  and  C9_13 
REMARK    5  A    between atoms: C12_16  and  N2_17 
REMARK       I    between atoms: N2_17  and  C13_19 
REMARK    6  A    between atoms: C13_19  and  C14_21 
ROOT
HETATM    1  C9  UNL     1      33.364  58.083  44.245  1.00  0.00     0.129 C 
HETATM    2  C10 UNL     1      32.512  57.332  43.236  1.00  0.00     0.034 C 
HETATM    3  C11 UNL     1      31.655  58.335  42.448  1.00  0.00     0.028 C 
HETATM    4  C12 UNL     1      32.665  59.229  41.733  1.00  0.00     0.084 C 
HETATM    5  C20 UNL     1      33.279  60.114  42.765  1.00  0.00     0.028 C 
HETATM    6  C21 UNL     1      33.150  59.578  44.142  1.00  0.00     0.034 C 
ENDROOT
BRANCH   1   7
HETATM    7  O2  UNL     1      34.710  57.746  44.168  1.00  0.00    -0.344 OA
BRANCH   7   8
HETATM    8  C8  UNL     1      35.572  57.438  45.197  1.00  0.00     0.091 A 
HETATM    9  C7  UNL     1      35.595  56.226  45.837  1.00  0.00     0.039 A 
HETATM   10  C6  UNL     1      36.503  55.998  46.872  1.00  0.00     0.020 A 
HETATM   11  C5  UNL     1      37.401  56.945  47.299  1.00  0.00     0.033 A 
HETATM   12  C23 UNL     1      37.360  58.161  46.638  1.00  0.00     0.043 A 
HETATM   13  C22 UNL     1      36.487  58.431  45.616  1.00  0.00     0.068 A 
HETATM   14 CL1  UNL     1      36.459  59.976  44.801  1.00  0.00    -0.081 Cl
BRANCH  11  15
HETATM   15  C1  UNL     1      38.359  56.727  48.380  1.00  0.00     0.252 C 
HETATM   16  O1  UNL     1      37.908  56.252  49.464  1.00  0.00    -0.268 OA
HETATM   17  N1  UNL     1      39.738  57.025  48.245  1.00  0.00    -0.352 N 
ATOM     18  H1  UNL     1      40.086  57.406  47.365  1.00  0.00     0.163 HD
BRANCH  17  19
HETATM   19  C2  UNL     1      40.653  56.798  49.329  1.00  0.00     0.084 A 
HETATM   20  C3  UNL     1      41.311  57.940  50.003  1.00  0.00     0.027 A 
HETATM   21  C4  UNL     1      42.124  57.071  49.124  1.00  0.00     0.027 A 
ENDBRANCH  17  19
ENDBRANCH  11  15
ENDBRANCH   7   8
ENDBRANCH   1   7
BRANCH   4  22
HETATM   22  N2  UNL     1      32.069  59.933  40.644  1.00  0.00    -0.355 N 
HETATM   23  C13 UNL     1      32.751  60.185  39.447  1.00  0.00     0.249 C 
HETATM   24  O3  UNL     1      33.941  59.771  39.333  1.00  0.00    -0.271 OA
ATOM     25  H2  UNL     1      31.109  60.266  40.741  1.00  0.00     0.162 HD
BRANCH  23  26
HETATM   26  C14 UNL     1      32.182  60.908  38.290  1.00  0.00     0.281 C 
HETATM   27  N3  UNL     1      33.162  61.155  37.259  1.00  0.00    -0.058 N 
HETATM   28  C15 UNL     1      32.676  60.540  36.040  1.00  0.00     0.187 C 
ATOM     29  H32 UNL     1      33.379  62.145  37.146  1.00  0.00     0.278 HD
ATOM     30  H31 UNL     1      34.098  60.841  37.516  1.00  0.00     0.278 HD
HETATM   31  C16 UNL     1      31.495  61.315  35.527  1.00  0.00     0.033 C 
HETATM   32  C19 UNL     1      31.950  59.313  36.621  1.00  0.00     0.040 C 
HETATM   33  C17 UNL     1      30.440  61.087  36.608  1.00  0.00     0.009 C 
HETATM   34  C18 UNL     1      31.091  60.140  37.592  1.00  0.00     0.028 C 
ENDBRANCH  23  26
ENDBRANCH   4  22
TORSDOF 6
ENDMDL
MODEL 4
REMARK VINA RESULT: -8.917264800      2.946      3.857
REMARK  6 active torsions:
REMARK  status: ('A' for Active; 'I' for Inactive)
REMARK       I    between atoms: C1_2  and  N1_3 
REMARK    1  A    between atoms: C1_2  and  C5_8 
REMARK    2  A    between atoms: N1_3  and  C2_5 
REMARK    3  A    between atoms: C8_11  and  O2_12 
REMARK    4  A    between atoms: O2_12  and  C9_13 
REMARK    5  A    between atoms: C12_16  and  N2_17 
REMARK       I    between atoms: N2_17  and  C13_19 
REMARK    6  A    between atoms: C13_19  and  C14_21 
ROOT
HETATM    1  C9  UNL     1      31.936  57.649  43.801  1.00  0.00     0.129 C 
HETATM    2  C10 UNL     1      32.383  58.726  44.774  1.00  0.00     0.034 C 
HETATM    3  C11 UNL     1      33.168  58.077  45.925  1.00  0.00     0.028 C 
HETATM    4  C12 UNL     1      34.377  57.432  45.252  1.00  0.00     0.084 C 
HETATM    5  C20 UNL     1      33.882  56.229  44.519  1.00  0.00     0.028 C 
HETATM    6  C21 UNL     1      32.429  56.283  44.227  1.00  0.00     0.034 C 
ENDROOT
BRANCH   1   7
HETATM    7  O2  UNL     1      32.279  57.937  42.485  1.00  0.00    -0.344 OA
BRANCH   7   8
HETATM    8  C8  UNL     1      33.057  58.972  42.015  1.00  0.00     0.091 A 
HETATM    9  C7  UNL     1      34.400  59.092  42.265  1.00  0.00     0.039 A 
HETATM   10  C6  UNL     1      35.113  60.175  41.748  1.00  0.00     0.020 A 
HETATM   11  C5  UNL     1      34.532  61.154  40.980  1.00  0.00     0.033 A 
HETATM   12  C23 UNL     1      33.176  61.010  40.741  1.00  0.00     0.043 A 
HETATM   13  C22 UNL     1      32.434  59.966  41.227  1.00  0.00     0.068 A 
HETATM   14 CL1  UNL     1      30.723  59.813  40.907  1.00  0.00    -0.081 Cl
BRANCH  11  15
HETATM   15  C1  UNL     1      35.261  62.294  40.430  1.00  0.00     0.252 C 
HETATM   16  O1  UNL     1      35.154  62.503  39.186  1.00  0.00    -0.268 OA
HETATM   17  N1  UNL     1      36.060  63.145  41.235  1.00  0.00    -0.352 N 
ATOM     18  H1  UNL     1      36.135  62.964  42.236  1.00  0.00     0.163 HD
BRANCH  17  19
HETATM   19  C2  UNL     1      36.765  64.257  40.662  1.00  0.00     0.084 A 
HETATM   20  C3  UNL     1      38.204  64.142  40.335  1.00  0.00     0.027 A 
HETATM   21  C4  UNL     1      37.803  64.978  41.488  1.00  0.00     0.027 A 
ENDBRANCH  17  19
ENDBRANCH  11  15
ENDBRANCH   7   8
ENDBRANCH   1   7
BRANCH   4  22
HETATM   22  N2  UNL     1      35.416  57.153  46.190  1.00  0.00    -0.355 N 
HETATM   23  C13 UNL     1      36.593  57.909  46.255  1.00  0.00     0.249 C 
HETATM   24  O3  UNL     1      36.735  58.874  45.448  1.00  0.00    -0.271 OA
ATOM     25  H2  UNL     1      35.297  56.373  46.838  1.00  0.00     0.162 HD
BRANCH  23  26
HETATM   26  C14 UNL     1      37.699  57.665  47.205  1.00  0.00     0.281 C 
HETATM   27  N3  UNL     1      37.235  57.518  48.564  1.00  0.00    -0.058 N 
HETATM   28  C15 UNL     1      37.667  56.219  49.035  1.00  0.00     0.187 C 
ATOM     29  H32 UNL     1      37.534  58.281  49.172  1.00  0.00     0.278 HD
ATOM     30  H31 UNL     1      36.229  57.660  48.659  1.00  0.00     0.278 HD
HETATM   31  C16 UNL     1      39.158  56.227  49.224  1.00  0.00     0.033 C 
HETATM   32  C19 UNL     1      37.574  55.408  47.730  1.00  0.00     0.040 C 
HETATM   33  C17 UNL     1      39.683  56.397  47.799  1.00  0.00     0.009 C 
HETATM   34  C18 UNL     1      38.447  56.388  46.927  1.00  0.00     0.028 C 
ENDBRANCH  23  26
ENDBRANCH   4  22
TORSDOF 6
ENDMDL
MODEL 5
REMARK VINA RESULT: -8.859096458      0.942      1.102
REMARK  6 active torsions:
REMARK  status: ('A' for Active; 'I' for Inactive)
REMARK       I    between atoms: C1_2  and  N1_3 
REMARK    1  A    between atoms: C1_2  and  C5_8 
REMARK    2  A    between atoms: N1_3  and  C2_5 
REMARK    3  A    between atoms: C8_11  and  O2_12 
REMARK    4  A    between atoms: O2_12  and  C9_13 
REMARK    5  A    between atoms: C12_16  and  N2_17 
REMARK       I    between atoms: N2_17  and  C13_19 
REMARK    6  A    between atoms: C13_19  and  C14_21 
ROOT
HETATM    1  C9  UNL     1      33.464  56.803  45.323  1.00  0.00     0.129 C 
HETATM    2  C10 UNL     1      33.306  58.236  45.802  1.00  0.00     0.034 C 
HETATM    3  C11 UNL     1      34.560  58.652  46.587  1.00  0.00     0.028 C 
HETATM    4  C12 UNL     1      35.700  58.549  45.577  1.00  0.00     0.084 C 
HETATM    5  C20 UNL     1      35.961  57.096  45.354  1.00  0.00     0.028 C 
HETATM    6  C21 UNL     1      34.810  56.236  45.720  1.00  0.00     0.034 C 
ENDROOT
BRANCH   1   7
HETATM    7  O2  UNL     1      33.223  56.661  43.962  1.00  0.00    -0.344 OA
BRANCH   7   8
HETATM    8  C8  UNL     1      33.119  57.648  43.007  1.00  0.00     0.091 A 
HETATM    9  C7  UNL     1      34.194  58.192  42.352  1.00  0.00     0.039 A 
HETATM   10  C6  UNL     1      33.998  59.190  41.396  1.00  0.00     0.020 A 
HETATM   11  C5  UNL     1      32.756  59.672  41.064  1.00  0.00     0.033 A 
HETATM   12  C23 UNL     1      31.687  59.108  41.738  1.00  0.00     0.043 A 
HETATM   13  C22 UNL     1      31.829  58.126  42.684  1.00  0.00     0.068 A 
HETATM   14 CL1  UNL     1      30.459  57.434  43.517  1.00  0.00    -0.081 Cl
BRANCH  11  15
HETATM   15  C1  UNL     1      32.531  60.716  40.068  1.00  0.00     0.252 C 
HETATM   16  O1  UNL     1      32.349  61.894  40.495  1.00  0.00    -0.268 OA
HETATM   17  N1  UNL     1      32.514  60.447  38.676  1.00  0.00    -0.352 N 
ATOM     18  H1  UNL     1      32.663  59.493  38.347  1.00  0.00     0.163 HD
BRANCH  17  19
HETATM   19  C2  UNL     1      32.289  61.498  37.722  1.00  0.00     0.084 A 
HETATM   20  C3  UNL     1      31.202  61.380  36.723  1.00  0.00     0.027 A 
HETATM   21  C4  UNL     1      32.604  61.252  36.266  1.00  0.00     0.027 A 
ENDBRANCH  17  19
ENDBRANCH  11  15
ENDBRANCH   7   8
ENDBRANCH   1   7
BRANCH   4  22
HETATM   22  N2  UNL     1      36.847  59.286  46.000  1.00  0.00    -0.355 N 
HETATM   23  C13 UNL     1      37.342  60.383  45.284  1.00  0.00     0.249 C 
HETATM   24  O3  UNL     1      36.745  60.729  44.222  1.00  0.00    -0.271 OA
ATOM     25  H2  UNL     1      37.325  59.003  46.856  1.00  0.00     0.162 HD
BRANCH  23  26
HETATM   26  C14 UNL     1      38.523  61.181  45.676  1.00  0.00     0.281 C 
HETATM   27  N3  UNL     1      39.487  60.407  46.421  1.00  0.00    -0.058 N 
HETATM   28  C15 UNL     1      40.742  60.462  45.700  1.00  0.00     0.187 C 
ATOM     29  H32 UNL     1      39.573  60.708  47.392  1.00  0.00     0.278 HD
ATOM     30  H31 UNL     1      39.175  59.453  46.605  1.00  0.00     0.278 HD
HETATM   31  C16 UNL     1      41.318  61.846  45.805  1.00  0.00     0.033 C 
HETATM   32  C19 UNL     1      40.224  60.505  44.251  1.00  0.00     0.040 C 
HETATM   33  C17 UNL     1      40.308  62.697  45.035  1.00  0.00     0.009 C 
HETATM   34  C18 UNL     1      39.298  61.708  44.497  1.00  0.00     0.028 C 
ENDBRANCH  23  26
ENDBRANCH   4  22
TORSDOF 6
ENDMDL
