MODEL 1
REMARK VINA RESULT: -5.997669981      0.000      0.000
REMARK  9 active torsions:
REMARK  status: ('A' for Active; 'I' for Inactive)
REMARK    1  A    between atoms: C2_2  and  O1_5 
REMARK    2  A    between atoms: O1_5  and  C5_6 
REMARK    3  A    between atoms: C5_6  and  C6_7 
REMARK    4  A    between atoms: C6_7  and  O2_8 
REMARK    5  A    between atoms: O2_8  and  C7_9 
REMARK    6  A    between atoms: C10_12  and  C11_13 
REMARK    7  A    between atoms: C15_21  and  N3_22 
REMARK    8  A    between atoms: N3_22  and  C16_24 
REMARK    9  A    between atoms: C21_29  and  C22_30 
ROOT
HETATM    1  C11 UNL     1       1.184   3.697   3.849  1.00  0.00     0.106 A 
HETATM    2  N1  UNL     1       2.466   4.236   3.974  1.00  0.00    -0.331 N 
ATOM      3  H1  UNL     1       3.011   4.293   4.834  1.00  0.00     0.168 HD
HETATM    4  C12 UNL     1       2.852   4.661   2.772  1.00  0.00     0.157 A 
HETATM    5  S1  UNL     1       4.127   5.414   1.918  1.00  0.00    -0.064 SA
HETATM    6  C13 UNL     1       3.409   5.424   0.373  1.00  0.00     0.071 A 
HETATM    7  C14 UNL     1       2.200   4.831   0.616  1.00  0.00     0.108 A 
HETATM    8  N2  UNL     1       1.933   4.446   1.849  1.00  0.00    -0.286 N 
HETATM    9  C15 UNL     1       0.857   3.818   2.537  1.00  0.00     0.139 A 
ENDROOT
BRANCH   1  10
HETATM   10  C10 UNL     1       0.490   3.219   5.035  1.00  0.00     0.065 A 
HETATM   11  C9  UNL     1       0.826   2.266   5.936  1.00  0.00     0.036 A 
HETATM   12  C8  UNL     1      -0.257   2.088   6.778  1.00  0.00     0.058 A 
HETATM   13  C7  UNL     1      -1.263   2.928   6.397  1.00  0.00     0.142 A 
HETATM   14  N4  UNL     1      -0.788   3.606   5.337  1.00  0.00    -0.335 N 
ATOM     15  H4  UNL     1      -1.312   4.316   4.826  1.00  0.00     0.168 HD
BRANCH  13  16
HETATM   16  O2  UNL     1      -2.533   3.084   6.961  1.00  0.00    -0.334 OA
BRANCH  16  17
HETATM   17  C6  UNL     1      -3.486   3.790   6.125  1.00  0.00     0.203 C 
BRANCH  17  18
HETATM   18  C5  UNL     1      -4.740   3.031   5.983  1.00  0.00     0.195 C 
BRANCH  18  19
HETATM   19  O1  UNL     1      -4.594   1.708   5.814  1.00  0.00    -0.379 OA
BRANCH  19  20
HETATM   20  C2  UNL     1      -5.541   0.861   5.427  1.00  0.00     0.050 C 
HETATM   21  C1  UNL     1      -6.619   0.860   6.555  1.00  0.00     0.045 C 
HETATM   22  C3  UNL     1      -6.316   1.212   4.194  1.00  0.00     0.045 C 
HETATM   23  C4  UNL     1      -5.026  -0.568   5.379  1.00  0.00     0.045 C 
ENDBRANCH  19  20
ENDBRANCH  18  19
ENDBRANCH  17  18
ENDBRANCH  16  17
ENDBRANCH  13  16
ENDBRANCH   1  10
BRANCH   9  24
HETATM   24  N3  UNL     1      -0.192   3.214   1.819  1.00  0.00    -0.369 N 
ATOM     25  H3  UNL     1      -0.780   3.902   1.348  1.00  0.00     0.161 HD
BRANCH  24  26
HETATM   26  C16 UNL     1      -0.632   1.895   1.589  1.00  0.00     0.092 C 
HETATM   27  C17 UNL     1      -1.186   1.209   2.808  1.00  0.00     0.026 C 
HETATM   28  C18 UNL     1      -2.663   1.216   2.941  1.00  0.00     0.002 C 
HETATM   29  C19 UNL     1      -3.323   2.524   2.564  1.00  0.00     0.001 C 
HETATM   30  C20 UNL     1      -2.875   2.995   1.198  1.00  0.00     0.012 C 
HETATM   31  C21 UNL     1      -1.898   2.023   0.659  1.00  0.00     0.073 C 
BRANCH  31  32
HETATM   32  C22 UNL     1      -1.398   2.339  -0.713  1.00  0.00     0.359 C 
HETATM   33  F1  UNL     1      -0.302   1.603  -1.063  1.00  0.00    -0.214 F 
HETATM   34  F2  UNL     1      -2.393   2.079  -1.621  1.00  0.00    -0.214 F 
ENDBRANCH  31  32
ENDBRANCH  24  26
ENDBRANCH   9  24
TORSDOF 9
ENDMDL
MODEL 2
REMARK VINA RESULT: -5.802987607      5.876      8.661
REMARK  9 active torsions:
REMARK  status: ('A' for Active; 'I' for Inactive)
REMARK    1  A    between atoms: C2_2  and  O1_5 
REMARK    2  A    between atoms: O1_5  and  C5_6 
REMARK    3  A    between atoms: C5_6  and  C6_7 
REMARK    4  A    between atoms: C6_7  and  O2_8 
REMARK    5  A    between atoms: O2_8  and  C7_9 
REMARK    6  A    between atoms: C10_12  and  C11_13 
REMARK    7  A    between atoms: C15_21  and  N3_22 
REMARK    8  A    between atoms: N3_22  and  C16_24 
REMARK    9  A    between atoms: C21_29  and  C22_30 
ROOT
HETATM    1  C11 UNL     1      -4.791   2.779   0.121  1.00  0.00     0.106 A 
HETATM    2  N1  UNL     1      -6.020   2.487   0.712  1.00  0.00    -0.331 N 
ATOM      3  H1  UNL     1      -6.908   2.371   0.224  1.00  0.00     0.168 HD
HETATM    4  C12 UNL     1      -5.831   2.388   2.027  1.00  0.00     0.157 A 
HETATM    5  S1  UNL     1      -6.616   2.096   3.517  1.00  0.00    -0.064 SA
HETATM    6  C13 UNL     1      -5.260   2.245   4.538  1.00  0.00     0.071 A 
HETATM    7  C14 UNL     1      -4.259   2.517   3.645  1.00  0.00     0.108 A 
HETATM    8  N2  UNL     1      -4.570   2.585   2.364  1.00  0.00    -0.286 N 
HETATM    9  C15 UNL     1      -3.892   2.831   1.137  1.00  0.00     0.139 A 
ENDROOT
BRANCH   1  10
HETATM   10  C10 UNL     1      -4.724   3.012  -1.315  1.00  0.00     0.065 A 
HETATM   11  C9  UNL     1      -4.279   4.077  -2.020  1.00  0.00     0.036 A 
HETATM   12  C8  UNL     1      -4.589   3.855  -3.351  1.00  0.00     0.058 A 
HETATM   13  C7  UNL     1      -5.226   2.654  -3.467  1.00  0.00     0.142 A 
HETATM   14  N4  UNL     1      -5.297   2.159  -2.219  1.00  0.00    -0.335 N 
ATOM     15  H4  UNL     1      -5.723   1.263  -1.978  1.00  0.00     0.168 HD
BRANCH  13  16
HETATM   16  O2  UNL     1      -5.716   2.032  -4.620  1.00  0.00    -0.334 OA
BRANCH  16  17
HETATM   17  C6  UNL     1      -5.741   0.582  -4.563  1.00  0.00     0.203 C 
BRANCH  17  18
HETATM   18  C5  UNL     1      -6.897   0.036  -5.294  1.00  0.00     0.195 C 
BRANCH  18  19
HETATM   19  O1  UNL     1      -8.091   0.530  -4.930  1.00  0.00    -0.379 OA
BRANCH  19  20
HETATM   20  C2  UNL     1      -8.961   1.138  -5.729  1.00  0.00     0.050 C 
HETATM   21  C1  UNL     1     -10.254   0.263  -5.718  1.00  0.00     0.045 C 
HETATM   22  C3  UNL     1      -9.445   2.493  -5.315  1.00  0.00     0.045 C 
HETATM   23  C4  UNL     1      -8.495   1.125  -7.176  1.00  0.00     0.045 C 
ENDBRANCH  19  20
ENDBRANCH  18  19
ENDBRANCH  17  18
ENDBRANCH  16  17
ENDBRANCH  13  16
ENDBRANCH   1  10
BRANCH   9  24
HETATM   24  N3  UNL     1      -2.486   2.830   1.086  1.00  0.00    -0.369 N 
ATOM     25  H3  UNL     1      -2.091   3.718   1.397  1.00  0.00     0.161 HD
BRANCH  24  26
HETATM   26  C16 UNL     1      -1.488   1.908   0.713  1.00  0.00     0.092 C 
HETATM   27  C17 UNL     1      -0.938   2.122  -0.671  1.00  0.00     0.026 C 
HETATM   28  C18 UNL     1       0.337   2.874  -0.753  1.00  0.00     0.002 C 
HETATM   29  C19 UNL     1       0.431   4.058   0.183  1.00  0.00     0.001 C 
HETATM   30  C20 UNL     1       0.096   3.667   1.605  1.00  0.00     0.012 C 
HETATM   31  C21 UNL     1      -0.246   2.227   1.631  1.00  0.00     0.073 C 
BRANCH  31  32
HETATM   32  C22 UNL     1      -0.560   1.687   2.988  1.00  0.00     0.359 C 
HETATM   33  F1  UNL     1      -1.168   0.464   2.947  1.00  0.00    -0.214 F 
HETATM   34  F2  UNL     1       0.607   1.558   3.698  1.00  0.00    -0.214 F 
ENDBRANCH  31  32
ENDBRANCH  24  26
ENDBRANCH   9  24
TORSDOF 9
ENDMDL
MODEL 3
REMARK VINA RESULT: -5.770839613      3.371      5.374
REMARK  9 active torsions:
REMARK  status: ('A' for Active; 'I' for Inactive)
REMARK    1  A    between atoms: C2_2  and  O1_5 
REMARK    2  A    between atoms: O1_5  and  C5_6 
REMARK    3  A    between atoms: C5_6  and  C6_7 
REMARK    4  A    between atoms: C6_7  and  O2_8 
REMARK    5  A    between atoms: O2_8  and  C7_9 
REMARK    6  A    between atoms: C10_12  and  C11_13 
REMARK    7  A    between atoms: C15_21  and  N3_22 
REMARK    8  A    between atoms: N3_22  and  C16_24 
REMARK    9  A    between atoms: C21_29  and  C22_30 
ROOT
HETATM    1  C11 UNL     1      -4.290   2.620   1.395  1.00  0.00     0.106 A 
HETATM    2  N1  UNL     1      -5.568   2.704   0.841  1.00  0.00    -0.331 N 
ATOM      3  H1  UNL     1      -6.448   2.677   1.356  1.00  0.00     0.168 HD
HETATM    4  C12 UNL     1      -5.437   2.825  -0.479  1.00  0.00     0.157 A 
HETATM    5  S1  UNL     1      -6.303   2.975  -1.945  1.00  0.00    -0.064 SA
HETATM    6  C13 UNL     1      -4.972   3.043  -3.006  1.00  0.00     0.071 A 
HETATM    7  C14 UNL     1      -3.914   2.943  -2.144  1.00  0.00     0.108 A 
HETATM    8  N2  UNL     1      -4.171   2.833  -0.854  1.00  0.00    -0.286 N 
HETATM    9  C15 UNL     1      -3.426   2.708   0.352  1.00  0.00     0.139 A 
ENDROOT
BRANCH   1  10
HETATM   10  C10 UNL     1      -4.143   2.410   2.828  1.00  0.00     0.065 A 
HETATM   11  C9  UNL     1      -3.830   3.272   3.823  1.00  0.00     0.036 A 
HETATM   12  C8  UNL     1      -3.660   2.531   4.979  1.00  0.00     0.058 A 
HETATM   13  C7  UNL     1      -3.866   1.211   4.698  1.00  0.00     0.142 A 
HETATM   14  N4  UNL     1      -4.159   1.161   3.387  1.00  0.00    -0.335 N 
ATOM     15  H4  UNL     1      -4.366   0.302   2.875  1.00  0.00     0.168 HD
BRANCH  13  16
HETATM   16  O2  UNL     1      -3.800   0.113   5.562  1.00  0.00    -0.334 OA
BRANCH  16  17
HETATM   17  C6  UNL     1      -4.861  -0.861   5.387  1.00  0.00     0.203 C 
BRANCH  17  18
HETATM   18  C5  UNL     1      -6.189  -0.235   5.510  1.00  0.00     0.195 C 
BRANCH  18  19
HETATM   19  O1  UNL     1      -6.886  -0.139   4.367  1.00  0.00    -0.379 OA
BRANCH  19  20
HETATM   20  C2  UNL     1      -7.735   0.833   4.049  1.00  0.00     0.050 C 
HETATM   21  C1  UNL     1      -9.113   0.431   4.661  1.00  0.00     0.045 C 
HETATM   22  C3  UNL     1      -7.472   2.190   4.624  1.00  0.00     0.045 C 
HETATM   23  C4  UNL     1      -7.977   0.894   2.550  1.00  0.00     0.045 C 
ENDBRANCH  19  20
ENDBRANCH  18  19
ENDBRANCH  17  18
ENDBRANCH  16  17
ENDBRANCH  13  16
ENDBRANCH   1  10
BRANCH   9  24
HETATM   24  N3  UNL     1      -2.038   2.939   0.359  1.00  0.00    -0.369 N 
ATOM     25  H3  UNL     1      -1.814   3.924   0.500  1.00  0.00     0.161 HD
BRANCH  24  26
HETATM   26  C16 UNL     1      -0.880   2.147   0.221  1.00  0.00     0.092 C 
HETATM   27  C17 UNL     1      -0.041   2.486  -0.981  1.00  0.00     0.026 C 
HETATM   28  C18 UNL     1       1.121   3.372  -0.731  1.00  0.00     0.002 C 
HETATM   29  C19 UNL     1       0.851   4.511   0.227  1.00  0.00     0.001 C 
HETATM   30  C20 UNL     1       0.230   4.016   1.514  1.00  0.00     0.012 C 
HETATM   31  C21 UNL     1       0.059   2.548   1.422  1.00  0.00     0.073 C 
BRANCH  31  32
HETATM   32  C22 UNL     1      -0.509   1.910   2.648  1.00  0.00     0.359 C 
HETATM   33  F1  UNL     1      -1.107   0.708   2.395  1.00  0.00    -0.214 F 
HETATM   34  F2  UNL     1       0.502   1.702   3.551  1.00  0.00    -0.214 F 
ENDBRANCH  31  32
ENDBRANCH  24  26
ENDBRANCH   9  24
TORSDOF 9
ENDMDL
MODEL 4
REMARK VINA RESULT: -5.713982668      4.116      6.400
REMARK  9 active torsions:
REMARK  status: ('A' for Active; 'I' for Inactive)
REMARK    1  A    between atoms: C2_2  and  O1_5 
REMARK    2  A    between atoms: O1_5  and  C5_6 
REMARK    3  A    between atoms: C5_6  and  C6_7 
REMARK    4  A    between atoms: C6_7  and  O2_8 
REMARK    5  A    between atoms: O2_8  and  C7_9 
REMARK    6  A    between atoms: C10_12  and  C11_13 
REMARK    7  A    between atoms: C15_21  and  N3_22 
REMARK    8  A    between atoms: N3_22  and  C16_24 
REMARK    9  A    between atoms: C21_29  and  C22_30 
ROOT
HETATM    1  C11 UNL     1       0.085   4.195  -0.183  1.00  0.00     0.106 A 
HETATM    2  N1  UNL     1       0.755   5.187  -0.900  1.00  0.00    -0.331 N 
ATOM      3  H1  UNL     1       0.409   5.662  -1.734  1.00  0.00     0.168 HD
HETATM    4  C12 UNL     1       1.926   5.406  -0.304  1.00  0.00     0.157 A 
HETATM    5  S1  UNL     1       3.365   6.325  -0.381  1.00  0.00    -0.064 SA
HETATM    6  C13 UNL     1       4.142   5.673   0.988  1.00  0.00     0.071 A 
HETATM    7  C14 UNL     1       3.222   4.763   1.432  1.00  0.00     0.108 A 
HETATM    8  N2  UNL     1       2.093   4.640   0.759  1.00  0.00    -0.286 N 
HETATM    9  C15 UNL     1       0.905   3.862   0.846  1.00  0.00     0.139 A 
ENDROOT
BRANCH   1  10
HETATM   10  C10 UNL     1      -1.201   3.710  -0.663  1.00  0.00     0.065 A 
HETATM   11  C9  UNL     1      -1.637   2.455  -0.916  1.00  0.00     0.036 A 
HETATM   12  C8  UNL     1      -2.882   2.557  -1.510  1.00  0.00     0.058 A 
HETATM   13  C7  UNL     1      -3.215   3.876  -1.625  1.00  0.00     0.142 A 
HETATM   14  N4  UNL     1      -2.181   4.558  -1.104  1.00  0.00    -0.335 N 
ATOM     15  H4  UNL     1      -2.133   5.576  -1.046  1.00  0.00     0.168 HD
BRANCH  13  16
HETATM   16  O2  UNL     1      -4.377   4.441  -2.163  1.00  0.00    -0.334 OA
BRANCH  16  17
HETATM   17  C6  UNL     1      -4.374   4.573  -3.608  1.00  0.00     0.203 C 
BRANCH  17  18
HETATM   18  C5  UNL     1      -5.506   3.852  -4.214  1.00  0.00     0.195 C 
BRANCH  18  19
HETATM   19  O1  UNL     1      -5.345   2.526  -4.334  1.00  0.00    -0.379 OA
BRANCH  19  20
HETATM   20  C2  UNL     1      -6.122   1.592  -3.797  1.00  0.00     0.050 C 
HETATM   21  C1  UNL     1      -5.265   0.289  -3.734  1.00  0.00     0.045 C 
HETATM   22  C3  UNL     1      -6.564   1.796  -2.381  1.00  0.00     0.045 C 
HETATM   23  C4  UNL     1      -7.290   1.246  -4.706  1.00  0.00     0.045 C 
ENDBRANCH  19  20
ENDBRANCH  18  19
ENDBRANCH  17  18
ENDBRANCH  16  17
ENDBRANCH  13  16
ENDBRANCH   1  10
BRANCH   9  24
HETATM   24  N3  UNL     1       0.624   3.118   2.007  1.00  0.00    -0.369 N 
ATOM     25  H3  UNL     1       0.976   2.162   1.943  1.00  0.00     0.161 HD
BRANCH  24  26
HETATM   26  C16 UNL     1      -0.023   3.363   3.234  1.00  0.00     0.092 C 
HETATM   27  C17 UNL     1      -1.442   3.847   3.097  1.00  0.00     0.026 C 
HETATM   28  C18 UNL     1      -2.496   2.816   3.244  1.00  0.00     0.002 C 
HETATM   29  C19 UNL     1      -2.183   1.496   2.576  1.00  0.00     0.001 C 
HETATM   30  C20 UNL     1      -0.823   0.977   2.985  1.00  0.00     0.012 C 
HETATM   31  C21 UNL     1      -0.204   1.951   3.912  1.00  0.00     0.073 C 
BRANCH  31  32
HETATM   32  C22 UNL     1       1.135   1.548   4.437  1.00  0.00     0.359 C 
HETATM   33  F1  UNL     1       1.507   2.252   5.547  1.00  0.00    -0.214 F 
HETATM   34  F2  UNL     1       1.101   0.217   4.769  1.00  0.00    -0.214 F 
ENDBRANCH  31  32
ENDBRANCH  24  26
ENDBRANCH   9  24
TORSDOF 9
ENDMDL
MODEL 5
REMARK VINA RESULT: -5.627084897      1.338      2.063
REMARK  9 active torsions:
REMARK  status: ('A' for Active; 'I' for Inactive)
REMARK    1  A    between atoms: C2_2  and  O1_5 
REMARK    2  A    between atoms: O1_5  and  C5_6 
REMARK    3  A    between atoms: C5_6  and  C6_7 
REMARK    4  A    between atoms: C6_7  and  O2_8 
REMARK    5  A    between atoms: O2_8  and  C7_9 
REMARK    6  A    between atoms: C10_12  and  C11_13 
REMARK    7  A    between atoms: C15_21  and  N3_22 
REMARK    8  A    between atoms: N3_22  and  C16_24 
REMARK    9  A    between atoms: C21_29  and  C22_30 
ROOT
HETATM    1  C11 UNL     1       1.557   3.626   3.834  1.00  0.00     0.106 A 
HETATM    2  N1  UNL     1       2.842   4.071   4.146  1.00  0.00    -0.331 N 
ATOM      3  H1  UNL     1       3.327   3.930   5.032  1.00  0.00     0.168 HD
HETATM    4  C12 UNL     1       3.324   4.712   3.082  1.00  0.00     0.157 A 
HETATM    5  S1  UNL     1       4.678   5.565   2.480  1.00  0.00    -0.064 SA
HETATM    6  C13 UNL     1       4.070   5.918   0.928  1.00  0.00     0.071 A 
HETATM    7  C14 UNL     1       2.829   5.341   0.969  1.00  0.00     0.108 A 
HETATM    8  N2  UNL     1       2.465   4.728   2.080  1.00  0.00    -0.286 N 
HETATM    9  C15 UNL     1       1.325   4.023   2.557  1.00  0.00     0.139 A 
ENDROOT
BRANCH   1  10
HETATM   10  C10 UNL     1       0.767   2.949   4.853  1.00  0.00     0.065 A 
HETATM   11  C9  UNL     1       0.968   1.776   5.497  1.00  0.00     0.036 A 
HETATM   12  C8  UNL     1      -0.164   1.514   6.249  1.00  0.00     0.058 A 
HETATM   13  C7  UNL     1      -1.064   2.523   6.068  1.00  0.00     0.142 A 
HETATM   14  N4  UNL     1      -0.478   3.384   5.218  1.00  0.00    -0.335 N 
ATOM     15  H4  UNL     1      -0.907   4.250   4.888  1.00  0.00     0.168 HD
BRANCH  13  16
HETATM   16  O2  UNL     1      -2.336   2.671   6.631  1.00  0.00    -0.334 OA
BRANCH  16  17
HETATM   17  C6  UNL     1      -3.222   3.559   5.901  1.00  0.00     0.203 C 
BRANCH  17  18
HETATM   18  C5  UNL     1      -4.275   2.807   5.197  1.00  0.00     0.195 C 
BRANCH  18  19
HETATM   19  O1  UNL     1      -4.323   1.495   5.473  1.00  0.00    -0.379 OA
BRANCH  19  20
HETATM   20  C2  UNL     1      -5.355   0.688   5.250  1.00  0.00     0.050 C 
HETATM   21  C1  UNL     1      -6.381   0.959   6.395  1.00  0.00     0.045 C 
HETATM   22  C3  UNL     1      -6.149   0.915   4.000  1.00  0.00     0.045 C 
HETATM   23  C4  UNL     1      -4.967  -0.773   5.413  1.00  0.00     0.045 C 
ENDBRANCH  19  20
ENDBRANCH  18  19
ENDBRANCH  17  18
ENDBRANCH  16  17
ENDBRANCH  13  16
ENDBRANCH   1  10
BRANCH   9  24
HETATM   24  N3  UNL     1       0.311   3.622   1.668  1.00  0.00    -0.369 N 
ATOM     25  H3  UNL     1       0.642   2.930   0.996  1.00  0.00     0.161 HD
BRANCH  24  26
HETATM   26  C16 UNL     1      -1.049   3.940   1.475  1.00  0.00     0.092 C 
HETATM   27  C17 UNL     1      -1.313   4.819   0.283  1.00  0.00     0.026 C 
HETATM   28  C18 UNL     1      -1.749   4.124  -0.952  1.00  0.00     0.002 C 
HETATM   29  C19 UNL     1      -1.019   2.830  -1.237  1.00  0.00     0.001 C 
HETATM   30  C20 UNL     1      -1.032   1.912  -0.036  1.00  0.00     0.012 C 
HETATM   31  C21 UNL     1      -1.750   2.587   1.068  1.00  0.00     0.073 C 
BRANCH  31  32
HETATM   32  C22 UNL     1      -1.879   1.775   2.315  1.00  0.00     0.359 C 
HETATM   33  F1  UNL     1      -3.136   1.268   2.493  1.00  0.00    -0.214 F 
HETATM   34  F2  UNL     1      -1.001   0.722   2.255  1.00  0.00    -0.214 F 
ENDBRANCH  31  32
ENDBRANCH  24  26
ENDBRANCH   9  24
TORSDOF 9
ENDMDL
