MODEL 1
REMARK VINA RESULT: -6.277736472      0.000      0.000
REMARK  4 active torsions:
REMARK  status: ('A' for Active; 'I' for Inactive)
REMARK    1  A    between atoms: C4_4  and  O1_5 
REMARK    2  A    between atoms: O1_5  and  C5_6 
REMARK       I    between atoms: C5_6  and  N1_8 
REMARK    3  A    between atoms: N1_8  and  C6_10 
REMARK    4  A    between atoms: C11_16  and  O3_17 
ROOT
HETATM    1  C5  UNL     1     -10.401  84.370   7.684  1.00  0.00     0.361 C 
HETATM    2  O2  UNL     1     -10.122  83.199   8.048  1.00  0.00    -0.238 OA
HETATM    3  N1  UNL     1      -9.427  85.403   7.867  1.00  0.00    -0.330 N 
ATOM      4  H1  UNL     1      -9.678  86.343   7.561  1.00  0.00     0.165 HD
ENDROOT
BRANCH   1   5
HETATM    5  O1  UNL     1     -11.633  84.583   7.127  1.00  0.00    -0.299 OA
BRANCH   5   6
HETATM    6  C4  UNL     1     -12.251  83.810   6.148  1.00  0.00     0.134 C 
HETATM    7  C3  UNL     1     -11.588  84.004   4.789  1.00  0.00     0.037 C 
HETATM    8  C2  UNL     1     -12.112  83.064   3.761  1.00  0.00    -0.015 C 
HETATM    9  C1  UNL     1     -11.052  82.090   3.273  1.00  0.00     0.010 C 
HETATM   10  C16 UNL     1     -13.241  82.274   4.325  1.00  0.00     0.013 C 
HETATM   11  C13 UNL     1     -14.285  83.092   5.025  1.00  0.00    -0.045 C 
HETATM   12  C12 UNL     1     -13.738  84.032   6.049  1.00  0.00     0.041 C 
HETATM   13  C14 UNL     1     -15.097  83.865   3.978  1.00  0.00     0.015 C 
HETATM   14  C15 UNL     1     -15.267  82.099   5.654  1.00  0.00     0.015 C 
ENDBRANCH   5   6
ENDBRANCH   1   5
BRANCH   3  15
HETATM   15  C6  UNL     1      -8.147  85.224   8.436  1.00  0.00     0.118 C 
HETATM   16  C7  UNL     1      -7.978  85.744   9.829  1.00  0.00     0.058 C 
HETATM   17  C8  UNL     1      -6.617  85.492  10.334  1.00  0.00     0.274 C 
HETATM   18  N2  UNL     1      -5.540  85.599   9.430  1.00  0.00     0.086 N 
HETATM   19  C9  UNL     1      -4.401  84.771   9.794  1.00  0.00     0.310 C 
HETATM   20  C10 UNL     1      -5.797  85.443   8.053  1.00  0.00     0.305 C 
HETATM   21  C11 UNL     1      -7.123  86.004   7.599  1.00  0.00     0.169 C 
BRANCH  21  22
HETATM   22  O3  UNL     1      -7.157  87.347   7.985  1.00  0.00    -0.392 OA
ATOM     23  H3  UNL     1      -6.311  87.738   7.803  1.00  0.00     0.210 HD
ENDBRANCH  21  22
ENDBRANCH   3  15
TORSDOF 4
ENDMDL
MODEL 2
REMARK VINA RESULT: -6.275699945      2.407      4.272
REMARK  4 active torsions:
REMARK  status: ('A' for Active; 'I' for Inactive)
REMARK    1  A    between atoms: C4_4  and  O1_5 
REMARK    2  A    between atoms: O1_5  and  C5_6 
REMARK       I    between atoms: C5_6  and  N1_8 
REMARK    3  A    between atoms: N1_8  and  C6_10 
REMARK    4  A    between atoms: C11_16  and  O3_17 
ROOT
HETATM    1  C5  UNL     1     -13.200  84.539   5.128  1.00  0.00     0.361 C 
HETATM    2  O2  UNL     1     -12.505  84.875   4.135  1.00  0.00    -0.238 OA
HETATM    3  N1  UNL     1     -12.543  84.239   6.364  1.00  0.00    -0.330 N 
ATOM      4  H1  UNL     1     -13.130  83.971   7.154  1.00  0.00     0.165 HD
ENDROOT
BRANCH   1   5
HETATM    5  O1  UNL     1     -14.558  84.484   4.961  1.00  0.00    -0.299 OA
BRANCH   5   6
HETATM    6  C4  UNL     1     -15.251  83.744   4.008  1.00  0.00     0.134 C 
HETATM    7  C3  UNL     1     -16.432  84.529   3.448  1.00  0.00     0.037 C 
HETATM    8  C2  UNL     1     -17.087  83.834   2.307  1.00  0.00    -0.015 C 
HETATM    9  C1  UNL     1     -16.953  84.606   1.005  1.00  0.00     0.010 C 
HETATM   10  C16 UNL     1     -16.475  82.490   2.113  1.00  0.00     0.013 C 
HETATM   11  C13 UNL     1     -16.354  81.674   3.365  1.00  0.00    -0.045 C 
HETATM   12  C12 UNL     1     -15.698  82.391   4.500  1.00  0.00     0.041 C 
HETATM   13  C14 UNL     1     -17.749  81.190   3.781  1.00  0.00     0.015 C 
HETATM   14  C15 UNL     1     -15.577  80.409   2.988  1.00  0.00     0.015 C 
ENDBRANCH   5   6
ENDBRANCH   1   5
BRANCH   3  15
HETATM   15  C6  UNL     1     -11.148  84.284   6.576  1.00  0.00     0.118 C 
HETATM   16  C7  UNL     1     -10.442  82.965   6.531  1.00  0.00     0.058 C 
HETATM   17  C8  UNL     1      -8.993  83.124   6.746  1.00  0.00     0.274 C 
HETATM   18  N2  UNL     1      -8.560  84.100   7.667  1.00  0.00     0.086 N 
HETATM   19  C9  UNL     1      -7.231  84.617   7.374  1.00  0.00     0.310 C 
HETATM   20  C10 UNL     1      -9.416  85.181   7.960  1.00  0.00     0.305 C 
HETATM   21  C11 UNL     1     -10.882  84.823   7.989  1.00  0.00     0.169 C 
BRANCH  21  22
HETATM   22  O3  UNL     1     -11.034  83.778   8.905  1.00  0.00    -0.392 OA
ATOM     23  H3  UNL     1     -10.227  83.683   9.397  1.00  0.00     0.210 HD
ENDBRANCH  21  22
ENDBRANCH   3  15
TORSDOF 4
ENDMDL
MODEL 3
REMARK VINA RESULT: -6.155688078      2.910      8.021
REMARK  4 active torsions:
REMARK  status: ('A' for Active; 'I' for Inactive)
REMARK    1  A    between atoms: C4_4  and  O1_5 
REMARK    2  A    between atoms: O1_5  and  C5_6 
REMARK       I    between atoms: C5_6  and  N1_8 
REMARK    3  A    between atoms: N1_8  and  C6_10 
REMARK    4  A    between atoms: C11_16  and  O3_17 
ROOT
HETATM    1  C5  UNL     1     -11.266  82.408   5.706  1.00  0.00     0.361 C 
HETATM    2  O2  UNL     1     -10.924  82.463   4.497  1.00  0.00    -0.238 OA
HETATM    3  N1  UNL     1     -12.656  82.498   6.037  1.00  0.00    -0.330 N 
ATOM      4  H1  UNL     1     -12.907  82.448   7.025  1.00  0.00     0.165 HD
ENDROOT
BRANCH   1   5
HETATM    5  O1  UNL     1     -10.276  82.261   6.639  1.00  0.00    -0.299 OA
BRANCH   5   6
HETATM    6  C4  UNL     1      -9.717  83.263   7.427  1.00  0.00     0.134 C 
HETATM    7  C3  UNL     1     -10.426  84.596   7.212  1.00  0.00     0.037 C 
HETATM    8  C2  UNL     1      -9.967  85.644   8.164  1.00  0.00    -0.015 C 
HETATM    9  C1  UNL     1     -11.071  86.092   9.108  1.00  0.00     0.010 C 
HETATM   10  C16 UNL     1      -8.839  85.123   8.986  1.00  0.00     0.013 C 
HETATM   11  C13 UNL     1      -7.748  84.463   8.198  1.00  0.00    -0.045 C 
HETATM   12  C12 UNL     1      -8.229  83.418   7.245  1.00  0.00     0.041 C 
HETATM   13  C14 UNL     1      -6.955  85.539   7.446  1.00  0.00     0.015 C 
HETATM   14  C15 UNL     1      -6.769  83.873   9.218  1.00  0.00     0.015 C 
ENDBRANCH   5   6
ENDBRANCH   1   5
BRANCH   3  15
HETATM   15  C6  UNL     1     -13.707  82.649   5.106  1.00  0.00     0.118 C 
HETATM   16  C7  UNL     1     -14.175  84.053   4.878  1.00  0.00     0.058 C 
HETATM   17  C8  UNL     1     -15.257  84.102   3.879  1.00  0.00     0.274 C 
HETATM   18  N2  UNL     1     -16.203  83.055   3.870  1.00  0.00     0.086 N 
HETATM   19  C9  UNL     1     -16.803  82.836   2.563  1.00  0.00     0.310 C 
HETATM   20  C10 UNL     1     -15.839  81.811   4.421  1.00  0.00     0.305 C 
HETATM   21  C11 UNL     1     -14.942  81.904   5.632  1.00  0.00     0.169 C 
BRANCH  21  22
HETATM   22  O3  UNL     1     -15.592  82.715   6.566  1.00  0.00    -0.392 OA
ATOM     23  H3  UNL     1     -16.384  82.276   6.853  1.00  0.00     0.210 HD
ENDBRANCH  21  22
ENDBRANCH   3  15
TORSDOF 4
ENDMDL
MODEL 4
REMARK VINA RESULT: -6.119460094      1.958      7.720
REMARK  4 active torsions:
REMARK  status: ('A' for Active; 'I' for Inactive)
REMARK    1  A    between atoms: C4_4  and  O1_5 
REMARK    2  A    between atoms: O1_5  and  C5_6 
REMARK       I    between atoms: C5_6  and  N1_8 
REMARK    3  A    between atoms: N1_8  and  C6_10 
REMARK    4  A    between atoms: C11_16  and  O3_17 
ROOT
HETATM    1  C5  UNL     1     -10.142  84.416   8.154  1.00  0.00     0.361 C 
HETATM    2  O2  UNL     1     -10.127  83.213   8.518  1.00  0.00    -0.238 OA
HETATM    3  N1  UNL     1     -10.863  84.772   6.969  1.00  0.00    -0.330 N 
ATOM      4  H1  UNL     1     -10.862  85.755   6.696  1.00  0.00     0.165 HD
ENDROOT
BRANCH   1   5
HETATM    5  O1  UNL     1      -9.462  85.321   8.924  1.00  0.00    -0.299 OA
BRANCH   5   6
HETATM    6  C4  UNL     1      -8.087  85.532   8.943  1.00  0.00     0.134 C 
HETATM    7  C3  UNL     1      -7.596  85.866  10.348  1.00  0.00     0.037 C 
HETATM    8  C2  UNL     1      -6.112  85.927  10.432  1.00  0.00    -0.015 C 
HETATM    9  C1  UNL     1      -5.539  84.841  11.329  1.00  0.00     0.010 C 
HETATM   10  C16 UNL     1      -5.520  85.765   9.075  1.00  0.00     0.013 C 
HETATM   11  C13 UNL     1      -6.129  86.642   8.022  1.00  0.00    -0.045 C 
HETATM   12  C12 UNL     1      -7.619  86.570   7.956  1.00  0.00     0.041 C 
HETATM   13  C14 UNL     1      -5.678  88.089   8.256  1.00  0.00     0.015 C 
HETATM   14  C15 UNL     1      -5.496  86.227   6.690  1.00  0.00     0.015 C 
ENDBRANCH   5   6
ENDBRANCH   1   5
BRANCH   3  15
HETATM   15  C6  UNL     1     -11.576  83.871   6.148  1.00  0.00     0.118 C 
HETATM   16  C7  UNL     1     -10.740  82.976   5.288  1.00  0.00     0.058 C 
HETATM   17  C8  UNL     1     -11.578  82.066   4.488  1.00  0.00     0.274 C 
HETATM   18  N2  UNL     1     -12.798  82.558   3.979  1.00  0.00     0.086 N 
HETATM   19  C9  UNL     1     -13.796  81.519   3.776  1.00  0.00     0.310 C 
HETATM   20  C10 UNL     1     -13.405  83.655   4.622  1.00  0.00     0.305 C 
HETATM   21  C11 UNL     1     -12.433  84.677   5.160  1.00  0.00     0.169 C 
BRANCH  21  22
HETATM   22  O3  UNL     1     -11.626  85.082   4.094  1.00  0.00    -0.392 OA
ATOM     23  H3  UNL     1     -12.113  84.977   3.285  1.00  0.00     0.210 HD
ENDBRANCH  21  22
ENDBRANCH   3  15
TORSDOF 4
ENDMDL
MODEL 5
REMARK VINA RESULT: -6.063502151      1.456      2.821
REMARK  4 active torsions:
REMARK  status: ('A' for Active; 'I' for Inactive)
REMARK    1  A    between atoms: C4_4  and  O1_5 
REMARK    2  A    between atoms: O1_5  and  C5_6 
REMARK       I    between atoms: C5_6  and  N1_8 
REMARK    3  A    between atoms: N1_8  and  C6_10 
REMARK    4  A    between atoms: C11_16  and  O3_17 
ROOT
HETATM    1  C5  UNL     1     -10.423  84.939   8.211  1.00  0.00     0.361 C 
HETATM    2  O2  UNL     1     -10.814  85.776   9.064  1.00  0.00    -0.238 OA
HETATM    3  N1  UNL     1      -9.039  84.914   7.848  1.00  0.00    -0.330 N 
ATOM      4  H1  UNL     1      -8.748  84.224   7.155  1.00  0.00     0.165 HD
ENDROOT
BRANCH   1   5
HETATM    5  O1  UNL     1     -11.359  84.092   7.680  1.00  0.00    -0.299 OA
BRANCH   5   6
HETATM    6  C4  UNL     1     -11.648  83.911   6.330  1.00  0.00     0.134 C 
HETATM    7  C3  UNL     1     -13.124  83.595   6.117  1.00  0.00     0.037 C 
HETATM    8  C2  UNL     1     -13.497  83.567   4.677  1.00  0.00    -0.015 C 
HETATM    9  C1  UNL     1     -14.478  84.669   4.312  1.00  0.00     0.010 C 
HETATM   10  C16 UNL     1     -12.280  83.733   3.834  1.00  0.00     0.013 C 
HETATM   11  C13 UNL     1     -11.137  82.839   4.208  1.00  0.00    -0.045 C 
HETATM   12  C12 UNL     1     -10.781  82.878   5.659  1.00  0.00     0.041 C 
HETATM   13  C14 UNL     1     -11.468  81.403   3.784  1.00  0.00     0.015 C 
HETATM   14  C15 UNL     1      -9.950  83.260   3.336  1.00  0.00     0.015 C 
ENDBRANCH   5   6
ENDBRANCH   1   5
BRANCH   3  15
HETATM   15  C6  UNL     1      -8.044  85.768   8.372  1.00  0.00     0.118 C 
HETATM   16  C7  UNL     1      -6.857  86.000   7.490  1.00  0.00     0.058 C 
HETATM   17  C8  UNL     1      -5.891  86.917   8.120  1.00  0.00     0.274 C 
HETATM   18  N2  UNL     1      -5.699  86.825   9.515  1.00  0.00     0.086 N 
HETATM   19  C9  UNL     1      -5.268  88.077  10.118  1.00  0.00     0.310 C 
HETATM   20  C10 UNL     1      -6.725  86.268  10.304  1.00  0.00     0.305 C 
HETATM   21  C11 UNL     1      -7.468  85.131   9.645  1.00  0.00     0.169 C 
BRANCH  21  22
HETATM   22  O3  UNL     1      -6.518  84.174   9.277  1.00  0.00    -0.392 OA
ATOM     23  H3  UNL     1      -5.917  84.046  10.002  1.00  0.00     0.210 HD
ENDBRANCH  21  22
ENDBRANCH   3  15
TORSDOF 4
ENDMDL
