MODEL 1
REMARK VINA RESULT: -6.782441225      0.000      0.000
REMARK  7 active torsions:
REMARK  status: ('A' for Active; 'I' for Inactive)
REMARK    1  A    between atoms: C2_2  and  C5_5 
REMARK    2  A    between atoms: C5_5  and  C6_6 
REMARK    3  A    between atoms: C6_6  and  N1_7 
REMARK    4  A    between atoms: C9_10  and  N2_11 
REMARK    5  A    between atoms: N2_11  and  C10_13 
REMARK    6  A    between atoms: C10_13  and  N3_15 
REMARK    7  A    between atoms: N3_15  and  N4_17 
ROOT
HETATM    1  N1  UNL     1     -16.221  83.234   2.757  1.00  0.00     0.117 N 
HETATM    2  C7  UNL     1     -16.828  84.278   2.011  1.00  0.00     0.283 C 
HETATM    3  C8  UNL     1     -17.537  83.849   0.778  1.00  0.00     0.106 C 
HETATM    4  C9  UNL     1     -17.308  82.437   0.464  1.00  0.00     0.082 C 
HETATM    5  N5  UNL     1     -17.066  81.584   1.380  1.00  0.00    -0.345 N 
ATOM      6  H5  UNL     1     -16.909  80.603   1.146  1.00  0.00     0.163 HD
HETATM    7  C11 UNL     1     -17.018  82.030   2.758  1.00  0.00     0.226 C 
HETATM    8  C12 UNL     1     -18.403  82.197   3.273  1.00  0.00     0.073 C 
HETATM    9  C13 UNL     1     -16.342  80.945   3.545  1.00  0.00     0.073 C 
ENDROOT
BRANCH   4  10
HETATM   10  N2  UNL     1     -17.352  81.977  -0.876  1.00  0.00    -0.322 N 
ATOM     11  H2  UNL     1     -17.033  82.601  -1.617  1.00  0.00     0.169 HD
BRANCH  10  12
HETATM   12  C10 UNL     1     -17.819  80.690  -1.228  1.00  0.00     0.191 C 
HETATM   13  S1  UNL     1     -16.758  79.484  -1.583  1.00  0.00    -0.039 SA
BRANCH  12  14
HETATM   14  N3  UNL     1     -19.201  80.395  -1.291  1.00  0.00    -0.283 N 
ATOM     15  H3  UNL     1     -19.648  79.930  -0.500  1.00  0.00     0.188 HD
BRANCH  14  16
HETATM   16  N4  UNL     1     -19.975  80.727  -2.421  1.00  0.00    -0.343 N 
ATOM     17  H42 UNL     1     -20.408  81.651  -2.454  1.00  0.00     0.176 HD
ATOM     18  H41 UNL     1     -20.106  80.070  -3.190  1.00  0.00     0.176 HD
ENDBRANCH  14  16
ENDBRANCH  12  14
ENDBRANCH  10  12
ENDBRANCH   4  10
BRANCH   1  19
HETATM   19  C6  UNL     1     -15.841  83.645   4.090  1.00  0.00     0.276 C 
BRANCH  19  20
HETATM   20  C5  UNL     1     -14.635  84.507   4.002  1.00  0.00     0.039 C 
BRANCH  20  21
HETATM   21  C2  UNL     1     -13.393  83.906   4.594  1.00  0.00    -0.050 C 
HETATM   22  C1  UNL     1     -13.643  83.756   6.099  1.00  0.00     0.014 C 
HETATM   23  C3  UNL     1     -13.015  82.581   4.046  1.00  0.00     0.014 C 
HETATM   24  C4  UNL     1     -12.196  84.836   4.467  1.00  0.00     0.014 C 
ENDBRANCH  20  21
ENDBRANCH  19  20
ENDBRANCH   1  19
TORSDOF 7
ENDMDL
MODEL 2
REMARK VINA RESULT: -5.914203886      1.901      2.790
REMARK  7 active torsions:
REMARK  status: ('A' for Active; 'I' for Inactive)
REMARK    1  A    between atoms: C2_2  and  C5_5 
REMARK    2  A    between atoms: C5_5  and  C6_6 
REMARK    3  A    between atoms: C6_6  and  N1_7 
REMARK    4  A    between atoms: C9_10  and  N2_11 
REMARK    5  A    between atoms: N2_11  and  C10_13 
REMARK    6  A    between atoms: C10_13  and  N3_15 
REMARK    7  A    between atoms: N3_15  and  N4_17 
ROOT
HETATM    1  N1  UNL     1     -14.818  81.990   3.691  1.00  0.00     0.117 N 
HETATM    2  C7  UNL     1     -15.662  83.052   4.109  1.00  0.00     0.283 C 
HETATM    3  C8  UNL     1     -17.030  83.041   3.530  1.00  0.00     0.106 C 
HETATM    4  C9  UNL     1     -17.184  82.033   2.478  1.00  0.00     0.082 C 
HETATM    5  N5  UNL     1     -16.493  80.962   2.478  1.00  0.00    -0.345 N 
ATOM      6  H5  UNL     1     -16.612  80.269   1.739  1.00  0.00     0.163 HD
HETATM    7  C11 UNL     1     -15.537  80.746   3.546  1.00  0.00     0.226 C 
HETATM    8  C12 UNL     1     -16.252  80.290   4.767  1.00  0.00     0.073 C 
HETATM    9  C13 UNL     1     -14.617  79.650   3.093  1.00  0.00     0.073 C 
ENDROOT
BRANCH   4  10
HETATM   10  N2  UNL     1     -18.115  82.222   1.426  1.00  0.00    -0.322 N 
ATOM     11  H2  UNL     1     -19.111  82.200   1.644  1.00  0.00     0.169 HD
BRANCH  10  12
HETATM   12  C10 UNL     1     -17.720  82.440   0.086  1.00  0.00     0.191 C 
HETATM   13  S1  UNL     1     -18.130  81.365  -1.091  1.00  0.00    -0.039 SA
BRANCH  12  14
HETATM   14  N3  UNL     1     -16.962  83.574  -0.289  1.00  0.00    -0.283 N 
ATOM     15  H3  UNL     1     -16.234  83.475  -0.996  1.00  0.00     0.188 HD
BRANCH  14  16
HETATM   16  N4  UNL     1     -17.190  84.837   0.293  1.00  0.00    -0.343 N 
ATOM     17  H42 UNL     1     -18.110  85.263   0.178  1.00  0.00     0.176 HD
ATOM     18  H41 UNL     1     -16.462  85.323   0.816  1.00  0.00     0.176 HD
ENDBRANCH  14  16
ENDBRANCH  12  14
ENDBRANCH  10  12
ENDBRANCH   4  10
BRANCH   1  19
HETATM   19  C6  UNL     1     -13.639  81.853   4.518  1.00  0.00     0.276 C 
BRANCH  19  20
HETATM   20  C5  UNL     1     -13.537  83.035   5.411  1.00  0.00     0.039 C 
BRANCH  20  21
HETATM   21  C2  UNL     1     -12.234  83.774   5.322  1.00  0.00    -0.050 C 
HETATM   22  C1  UNL     1     -12.460  84.968   4.390  1.00  0.00     0.014 C 
HETATM   23  C3  UNL     1     -11.710  84.278   6.615  1.00  0.00     0.014 C 
HETATM   24  C4  UNL     1     -11.150  82.936   4.661  1.00  0.00     0.014 C 
ENDBRANCH  20  21
ENDBRANCH  19  20
ENDBRANCH   1  19
TORSDOF 7
ENDMDL
MODEL 3
REMARK VINA RESULT: -5.780863467      1.767      2.669
REMARK  7 active torsions:
REMARK  status: ('A' for Active; 'I' for Inactive)
REMARK    1  A    between atoms: C2_2  and  C5_5 
REMARK    2  A    between atoms: C5_5  and  C6_6 
REMARK    3  A    between atoms: C6_6  and  N1_7 
REMARK    4  A    between atoms: C9_10  and  N2_11 
REMARK    5  A    between atoms: N2_11  and  C10_13 
REMARK    6  A    between atoms: C10_13  and  N3_15 
REMARK    7  A    between atoms: N3_15  and  N4_17 
ROOT
HETATM    1  N1  UNL     1     -14.747  82.011   3.640  1.00  0.00     0.117 N 
HETATM    2  C7  UNL     1     -15.570  83.071   4.102  1.00  0.00     0.283 C 
HETATM    3  C8  UNL     1     -16.995  82.997   3.686  1.00  0.00     0.106 C 
HETATM    4  C9  UNL     1     -17.236  81.934   2.708  1.00  0.00     0.082 C 
HETATM    5  N5  UNL     1     -16.518  80.882   2.678  1.00  0.00    -0.345 N 
ATOM      6  H5  UNL     1     -16.698  80.150   1.991  1.00  0.00     0.163 HD
HETATM    7  C11 UNL     1     -15.440  80.744   3.637  1.00  0.00     0.226 C 
HETATM    8  C12 UNL     1     -15.996  80.331   4.952  1.00  0.00     0.073 C 
HETATM    9  C13 UNL     1     -14.544  79.650   3.133  1.00  0.00     0.073 C 
ENDROOT
BRANCH   4  10
HETATM   10  N2  UNL     1     -18.286  82.046   1.762  1.00  0.00    -0.322 N 
ATOM     11  H2  UNL     1     -19.214  81.710   2.020  1.00  0.00     0.169 HD
BRANCH  10  12
HETATM   12  C10 UNL     1     -18.101  82.605   0.477  1.00  0.00     0.191 C 
HETATM   13  S1  UNL     1     -17.197  83.966   0.281  1.00  0.00    -0.039 SA
BRANCH  12  14
HETATM   14  N3  UNL     1     -18.683  82.026  -0.675  1.00  0.00    -0.283 N 
ATOM     15  H3  UNL     1     -19.049  82.634  -1.408  1.00  0.00     0.188 HD
BRANCH  14  16
HETATM   16  N4  UNL     1     -18.770  80.629  -0.833  1.00  0.00    -0.343 N 
ATOM     17  H42 UNL     1     -19.370  80.106  -0.194  1.00  0.00     0.176 HD
ATOM     18  H41 UNL     1     -18.251  80.141  -1.564  1.00  0.00     0.176 HD
ENDBRANCH  14  16
ENDBRANCH  12  14
ENDBRANCH  10  12
ENDBRANCH   4  10
BRANCH   1  19
HETATM   19  C6  UNL     1     -13.478  81.945   4.330  1.00  0.00     0.276 C 
BRANCH  19  20
HETATM   20  C5  UNL     1     -13.427  83.025   5.349  1.00  0.00     0.039 C 
BRANCH  20  21
HETATM   21  C2  UNL     1     -12.157  83.824   5.348  1.00  0.00    -0.050 C 
HETATM   22  C1  UNL     1     -12.372  85.003   4.392  1.00  0.00     0.014 C 
HETATM   23  C3  UNL     1     -11.751  84.359   6.670  1.00  0.00     0.014 C 
HETATM   24  C4  UNL     1     -10.991  83.036   4.771  1.00  0.00     0.014 C 
ENDBRANCH  20  21
ENDBRANCH  19  20
ENDBRANCH   1  19
TORSDOF 7
ENDMDL
MODEL 4
REMARK VINA RESULT: -5.679227695      1.834      2.595
REMARK  7 active torsions:
REMARK  status: ('A' for Active; 'I' for Inactive)
REMARK    1  A    between atoms: C2_2  and  C5_5 
REMARK    2  A    between atoms: C5_5  and  C6_6 
REMARK    3  A    between atoms: C6_6  and  N1_7 
REMARK    4  A    between atoms: C9_10  and  N2_11 
REMARK    5  A    between atoms: N2_11  and  C10_13 
REMARK    6  A    between atoms: C10_13  and  N3_15 
REMARK    7  A    between atoms: N3_15  and  N4_17 
ROOT
HETATM    1  N1  UNL     1     -14.737  81.820   3.609  1.00  0.00     0.117 N 
HETATM    2  C7  UNL     1     -15.521  82.884   4.124  1.00  0.00     0.283 C 
HETATM    3  C8  UNL     1     -16.950  82.876   3.717  1.00  0.00     0.106 C 
HETATM    4  C9  UNL     1     -17.234  81.866   2.695  1.00  0.00     0.082 C 
HETATM    5  N5  UNL     1     -16.551  80.794   2.613  1.00  0.00    -0.345 N 
ATOM      6  H5  UNL     1     -16.761  80.099   1.896  1.00  0.00     0.163 HD
HETATM    7  C11 UNL     1     -15.471  80.577   3.556  1.00  0.00     0.226 C 
HETATM    8  C12 UNL     1     -16.032  80.126   4.857  1.00  0.00     0.073 C 
HETATM    9  C13 UNL     1     -14.616  79.478   2.996  1.00  0.00     0.073 C 
ENDROOT
BRANCH   4  10
HETATM   10  N2  UNL     1     -18.286  82.055   1.764  1.00  0.00    -0.322 N 
ATOM     11  H2  UNL     1     -19.225  81.750   2.020  1.00  0.00     0.169 HD
BRANCH  10  12
HETATM   12  C10 UNL     1     -18.088  82.649   0.497  1.00  0.00     0.191 C 
HETATM   13  S1  UNL     1     -17.296  84.085   0.362  1.00  0.00    -0.039 SA
BRANCH  12  14
HETATM   14  N3  UNL     1     -18.562  82.040  -0.689  1.00  0.00    -0.283 N 
ATOM     15  H3  UNL     1     -18.735  82.619  -1.511  1.00  0.00     0.188 HD
BRANCH  14  16
HETATM   16  N4  UNL     1     -18.799  80.653  -0.762  1.00  0.00    -0.343 N 
ATOM     17  H42 UNL     1     -19.532  80.258  -0.172  1.00  0.00     0.176 HD
ATOM     18  H41 UNL     1     -18.259  80.052  -1.383  1.00  0.00     0.176 HD
ENDBRANCH  14  16
ENDBRANCH  12  14
ENDBRANCH  10  12
ENDBRANCH   4  10
BRANCH   1  19
HETATM   19  C6  UNL     1     -13.466  81.681   4.284  1.00  0.00     0.276 C 
BRANCH  19  20
HETATM   20  C5  UNL     1     -13.297  82.814   5.230  1.00  0.00     0.039 C 
BRANCH  20  21
HETATM   21  C2  UNL     1     -12.089  83.666   4.974  1.00  0.00    -0.050 C 
HETATM   22  C1  UNL     1     -11.434  83.933   6.333  1.00  0.00     0.014 C 
HETATM   23  C3  UNL     1     -11.076  83.064   4.073  1.00  0.00     0.014 C 
HETATM   24  C4  UNL     1     -12.466  85.034   4.425  1.00  0.00     0.014 C 
ENDBRANCH  20  21
ENDBRANCH  19  20
ENDBRANCH   1  19
TORSDOF 7
ENDMDL
MODEL 5
REMARK VINA RESULT: -5.525098051      4.845      7.871
REMARK  7 active torsions:
REMARK  status: ('A' for Active; 'I' for Inactive)
REMARK    1  A    between atoms: C2_2  and  C5_5 
REMARK    2  A    between atoms: C5_5  and  C6_6 
REMARK    3  A    between atoms: C6_6  and  N1_7 
REMARK    4  A    between atoms: C9_10  and  N2_11 
REMARK    5  A    between atoms: N2_11  and  C10_13 
REMARK    6  A    between atoms: C10_13  and  N3_15 
REMARK    7  A    between atoms: N3_15  and  N4_17 
ROOT
HETATM    1  N1  UNL     1     -14.231  82.980   5.165  1.00  0.00     0.117 N 
HETATM    2  C7  UNL     1     -13.846  84.176   4.505  1.00  0.00     0.283 C 
HETATM    3  C8  UNL     1     -12.395  84.493   4.560  1.00  0.00     0.106 C 
HETATM    4  C9  UNL     1     -11.662  83.599   5.460  1.00  0.00     0.082 C 
HETATM    5  N5  UNL     1     -12.053  82.405   5.674  1.00  0.00    -0.345 N 
ATOM      6  H5  UNL     1     -11.532  81.794   6.303  1.00  0.00     0.163 HD
HETATM    7  C11 UNL     1     -13.251  81.931   5.010  1.00  0.00     0.226 C 
HETATM    8  C12 UNL     1     -12.930  81.577   3.602  1.00  0.00     0.073 C 
HETATM    9  C13 UNL     1     -13.686  80.687   5.729  1.00  0.00     0.073 C 
ENDROOT
BRANCH   4  10
HETATM   10  N2  UNL     1     -10.487  84.040   6.118  1.00  0.00    -0.322 N 
ATOM     11  H2  UNL     1      -9.647  84.202   5.562  1.00  0.00     0.169 HD
BRANCH  10  12
HETATM   12  C10 UNL     1     -10.430  84.264   7.513  1.00  0.00     0.191 C 
HETATM   13  S1  UNL     1     -10.823  85.734   8.139  1.00  0.00    -0.039 SA
BRANCH  12  14
HETATM   14  N3  UNL     1     -10.033  83.246   8.412  1.00  0.00    -0.283 N 
ATOM     15  H3  UNL     1     -10.553  83.118   9.280  1.00  0.00     0.188 HD
BRANCH  14  16
HETATM   16  N4  UNL     1      -8.937  82.405   8.136  1.00  0.00    -0.343 N 
ATOM     17  H42 UNL     1      -8.317  82.658   7.366  1.00  0.00     0.176 HD
ATOM     18  H41 UNL     1      -8.758  81.565   8.685  1.00  0.00     0.176 HD
ENDBRANCH  14  16
ENDBRANCH  12  14
ENDBRANCH  10  12
ENDBRANCH   4  10
BRANCH   1  19
HETATM   19  C6  UNL     1     -15.564  82.548   4.808  1.00  0.00     0.276 C 
BRANCH  19  20
HETATM   20  C5  UNL     1     -16.090  83.439   3.742  1.00  0.00     0.039 C 
BRANCH  20  21
HETATM   21  C2  UNL     1     -16.938  82.749   2.714  1.00  0.00    -0.050 C 
HETATM   22  C1  UNL     1     -18.250  82.361   3.405  1.00  0.00     0.014 C 
HETATM   23  C3  UNL     1     -17.260  83.564   1.517  1.00  0.00     0.014 C 
HETATM   24  C4  UNL     1     -16.316  81.441   2.250  1.00  0.00     0.014 C 
ENDBRANCH  20  21
ENDBRANCH  19  20
ENDBRANCH   1  19
TORSDOF 7
ENDMDL
