MODEL 1
REMARK VINA RESULT: -7.863633090      0.000      0.000
REMARK  5 active torsions:
REMARK  status: ('A' for Active; 'I' for Inactive)
REMARK    1  A    between atoms: O1_2  and  C2_3 
REMARK    2  A    between atoms: C11_12  and  O2_13 
REMARK    3  A    between atoms: C16_18  and  O3_19 
REMARK    4  A    between atoms: C23_29  and  O5_30 
REMARK    5  A    between atoms: O5_30  and  C24_31 
ROOT
HETATM    1  C2  UNL     1      36.960   1.598  50.708  1.00  0.00     0.204 C 
HETATM    2  C3  UNL     1      37.688   2.887  51.135  1.00  0.00     0.042 C 
HETATM    3  C4  UNL     1      39.020   2.437  51.611  1.00  0.00     0.006 C 
HETATM    4  C5  UNL     1      40.202   3.204  51.091  1.00  0.00     0.033 C 
HETATM    5  C6  UNL     1      40.575   4.387  51.877  1.00  0.00    -0.020 C 
HETATM    6  C7  UNL     1      39.867   5.066  52.735  1.00  0.00    -0.069 C 
HETATM    7  C8  UNL     1      40.714   6.190  53.267  1.00  0.00     0.047 C 
HETATM    8  C9  UNL     1      38.562   5.076  53.291  1.00  0.00    -0.002 C 
HETATM    9  C10 UNL     1      37.566   4.030  53.380  1.00  0.00     0.076 C 
HETATM   10  C11 UNL     1      36.625   4.576  54.433  1.00  0.00     0.140 C 
HETATM   11  C13 UNL     1      35.892   5.760  53.826  1.00  0.00     0.038 C 
HETATM   12  C14 UNL     1      35.319   5.576  52.502  1.00  0.00    -0.001 C 
HETATM   13  C15 UNL     1      34.936   6.971  51.984  1.00  0.00     0.037 C 
HETATM   14  C16 UNL     1      33.964   6.724  50.882  1.00  0.00     0.118 C 
HETATM   15  C17 UNL     1      34.363   5.665  49.927  1.00  0.00     0.032 C 
HETATM   16  C18 UNL     1      34.834   4.353  50.605  1.00  0.00     0.013 C 
HETATM   17  C19 UNL     1      36.035   4.742  51.501  1.00  0.00    -0.025 C 
HETATM   18  C20 UNL     1      36.837   5.471  50.451  1.00  0.00     0.016 C 
HETATM   19  C21 UNL     1      36.796   3.624  52.099  1.00  0.00     0.060 C 
HETATM   20  C22 UNL     1      36.005   2.489  52.654  1.00  0.00     0.286 C 
HETATM   21  F1  UNL     1      34.691   2.723  52.977  1.00  0.00    -0.204 F 
HETATM   22  O4  UNL     1      36.718   1.979  53.709  1.00  0.00    -0.306 OA
HETATM   23  C23 UNL     1      37.922   2.660  53.838  1.00  0.00     0.195 C 
HETATM   24  C26 UNL     1      39.030   1.998  53.031  1.00  0.00     0.051 C 
HETATM   25  C27 UNL     1      40.369   1.950  53.664  1.00  0.00     0.016 C 
HETATM   26  C28 UNL     1      35.870   1.375  51.642  1.00  0.00     0.330 C 
HETATM   27  F2  UNL     1      34.635   1.265  51.052  1.00  0.00    -0.197 F 
HETATM   28  F3  UNL     1      35.940   0.159  52.359  1.00  0.00    -0.197 F 
ENDROOT
BRANCH  23  29
HETATM   29  O5  UNL     1      38.281   2.554  55.196  1.00  0.00    -0.282 OA
BRANCH  29  30
HETATM   30  C24 UNL     1      37.956   1.532  56.056  1.00  0.00     0.257 C 
HETATM   31  C25 UNL     1      37.399   1.801  57.432  1.00  0.00     0.126 C 
HETATM   32  O6  UNL     1      38.119   0.344  55.708  1.00  0.00    -0.266 OA
ENDBRANCH  29  30
ENDBRANCH  23  29
BRANCH  10  33
HETATM   33  O2  UNL     1      35.901   3.815  55.239  1.00  0.00    -0.389 OA
HETATM   34  C12 UNL     1      34.950   4.486  55.933  1.00  0.00     0.202 C 
ENDBRANCH  10  33
BRANCH   1  35
HETATM   35  O1  UNL     1      36.733   1.512  49.361  1.00  0.00    -0.384 OA
HETATM   36  C1  UNL     1      37.520   2.284  48.549  1.00  0.00     0.202 C 
ENDBRANCH   1  35
BRANCH  14  37
HETATM   37  O3  UNL     1      33.688   7.868  50.174  1.00  0.00    -0.396 OA
ATOM     38  H3  UNL     1      34.392   8.502  50.232  1.00  0.00     0.210 HD
ENDBRANCH  14  37
TORSDOF 5
ENDMDL
MODEL 2
REMARK VINA RESULT: -7.831435022      1.912      5.031
REMARK  5 active torsions:
REMARK  status: ('A' for Active; 'I' for Inactive)
REMARK    1  A    between atoms: O1_2  and  C2_3 
REMARK    2  A    between atoms: C11_12  and  O2_13 
REMARK    3  A    between atoms: C16_18  and  O3_19 
REMARK    4  A    between atoms: C23_29  and  O5_30 
REMARK    5  A    between atoms: O5_30  and  C24_31 
ROOT
HETATM    1  C2  UNL     1      36.592   5.913  52.885  1.00  0.00     0.204 C 
HETATM    2  C3  UNL     1      37.691   5.136  53.636  1.00  0.00     0.042 C 
HETATM    3  C4  UNL     1      38.927   5.359  52.845  1.00  0.00     0.006 C 
HETATM    4  C5  UNL     1      40.150   5.748  53.626  1.00  0.00     0.033 C 
HETATM    5  C6  UNL     1      40.951   4.626  54.135  1.00  0.00    -0.020 C 
HETATM    6  C7  UNL     1      40.610   3.382  54.315  1.00  0.00    -0.069 C 
HETATM    7  C8  UNL     1      41.798   2.636  54.857  1.00  0.00     0.047 C 
HETATM    8  C9  UNL     1      39.475   2.542  54.174  1.00  0.00    -0.002 C 
HETATM    9  C10 UNL     1      38.278   2.697  53.375  1.00  0.00     0.076 C 
HETATM   10  C11 UNL     1      37.718   1.291  53.365  1.00  0.00     0.140 C 
HETATM   11  C13 UNL     1      37.213   0.987  54.765  1.00  0.00     0.038 C 
HETATM   12  C14 UNL     1      36.380   1.994  55.401  1.00  0.00    -0.001 C 
HETATM   13  C15 UNL     1      36.277   1.615  56.887  1.00  0.00     0.037 C 
HETATM   14  C16 UNL     1      35.090   2.355  57.398  1.00  0.00     0.118 C 
HETATM   15  C17 UNL     1      35.023   3.778  56.993  1.00  0.00     0.032 C 
HETATM   16  C18 UNL     1      35.259   4.011  55.478  1.00  0.00     0.013 C 
HETATM   17  C19 UNL     1      36.663   3.435  55.171  1.00  0.00    -0.025 C 
HETATM   18  C20 UNL     1      37.418   4.166  56.253  1.00  0.00     0.016 C 
HETATM   19  C21 UNL     1      37.210   3.722  53.827  1.00  0.00     0.060 C 
HETATM   20  C22 UNL     1      36.270   3.601  52.676  1.00  0.00     0.286 C 
HETATM   21  F1  UNL     1      35.142   2.838  52.849  1.00  0.00    -0.204 F 
HETATM   22  O4  UNL     1      37.010   3.199  51.594  1.00  0.00    -0.306 OA
HETATM   23  C23 UNL     1      38.350   3.106  51.946  1.00  0.00     0.195 C 
HETATM   24  C26 UNL     1      39.085   4.417  51.706  1.00  0.00     0.051 C 
HETATM   25  C27 UNL     1      40.460   4.313  51.163  1.00  0.00     0.016 C 
HETATM   26  C28 UNL     1      35.672   4.942  52.320  1.00  0.00     0.330 C 
HETATM   27  F2  UNL     1      34.363   5.119  52.696  1.00  0.00    -0.197 F 
HETATM   28  F3  UNL     1      35.559   4.979  50.911  1.00  0.00    -0.197 F 
ENDROOT
BRANCH  23  29
HETATM   29  O5  UNL     1      38.913   2.153  51.075  1.00  0.00    -0.282 OA
BRANCH  29  30
HETATM   30  C24 UNL     1      38.477   1.834  49.811  1.00  0.00     0.257 C 
HETATM   31  C25 UNL     1      38.121   2.900  48.803  1.00  0.00     0.126 C 
HETATM   32  O6  UNL     1      38.367   0.639  49.468  1.00  0.00    -0.266 OA
ENDBRANCH  29  30
ENDBRANCH  23  29
BRANCH  10  33
HETATM   33  O2  UNL     1      36.983   0.799  52.379  1.00  0.00    -0.389 OA
HETATM   34  C12 UNL     1      36.890  -0.553  52.376  1.00  0.00     0.202 C 
ENDBRANCH  10  33
BRANCH   1  35
HETATM   35  O1  UNL     1      36.108   6.992  53.575  1.00  0.00    -0.384 OA
HETATM   36  C1  UNL     1      35.950   8.157  52.874  1.00  0.00     0.202 C 
ENDBRANCH   1  35
BRANCH  14  37
HETATM   37  O3  UNL     1      34.990   2.286  58.766  1.00  0.00    -0.396 OA
ATOM     38  H3  UNL     1      34.249   1.760  59.044  1.00  0.00     0.210 HD
ENDBRANCH  14  37
TORSDOF 5
ENDMDL
MODEL 3
REMARK VINA RESULT: -7.623817985      1.964      3.812
REMARK  5 active torsions:
REMARK  status: ('A' for Active; 'I' for Inactive)
REMARK    1  A    between atoms: O1_2  and  C2_3 
REMARK    2  A    between atoms: C11_12  and  O2_13 
REMARK    3  A    between atoms: C16_18  and  O3_19 
REMARK    4  A    between atoms: C23_29  and  O5_30 
REMARK    5  A    between atoms: O5_30  and  C24_31 
ROOT
HETATM    1  C2  UNL     1      38.926   0.115  51.817  1.00  0.00     0.204 C 
HETATM    2  C3  UNL     1      39.492   1.548  51.839  1.00  0.00     0.042 C 
HETATM    3  C4  UNL     1      39.758   1.834  53.272  1.00  0.00     0.006 C 
HETATM    4  C5  UNL     1      41.098   2.435  53.587  1.00  0.00     0.033 C 
HETATM    5  C6  UNL     1      41.157   3.901  53.520  1.00  0.00    -0.020 C 
HETATM    6  C7  UNL     1      40.358   4.734  52.916  1.00  0.00    -0.069 C 
HETATM    7  C8  UNL     1      40.858   6.132  53.154  1.00  0.00     0.047 C 
HETATM    8  C9  UNL     1      39.195   4.718  52.103  1.00  0.00    -0.002 C 
HETATM    9  C10 UNL     1      38.181   3.701  51.926  1.00  0.00     0.076 C 
HETATM   10  C11 UNL     1      37.055   4.483  51.283  1.00  0.00     0.140 C 
HETATM   11  C13 UNL     1      37.493   4.844  49.874  1.00  0.00     0.038 C 
HETATM   12  C14 UNL     1      38.064   3.778  49.065  1.00  0.00    -0.001 C 
HETATM   13  C15 UNL     1      38.715   4.446  47.844  1.00  0.00     0.037 C 
HETATM   14  C16 UNL     1      38.870   3.357  46.840  1.00  0.00     0.118 C 
HETATM   15  C17 UNL     1      39.427   2.093  47.375  1.00  0.00     0.032 C 
HETATM   16  C18 UNL     1      38.740   1.605  48.677  1.00  0.00     0.013 C 
HETATM   17  C19 UNL     1      38.919   2.746  49.708  1.00  0.00    -0.025 C 
HETATM   18  C20 UNL     1      40.412   2.908  49.566  1.00  0.00     0.016 C 
HETATM   19  C21 UNL     1      38.528   2.438  51.101  1.00  0.00     0.060 C 
HETATM   20  C22 UNL     1      37.260   1.678  51.294  1.00  0.00     0.286 C 
HETATM   21  F1  UNL     1      36.342   1.696  50.272  1.00  0.00    -0.204 F 
HETATM   22  O4  UNL     1      36.721   2.091  52.485  1.00  0.00    -0.306 OA
HETATM   23  C23 UNL     1      37.567   3.009  53.093  1.00  0.00     0.195 C 
HETATM   24  C26 UNL     1      38.568   2.326  54.014  1.00  0.00     0.051 C 
HETATM   25  C27 UNL     1      38.866   3.015  55.292  1.00  0.00     0.016 C 
HETATM   26  C28 UNL     1      37.529   0.197  51.427  1.00  0.00     0.330 C 
HETATM   27  F2  UNL     1      37.204  -0.559  50.328  1.00  0.00    -0.197 F 
HETATM   28  F3  UNL     1      36.614  -0.301  52.382  1.00  0.00    -0.197 F 
ENDROOT
BRANCH  23  29
HETATM   29  O5  UNL     1      36.743   3.814  53.904  1.00  0.00    -0.282 OA
BRANCH  29  30
HETATM   30  C24 UNL     1      35.572   3.438  54.517  1.00  0.00     0.257 C 
HETATM   31  C25 UNL     1      34.270   4.152  54.245  1.00  0.00     0.126 C 
HETATM   32  O6  UNL     1      35.563   2.485  55.323  1.00  0.00    -0.266 OA
ENDBRANCH  29  30
ENDBRANCH  23  29
BRANCH  10  33
HETATM   33  O2  UNL     1      35.775   4.174  51.417  1.00  0.00    -0.389 OA
HETATM   34  C12 UNL     1      34.938   4.935  50.670  1.00  0.00     0.202 C 
ENDBRANCH  10  33
BRANCH   1  35
HETATM   35  O1  UNL     1      39.751  -0.796  51.214  1.00  0.00    -0.384 OA
HETATM   36  C1  UNL     1      41.027  -0.387  50.935  1.00  0.00     0.202 C 
ENDBRANCH   1  35
BRANCH  14  37
HETATM   37  O3  UNL     1      39.633   3.749  45.767  1.00  0.00    -0.396 OA
ATOM     38  H3  UNL     1      39.735   3.053  45.128  1.00  0.00     0.210 HD
ENDBRANCH  14  37
TORSDOF 5
ENDMDL
MODEL 4
REMARK VINA RESULT: -7.321065084      2.195      5.163
REMARK  5 active torsions:
REMARK  status: ('A' for Active; 'I' for Inactive)
REMARK    1  A    between atoms: O1_2  and  C2_3 
REMARK    2  A    between atoms: C11_12  and  O2_13 
REMARK    3  A    between atoms: C16_18  and  O3_19 
REMARK    4  A    between atoms: C23_29  and  O5_30 
REMARK    5  A    between atoms: O5_30  and  C24_31 
ROOT
HETATM    1  C2  UNL     1      39.266   5.190  52.933  1.00  0.00     0.204 C 
HETATM    2  C3  UNL     1      38.115   5.249  51.909  1.00  0.00     0.042 C 
HETATM    3  C4  UNL     1      37.044   6.028  52.579  1.00  0.00     0.006 C 
HETATM    4  C5  UNL     1      36.412   7.119  51.763  1.00  0.00     0.033 C 
HETATM    5  C6  UNL     1      35.273   6.700  50.935  1.00  0.00    -0.020 C 
HETATM    6  C7  UNL     1      34.938   5.507  50.533  1.00  0.00    -0.069 C 
HETATM    7  C8  UNL     1      33.685   5.617  49.708  1.00  0.00     0.047 C 
HETATM    8  C9  UNL     1      35.399   4.169  50.622  1.00  0.00    -0.002 C 
HETATM    9  C10 UNL     1      36.293   3.538  51.569  1.00  0.00     0.076 C 
HETATM   10  C11 UNL     1      36.013   2.068  51.343  1.00  0.00     0.140 C 
HETATM   11  C13 UNL     1      36.570   1.699  49.978  1.00  0.00     0.038 C 
HETATM   12  C14 UNL     1      37.923   2.137  49.675  1.00  0.00    -0.001 C 
HETATM   13  C15 UNL     1      38.128   1.940  48.165  1.00  0.00     0.037 C 
HETATM   14  C16 UNL     1      39.604   1.947  47.967  1.00  0.00     0.118 C 
HETATM   15  C17 UNL     1      40.320   3.035  48.674  1.00  0.00     0.032 C 
HETATM   16  C18 UNL     1      39.922   3.183  50.165  1.00  0.00     0.013 C 
HETATM   17  C19 UNL     1      38.398   3.454  50.176  1.00  0.00    -0.025 C 
HETATM   18  C20 UNL     1      38.394   4.601  49.195  1.00  0.00     0.016 C 
HETATM   19  C21 UNL     1      37.809   3.840  51.477  1.00  0.00     0.060 C 
HETATM   20  C22 UNL     1      38.270   3.085  52.676  1.00  0.00     0.286 C 
HETATM   21  F1  UNL     1      38.835   1.849  52.476  1.00  0.00    -0.204 F 
HETATM   22  O4  UNL     1      37.216   3.040  53.553  1.00  0.00    -0.306 OA
HETATM   23  C23 UNL     1      36.141   3.750  53.035  1.00  0.00     0.195 C 
HETATM   24  C26 UNL     1      36.174   5.210  53.464  1.00  0.00     0.051 C 
HETATM   25  C27 UNL     1      34.871   5.827  53.807  1.00  0.00     0.016 C 
HETATM   26  C28 UNL     1      39.391   3.814  53.380  1.00  0.00     0.330 C 
HETATM   27  F2  UNL     1      40.641   3.275  53.206  1.00  0.00    -0.197 F 
HETATM   28  F3  UNL     1      39.199   3.619  54.767  1.00  0.00    -0.197 F 
ENDROOT
BRANCH  23  29
HETATM   29  O5  UNL     1      34.989   3.177  53.608  1.00  0.00    -0.282 OA
BRANCH  29  30
HETATM   30  C24 UNL     1      34.798   2.862  54.932  1.00  0.00     0.257 C 
HETATM   31  C25 UNL     1      33.458   3.035  55.604  1.00  0.00     0.126 C 
HETATM   32  O6  UNL     1      35.746   2.418  55.614  1.00  0.00    -0.266 OA
ENDBRANCH  29  30
ENDBRANCH  23  29
BRANCH  10  33
HETATM   33  O2  UNL     1      36.145   1.141  52.278  1.00  0.00    -0.389 OA
HETATM   34  C12 UNL     1      36.420  -0.097  51.800  1.00  0.00     0.202 C 
ENDBRANCH  10  33
BRANCH   1  35
HETATM   35  O1  UNL     1      40.380   5.888  52.552  1.00  0.00    -0.384 OA
HETATM   36  C1  UNL     1      41.269   6.224  53.537  1.00  0.00     0.202 C 
ENDBRANCH   1  35
BRANCH  14  37
HETATM   37  O3  UNL     1      39.946   1.993  46.638  1.00  0.00    -0.396 OA
ATOM     38  H3  UNL     1      40.844   1.720  46.491  1.00  0.00     0.210 HD
ENDBRANCH  14  37
TORSDOF 5
ENDMDL
MODEL 5
REMARK VINA RESULT: -7.164960498      2.406      6.022
REMARK  5 active torsions:
REMARK  status: ('A' for Active; 'I' for Inactive)
REMARK    1  A    between atoms: O1_2  and  C2_3 
REMARK    2  A    between atoms: C11_12  and  O2_13 
REMARK    3  A    between atoms: C16_18  and  O3_19 
REMARK    4  A    between atoms: C23_29  and  O5_30 
REMARK    5  A    between atoms: O5_30  and  C24_31 
ROOT
HETATM    1  C2  UNL     1      37.047   1.210  52.390  1.00  0.00     0.204 C 
HETATM    2  C3  UNL     1      38.234   2.184  52.536  1.00  0.00     0.042 C 
HETATM    3  C4  UNL     1      37.668   3.382  53.205  1.00  0.00     0.006 C 
HETATM    4  C5  UNL     1      38.452   3.923  54.366  1.00  0.00     0.033 C 
HETATM    5  C6  UNL     1      39.497   4.894  54.016  1.00  0.00    -0.020 C 
HETATM    6  C7  UNL     1      40.078   5.107  52.869  1.00  0.00    -0.069 C 
HETATM    7  C8  UNL     1      41.081   6.215  53.040  1.00  0.00     0.047 C 
HETATM    8  C9  UNL     1      40.061   4.607  51.541  1.00  0.00    -0.002 C 
HETATM    9  C10 UNL     1      39.054   3.849  50.829  1.00  0.00     0.076 C 
HETATM   10  C11 UNL     1      39.484   4.024  49.388  1.00  0.00     0.140 C 
HETATM   11  C13 UNL     1      40.770   3.239  49.194  1.00  0.00     0.038 C 
HETATM   12  C14 UNL     1      40.796   1.876  49.700  1.00  0.00    -0.001 C 
HETATM   13  C15 UNL     1      42.265   1.422  49.683  1.00  0.00     0.037 C 
HETATM   14  C16 UNL     1      42.215  -0.065  49.752  1.00  0.00     0.118 C 
HETATM   15  C17 UNL     1      41.285  -0.609  50.769  1.00  0.00     0.032 C 
HETATM   16  C18 UNL     1      39.873   0.030  50.734  1.00  0.00     0.013 C 
HETATM   17  C19 UNL     1      40.084   1.547  50.962  1.00  0.00    -0.025 C 
HETATM   18  C20 UNL     1      40.920   1.444  52.213  1.00  0.00     0.016 C 
HETATM   19  C21 UNL     1      38.863   2.353  51.179  1.00  0.00     0.060 C 
HETATM   20  C22 UNL     1      37.694   2.058  50.303  1.00  0.00     0.286 C 
HETATM   21  F1  UNL     1      37.933   1.414  49.113  1.00  0.00    -0.204 F 
HETATM   22  O4  UNL     1      37.013   3.235  50.130  1.00  0.00    -0.306 OA
HETATM   23  C23 UNL     1      37.620   4.244  50.867  1.00  0.00     0.195 C 
HETATM   24  C26 UNL     1      37.034   4.346  52.268  1.00  0.00     0.051 C 
HETATM   25  C27 UNL     1      36.844   5.713  52.806  1.00  0.00     0.016 C 
HETATM   26  C28 UNL     1      36.740   1.098  50.975  1.00  0.00     0.330 C 
HETATM   27  F2  UNL     1      36.763  -0.187  50.493  1.00  0.00    -0.197 F 
HETATM   28  F3  UNL     1      35.433   1.501  50.616  1.00  0.00    -0.197 F 
ENDROOT
BRANCH  23  29
HETATM   29  O5  UNL     1      37.310   5.447  50.202  1.00  0.00    -0.282 OA
BRANCH  29  30
HETATM   30  C24 UNL     1      36.225   5.684  49.391  1.00  0.00     0.257 C 
HETATM   31  C25 UNL     1      34.819   5.366  49.837  1.00  0.00     0.126 C 
HETATM   32  O6  UNL     1      36.386   6.174  48.254  1.00  0.00    -0.266 OA
ENDBRANCH  29  30
ENDBRANCH  23  29
BRANCH  10  33
HETATM   33  O2  UNL     1      38.647   4.002  48.363  1.00  0.00    -0.389 OA
HETATM   34  C12 UNL     1      39.249   3.881  47.155  1.00  0.00     0.202 C 
ENDBRANCH  10  33
BRANCH   1  35
HETATM   35  O1  UNL     1      37.161   0.082  53.156  1.00  0.00    -0.384 OA
HETATM   36  C1  UNL     1      38.148   0.073  54.105  1.00  0.00     0.202 C 
ENDBRANCH   1  35
BRANCH  14  37
HETATM   37  O3  UNL     1      43.456  -0.613  49.960  1.00  0.00    -0.396 OA
ATOM     38  H3  UNL     1      43.995  -0.072  50.527  1.00  0.00     0.210 HD
ENDBRANCH  14  37
TORSDOF 5
ENDMDL
