MODEL 1
REMARK VINA RESULT: -8.124941653      0.000      0.000
REMARK  9 active torsions:
REMARK  status: ('A' for Active; 'I' for Inactive)
REMARK    1  A    between atoms: C3_6  and  N3_7 
REMARK    2  A    between atoms: C6_14  and  N5_15 
REMARK    3  A    between atoms: N5_15  and  C7_17 
REMARK    4  A    between atoms: C13_26  and  N7_27 
REMARK    5  A    between atoms: N7_27  and  C14_29 
REMARK    6  A    between atoms: C14_29  and  C15_30 
REMARK    7  A    between atoms: C15_30  and  O2_31 
REMARK    8  A    between atoms: C15_30  and  C16_33 
REMARK    9  A    between atoms: C16_33  and  O3_34 
ROOT
HETATM    1  N1  UNL     1      -1.502 -86.424  92.852  1.00  0.00    -0.188 NA
HETATM    2  C1  UNL     1      -2.641 -86.467  92.681  1.00  0.00     0.137 C 
HETATM    3  C2  UNL     1      -4.085 -86.494  92.466  1.00  0.00     0.190 A 
HETATM    4  N2  UNL     1      -4.721 -85.368  92.097  1.00  0.00    -0.318 N 
ATOM      5  H2  UNL     1      -4.190 -84.507  91.971  1.00  0.00     0.169 HD
HETATM    6  C3  UNL     1      -6.047 -85.366  91.894  1.00  0.00     0.132 A 
HETATM    7  C4  UNL     1      -6.783 -86.522  92.058  1.00  0.00     0.124 A 
HETATM    8  C5  UNL     1      -6.123 -87.664  92.432  1.00  0.00     0.097 A 
HETATM    9  N4  UNL     1      -4.788 -87.621  92.628  1.00  0.00    -0.330 N 
ATOM     10  H4  UNL     1      -4.301 -88.473  92.908  1.00  0.00     0.168 HD
HETATM   11  C6  UNL     1      -7.106 -88.667  92.542  1.00  0.00     0.103 A 
HETATM   12  C13 UNL     1      -8.297 -88.090  92.238  1.00  0.00     0.147 A 
HETATM   13  N8  UNL     1      -8.095 -86.760  91.936  1.00  0.00    -0.226 N 
HETATM   14  C17 UNL     1      -9.045 -85.799  91.565  1.00  0.00     0.191 C 
HETATM   15  N9  UNL     1      -9.843 -85.019  91.259  1.00  0.00    -0.171 NA
ENDROOT
BRANCH   6  16
HETATM   16  N3  UNL     1      -6.666 -84.272  91.536  1.00  0.00    -0.383 N 
ATOM     17  H32 UNL     1      -6.553 -83.934  90.580  1.00  0.00     0.157 HD
ATOM     18  H31 UNL     1      -7.250 -83.764  92.199  1.00  0.00     0.157 HD
ENDBRANCH   6  16
BRANCH  11  19
HETATM   19  N5  UNL     1      -6.743 -89.964  92.914  1.00  0.00    -0.378 N 
ATOM     20  H5  UNL     1      -5.766 -90.031  93.201  1.00  0.00     0.160 HD
BRANCH  19  21
HETATM   21  C7  UNL     1      -7.400 -91.180  92.983  1.00  0.00     0.116 C 
HETATM   22  C8  UNL     1      -7.802 -91.926  91.734  1.00  0.00     0.048 C 
HETATM   23  C9  UNL     1      -8.618 -93.026  92.469  1.00  0.00     0.129 C 
HETATM   24  N6  UNL     1      -7.559 -93.527  93.319  1.00  0.00    -0.336 N 
HETATM   25  C10 UNL     1      -6.942 -94.662  93.881  1.00  0.00     0.230 C 
HETATM   26  C12 UNL     1      -6.803 -92.316  93.756  1.00  0.00     0.172 C 
HETATM   27  O1  UNL     1      -7.552 -95.584  94.482  1.00  0.00    -0.273 OA
HETATM   28  C11 UNL     1      -5.470 -94.655  93.685  1.00  0.00     0.179 C 
HETATM   29  S1  UNL     1      -5.216 -92.932  93.064  1.00  0.00    -0.132 SA
ENDBRANCH  19  21
ENDBRANCH  11  19
BRANCH  12  30
HETATM   30  N7  UNL     1      -9.620 -88.591  92.279  1.00  0.00    -0.371 N 
ATOM     31  H7  UNL     1      -9.756 -89.505  91.849  1.00  0.00     0.161 HD
BRANCH  30  32
HETATM   32  C14 UNL     1     -10.786 -88.000  92.838  1.00  0.00     0.155 C 
BRANCH  32  33
HETATM   33  C15 UNL     1     -10.823 -88.089  94.355  1.00  0.00     0.159 C 
BRANCH  33  34
HETATM   34  O2  UNL     1      -9.807 -88.931  94.829  1.00  0.00    -0.392 OA
ATOM     35  H2  UNL     1      -9.935 -89.130  95.749  1.00  0.00     0.210 HD
ENDBRANCH  33  34
BRANCH  33  36
HETATM   36  C16 UNL     1     -10.552 -86.709  94.924  1.00  0.00     0.197 C 
BRANCH  36  37
HETATM   37  O3  UNL     1     -11.248 -85.777  94.149  1.00  0.00    -0.398 OA
ATOM     38  H3  UNL     1     -12.085 -86.160  93.912  1.00  0.00     0.209 HD
ENDBRANCH  36  37
ENDBRANCH  33  36
ENDBRANCH  32  33
ENDBRANCH  30  32
ENDBRANCH  12  30
TORSDOF 9
ENDMDL
MODEL 2
REMARK VINA RESULT: -8.008282092      1.794      2.147
REMARK  9 active torsions:
REMARK  status: ('A' for Active; 'I' for Inactive)
REMARK    1  A    between atoms: C3_6  and  N3_7 
REMARK    2  A    between atoms: C6_14  and  N5_15 
REMARK    3  A    between atoms: N5_15  and  C7_17 
REMARK    4  A    between atoms: C13_26  and  N7_27 
REMARK    5  A    between atoms: N7_27  and  C14_29 
REMARK    6  A    between atoms: C14_29  and  C15_30 
REMARK    7  A    between atoms: C15_30  and  O2_31 
REMARK    8  A    between atoms: C15_30  and  C16_33 
REMARK    9  A    between atoms: C16_33  and  O3_34 
ROOT
HETATM    1  N1  UNL     1      -1.750 -86.790  93.116  1.00  0.00    -0.188 NA
HETATM    2  C1  UNL     1      -2.880 -86.773  92.896  1.00  0.00     0.137 C 
HETATM    3  C2  UNL     1      -4.313 -86.724  92.617  1.00  0.00     0.190 A 
HETATM    4  N2  UNL     1      -4.867 -85.574  92.195  1.00  0.00    -0.318 N 
ATOM      5  H2  UNL     1      -4.283 -84.747  92.074  1.00  0.00     0.169 HD
HETATM    6  C3  UNL     1      -6.181 -85.502  91.933  1.00  0.00     0.132 A 
HETATM    7  C4  UNL     1      -6.988 -86.611  92.090  1.00  0.00     0.124 A 
HETATM    8  C5  UNL     1      -6.412 -87.779  92.518  1.00  0.00     0.097 A 
HETATM    9  N4  UNL     1      -5.086 -87.805  92.772  1.00  0.00    -0.330 N 
ATOM     10  H4  UNL     1      -4.661 -88.676  93.093  1.00  0.00     0.168 HD
HETATM   11  C6  UNL     1      -7.454 -88.722  92.606  1.00  0.00     0.103 A 
HETATM   12  C13 UNL     1      -8.596 -88.086  92.236  1.00  0.00     0.147 A 
HETATM   13  N8  UNL     1      -8.305 -86.777  91.914  1.00  0.00    -0.226 N 
HETATM   14  C17 UNL     1      -9.182 -85.775  91.480  1.00  0.00     0.191 C 
HETATM   15  N9  UNL     1      -9.920 -84.959  91.121  1.00  0.00    -0.171 NA
ENDROOT
BRANCH   6  16
HETATM   16  N3  UNL     1      -6.720 -84.384  91.523  1.00  0.00    -0.383 N 
ATOM     17  H32 UNL     1      -6.500 -84.048  90.586  1.00  0.00     0.157 HD
ATOM     18  H31 UNL     1      -7.348 -83.857  92.129  1.00  0.00     0.157 HD
ENDBRANCH   6  16
BRANCH  11  19
HETATM   19  N5  UNL     1      -7.182 -90.028  93.022  1.00  0.00    -0.378 N 
ATOM     20  H5  UNL     1      -7.788 -90.330  93.784  1.00  0.00     0.160 HD
BRANCH  19  21
HETATM   21  C7  UNL     1      -6.280 -91.006  92.641  1.00  0.00     0.116 C 
HETATM   22  C8  UNL     1      -6.334 -92.395  93.231  1.00  0.00     0.048 C 
HETATM   23  C9  UNL     1      -5.016 -92.891  92.572  1.00  0.00     0.129 C 
HETATM   24  N6  UNL     1      -5.383 -92.662  91.191  1.00  0.00    -0.336 N 
HETATM   25  C10 UNL     1      -5.349 -93.150  89.870  1.00  0.00     0.230 C 
HETATM   26  C12 UNL     1      -6.129 -91.368  91.195  1.00  0.00     0.172 C 
HETATM   27  O1  UNL     1      -4.314 -93.568  89.289  1.00  0.00    -0.273 OA
HETATM   28  C11 UNL     1      -6.686 -93.119  89.225  1.00  0.00     0.179 C 
HETATM   29  S1  UNL     1      -7.636 -92.118  90.456  1.00  0.00    -0.132 SA
ENDBRANCH  19  21
ENDBRANCH  11  19
BRANCH  12  30
HETATM   30  N7  UNL     1      -9.945 -88.512  92.229  1.00  0.00    -0.371 N 
ATOM     31  H7  UNL     1     -10.132 -89.371  91.713  1.00  0.00     0.161 HD
BRANCH  30  32
HETATM   32  C14 UNL     1     -11.079 -87.909  92.842  1.00  0.00     0.155 C 
BRANCH  32  33
HETATM   33  C15 UNL     1     -11.028 -87.969  94.360  1.00  0.00     0.159 C 
BRANCH  33  34
HETATM   34  O2  UNL     1     -10.051 -88.876  94.791  1.00  0.00    -0.392 OA
ATOM     35  H2  UNL     1     -10.382 -89.419  95.498  1.00  0.00     0.210 HD
ENDBRANCH  33  34
BRANCH  33  36
HETATM   36  C16 UNL     1     -10.621 -86.603  94.882  1.00  0.00     0.197 C 
BRANCH  36  37
HETATM   37  O3  UNL     1     -11.267 -85.635  94.108  1.00  0.00    -0.398 OA
ATOM     38  H3  UNL     1     -12.147 -85.945  93.924  1.00  0.00     0.209 HD
ENDBRANCH  36  37
ENDBRANCH  33  36
ENDBRANCH  32  33
ENDBRANCH  30  32
ENDBRANCH  12  30
TORSDOF 9
ENDMDL
MODEL 3
REMARK VINA RESULT: -7.782065809      1.624      2.080
REMARK  9 active torsions:
REMARK  status: ('A' for Active; 'I' for Inactive)
REMARK    1  A    between atoms: C3_6  and  N3_7 
REMARK    2  A    between atoms: C6_14  and  N5_15 
REMARK    3  A    between atoms: N5_15  and  C7_17 
REMARK    4  A    between atoms: C13_26  and  N7_27 
REMARK    5  A    between atoms: N7_27  and  C14_29 
REMARK    6  A    between atoms: C14_29  and  C15_30 
REMARK    7  A    between atoms: C15_30  and  O2_31 
REMARK    8  A    between atoms: C15_30  and  C16_33 
REMARK    9  A    between atoms: C16_33  and  O3_34 
ROOT
HETATM    1  N1  UNL     1      -1.443 -86.705  92.860  1.00  0.00    -0.188 NA
HETATM    2  C1  UNL     1      -2.588 -86.666  92.733  1.00  0.00     0.137 C 
HETATM    3  C2  UNL     1      -4.036 -86.590  92.567  1.00  0.00     0.190 A 
HETATM    4  N2  UNL     1      -4.582 -85.505  91.991  1.00  0.00    -0.318 N 
ATOM      5  H2  UNL     1      -3.980 -84.746  91.674  1.00  0.00     0.169 HD
HETATM    6  C3  UNL     1      -5.910 -85.410  91.828  1.00  0.00     0.132 A 
HETATM    7  C4  UNL     1      -6.742 -86.428  92.249  1.00  0.00     0.124 A 
HETATM    8  C5  UNL     1      -6.174 -87.531  92.834  1.00  0.00     0.097 A 
HETATM    9  N4  UNL     1      -4.833 -87.583  92.980  1.00  0.00    -0.330 N 
ATOM     10  H4  UNL     1      -4.415 -88.405  93.417  1.00  0.00     0.168 HD
HETATM   11  C6  UNL     1      -7.240 -88.386  93.176  1.00  0.00     0.103 A 
HETATM   12  C13 UNL     1      -8.385 -87.765  92.792  1.00  0.00     0.147 A 
HETATM   13  N8  UNL     1      -8.075 -86.552  92.215  1.00  0.00    -0.226 N 
HETATM   14  C17 UNL     1      -8.948 -85.597  91.679  1.00  0.00     0.191 C 
HETATM   15  N9  UNL     1      -9.683 -84.819  91.239  1.00  0.00    -0.171 NA
ENDROOT
BRANCH   6  16
HETATM   16  N3  UNL     1      -6.440 -84.356  91.268  1.00  0.00    -0.383 N 
ATOM     17  H32 UNL     1      -6.033 -84.002  90.403  1.00  0.00     0.157 HD
ATOM     18  H31 UNL     1      -7.247 -83.893  91.687  1.00  0.00     0.157 HD
ENDBRANCH   6  16
BRANCH  11  19
HETATM   19  N5  UNL     1      -6.982 -89.610  93.800  1.00  0.00    -0.378 N 
ATOM     20  H5  UNL     1      -7.148 -89.580  94.805  1.00  0.00     0.160 HD
BRANCH  19  21
HETATM   21  C7  UNL     1      -6.553 -90.853  93.369  1.00  0.00     0.116 C 
HETATM   22  C8  UNL     1      -7.038 -92.121  94.029  1.00  0.00     0.048 C 
HETATM   23  C9  UNL     1      -6.082 -93.071  93.253  1.00  0.00     0.129 C 
HETATM   24  N6  UNL     1      -6.505 -92.730  91.911  1.00  0.00    -0.336 N 
HETATM   25  C10 UNL     1      -6.812 -93.202  90.620  1.00  0.00     0.230 C 
HETATM   26  C12 UNL     1      -6.721 -91.252  91.935  1.00  0.00     0.172 C 
HETATM   27  O1  UNL     1      -6.080 -93.975  89.949  1.00  0.00    -0.273 OA
HETATM   28  C11 UNL     1      -8.113 -92.684  90.127  1.00  0.00     0.179 C 
HETATM   29  S1  UNL     1      -8.475 -91.398  91.406  1.00  0.00    -0.132 SA
ENDBRANCH  19  21
ENDBRANCH  11  19
BRANCH  12  30
HETATM   30  N7  UNL     1      -9.745 -88.112  92.973  1.00  0.00    -0.371 N 
ATOM     31  H7  UNL     1     -10.228 -88.442  92.138  1.00  0.00     0.161 HD
BRANCH  30  32
HETATM   32  C14 UNL     1     -10.533 -88.064  94.156  1.00  0.00     0.155 C 
BRANCH  32  33
HETATM   33  C15 UNL     1     -11.470 -86.868  94.191  1.00  0.00     0.159 C 
BRANCH  33  34
HETATM   34  O2  UNL     1     -10.747 -85.669  94.238  1.00  0.00    -0.392 OA
ATOM     35  H2  UNL     1     -10.798 -85.211  93.407  1.00  0.00     0.210 HD
ENDBRANCH  33  34
BRANCH  33  36
HETATM   36  C16 UNL     1     -12.272 -86.848  92.902  1.00  0.00     0.197 C 
BRANCH  36  37
HETATM   37  O3  UNL     1     -12.395 -85.519  92.491  1.00  0.00    -0.398 OA
ATOM     38  H3  UNL     1     -11.942 -85.426  91.660  1.00  0.00     0.209 HD
ENDBRANCH  36  37
ENDBRANCH  33  36
ENDBRANCH  32  33
ENDBRANCH  30  32
ENDBRANCH  12  30
TORSDOF 9
ENDMDL
MODEL 4
REMARK VINA RESULT: -7.533418526      4.811      7.563
REMARK  9 active torsions:
REMARK  status: ('A' for Active; 'I' for Inactive)
REMARK    1  A    between atoms: C3_6  and  N3_7 
REMARK    2  A    between atoms: C6_14  and  N5_15 
REMARK    3  A    between atoms: N5_15  and  C7_17 
REMARK    4  A    between atoms: C13_26  and  N7_27 
REMARK    5  A    between atoms: N7_27  and  C14_29 
REMARK    6  A    between atoms: C14_29  and  C15_30 
REMARK    7  A    between atoms: C15_30  and  O2_31 
REMARK    8  A    between atoms: C15_30  and  C16_33 
REMARK    9  A    between atoms: C16_33  and  O3_34 
ROOT
HETATM    1  N1  UNL     1      -4.982 -91.974  85.998  1.00  0.00    -0.188 NA
HETATM    2  C1  UNL     1      -4.409 -91.138  86.548  1.00  0.00     0.137 C 
HETATM    3  C2  UNL     1      -3.662 -90.088  87.232  1.00  0.00     0.190 A 
HETATM    4  N2  UNL     1      -2.443 -89.741  86.783  1.00  0.00    -0.318 N 
ATOM      5  H2  UNL     1      -2.052 -90.215  85.968  1.00  0.00     0.169 HD
HETATM    6  C3  UNL     1      -1.734 -88.780  87.394  1.00  0.00     0.132 A 
HETATM    7  C4  UNL     1      -2.246 -88.126  88.496  1.00  0.00     0.124 A 
HETATM    8  C5  UNL     1      -3.491 -88.486  88.945  1.00  0.00     0.097 A 
HETATM    9  N4  UNL     1      -4.168 -89.460  88.300  1.00  0.00    -0.330 N 
ATOM     10  H4  UNL     1      -5.094 -89.727  88.638  1.00  0.00     0.168 HD
HETATM   11  C6  UNL     1      -3.749 -87.684  90.073  1.00  0.00     0.103 A 
HETATM   12  C13 UNL     1      -2.660 -86.892  90.253  1.00  0.00     0.147 A 
HETATM   13  N8  UNL     1      -1.730 -87.166  89.273  1.00  0.00    -0.226 N 
HETATM   14  C17 UNL     1      -0.472 -86.579  89.082  1.00  0.00     0.191 C 
HETATM   15  N9  UNL     1       0.563 -86.083  88.937  1.00  0.00    -0.171 NA
ENDROOT
BRANCH   6  16
HETATM   16  N3  UNL     1      -0.550 -88.444  86.957  1.00  0.00    -0.383 N 
ATOM     17  H32 UNL     1      -0.029 -89.111  86.388  1.00  0.00     0.157 HD
ATOM     18  H31 UNL     1      -0.152 -87.532  87.180  1.00  0.00     0.157 HD
ENDBRANCH   6  16
BRANCH  11  19
HETATM   19  N5  UNL     1      -4.956 -87.817  90.765  1.00  0.00    -0.378 N 
ATOM     20  H5  UNL     1      -5.734 -88.059  90.152  1.00  0.00     0.160 HD
BRANCH  19  21
HETATM   21  C7  UNL     1      -5.340 -87.697  92.088  1.00  0.00     0.116 C 
HETATM   22  C8  UNL     1      -5.728 -86.360  92.673  1.00  0.00     0.048 C 
HETATM   23  C9  UNL     1      -5.842 -86.863  94.140  1.00  0.00     0.129 C 
HETATM   24  N6  UNL     1      -6.839 -87.890  93.923  1.00  0.00    -0.336 N 
HETATM   25  C10 UNL     1      -8.005 -88.517  94.406  1.00  0.00     0.230 C 
HETATM   26  C12 UNL     1      -6.468 -88.526  92.623  1.00  0.00     0.172 C 
HETATM   27  O1  UNL     1      -8.155 -88.939  95.582  1.00  0.00    -0.273 OA
HETATM   28  C11 UNL     1      -9.056 -88.628  93.363  1.00  0.00     0.179 C 
HETATM   29  S1  UNL     1      -8.096 -88.148  91.857  1.00  0.00    -0.132 SA
ENDBRANCH  19  21
ENDBRANCH  11  19
BRANCH  12  30
HETATM   30  N7  UNL     1      -2.330 -85.972  91.276  1.00  0.00    -0.371 N 
ATOM     31  H7  UNL     1      -2.253 -84.999  90.983  1.00  0.00     0.161 HD
BRANCH  30  32
HETATM   32  C14 UNL     1      -2.089 -86.214  92.657  1.00  0.00     0.155 C 
BRANCH  32  33
HETATM   33  C15 UNL     1      -0.620 -86.452  92.965  1.00  0.00     0.159 C 
BRANCH  33  34
HETATM   34  O2  UNL     1      -0.161 -87.617  92.337  1.00  0.00    -0.392 OA
ATOM     35  H2  UNL     1       0.758 -87.537  92.106  1.00  0.00     0.210 HD
ENDBRANCH  33  34
BRANCH  33  36
HETATM   36  C16 UNL     1       0.184 -85.298  92.394  1.00  0.00     0.197 C 
BRANCH  36  37
HETATM   37  O3  UNL     1       1.402 -85.805  91.934  1.00  0.00    -0.398 OA
ATOM     38  H3  UNL     1       1.529 -85.501  91.043  1.00  0.00     0.209 HD
ENDBRANCH  36  37
ENDBRANCH  33  36
ENDBRANCH  32  33
ENDBRANCH  30  32
ENDBRANCH  12  30
TORSDOF 9
ENDMDL
MODEL 5
REMARK VINA RESULT: -7.419083378      2.334      2.791
REMARK  9 active torsions:
REMARK  status: ('A' for Active; 'I' for Inactive)
REMARK    1  A    between atoms: C3_6  and  N3_7 
REMARK    2  A    between atoms: C6_14  and  N5_15 
REMARK    3  A    between atoms: N5_15  and  C7_17 
REMARK    4  A    between atoms: C13_26  and  N7_27 
REMARK    5  A    between atoms: N7_27  and  C14_29 
REMARK    6  A    between atoms: C14_29  and  C15_30 
REMARK    7  A    between atoms: C15_30  and  O2_31 
REMARK    8  A    between atoms: C15_30  and  C16_33 
REMARK    9  A    between atoms: C16_33  and  O3_34 
ROOT
HETATM    1  N1  UNL     1      -1.736 -86.794  93.105  1.00  0.00    -0.188 NA
HETATM    2  C1  UNL     1      -2.859 -86.762  92.848  1.00  0.00     0.137 C 
HETATM    3  C2  UNL     1      -4.281 -86.697  92.526  1.00  0.00     0.190 A 
HETATM    4  N2  UNL     1      -4.841 -85.509  92.236  1.00  0.00    -0.318 N 
ATOM      5  H2  UNL     1      -4.268 -84.666  92.244  1.00  0.00     0.169 HD
HETATM    6  C3  UNL     1      -6.147 -85.421  91.938  1.00  0.00     0.132 A 
HETATM    7  C4  UNL     1      -6.939 -86.550  91.922  1.00  0.00     0.124 A 
HETATM    8  C5  UNL     1      -6.357 -87.756  92.217  1.00  0.00     0.097 A 
HETATM    9  N4  UNL     1      -5.041 -87.799  92.513  1.00  0.00    -0.330 N 
ATOM     10  H4  UNL     1      -4.611 -88.698  92.733  1.00  0.00     0.168 HD
HETATM   11  C6  UNL     1      -7.385 -88.717  92.144  1.00  0.00     0.103 A 
HETATM   12  C13 UNL     1      -8.525 -88.053  91.819  1.00  0.00     0.147 A 
HETATM   13  N8  UNL     1      -8.246 -86.710  91.679  1.00  0.00    -0.226 N 
HETATM   14  C17 UNL     1      -9.125 -85.671  91.346  1.00  0.00     0.191 C 
HETATM   15  N9  UNL     1      -9.864 -84.825  91.069  1.00  0.00    -0.171 NA
ENDROOT
BRANCH   6  16
HETATM   16  N3  UNL     1      -6.690 -84.266  91.657  1.00  0.00    -0.383 N 
ATOM     17  H32 UNL     1      -6.438 -83.804  90.784  1.00  0.00     0.157 HD
ATOM     18  H31 UNL     1      -7.355 -83.834  92.298  1.00  0.00     0.157 HD
ENDBRANCH   6  16
BRANCH  11  19
HETATM   19  N5  UNL     1      -7.104 -90.062  92.399  1.00  0.00    -0.378 N 
ATOM     20  H5  UNL     1      -7.557 -90.403  93.247  1.00  0.00     0.160 HD
BRANCH  19  21
HETATM   21  C7  UNL     1      -6.356 -91.039  91.767  1.00  0.00     0.116 C 
HETATM   22  C8  UNL     1      -6.769 -92.491  91.806  1.00  0.00     0.048 C 
HETATM   23  C9  UNL     1      -5.479 -93.033  91.127  1.00  0.00     0.129 C 
HETATM   24  N6  UNL     1      -5.565 -92.275  89.897  1.00  0.00    -0.336 N 
HETATM   25  C10 UNL     1      -5.409 -92.286  88.497  1.00  0.00     0.230 C 
HETATM   26  C12 UNL     1      -6.042 -90.920  90.307  1.00  0.00     0.172 C 
HETATM   27  O1  UNL     1      -4.392 -92.716  87.894  1.00  0.00    -0.273 OA
HETATM   28  C11 UNL     1      -6.592 -91.725  87.796  1.00  0.00     0.179 C 
HETATM   29  S1  UNL     1      -7.523 -91.002  89.220  1.00  0.00    -0.132 SA
ENDBRANCH  19  21
ENDBRANCH  11  19
BRANCH  12  30
HETATM   30  N7  UNL     1      -9.866 -88.492  91.709  1.00  0.00    -0.371 N 
ATOM     31  H7  UNL     1     -10.184 -88.694  90.762  1.00  0.00     0.161 HD
BRANCH  30  32
HETATM   32  C14 UNL     1     -10.831 -88.690  92.734  1.00  0.00     0.155 C 
BRANCH  32  33
HETATM   33  C15 UNL     1     -11.584 -87.418  93.088  1.00  0.00     0.159 C 
BRANCH  33  34
HETATM   34  O2  UNL     1     -12.917 -87.702  93.413  1.00  0.00    -0.392 OA
ATOM     35  H2  UNL     1     -13.210 -87.163  94.140  1.00  0.00     0.210 HD
ENDBRANCH  33  34
BRANCH  33  36
HETATM   36  C16 UNL     1     -10.948 -86.812  94.325  1.00  0.00     0.197 C 
BRANCH  36  37
HETATM   37  O3  UNL     1     -10.884 -85.427  94.144  1.00  0.00    -0.398 OA
ATOM     38  H3  UNL     1     -10.677 -85.031  94.983  1.00  0.00     0.209 HD
ENDBRANCH  36  37
ENDBRANCH  33  36
ENDBRANCH  32  33
ENDBRANCH  30  32
ENDBRANCH  12  30
TORSDOF 9
ENDMDL
