MODEL 1
REMARK VINA RESULT: -7.000226747      0.000      0.000
REMARK  3 active torsions:
REMARK  status: ('A' for Active; 'I' for Inactive)
REMARK    1  A    between atoms: N3_4  and  N4_6 
REMARK       I    between atoms: N4_6  and  C2_8 
REMARK       I    between atoms: C2_8  and  N5_10 
REMARK    2  A    between atoms: N5_10  and  N6_12 
REMARK    3  A    between atoms: C3_14  and  C4_15 
ROOT
HETATM    1  N4  UNL     1      20.841  -2.285  11.957  1.00  0.00    -0.248 N 
ATOM      2  H4  UNL     1      21.131  -1.598  11.262  1.00  0.00     0.192 HD
HETATM    3  C2  UNL     1      21.578  -3.472  12.137  1.00  0.00     0.353 C 
HETATM    4  O1  UNL     1      21.256  -4.353  12.988  1.00  0.00    -0.244 OA
HETATM    5  N5  UNL     1      22.725  -3.701  11.343  1.00  0.00    -0.251 N 
ATOM      6  H5  UNL     1      23.016  -3.014  10.648  1.00  0.00     0.191 HD
ENDROOT
BRANCH   5   7
HETATM    7  N6  UNL     1      23.453  -4.872  11.521  1.00  0.00    -0.307 N 
HETATM    8  C3  UNL     1      23.294  -5.905  10.776  1.00  0.00     0.120 C 
ATOM      9  H6  UNL     1      24.140  -4.913  12.273  1.00  0.00     0.186 HD
BRANCH   8  10
HETATM   10  C4  UNL     1      24.099  -7.096  11.030  1.00  0.00     0.005 A 
HETATM   11  C5  UNL     1      23.774  -8.420  10.818  1.00  0.00     0.039 A 
HETATM   12  C6  UNL     1      24.859  -9.195  11.210  1.00  0.00     0.142 A 
HETATM   13  O2  UNL     1      25.781  -8.381  11.633  1.00  0.00    -0.334 OA
HETATM   14  C7  UNL     1      25.395  -7.133  11.551  1.00  0.00     0.154 A 
ENDBRANCH   8  10
ENDBRANCH   5   7
BRANCH   1  15
HETATM   15  N3  UNL     1      19.710  -2.063  12.740  1.00  0.00    -0.272 N 
HETATM   16  C1  UNL     1      18.511  -2.324  12.351  1.00  0.00     0.215 C 
HETATM   17  N1  UNL     1      17.445  -2.050  13.248  1.00  0.00    -0.065 NA
HETATM   18  N2  UNL     1      18.172  -2.869  11.087  1.00  0.00    -0.065 NA
ATOM     19  H3  UNL     1      19.840  -1.671  13.673  1.00  0.00     0.189 HD
ENDBRANCH   1  15
TORSDOF 3
ENDMDL
MODEL 2
REMARK VINA RESULT: -6.721936635      3.010      6.882
REMARK  3 active torsions:
REMARK  status: ('A' for Active; 'I' for Inactive)
REMARK    1  A    between atoms: N3_4  and  N4_6 
REMARK       I    between atoms: N4_6  and  C2_8 
REMARK       I    between atoms: C2_8  and  N5_10 
REMARK    2  A    between atoms: N5_10  and  N6_12 
REMARK    3  A    between atoms: C3_14  and  C4_15 
ROOT
HETATM    1  N4  UNL     1      21.957  -3.031  10.324  1.00  0.00    -0.248 N 
ATOM      2  H4  UNL     1      21.705  -2.200   9.790  1.00  0.00     0.192 HD
HETATM    3  C2  UNL     1      21.487  -3.203  11.641  1.00  0.00     0.353 C 
HETATM    4  O1  UNL     1      21.774  -4.219  12.341  1.00  0.00    -0.244 OA
HETATM    5  N5  UNL     1      20.662  -2.210  12.216  1.00  0.00    -0.251 N 
ATOM      6  H5  UNL     1      20.409  -1.379  11.683  1.00  0.00     0.191 HD
ENDROOT
BRANCH   5   7
HETATM    7  N6  UNL     1      20.198  -2.380  13.515  1.00  0.00    -0.307 N 
HETATM    8  C3  UNL     1      19.086  -2.962  13.783  1.00  0.00     0.120 C 
ATOM      9  H6  UNL     1      20.764  -2.027  14.287  1.00  0.00     0.186 HD
BRANCH   8  10
HETATM   10  C4  UNL     1      18.673  -3.099  15.176  1.00  0.00     0.005 A 
HETATM   11  C5  UNL     1      17.474  -3.560  15.680  1.00  0.00     0.039 A 
HETATM   12  C6  UNL     1      17.544  -3.507  17.068  1.00  0.00     0.142 A 
HETATM   13  O2  UNL     1      18.718  -3.041  17.375  1.00  0.00    -0.334 OA
HETATM   14  C7  UNL     1      19.429  -2.783  16.307  1.00  0.00     0.154 A 
ENDBRANCH   8  10
ENDBRANCH   5   7
BRANCH   1  15
HETATM   15  N3  UNL     1      22.771  -4.011   9.760  1.00  0.00    -0.272 N 
HETATM   16  C1  UNL     1      24.033  -4.111   9.995  1.00  0.00     0.215 C 
HETATM   17  N1  UNL     1      24.749  -5.158   9.355  1.00  0.00    -0.065 NA
HETATM   18  N2  UNL     1      24.767  -3.251  10.850  1.00  0.00    -0.065 NA
ATOM     19  H3  UNL     1      22.344  -4.686   9.126  1.00  0.00     0.189 HD
ENDBRANCH   1  15
TORSDOF 3
ENDMDL
MODEL 3
REMARK VINA RESULT: -6.570945881      2.633      3.601
REMARK  3 active torsions:
REMARK  status: ('A' for Active; 'I' for Inactive)
REMARK    1  A    between atoms: N3_4  and  N4_6 
REMARK       I    between atoms: N4_6  and  C2_8 
REMARK       I    between atoms: C2_8  and  N5_10 
REMARK    2  A    between atoms: N5_10  and  N6_12 
REMARK    3  A    between atoms: C3_14  and  C4_15 
ROOT
HETATM    1  N4  UNL     1      18.639  -2.296  13.940  1.00  0.00    -0.248 N 
ATOM      2  H4  UNL     1      18.417  -1.344  13.653  1.00  0.00     0.192 HD
HETATM    3  C2  UNL     1      19.815  -2.924  13.482  1.00  0.00     0.353 C 
HETATM    4  O1  UNL     1      20.132  -4.104  13.813  1.00  0.00    -0.244 OA
HETATM    5  N5  UNL     1      20.683  -2.219  12.618  1.00  0.00    -0.251 N 
ATOM      6  H5  UNL     1      20.462  -1.266  12.330  1.00  0.00     0.191 HD
ENDROOT
BRANCH   5   7
HETATM    7  N6  UNL     1      21.843  -2.838  12.166  1.00  0.00    -0.307 N 
HETATM    8  C3  UNL     1      22.066  -3.066  10.923  1.00  0.00     0.120 C 
ATOM      9  H6  UNL     1      22.545  -3.123  12.849  1.00  0.00     0.186 HD
BRANCH   8  10
HETATM   10  C4  UNL     1      23.310  -3.721  10.532  1.00  0.00     0.005 A 
HETATM   11  C5  UNL     1      23.565  -4.498   9.420  1.00  0.00     0.039 A 
HETATM   12  C6  UNL     1      24.894  -4.902   9.476  1.00  0.00     0.142 A 
HETATM   13  O2  UNL     1      25.404  -4.396  10.560  1.00  0.00    -0.334 OA
HETATM   14  C7  UNL     1      24.523  -3.691  11.223  1.00  0.00     0.154 A 
ENDBRANCH   8  10
ENDBRANCH   5   7
BRANCH   1  15
HETATM   15  N3  UNL     1      17.785  -2.994  14.792  1.00  0.00    -0.272 N 
HETATM   16  C1  UNL     1      17.963  -3.082  16.064  1.00  0.00     0.215 C 
HETATM   17  N1  UNL     1      17.016  -3.824  16.819  1.00  0.00    -0.065 NA
HETATM   18  N2  UNL     1      19.039  -2.490  16.773  1.00  0.00    -0.065 NA
ATOM     19  H3  UNL     1      16.974  -3.460  14.385  1.00  0.00     0.189 HD
ENDBRANCH   1  15
TORSDOF 3
ENDMDL
MODEL 4
REMARK VINA RESULT: -6.566269967      3.501      7.334
REMARK  3 active torsions:
REMARK  status: ('A' for Active; 'I' for Inactive)
REMARK    1  A    between atoms: N3_4  and  N4_6 
REMARK       I    between atoms: N4_6  and  C2_8 
REMARK       I    between atoms: C2_8  and  N5_10 
REMARK    2  A    between atoms: N5_10  and  N6_12 
REMARK    3  A    between atoms: C3_14  and  C4_15 
ROOT
HETATM    1  N4  UNL     1      20.681  -2.756  11.052  1.00  0.00    -0.248 N 
ATOM      2  H4  UNL     1      19.994  -3.014  10.344  1.00  0.00     0.192 HD
HETATM    3  C2  UNL     1      20.292  -2.580  12.394  1.00  0.00     0.353 C 
HETATM    4  O1  UNL     1      21.110  -2.260  13.306  1.00  0.00    -0.244 OA
HETATM    5  N5  UNL     1      18.937  -2.764  12.751  1.00  0.00    -0.251 N 
ATOM      6  H5  UNL     1      18.248  -3.023  12.044  1.00  0.00     0.191 HD
ENDROOT
BRANCH   5   7
HETATM    7  N6  UNL     1      18.552  -2.590  14.075  1.00  0.00    -0.307 N 
HETATM    8  C3  UNL     1      18.128  -3.557  14.806  1.00  0.00     0.120 C 
ATOM      9  H6  UNL     1      18.609  -1.657  14.483  1.00  0.00     0.186 HD
BRANCH   8  10
HETATM   10  C4  UNL     1      17.743  -3.288  16.188  1.00  0.00     0.005 A 
HETATM   11  C5  UNL     1      16.622  -3.713  16.871  1.00  0.00     0.039 A 
HETATM   12  C6  UNL     1      16.691  -3.206  18.164  1.00  0.00     0.142 A 
HETATM   13  O2  UNL     1      17.791  -2.517  18.248  1.00  0.00    -0.334 OA
HETATM   14  C7  UNL     1      18.454  -2.528  17.120  1.00  0.00     0.154 A 
ENDBRANCH   8  10
ENDBRANCH   5   7
BRANCH   1  15
HETATM   15  N3  UNL     1      22.018  -2.573  10.703  1.00  0.00    -0.272 N 
HETATM   16  C1  UNL     1      22.888  -3.522  10.696  1.00  0.00     0.215 C 
HETATM   17  N1  UNL     1      24.220  -3.201  10.319  1.00  0.00    -0.065 NA
HETATM   18  N2  UNL     1      22.617  -4.871  11.036  1.00  0.00    -0.065 NA
ATOM     19  H3  UNL     1      22.324  -1.636  10.440  1.00  0.00     0.189 HD
ENDBRANCH   1  15
TORSDOF 3
ENDMDL
MODEL 5
REMARK VINA RESULT: -6.554771991      2.357      3.226
REMARK  3 active torsions:
REMARK  status: ('A' for Active; 'I' for Inactive)
REMARK    1  A    between atoms: N3_4  and  N4_6 
REMARK       I    between atoms: N4_6  and  C2_8 
REMARK       I    between atoms: C2_8  and  N5_10 
REMARK    2  A    between atoms: N5_10  and  N6_12 
REMARK    3  A    between atoms: C3_14  and  C4_15 
ROOT
HETATM    1  N4  UNL     1      18.974  -2.091  13.455  1.00  0.00    -0.248 N 
ATOM      2  H4  UNL     1      18.848  -1.128  13.144  1.00  0.00     0.192 HD
HETATM    3  C2  UNL     1      20.125  -2.814  13.085  1.00  0.00     0.353 C 
HETATM    4  O1  UNL     1      20.325  -4.011  13.447  1.00  0.00    -0.244 OA
HETATM    5  N5  UNL     1      21.104  -2.191  12.278  1.00  0.00    -0.251 N 
ATOM      6  H5  UNL     1      20.978  -1.228  11.967  1.00  0.00     0.191 HD
ENDROOT
BRANCH   5   7
HETATM    7  N6  UNL     1      22.239  -2.905  11.912  1.00  0.00    -0.307 N 
HETATM    8  C3  UNL     1      22.404  -3.388  10.734  1.00  0.00     0.120 C 
ATOM      9  H6  UNL     1      22.971  -3.050  12.608  1.00  0.00     0.186 HD
BRANCH   8  10
HETATM   10  C4  UNL     1      23.627  -4.125  10.433  1.00  0.00     0.005 A 
HETATM   11  C5  UNL     1      24.564  -4.638  11.306  1.00  0.00     0.039 A 
HETATM   12  C6  UNL     1      25.554  -5.261  10.554  1.00  0.00     0.142 A 
HETATM   13  O2  UNL     1      25.228  -5.126   9.302  1.00  0.00    -0.334 OA
HETATM   14  C7  UNL     1      24.105  -4.469   9.166  1.00  0.00     0.154 A 
ENDBRANCH   8  10
ENDBRANCH   5   7
BRANCH   1  15
HETATM   15  N3  UNL     1      18.011  -2.707  14.250  1.00  0.00    -0.272 N 
HETATM   16  C1  UNL     1      18.139  -2.877  15.521  1.00  0.00     0.215 C 
HETATM   17  N1  UNL     1      17.081  -3.522  16.216  1.00  0.00    -0.065 NA
HETATM   18  N2  UNL     1      19.262  -2.467  16.283  1.00  0.00    -0.065 NA
ATOM     19  H3  UNL     1      17.158  -3.043  13.802  1.00  0.00     0.189 HD
ENDBRANCH   1  15
TORSDOF 3
ENDMDL
