MODEL 1
REMARK VINA RESULT: -5.722283393      0.000      0.000
REMARK  3 active torsions:
REMARK  status: ('A' for Active; 'I' for Inactive)
REMARK    1  A    between atoms: C3_5  and  C4_6 
REMARK    2  A    between atoms: C4_6  and  N2_7 
REMARK    3  A    between atoms: N2_7  and  N3_9 
ROOT
HETATM    1  C1  UNL     1      78.439  85.551  17.712  1.00  0.00     0.049 C 
HETATM    2  C2  UNL     1      78.481  86.786  18.163  1.00  0.00     0.093 A 
HETATM    3  N1  UNL     1      77.818  87.200  19.254  1.00  0.00    -0.337 N 
ATOM      4  H1  UNL     1      77.222  86.610  19.836  1.00  0.00     0.167 HD
HETATM    5  C3  UNL     1      78.054  88.501  19.466  1.00  0.00     0.125 A 
HETATM    6  N4  UNL     1      78.885  88.892  18.473  1.00  0.00    -0.306 N 
ATOM      7  H4  UNL     1      79.247  89.839  18.360  1.00  0.00     0.170 HD
HETATM    8  C5  UNL     1      79.168  87.866  17.657  1.00  0.00     0.273 A 
HETATM    9  O1  UNL     1      79.886  87.804  16.636  1.00  0.00    -0.266 OA
ENDROOT
BRANCH   5  10
HETATM   10  C4  UNL     1      77.555  89.203  20.448  1.00  0.00     0.155 C 
BRANCH  10  11
HETATM   11  N2  UNL     1      76.364  89.945  20.259  1.00  0.00    -0.315 N 
ATOM     12  H2  UNL     1      76.212  90.826  20.751  1.00  0.00     0.185 HD
BRANCH  11  13
HETATM   13  N3  UNL     1      75.417  89.443  19.392  1.00  0.00    -0.345 N 
ATOM     14  H32 UNL     1      75.705  89.026  18.507  1.00  0.00     0.176 HD
ATOM     15  H31 UNL     1      74.435  89.505  19.665  1.00  0.00     0.176 HD
ENDBRANCH  11  13
ENDBRANCH  10  11
ENDBRANCH   5  10
TORSDOF 3
ENDMDL
MODEL 2
REMARK VINA RESULT: -5.532303295      1.011      1.094
REMARK  3 active torsions:
REMARK  status: ('A' for Active; 'I' for Inactive)
REMARK    1  A    between atoms: C3_5  and  C4_6 
REMARK    2  A    between atoms: C4_6  and  N2_7 
REMARK    3  A    between atoms: N2_7  and  N3_9 
ROOT
HETATM    1  C1  UNL     1      78.046  84.608  19.126  1.00  0.00     0.049 C 
HETATM    2  C2  UNL     1      78.123  85.920  19.075  1.00  0.00     0.093 A 
HETATM    3  N1  UNL     1      77.687  86.726  20.056  1.00  0.00    -0.337 N 
ATOM      4  H1  UNL     1      77.258  86.410  20.926  1.00  0.00     0.167 HD
HETATM    5  C3  UNL     1      77.899  88.006  19.724  1.00  0.00     0.125 A 
HETATM    6  N4  UNL     1      78.480  87.978  18.502  1.00  0.00    -0.306 N 
ATOM      7  H4  UNL     1      78.763  88.806  17.976  1.00  0.00     0.170 HD
HETATM    8  C5  UNL     1      78.633  86.717  18.075  1.00  0.00     0.273 A 
HETATM    9  O1  UNL     1      79.120  86.262  17.018  1.00  0.00    -0.266 OA
ENDROOT
BRANCH   5  10
HETATM   10  C4  UNL     1      77.586  89.034  20.465  1.00  0.00     0.155 C 
BRANCH  10  11
HETATM   11  N2  UNL     1      76.483  89.851  20.121  1.00  0.00    -0.315 N 
ATOM     12  H2  UNL     1      76.412  90.809  20.462  1.00  0.00     0.185 HD
BRANCH  11  13
HETATM   13  N3  UNL     1      75.505  89.313  19.310  1.00  0.00    -0.345 N 
ATOM     14  H32 UNL     1      75.712  89.096  18.335  1.00  0.00     0.176 HD
ATOM     15  H31 UNL     1      74.584  89.145  19.715  1.00  0.00     0.176 HD
ENDBRANCH  11  13
ENDBRANCH  10  11
ENDBRANCH   5  10
TORSDOF 3
ENDMDL
MODEL 3
REMARK VINA RESULT: -5.345238584      1.330      1.848
REMARK  3 active torsions:
REMARK  status: ('A' for Active; 'I' for Inactive)
REMARK    1  A    between atoms: C3_5  and  C4_6 
REMARK    2  A    between atoms: C4_6  and  N2_7 
REMARK    3  A    between atoms: N2_7  and  N3_9 
ROOT
HETATM    1  C1  UNL     1      79.982  87.407  17.400  1.00  0.00     0.049 C 
HETATM    2  C2  UNL     1      79.103  87.471  18.376  1.00  0.00     0.093 A 
HETATM    3  N1  UNL     1      78.726  88.620  18.958  1.00  0.00    -0.337 N 
ATOM      4  H1  UNL     1      79.074  89.545  18.709  1.00  0.00     0.167 HD
HETATM    5  C3  UNL     1      77.823  88.371  19.916  1.00  0.00     0.125 A 
HETATM    6  N4  UNL     1      77.647  87.029  19.918  1.00  0.00    -0.306 N 
ATOM      7  H4  UNL     1      77.016  86.529  20.544  1.00  0.00     0.170 HD
HETATM    8  C5  UNL     1      78.416  86.446  18.987  1.00  0.00     0.273 A 
HETATM    9  O1  UNL     1      78.549  85.246  18.667  1.00  0.00    -0.266 OA
ENDROOT
BRANCH   5  10
HETATM   10  C4  UNL     1      77.259  89.277  20.668  1.00  0.00     0.155 C 
BRANCH  10  11
HETATM   11  N2  UNL     1      76.138  90.000  20.193  1.00  0.00    -0.315 N 
ATOM     12  H2  UNL     1      75.923  90.930  20.552  1.00  0.00     0.185 HD
BRANCH  11  13
HETATM   13  N3  UNL     1      75.345  89.409  19.232  1.00  0.00    -0.345 N 
ATOM     14  H32 UNL     1      74.905  89.982  18.512  1.00  0.00     0.176 HD
ATOM     15  H31 UNL     1      75.219  88.397  19.269  1.00  0.00     0.176 HD
ENDBRANCH  11  13
ENDBRANCH  10  11
ENDBRANCH   5  10
TORSDOF 3
ENDMDL
MODEL 4
REMARK VINA RESULT: -5.333581969      1.802      2.195
REMARK  3 active torsions:
REMARK  status: ('A' for Active; 'I' for Inactive)
REMARK    1  A    between atoms: C3_5  and  C4_6 
REMARK    2  A    between atoms: C4_6  and  N2_7 
REMARK    3  A    between atoms: N2_7  and  N3_9 
ROOT
HETATM    1  C1  UNL     1      77.709  83.785  19.713  1.00  0.00     0.049 C 
HETATM    2  C2  UNL     1      77.965  85.012  19.315  1.00  0.00     0.093 A 
HETATM    3  N1  UNL     1      78.051  86.059  20.150  1.00  0.00    -0.337 N 
ATOM      4  H1  UNL     1      77.928  86.014  21.162  1.00  0.00     0.167 HD
HETATM    5  C3  UNL     1      78.321  87.174  19.458  1.00  0.00     0.125 A 
HETATM    6  N4  UNL     1      78.400  86.794  18.162  1.00  0.00    -0.306 N 
ATOM      7  H4  UNL     1      78.595  87.425  17.384  1.00  0.00     0.170 HD
HETATM    8  C5  UNL     1      78.188  85.476  18.038  1.00  0.00     0.273 A 
HETATM    9  O1  UNL     1      78.176  84.738  17.030  1.00  0.00    -0.266 OA
ENDROOT
BRANCH   5  10
HETATM   10  C4  UNL     1      78.466  88.363  19.979  1.00  0.00     0.155 C 
BRANCH  10  11
HETATM   11  N2  UNL     1      77.481  88.883  20.853  1.00  0.00    -0.315 N 
ATOM     12  H2  UNL     1      77.299  88.447  21.756  1.00  0.00     0.185 HD
BRANCH  11  13
HETATM   13  N3  UNL     1      76.776  89.996  20.446  1.00  0.00    -0.345 N 
ATOM     14  H32 UNL     1      77.089  90.927  20.721  1.00  0.00     0.176 HD
ATOM     15  H31 UNL     1      75.944  89.854  19.872  1.00  0.00     0.176 HD
ENDBRANCH  11  13
ENDBRANCH  10  11
ENDBRANCH   5  10
TORSDOF 3
ENDMDL
MODEL 5
REMARK VINA RESULT: -5.223300912      1.514      2.106
REMARK  3 active torsions:
REMARK  status: ('A' for Active; 'I' for Inactive)
REMARK    1  A    between atoms: C3_5  and  C4_6 
REMARK    2  A    between atoms: C4_6  and  N2_7 
REMARK    3  A    between atoms: N2_7  and  N3_9 
ROOT
HETATM    1  C1  UNL     1      79.976  87.535  17.392  1.00  0.00     0.049 C 
HETATM    2  C2  UNL     1      78.731  87.393  17.793  1.00  0.00     0.093 A 
HETATM    3  N1  UNL     1      78.066  88.327  18.490  1.00  0.00    -0.337 N 
ATOM      4  H1  UNL     1      78.449  89.228  18.776  1.00  0.00     0.167 HD
HETATM    5  C3  UNL     1      76.824  87.901  18.755  1.00  0.00     0.125 A 
HETATM    6  N4  UNL     1      76.731  86.669  18.204  1.00  0.00    -0.306 N 
ATOM      7  H4  UNL     1      75.898  86.080  18.238  1.00  0.00     0.170 HD
HETATM    8  C5  UNL     1      77.881  86.326  17.606  1.00  0.00     0.273 A 
HETATM    9  O1  UNL     1      78.207  85.290  16.989  1.00  0.00    -0.266 OA
ENDROOT
BRANCH   5  10
HETATM   10  C4  UNL     1      75.924  88.579  19.417  1.00  0.00     0.155 C 
BRANCH  10  11
HETATM   11  N2  UNL     1      76.276  89.789  20.060  1.00  0.00    -0.315 N 
ATOM     12  H2  UNL     1      75.999  90.690  19.671  1.00  0.00     0.185 HD
BRANCH  11  13
HETATM   13  N3  UNL     1      77.004  89.715  21.229  1.00  0.00    -0.345 N 
ATOM     14  H32 UNL     1      77.185  90.559  21.772  1.00  0.00     0.176 HD
ATOM     15  H31 UNL     1      77.349  88.801  21.523  1.00  0.00     0.176 HD
ENDBRANCH  11  13
ENDBRANCH  10  11
ENDBRANCH   5  10
TORSDOF 3
ENDMDL
