MODEL 1
REMARK VINA RESULT: -6.010197268      0.000      0.000
REMARK  3 active torsions:
REMARK  status: ('A' for Active; 'I' for Inactive)
REMARK    1  A    between atoms: C3_6  and  C4_7 
REMARK    2  A    between atoms: C4_7  and  C5_8 
REMARK    3  A    between atoms: C5_8  and  N2_9 
ROOT
HETATM    1  N1  UNL     1     -27.358 -16.250 -37.134  1.00  0.00    -0.395 N 
ATOM      2  H11 UNL     1     -27.738 -16.719 -36.312  1.00  0.00     0.156 HD
ATOM      3  H12 UNL     1     -27.966 -15.834 -37.840  1.00  0.00     0.156 HD
HETATM    4  C1  UNL     1     -26.101 -16.161 -37.318  1.00  0.00     0.094 A 
HETATM    5  C2  UNL     1     -25.563 -15.497 -38.482  1.00  0.00     0.060 A 
HETATM    6  C3  UNL     1     -26.272 -14.933 -39.443  1.00  0.00     0.007 C 
HETATM    7  N3  UNL     1     -24.121 -15.471 -38.562  1.00  0.00    -0.329 N 
ATOM      8  H3  UNL     1     -23.676 -15.017 -39.360  1.00  0.00     0.168 HD
HETATM    9  C6  UNL     1     -23.372 -16.013 -37.641  1.00  0.00     0.194 A 
HETATM   10  N4  UNL     1     -21.961 -15.960 -37.767  1.00  0.00    -0.063 NA
HETATM   11  N5  UNL     1     -23.964 -16.657 -36.511  1.00  0.00    -0.317 N 
ATOM     12  H5  UNL     1     -23.333 -17.065 -35.821  1.00  0.00     0.169 HD
HETATM   13  C7  UNL     1     -25.219 -16.765 -36.294  1.00  0.00     0.147 A 
HETATM   14  N6  UNL     1     -25.769 -17.412 -35.160  1.00  0.00    -0.080 NA
ENDROOT
BRANCH   6  15
HETATM   15  C4  UNL     1     -25.642 -14.266 -40.611  1.00  0.00     0.056 C 
BRANCH  15  16
HETATM   16  C5  UNL     1     -26.473 -13.111 -41.121  1.00  0.00     0.233 C 
BRANCH  16  17
HETATM   17  N2  UNL     1     -25.848 -11.840 -40.957  1.00  0.00    -0.079 N 
ATOM     18  H23 UNL     1     -25.546 -11.710 -39.992  1.00  0.00     0.274 HD
ATOM     19  H22 UNL     1     -24.941 -11.822 -41.423  1.00  0.00     0.274 HD
ATOM     20  H21 UNL     1     -26.426 -11.057 -41.263  1.00  0.00     0.274 HD
ENDBRANCH  16  17
ENDBRANCH  15  16
ENDBRANCH   6  15
TORSDOF 3
ENDMDL
MODEL 2
REMARK VINA RESULT: -5.678629108      2.033      2.710
REMARK  3 active torsions:
REMARK  status: ('A' for Active; 'I' for Inactive)
REMARK    1  A    between atoms: C3_6  and  C4_7 
REMARK    2  A    between atoms: C4_7  and  C5_8 
REMARK    3  A    between atoms: C5_8  and  N2_9 
ROOT
HETATM    1  N1  UNL     1     -25.597 -14.625 -37.616  1.00  0.00    -0.395 N 
ATOM      2  H11 UNL     1     -25.469 -15.061 -36.703  1.00  0.00     0.156 HD
ATOM      3  H12 UNL     1     -26.017 -13.700 -37.712  1.00  0.00     0.156 HD
HETATM    4  C1  UNL     1     -25.235 -15.218 -38.684  1.00  0.00     0.094 A 
HETATM    5  C2  UNL     1     -25.415 -14.600 -39.977  1.00  0.00     0.060 A 
HETATM    6  C3  UNL     1     -25.948 -13.412 -40.195  1.00  0.00     0.007 C 
HETATM    7  N3  UNL     1     -24.959 -15.385 -41.101  1.00  0.00    -0.329 N 
ATOM      8  H3  UNL     1     -25.058 -15.007 -42.043  1.00  0.00     0.168 HD
HETATM    9  C6  UNL     1     -24.426 -16.566 -40.943  1.00  0.00     0.194 A 
HETATM   10  N4  UNL     1     -23.995 -17.295 -42.079  1.00  0.00    -0.063 NA
HETATM   11  N5  UNL     1     -24.274 -17.124 -39.636  1.00  0.00    -0.317 N 
ATOM     12  H5  UNL     1     -23.851 -18.050 -39.568  1.00  0.00     0.169 HD
HETATM   13  C7  UNL     1     -24.625 -16.559 -38.544  1.00  0.00     0.147 A 
HETATM   14  N6  UNL     1     -24.458 -17.146 -37.265  1.00  0.00    -0.080 NA
ENDROOT
BRANCH   6  15
HETATM   15  C4  UNL     1     -26.099 -12.844 -41.559  1.00  0.00     0.056 C 
BRANCH  15  16
HETATM   16  C5  UNL     1     -27.487 -12.297 -41.796  1.00  0.00     0.233 C 
BRANCH  16  17
HETATM   17  N2  UNL     1     -27.816 -12.146 -43.175  1.00  0.00    -0.079 N 
ATOM     18  H23 UNL     1     -26.971 -12.121 -43.745  1.00  0.00     0.274 HD
ATOM     19  H22 UNL     1     -28.242 -12.997 -43.539  1.00  0.00     0.274 HD
ATOM     20  H21 UNL     1     -28.406 -11.337 -43.369  1.00  0.00     0.274 HD
ENDBRANCH  16  17
ENDBRANCH  15  16
ENDBRANCH   6  15
TORSDOF 3
ENDMDL
MODEL 3
REMARK VINA RESULT: -5.546754457      2.502      6.370
REMARK  3 active torsions:
REMARK  status: ('A' for Active; 'I' for Inactive)
REMARK    1  A    between atoms: C3_6  and  C4_7 
REMARK    2  A    between atoms: C4_7  and  C5_8 
REMARK    3  A    between atoms: C5_8  and  N2_9 
ROOT
HETATM    1  N1  UNL     1     -27.891 -12.569 -42.186  1.00  0.00    -0.395 N 
ATOM      2  H11 UNL     1     -28.550 -12.041 -42.759  1.00  0.00     0.156 HD
ATOM      3  H12 UNL     1     -28.187 -13.049 -41.337  1.00  0.00     0.156 HD
HETATM    4  C1  UNL     1     -26.661 -12.653 -42.507  1.00  0.00     0.094 A 
HETATM    5  C2  UNL     1     -25.728 -13.400 -41.696  1.00  0.00     0.060 A 
HETATM    6  C3  UNL     1     -26.023 -14.049 -40.585  1.00  0.00     0.007 C 
HETATM    7  N3  UNL     1     -24.366 -13.410 -42.179  1.00  0.00    -0.329 N 
ATOM      8  H3  UNL     1     -23.657 -13.919 -41.653  1.00  0.00     0.168 HD
HETATM    9  C6  UNL     1     -24.020 -12.784 -43.271  1.00  0.00     0.194 A 
HETATM   10  N4  UNL     1     -22.671 -12.826 -43.702  1.00  0.00    -0.063 NA
HETATM   11  N5  UNL     1     -24.991 -12.061 -44.032  1.00  0.00    -0.317 N 
ATOM     12  H5  UNL     1     -24.667 -11.590 -44.877  1.00  0.00     0.169 HD
HETATM   13  C7  UNL     1     -26.231 -11.956 -43.740  1.00  0.00     0.147 A 
HETATM   14  N6  UNL     1     -27.164 -11.229 -44.521  1.00  0.00    -0.080 NA
ENDROOT
BRANCH   6  15
HETATM   15  C4  UNL     1     -25.003 -14.796 -39.805  1.00  0.00     0.056 C 
BRANCH  15  16
HETATM   16  C5  UNL     1     -25.302 -14.786 -38.324  1.00  0.00     0.233 C 
BRANCH  16  17
HETATM   17  N2  UNL     1     -24.267 -15.357 -37.527  1.00  0.00    -0.079 N 
ATOM     18  H23 UNL     1     -23.365 -14.942 -37.758  1.00  0.00     0.274 HD
ATOM     19  H22 UNL     1     -24.350 -15.053 -36.557  1.00  0.00     0.274 HD
ATOM     20  H21 UNL     1     -24.220 -16.374 -37.582  1.00  0.00     0.274 HD
ENDBRANCH  16  17
ENDBRANCH  15  16
ENDBRANCH   6  15
TORSDOF 3
ENDMDL
MODEL 4
REMARK VINA RESULT: -5.346598852      2.320      5.883
REMARK  3 active torsions:
REMARK  status: ('A' for Active; 'I' for Inactive)
REMARK    1  A    between atoms: C3_6  and  C4_7 
REMARK    2  A    between atoms: C4_7  and  C5_8 
REMARK    3  A    between atoms: C5_8  and  N2_9 
ROOT
HETATM    1  N1  UNL     1     -25.876 -11.875 -40.675  1.00  0.00    -0.395 N 
ATOM      2  H11 UNL     1     -26.013 -10.970 -41.125  1.00  0.00     0.156 HD
ATOM      3  H12 UNL     1     -25.811 -11.962 -39.661  1.00  0.00     0.156 HD
HETATM    4  C1  UNL     1     -25.782 -12.944 -41.362  1.00  0.00     0.094 A 
HETATM    5  C2  UNL     1     -25.589 -14.226 -40.724  1.00  0.00     0.060 A 
HETATM    6  C3  UNL     1     -25.493 -14.431 -39.423  1.00  0.00     0.007 C 
HETATM    7  N3  UNL     1     -25.499 -15.352 -41.625  1.00  0.00    -0.329 N 
ATOM      8  H3  UNL     1     -25.363 -16.286 -41.239  1.00  0.00     0.168 HD
HETATM    9  C6  UNL     1     -25.587 -15.205 -42.919  1.00  0.00     0.194 A 
HETATM   10  N4  UNL     1     -25.492 -16.343 -43.759  1.00  0.00    -0.063 NA
HETATM   11  N5  UNL     1     -25.778 -13.909 -43.491  1.00  0.00    -0.317 N 
ATOM     12  H5  UNL     1     -25.840 -13.851 -44.507  1.00  0.00     0.169 HD
HETATM   13  C7  UNL     1     -25.877 -12.818 -42.834  1.00  0.00     0.147 A 
HETATM   14  N6  UNL     1     -26.066 -11.550 -43.438  1.00  0.00    -0.080 NA
ENDROOT
BRANCH   6  15
HETATM   15  C4  UNL     1     -25.295 -15.784 -38.843  1.00  0.00     0.056 C 
BRANCH  15  16
HETATM   16  C5  UNL     1     -26.103 -15.983 -37.581  1.00  0.00     0.233 C 
BRANCH  16  17
HETATM   17  N2  UNL     1     -25.311 -16.309 -36.441  1.00  0.00    -0.079 N 
ATOM     18  H23 UNL     1     -24.331 -16.085 -36.608  1.00  0.00     0.274 HD
ATOM     19  H22 UNL     1     -25.504 -15.665 -35.673  1.00  0.00     0.274 HD
ATOM     20  H21 UNL     1     -25.414 -17.276 -36.134  1.00  0.00     0.274 HD
ENDBRANCH  16  17
ENDBRANCH  15  16
ENDBRANCH   6  15
TORSDOF 3
ENDMDL
MODEL 5
REMARK VINA RESULT: -5.296883929      2.015      3.142
REMARK  3 active torsions:
REMARK  status: ('A' for Active; 'I' for Inactive)
REMARK    1  A    between atoms: C3_6  and  C4_7 
REMARK    2  A    between atoms: C4_7  and  C5_8 
REMARK    3  A    between atoms: C5_8  and  N2_9 
ROOT
HETATM    1  N1  UNL     1     -24.161 -16.908 -41.475  1.00  0.00    -0.395 N 
ATOM      2  H11 UNL     1     -23.682 -17.809 -41.496  1.00  0.00     0.156 HD
ATOM      3  H12 UNL     1     -24.235 -16.324 -42.308  1.00  0.00     0.156 HD
HETATM    4  C1  UNL     1     -24.691 -16.470 -40.403  1.00  0.00     0.094 A 
HETATM    5  C2  UNL     1     -25.370 -15.195 -40.374  1.00  0.00     0.060 A 
HETATM    6  C3  UNL     1     -25.512 -14.376 -41.400  1.00  0.00     0.007 C 
HETATM    7  N3  UNL     1     -25.924 -14.824 -39.093  1.00  0.00    -0.329 N 
ATOM      8  H3  UNL     1     -26.415 -13.935 -39.003  1.00  0.00     0.168 HD
HETATM    9  C6  UNL     1     -25.812 -15.596 -38.046  1.00  0.00     0.194 A 
HETATM   10  N4  UNL     1     -26.374 -15.185 -36.812  1.00  0.00    -0.063 NA
HETATM   11  N5  UNL     1     -25.128 -16.848 -38.138  1.00  0.00    -0.317 N 
ATOM     12  H5  UNL     1     -25.069 -17.412 -37.291  1.00  0.00     0.169 HD
HETATM   13  C7  UNL     1     -24.584 -17.318 -39.195  1.00  0.00     0.147 A 
HETATM   14  N6  UNL     1     -23.914 -18.566 -39.247  1.00  0.00    -0.080 NA
ENDROOT
BRANCH   6  15
HETATM   15  C4  UNL     1     -26.226 -13.078 -41.289  1.00  0.00     0.056 C 
BRANCH  15  16
HETATM   16  C5  UNL     1     -26.571 -12.503 -42.644  1.00  0.00     0.233 C 
BRANCH  16  17
HETATM   17  N2  UNL     1     -27.960 -12.223 -42.809  1.00  0.00    -0.079 N 
ATOM     18  H23 UNL     1     -28.149 -11.888 -43.753  1.00  0.00     0.274 HD
ATOM     19  H22 UNL     1     -28.503 -13.086 -42.823  1.00  0.00     0.274 HD
ATOM     20  H21 UNL     1     -28.332 -11.575 -42.115  1.00  0.00     0.274 HD
ENDBRANCH  16  17
ENDBRANCH  15  16
ENDBRANCH   6  15
TORSDOF 3
ENDMDL
