MODEL 1
REMARK VINA RESULT: -7.979731929      0.000      0.000
REMARK  11 active torsions:
REMARK  status: ('A' for Active; 'I' for Inactive)
REMARK    1  A    between atoms: C2_3  and  N2_4 
REMARK    2  A    between atoms: C2_3  and  C10_28 
REMARK    3  A    between atoms: N2_4  and  N3_6 
REMARK    4  A    between atoms: N4_8  and  C3_10 
REMARK    5  A    between atoms: C4_13  and  N6_14 
REMARK    6  A    between atoms: C5_19  and  N8_20 
REMARK    7  A    between atoms: C10_28  and  C11_30 
REMARK    8  A    between atoms: C12_33  and  O3_34 
REMARK    9  A    between atoms: C13_36  and  O4_37 
REMARK   10  A    between atoms: C14_41  and  N12_42 
REMARK   11  A    between atoms: N12_42  and  N13_44 
ROOT
HETATM    1  N1  UNL     1       9.757 -15.746   7.156  1.00  0.00    -0.195 NA
HETATM    2  C1  UNL     1      10.348 -15.542   6.178  1.00  0.00     0.094 C 
HETATM    3  C2  UNL     1      11.097 -15.303   4.945  1.00  0.00     0.283 C 
ENDROOT
BRANCH   3   4
HETATM    4  N2  UNL     1      10.331 -14.516   4.027  1.00  0.00    -0.295 N 
ATOM      5  H2  UNL     1      10.459 -13.505   4.035  1.00  0.00     0.183 HD
BRANCH   4   6
HETATM    6  N3  UNL     1       9.429 -15.056   3.130  1.00  0.00    -0.231 N 
HETATM    7  N4  UNL     1       8.205 -14.788   3.133  1.00  0.00    -0.117 N 
ATOM      8  H4  UNL     1       7.616 -15.237   2.432  1.00  0.00     0.207 HD
ATOM      9  H3  UNL     1       9.779 -15.708   2.428  1.00  0.00     0.208 HD
BRANCH   7  10
HETATM   10  C3  UNL     1       7.584 -13.898   4.053  1.00  0.00     0.727 A 
HETATM   11  N5  UNL     1       7.857 -13.954   5.378  1.00  0.00    -0.020 N 
HETATM   12  C4  UNL     1       7.299 -13.141   6.276  1.00  0.00     0.705 A 
ATOM     13  H5  UNL     1       8.523 -14.653   5.706  1.00  0.00     0.203 HD
HETATM   14  N7  UNL     1       6.418 -12.217   5.822  1.00  0.00    -0.022 N 
HETATM   15  C5  UNL     1       6.105 -12.113   4.510  1.00  0.00     0.709 A 
ATOM     16  H7  UNL     1       5.978 -11.582   6.488  1.00  0.00     0.203 HD
HETATM   17  N9  UNL     1       6.700 -12.960   3.664  1.00  0.00    -0.020 N 
ATOM     18  H9  UNL     1       6.473 -12.891   2.672  1.00  0.00     0.203 HD
BRANCH  12  19
HETATM   19  N6  UNL     1       7.556 -13.188   7.545  1.00  0.00    -0.234 N 
ATOM     20  H62 UNL     1       7.523 -14.089   8.021  1.00  0.00     0.174 HD
ATOM     21  H61 UNL     1       7.789 -12.368   8.106  1.00  0.00     0.174 HD
ENDBRANCH  12  19
BRANCH  15  22
HETATM   22  N8  UNL     1       5.171 -11.118   4.117  1.00  0.00    -0.213 N 
HETATM   23  C6  UNL     1       4.787 -10.120   5.069  1.00  0.00     0.167 C 
HETATM   24  C7  UNL     1       3.980  -9.003   4.493  1.00  0.00     0.188 C 
HETATM   25  O1  UNL     1       3.262  -9.343   3.367  1.00  0.00    -0.388 OA
HETATM   26  C8  UNL     1       4.092  -9.824   2.366  1.00  0.00     0.188 C 
HETATM   27  C9  UNL     1       4.653 -11.164   2.773  1.00  0.00     0.167 C 
ENDBRANCH  15  22
ENDBRANCH   7  10
ENDBRANCH   4   6
ENDBRANCH   3   4
BRANCH   3  28
HETATM   28  C10 UNL     1      11.503 -16.592   4.339  1.00  0.00     0.217 C 
HETATM   29  O2  UNL     1      12.215 -16.572   3.310  1.00  0.00    -0.287 OA
BRANCH  28  30
HETATM   30  C11 UNL     1      11.112 -17.875   4.884  1.00  0.00     0.130 A 
HETATM   31  N10 UNL     1      11.485 -18.276   6.125  1.00  0.00    -0.327 N 
HETATM   32  C12 UNL     1      11.103 -19.471   6.594  1.00  0.00     0.193 A 
ATOM     33  H10 UNL     1      12.059 -17.665   6.705  1.00  0.00     0.168 HD
HETATM   34  C13 UNL     1      10.330 -20.354   5.873  1.00  0.00     0.194 A 
HETATM   35  N11 UNL     1       9.967 -19.947   4.643  1.00  0.00    -0.317 N 
HETATM   36  C14 UNL     1      10.338 -18.751   4.152  1.00  0.00     0.152 A 
ATOM     37  H11 UNL     1       9.393 -20.562   4.067  1.00  0.00     0.169 HD
BRANCH  32  38
HETATM   38  O3  UNL     1      11.487 -19.885   7.877  1.00  0.00    -0.343 OA
ATOM     39  H3  UNL     1      11.352 -20.784   8.152  1.00  0.00     0.219 HD
ENDBRANCH  32  38
BRANCH  34  40
HETATM   40  O4  UNL     1       9.949 -21.588   6.383  1.00  0.00    -0.343 OA
ATOM     41  H4  UNL     1      10.045 -22.391   5.885  1.00  0.00     0.219 HD
ENDBRANCH  34  40
BRANCH  36  42
HETATM   42  N12 UNL     1       9.951 -18.411   2.944  1.00  0.00    -0.290 N 
ATOM     43  H12 UNL     1       9.249 -17.681   2.830  1.00  0.00     0.188 HD
BRANCH  42  44
HETATM   44  N13 UNL     1      10.479 -19.025   1.822  1.00  0.00    -0.344 N 
ATOM     45 2H13 UNL     1      11.360 -19.530   1.915  1.00  0.00     0.176 HD
ATOM     46 1H13 UNL     1      10.004 -18.978   0.920  1.00  0.00     0.176 HD
ENDBRANCH  42  44
ENDBRANCH  36  42
ENDBRANCH  28  30
ENDBRANCH   3  28
TORSDOF 11
ENDMDL
MODEL 2
REMARK VINA RESULT: -7.957266334      1.735      2.936
REMARK  11 active torsions:
REMARK  status: ('A' for Active; 'I' for Inactive)
REMARK    1  A    between atoms: C2_3  and  N2_4 
REMARK    2  A    between atoms: C2_3  and  C10_28 
REMARK    3  A    between atoms: N2_4  and  N3_6 
REMARK    4  A    between atoms: N4_8  and  C3_10 
REMARK    5  A    between atoms: C4_13  and  N6_14 
REMARK    6  A    between atoms: C5_19  and  N8_20 
REMARK    7  A    between atoms: C10_28  and  C11_30 
REMARK    8  A    between atoms: C12_33  and  O3_34 
REMARK    9  A    between atoms: C13_36  and  O4_37 
REMARK   10  A    between atoms: C14_41  and  N12_42 
REMARK   11  A    between atoms: N12_42  and  N13_44 
ROOT
HETATM    1  N1  UNL     1       7.332 -14.348   2.913  1.00  0.00    -0.195 NA
HETATM    2  C1  UNL     1       7.818 -14.638   3.927  1.00  0.00     0.094 C 
HETATM    3  C2  UNL     1       8.446 -15.009   5.195  1.00  0.00     0.283 C 
ENDROOT
BRANCH   3   4
HETATM    4  N2  UNL     1       8.419 -13.915   6.117  1.00  0.00    -0.295 N 
ATOM      5  H2  UNL     1       8.531 -12.971   5.749  1.00  0.00     0.183 HD
BRANCH   4   6
HETATM    6  N3  UNL     1       8.249 -14.072   7.479  1.00  0.00    -0.231 N 
HETATM    7  N4  UNL     1       7.694 -13.221   8.211  1.00  0.00    -0.117 N 
ATOM      8  H4  UNL     1       7.615 -13.425   9.207  1.00  0.00     0.207 HD
ATOM      9  H3  UNL     1       8.596 -14.929   7.912  1.00  0.00     0.208 HD
BRANCH   7  10
HETATM   10  C3  UNL     1       7.165 -11.987   7.741  1.00  0.00     0.727 A 
HETATM   11  N5  UNL     1       7.343 -10.837   8.433  1.00  0.00    -0.020 N 
HETATM   12  C4  UNL     1       6.865  -9.658   8.032  1.00  0.00     0.705 A 
ATOM     13  H5  UNL     1       7.869 -10.874   9.305  1.00  0.00     0.203 HD
HETATM   14  N7  UNL     1       6.170  -9.628   6.869  1.00  0.00    -0.022 N 
HETATM   15  C5  UNL     1       5.959 -10.743   6.133  1.00  0.00     0.709 A 
ATOM     16  H7  UNL     1       5.795  -8.738   6.539  1.00  0.00     0.203 HD
HETATM   17  N9  UNL     1       6.465 -11.891   6.594  1.00  0.00    -0.020 N 
ATOM     18  H9  UNL     1       6.313 -12.740   6.049  1.00  0.00     0.203 HD
BRANCH  12  19
HETATM   19  N6  UNL     1       7.032  -8.554   8.687  1.00  0.00    -0.234 N 
ATOM     20  H62 UNL     1       7.890  -8.022   8.545  1.00  0.00     0.174 HD
ATOM     21  H61 UNL     1       6.351  -8.179   9.348  1.00  0.00     0.174 HD
ENDBRANCH  12  19
BRANCH  15  22
HETATM   22  N8  UNL     1       5.218 -10.625   4.926  1.00  0.00    -0.213 N 
HETATM   23  C6  UNL     1       5.441 -11.585   3.887  1.00  0.00     0.167 C 
HETATM   24  C7  UNL     1       4.464 -11.505   2.762  1.00  0.00     0.188 C 
HETATM   25  O1  UNL     1       3.901 -10.259   2.584  1.00  0.00    -0.388 OA
HETATM   26  C8  UNL     1       3.258  -9.828   3.734  1.00  0.00     0.188 C 
HETATM   27  C9  UNL     1       4.277  -9.541   4.808  1.00  0.00     0.167 C 
ENDBRANCH  15  22
ENDBRANCH   7  10
ENDBRANCH   4   6
ENDBRANCH   3   4
BRANCH   3  28
HETATM   28  C10 UNL     1       9.830 -15.478   4.957  1.00  0.00     0.217 C 
HETATM   29  O2  UNL     1      10.587 -14.778   4.248  1.00  0.00    -0.287 OA
BRANCH  28  30
HETATM   30  C11 UNL     1      10.348 -16.712   5.509  1.00  0.00     0.130 A 
HETATM   31  N10 UNL     1      10.303 -16.985   6.838  1.00  0.00    -0.327 N 
HETATM   32  C12 UNL     1      10.792 -18.138   7.310  1.00  0.00     0.193 A 
ATOM     33  H10 UNL     1       9.894 -16.307   7.480  1.00  0.00     0.168 HD
HETATM   34  C13 UNL     1      11.362 -19.103   6.508  1.00  0.00     0.194 A 
HETATM   35  N11 UNL     1      11.402 -18.822   5.193  1.00  0.00    -0.317 N 
HETATM   36  C14 UNL     1      10.916 -17.671   4.695  1.00  0.00     0.152 A 
ATOM     37  H11 UNL     1      11.813 -19.503   4.554  1.00  0.00     0.169 HD
BRANCH  32  38
HETATM   38  O3  UNL     1      10.745 -18.419   8.682  1.00  0.00    -0.343 OA
ATOM     39  H3  UNL     1      11.149 -17.830   9.308  1.00  0.00     0.219 HD
ENDBRANCH  32  38
BRANCH  34  40
HETATM   40  O4  UNL     1      11.862 -20.289   7.024  1.00  0.00    -0.343 OA
ATOM     41  H4  UNL     1      12.795 -20.455   7.094  1.00  0.00     0.219 HD
ENDBRANCH  34  40
BRANCH  36  42
HETATM   42  N12 UNL     1      10.985 -17.456   3.402  1.00  0.00    -0.290 N 
ATOM     43  H12 UNL     1      11.672 -16.794   3.041  1.00  0.00     0.188 HD
BRANCH  42  44
HETATM   44  N13 UNL     1      10.144 -18.111   2.520  1.00  0.00    -0.344 N 
ATOM     45 2H13 UNL     1       9.159 -17.847   2.504  1.00  0.00     0.176 HD
ATOM     46 1H13 UNL     1      10.494 -18.840   1.897  1.00  0.00     0.176 HD
ENDBRANCH  42  44
ENDBRANCH  36  42
ENDBRANCH  28  30
ENDBRANCH   3  28
TORSDOF 11
ENDMDL
MODEL 3
REMARK VINA RESULT: -7.858142867      2.693      3.480
REMARK  11 active torsions:
REMARK  status: ('A' for Active; 'I' for Inactive)
REMARK    1  A    between atoms: C2_3  and  N2_4 
REMARK    2  A    between atoms: C2_3  and  C10_28 
REMARK    3  A    between atoms: N2_4  and  N3_6 
REMARK    4  A    between atoms: N4_8  and  C3_10 
REMARK    5  A    between atoms: C4_13  and  N6_14 
REMARK    6  A    between atoms: C5_19  and  N8_20 
REMARK    7  A    between atoms: C10_28  and  C11_30 
REMARK    8  A    between atoms: C12_33  and  O3_34 
REMARK    9  A    between atoms: C13_36  and  O4_37 
REMARK   10  A    between atoms: C14_41  and  N12_42 
REMARK   11  A    between atoms: N12_42  and  N13_44 
ROOT
HETATM    1  N1  UNL     1      10.849 -14.577   7.854  1.00  0.00    -0.195 NA
HETATM    2  C1  UNL     1      10.590 -14.493   6.726  1.00  0.00     0.094 C 
HETATM    3  C2  UNL     1      10.261 -14.407   5.303  1.00  0.00     0.283 C 
ENDROOT
BRANCH   3   4
HETATM    4  N2  UNL     1       9.171 -13.507   5.084  1.00  0.00    -0.295 N 
ATOM      5  H2  UNL     1       9.379 -12.514   4.983  1.00  0.00     0.183 HD
BRANCH   4   6
HETATM    6  N3  UNL     1       7.853 -13.913   5.002  1.00  0.00    -0.231 N 
HETATM    7  N4  UNL     1       6.993 -13.654   5.875  1.00  0.00    -0.117 N 
ATOM      8  H4  UNL     1       6.044 -13.997   5.728  1.00  0.00     0.207 HD
ATOM      9  H3  UNL     1       7.565 -14.453   4.186  1.00  0.00     0.208 HD
BRANCH   7  10
HETATM   10  C3  UNL     1       7.255 -12.911   7.060  1.00  0.00     0.727 A 
HETATM   11  N5  UNL     1       7.613 -13.528   8.211  1.00  0.00    -0.020 N 
HETATM   12  C4  UNL     1       7.867 -12.873   9.345  1.00  0.00     0.705 A 
ATOM     13  H5  UNL     1       7.691 -14.544   8.211  1.00  0.00     0.203 HD
HETATM   14  N7  UNL     1       7.760 -11.523   9.325  1.00  0.00    -0.022 N 
HETATM   15  C5  UNL     1       7.408 -10.850   8.206  1.00  0.00     0.709 A 
ATOM     16  H7  UNL     1       7.951 -10.998  10.179  1.00  0.00     0.203 HD
HETATM   17  N9  UNL     1       7.165 -11.568   7.105  1.00  0.00    -0.020 N 
ATOM     18  H9  UNL     1       6.899 -11.073   6.254  1.00  0.00     0.203 HD
BRANCH  12  19
HETATM   19  N6  UNL     1       8.210 -13.455  10.450  1.00  0.00    -0.234 N 
ATOM     20  H62 UNL     1       8.940 -13.033  11.023  1.00  0.00     0.174 HD
ATOM     21  H61 UNL     1       7.792 -14.323  10.786  1.00  0.00     0.174 HD
ENDBRANCH  12  19
BRANCH  15  22
HETATM   22  N8  UNL     1       7.317  -9.433   8.270  1.00  0.00    -0.213 N 
HETATM   23  C6  UNL     1       6.996  -8.711   7.076  1.00  0.00     0.167 C 
HETATM   24  C7  UNL     1       6.709  -7.263   7.297  1.00  0.00     0.188 C 
HETATM   25  O1  UNL     1       7.318  -6.725   8.410  1.00  0.00    -0.388 OA
HETATM   26  C8  UNL     1       6.957  -7.408   9.562  1.00  0.00     0.188 C 
HETATM   27  C9  UNL     1       7.554  -8.793   9.538  1.00  0.00     0.167 C 
ENDBRANCH  15  22
ENDBRANCH   7  10
ENDBRANCH   4   6
ENDBRANCH   3   4
BRANCH   3  28
HETATM   28  C10 UNL     1       9.961 -15.755   4.768  1.00  0.00     0.217 C 
HETATM   29  O2  UNL     1       9.265 -15.848   3.733  1.00  0.00    -0.287 OA
BRANCH  28  30
HETATM   30  C11 UNL     1      10.436 -16.973   5.391  1.00  0.00     0.130 A 
HETATM   31  N10 UNL     1      10.312 -17.198   6.724  1.00  0.00    -0.327 N 
HETATM   32  C12 UNL     1      10.765 -18.337   7.263  1.00  0.00     0.193 A 
ATOM     33  H10 UNL     1       9.872 -16.496   7.318  1.00  0.00     0.168 HD
HETATM   34  C13 UNL     1      11.372 -19.332   6.529  1.00  0.00     0.194 A 
HETATM   35  N11 UNL     1      11.490 -19.098   5.209  1.00  0.00    -0.317 N 
HETATM   36  C14 UNL     1      11.043 -17.962   4.646  1.00  0.00     0.152 A 
ATOM     37  H11 UNL     1      11.932 -19.803   4.619  1.00  0.00     0.169 HD
BRANCH  32  38
HETATM   38  O3  UNL     1      10.636 -18.570   8.639  1.00  0.00    -0.343 OA
ATOM     39  H3  UNL     1      10.262 -19.383   8.956  1.00  0.00     0.219 HD
ENDBRANCH  32  38
BRANCH  34  40
HETATM   40  O4  UNL     1      11.833 -20.503   7.114  1.00  0.00    -0.343 OA
ATOM     41  H4  UNL     1      11.244 -21.133   7.514  1.00  0.00     0.219 HD
ENDBRANCH  34  40
BRANCH  36  42
HETATM   42  N12 UNL     1      11.188 -17.793   3.352  1.00  0.00    -0.290 N 
ATOM     43  H12 UNL     1      11.918 -17.169   3.007  1.00  0.00     0.188 HD
BRANCH  42  44
HETATM   44  N13 UNL     1      10.370 -18.446   2.446  1.00  0.00    -0.344 N 
ATOM     45 2H13 UNL     1      10.622 -18.417   1.458  1.00  0.00     0.176 HD
ATOM     46 1H13 UNL     1       9.535 -18.946   2.752  1.00  0.00     0.176 HD
ENDBRANCH  42  44
ENDBRANCH  36  42
ENDBRANCH  28  30
ENDBRANCH   3  28
TORSDOF 11
ENDMDL
MODEL 4
REMARK VINA RESULT: -7.795427964      4.249      8.729
REMARK  11 active torsions:
REMARK  status: ('A' for Active; 'I' for Inactive)
REMARK    1  A    between atoms: C2_3  and  N2_4 
REMARK    2  A    between atoms: C2_3  and  C10_28 
REMARK    3  A    between atoms: N2_4  and  N3_6 
REMARK    4  A    between atoms: N4_8  and  C3_10 
REMARK    5  A    between atoms: C4_13  and  N6_14 
REMARK    6  A    between atoms: C5_19  and  N8_20 
REMARK    7  A    between atoms: C10_28  and  C11_30 
REMARK    8  A    between atoms: C12_33  and  O3_34 
REMARK    9  A    between atoms: C13_36  and  O4_37 
REMARK   10  A    between atoms: C14_41  and  N12_42 
REMARK   11  A    between atoms: N12_42  and  N13_44 
ROOT
HETATM    1  N1  UNL     1       7.245  -8.725  10.507  1.00  0.00    -0.195 NA
HETATM    2  C1  UNL     1       7.154  -9.544   9.690  1.00  0.00     0.094 C 
HETATM    3  C2  UNL     1       7.042 -10.563   8.647  1.00  0.00     0.283 C 
ENDROOT
BRANCH   3   4
HETATM    4  N2  UNL     1       7.974 -11.625   8.868  1.00  0.00    -0.295 N 
ATOM      5  H2  UNL     1       8.958 -11.454   8.661  1.00  0.00     0.183 HD
BRANCH   4   6
HETATM    6  N3  UNL     1       7.612 -12.870   9.346  1.00  0.00    -0.231 N 
HETATM    7  N4  UNL     1       7.696 -13.923   8.672  1.00  0.00    -0.117 N 
ATOM      8  H4  UNL     1       7.403 -14.796   9.111  1.00  0.00     0.207 HD
ATOM      9  H3  UNL     1       7.256 -12.934  10.300  1.00  0.00     0.208 HD
BRANCH   7  10
HETATM   10  C3  UNL     1       8.174 -13.978   7.334  1.00  0.00     0.727 A 
HETATM   11  N5  UNL     1       9.454 -14.322   7.059  1.00  0.00    -0.020 N 
HETATM   12  C4  UNL     1       9.947 -14.387   5.821  1.00  0.00     0.705 A 
ATOM     13  H5  UNL     1      10.074 -14.543   7.838  1.00  0.00     0.203 HD
HETATM   14  N7  UNL     1       9.109 -14.091   4.798  1.00  0.00    -0.022 N 
HETATM   15  C5  UNL     1       7.820 -13.741   5.009  1.00  0.00     0.709 A 
ATOM     16  H7  UNL     1       9.460 -14.134   3.841  1.00  0.00     0.203 HD
HETATM   17  N9  UNL     1       7.392 -13.695   6.275  1.00  0.00    -0.020 N 
ATOM     18  H9  UNL     1       6.421 -13.432   6.448  1.00  0.00     0.203 HD
BRANCH  12  19
HETATM   19  N6  UNL     1      11.170 -14.716   5.549  1.00  0.00    -0.234 N 
ATOM     20  H62 UNL     1      11.343 -15.564   5.012  1.00  0.00     0.174 HD
ATOM     21  H61 UNL     1      11.981 -14.173   5.846  1.00  0.00     0.174 HD
ENDBRANCH  12  19
BRANCH  15  22
HETATM   22  N8  UNL     1       7.007 -13.445   3.882  1.00  0.00    -0.213 N 
HETATM   23  C6  UNL     1       7.050 -14.325   2.753  1.00  0.00     0.167 C 
HETATM   24  C7  UNL     1       6.005 -14.051   1.724  1.00  0.00     0.188 C 
HETATM   25  O1  UNL     1       5.563 -12.746   1.695  1.00  0.00    -0.388 OA
HETATM   26  C8  UNL     1       5.056 -12.358   2.926  1.00  0.00     0.188 C 
HETATM   27  C9  UNL     1       6.177 -12.269   3.931  1.00  0.00     0.167 C 
ENDBRANCH  15  22
ENDBRANCH   7  10
ENDBRANCH   4   6
ENDBRANCH   3   4
BRANCH   3  28
HETATM   28  C10 UNL     1       7.233  -9.948   7.313  1.00  0.00     0.217 C 
HETATM   29  O2  UNL     1       7.973 -10.527   6.487  1.00  0.00    -0.287 OA
BRANCH  28  30
HETATM   30  C11 UNL     1       6.602  -8.705   6.923  1.00  0.00     0.130 A 
HETATM   31  N10 UNL     1       7.160  -7.497   7.189  1.00  0.00    -0.327 N 
HETATM   32  C12 UNL     1       6.547  -6.369   6.812  1.00  0.00     0.193 A 
ATOM     33  H10 UNL     1       8.053  -7.449   7.681  1.00  0.00     0.168 HD
HETATM   34  C13 UNL     1       5.340  -6.350   6.147  1.00  0.00     0.194 A 
HETATM   35  N11 UNL     1       4.795  -7.553   5.888  1.00  0.00    -0.317 N 
HETATM   36  C14 UNL     1       5.394  -8.700   6.257  1.00  0.00     0.152 A 
ATOM     37  H11 UNL     1       3.903  -7.597   5.397  1.00  0.00     0.169 HD
BRANCH  32  38
HETATM   38  O3  UNL     1       7.123  -5.121   7.087  1.00  0.00    -0.343 OA
ATOM     39  H3  UNL     1       6.866  -4.353   6.592  1.00  0.00     0.219 HD
ENDBRANCH  32  38
BRANCH  34  40
HETATM   40  O4  UNL     1       4.725  -5.166   5.768  1.00  0.00    -0.343 OA
ATOM     41  H4  UNL     1       4.002  -5.148   5.152  1.00  0.00     0.219 HD
ENDBRANCH  34  40
BRANCH  36  42
HETATM   42  N12 UNL     1       4.811  -9.842   5.976  1.00  0.00    -0.290 N 
ATOM     43  H12 UNL     1       5.220 -10.711   6.319  1.00  0.00     0.188 HD
BRANCH  42  44
HETATM   44  N13 UNL     1       3.652  -9.889   5.221  1.00  0.00    -0.344 N 
ATOM     45 2H13 UNL     1       3.707 -10.254   4.270  1.00  0.00     0.176 HD
ATOM     46 1H13 UNL     1       2.760  -9.569   5.600  1.00  0.00     0.176 HD
ENDBRANCH  42  44
ENDBRANCH  36  42
ENDBRANCH  28  30
ENDBRANCH   3  28
TORSDOF 11
ENDMDL
MODEL 5
REMARK VINA RESULT: -7.792230712      2.267      3.151
REMARK  11 active torsions:
REMARK  status: ('A' for Active; 'I' for Inactive)
REMARK    1  A    between atoms: C2_3  and  N2_4 
REMARK    2  A    between atoms: C2_3  and  C10_28 
REMARK    3  A    between atoms: N2_4  and  N3_6 
REMARK    4  A    between atoms: N4_8  and  C3_10 
REMARK    5  A    between atoms: C4_13  and  N6_14 
REMARK    6  A    between atoms: C5_19  and  N8_20 
REMARK    7  A    between atoms: C10_28  and  C11_30 
REMARK    8  A    between atoms: C12_33  and  O3_34 
REMARK    9  A    between atoms: C13_36  and  O4_37 
REMARK   10  A    between atoms: C14_41  and  N12_42 
REMARK   11  A    between atoms: N12_42  and  N13_44 
ROOT
HETATM    1  N1  UNL     1      11.084 -14.534   7.751  1.00  0.00    -0.195 NA
HETATM    2  C1  UNL     1      10.850 -14.791   6.644  1.00  0.00     0.094 C 
HETATM    3  C2  UNL     1      10.569 -15.131   5.249  1.00  0.00     0.283 C 
ENDROOT
BRANCH   3   4
HETATM    4  N2  UNL     1       9.169 -15.346   5.048  1.00  0.00    -0.295 N 
ATOM      5  H2  UNL     1       8.775 -15.135   4.132  1.00  0.00     0.183 HD
BRANCH   4   6
HETATM    6  N3  UNL     1       8.324 -15.825   6.031  1.00  0.00    -0.231 N 
HETATM    7  N4  UNL     1       7.408 -15.145   6.549  1.00  0.00    -0.117 N 
ATOM      8  H4  UNL     1       6.835 -15.585   7.269  1.00  0.00     0.207 HD
ATOM      9  H3  UNL     1       8.453 -16.785   6.351  1.00  0.00     0.208 HD
BRANCH   7  10
HETATM   10  C3  UNL     1       7.117 -13.798   6.198  1.00  0.00     0.727 A 
HETATM   11  N5  UNL     1       6.627 -13.481   4.976  1.00  0.00    -0.020 N 
HETATM   12  C4  UNL     1       6.340 -12.233   4.602  1.00  0.00     0.705 A 
ATOM     13  H5  UNL     1       6.468 -14.235   4.308  1.00  0.00     0.203 HD
HETATM   14  N7  UNL     1       6.555 -11.245   5.504  1.00  0.00    -0.022 N 
HETATM   15  C5  UNL     1       7.043 -11.499   6.739  1.00  0.00     0.709 A 
ATOM     16  H7  UNL     1       6.342 -10.282   5.243  1.00  0.00     0.203 HD
HETATM   17  N9  UNL     1       7.310 -12.772   7.048  1.00  0.00    -0.020 N 
ATOM     18  H9  UNL     1       7.678 -12.977   7.977  1.00  0.00     0.203 HD
BRANCH  12  19
HETATM   19  N6  UNL     1       5.870 -11.922   3.436  1.00  0.00    -0.234 N 
ATOM     20  H62 UNL     1       6.418 -11.310   2.832  1.00  0.00     0.174 HD
ATOM     21  H61 UNL     1       4.973 -12.253   3.080  1.00  0.00     0.174 HD
ENDBRANCH  12  19
BRANCH  15  22
HETATM   22  N8  UNL     1       7.241 -10.405   7.625  1.00  0.00    -0.213 N 
HETATM   23  C6  UNL     1       7.136  -9.074   7.107  1.00  0.00     0.167 C 
HETATM   24  C7  UNL     1       7.141  -8.009   8.154  1.00  0.00     0.188 C 
HETATM   25  O1  UNL     1       7.789  -8.359   9.318  1.00  0.00    -0.388 OA
HETATM   26  C8  UNL     1       7.238  -9.501   9.880  1.00  0.00     0.188 C 
HETATM   27  C9  UNL     1       7.539 -10.692   9.004  1.00  0.00     0.167 C 
ENDBRANCH  15  22
ENDBRANCH   7  10
ENDBRANCH   4   6
ENDBRANCH   3   4
BRANCH   3  28
HETATM   28  C10 UNL     1      11.359 -16.316   4.845  1.00  0.00     0.217 C 
HETATM   29  O2  UNL     1      12.362 -16.148   4.116  1.00  0.00    -0.287 OA
BRANCH  28  30
HETATM   30  C11 UNL     1      11.022 -17.663   5.255  1.00  0.00     0.130 A 
HETATM   31  N10 UNL     1      11.291 -18.128   6.501  1.00  0.00    -0.327 N 
HETATM   32  C12 UNL     1      10.964 -19.381   6.843  1.00  0.00     0.193 A 
ATOM     33  H10 UNL     1      11.746 -17.520   7.181  1.00  0.00     0.168 HD
HETATM   34  C13 UNL     1      10.350 -20.263   5.981  1.00  0.00     0.194 A 
HETATM   35  N11 UNL     1      10.088 -19.793   4.748  1.00  0.00    -0.317 N 
HETATM   36  C14 UNL     1      10.407 -18.538   4.383  1.00  0.00     0.152 A 
ATOM     37  H11 UNL     1       9.634 -20.405   4.071  1.00  0.00     0.169 HD
BRANCH  32  38
HETATM   38  O3  UNL     1      11.242 -19.861   8.130  1.00  0.00    -0.343 OA
ATOM     39  H3  UNL     1      10.664 -20.491   8.543  1.00  0.00     0.219 HD
ENDBRANCH  32  38
BRANCH  34  40
HETATM   40  O4  UNL     1      10.023 -21.557   6.361  1.00  0.00    -0.343 OA
ATOM     41  H4  UNL     1       9.708 -21.763   7.233  1.00  0.00     0.219 HD
ENDBRANCH  34  40
BRANCH  36  42
HETATM   42  N12 UNL     1      10.125 -18.138   3.165  1.00  0.00    -0.290 N 
ATOM     43  H12 UNL     1       9.755 -17.199   3.019  1.00  0.00     0.188 HD
BRANCH  42  44
HETATM   44  N13 UNL     1      10.322 -18.967   2.073  1.00  0.00    -0.344 N 
ATOM     45 2H13 UNL     1      10.226 -19.973   2.206  1.00  0.00     0.176 HD
ATOM     46 1H13 UNL     1      10.557 -18.587   1.156  1.00  0.00     0.176 HD
ENDBRANCH  42  44
ENDBRANCH  36  42
ENDBRANCH  28  30
ENDBRANCH   3  28
TORSDOF 11
ENDMDL
