MODEL 1
REMARK VINA RESULT: -7.194669416      0.000      0.000
REMARK  3 active torsions:
REMARK  status: ('A' for Active; 'I' for Inactive)
REMARK    1  A    between atoms: O1_1  and  C1_3 
REMARK    2  A    between atoms: C1_3  and  C2_4 
REMARK    3  A    between atoms: C2_4  and  N1_5 
ROOT
HETATM    1  C1  UNL     1      53.087  40.269  64.397  1.00  0.00     0.090 C 
HETATM    2  C7  UNL     1      52.312  41.540  64.056  1.00  0.00     0.072 C 
HETATM    3  C8  UNL     1      51.242  41.795  65.091  1.00  0.00     0.124 C 
HETATM    4  C9  UNL     1      51.932  42.319  66.324  1.00  0.00     0.032 C 
HETATM    5  C10 UNL     1      53.058  41.399  66.661  1.00  0.00     0.010 C 
HETATM    6  C11 UNL     1      53.084  40.116  65.889  1.00  0.00     0.024 C 
HETATM    7  C12 UNL     1      51.967  39.192  66.272  1.00  0.00     0.034 C 
HETATM    8  C13 UNL     1      50.693  39.966  66.395  1.00  0.00     0.168 C 
HETATM    9  O2  UNL     1      50.412  40.740  65.304  1.00  0.00    -0.386 OA
ENDROOT
BRANCH   1  10
HETATM   10  O1  UNL     1      52.403  39.238  63.756  1.00  0.00    -0.388 OA
ATOM     11  H1  UNL     1      51.588  39.585  63.412  1.00  0.00     0.210 HD
ENDBRANCH   1  10
BRANCH   1  12
HETATM   12  C2  UNL     1      54.487  40.340  63.834  1.00  0.00     0.310 C 
BRANCH  12  13
HETATM   13  N1  UNL     1      55.252  39.146  63.972  1.00  0.00     0.094 N 
HETATM   14  C3  UNL     1      55.661  38.499  62.785  1.00  0.00     0.300 C 
HETATM   15  C4  UNL     1      57.156  38.153  62.842  1.00  0.00     0.262 C 
HETATM   16  N2  UNL     1      57.825  39.456  62.968  1.00  0.00    -0.072 N 
HETATM   17  C5  UNL     1      57.540  39.936  64.306  1.00  0.00     0.262 C 
ATOM     18  H22 UNL     1      58.822  39.421  62.755  1.00  0.00     0.277 HD
ATOM     19  H21 UNL     1      57.563  40.117  62.237  1.00  0.00     0.277 HD
HETATM   20  C6  UNL     1      56.312  39.339  64.923  1.00  0.00     0.300 C 
ENDBRANCH  12  13
ENDBRANCH   1  12
TORSDOF 3
ENDMDL
MODEL 2
REMARK VINA RESULT: -6.616971598      1.367      2.140
REMARK  3 active torsions:
REMARK  status: ('A' for Active; 'I' for Inactive)
REMARK    1  A    between atoms: O1_1  and  C1_3 
REMARK    2  A    between atoms: C1_3  and  C2_4 
REMARK    3  A    between atoms: C2_4  and  N1_5 
ROOT
HETATM    1  C1  UNL     1      53.720  40.920  65.827  1.00  0.00     0.090 C 
HETATM    2  C7  UNL     1      53.040  39.572  65.598  1.00  0.00     0.072 C 
HETATM    3  C8  UNL     1      51.557  39.763  65.389  1.00  0.00     0.124 C 
HETATM    4  C9  UNL     1      51.370  40.307  63.996  1.00  0.00     0.032 C 
HETATM    5  C10 UNL     1      52.280  41.477  63.822  1.00  0.00     0.010 C 
HETATM    6  C11 UNL     1      52.944  41.960  65.075  1.00  0.00     0.024 C 
HETATM    7  C12 UNL     1      51.980  42.612  66.021  1.00  0.00     0.034 C 
HETATM    8  C13 UNL     1      50.727  41.799  66.102  1.00  0.00     0.168 C 
HETATM    9  O2  UNL     1      50.944  40.477  66.370  1.00  0.00    -0.386 OA
ENDROOT
BRANCH   1  10
HETATM   10  O1  UNL     1      53.683  41.121  67.205  1.00  0.00    -0.388 OA
ATOM     11  H1  UNL     1      52.780  41.258  67.466  1.00  0.00     0.210 HD
ENDBRANCH   1  10
BRANCH   1  12
HETATM   12  C2  UNL     1      55.165  40.860  65.388  1.00  0.00     0.310 C 
BRANCH  12  13
HETATM   13  N1  UNL     1      55.574  39.610  64.839  1.00  0.00     0.094 N 
HETATM   14  C3  UNL     1      55.554  39.484  63.433  1.00  0.00     0.300 C 
HETATM   15  C4  UNL     1      56.875  38.888  62.921  1.00  0.00     0.262 C 
HETATM   16  N2  UNL     1      57.894  39.865  63.330  1.00  0.00    -0.072 N 
HETATM   17  C5  UNL     1      58.012  39.757  64.771  1.00  0.00     0.262 C 
ATOM     18  H22 UNL     1      58.783  39.751  62.842  1.00  0.00     0.277 HD
ATOM     19  H21 UNL     1      57.697  40.814  63.011  1.00  0.00     0.277 HD
HETATM   20  C6  UNL     1      56.805  39.178  65.443  1.00  0.00     0.300 C 
ENDBRANCH  12  13
ENDBRANCH   1  12
TORSDOF 3
ENDMDL
MODEL 3
REMARK VINA RESULT: -6.494905695      1.208      1.897
REMARK  3 active torsions:
REMARK  status: ('A' for Active; 'I' for Inactive)
REMARK    1  A    between atoms: O1_1  and  C1_3 
REMARK    2  A    between atoms: C1_3  and  C2_4 
REMARK    3  A    between atoms: C2_4  and  N1_5 
ROOT
HETATM    1  C1  UNL     1      52.899  39.691  65.551  1.00  0.00     0.090 C 
HETATM    2  C7  UNL     1      51.900  39.762  64.399  1.00  0.00     0.072 C 
HETATM    3  C8  UNL     1      50.954  40.922  64.597  1.00  0.00     0.124 C 
HETATM    4  C9  UNL     1      51.716  42.179  64.265  1.00  0.00     0.032 C 
HETATM    5  C10 UNL     1      53.004  42.162  65.017  1.00  0.00     0.010 C 
HETATM    6  C11 UNL     1      53.123  41.086  66.053  1.00  0.00     0.024 C 
HETATM    7  C12 UNL     1      52.223  41.320  67.229  1.00  0.00     0.034 C 
HETATM    8  C13 UNL     1      50.874  41.755  66.752  1.00  0.00     0.168 C 
HETATM    9  O2  UNL     1      50.332  40.932  65.806  1.00  0.00    -0.386 OA
ENDROOT
BRANCH   1  10
HETATM   10  O1  UNL     1      52.301  38.871  66.506  1.00  0.00    -0.388 OA
ATOM     11  H1  UNL     1      51.411  38.687  66.231  1.00  0.00     0.210 HD
ENDBRANCH   1  10
BRANCH   1  12
HETATM   12  C2  UNL     1      54.183  39.037  65.093  1.00  0.00     0.310 C 
BRANCH  12  13
HETATM   13  N1  UNL     1      55.162  39.935  64.577  1.00  0.00     0.094 N 
HETATM   14  C3  UNL     1      56.452  39.882  65.150  1.00  0.00     0.300 C 
HETATM   15  C4  UNL     1      57.530  39.822  64.056  1.00  0.00     0.262 C 
HETATM   16  N2  UNL     1      57.243  38.575  63.333  1.00  0.00    -0.072 N 
HETATM   17  C5  UNL     1      56.020  38.805  62.588  1.00  0.00     0.262 C 
ATOM     18  H22 UNL     1      58.018  38.257  62.751  1.00  0.00     0.277 HD
ATOM     19  H21 UNL     1      57.199  37.757  63.941  1.00  0.00     0.277 HD
HETATM   20  C6  UNL     1      55.163  39.902  63.141  1.00  0.00     0.300 C 
ENDBRANCH  12  13
ENDBRANCH   1  12
TORSDOF 3
ENDMDL
MODEL 4
REMARK VINA RESULT: -6.000714158      2.542      5.402
REMARK  3 active torsions:
REMARK  status: ('A' for Active; 'I' for Inactive)
REMARK    1  A    between atoms: O1_1  and  C1_3 
REMARK    2  A    between atoms: C1_3  and  C2_4 
REMARK    3  A    between atoms: C2_4  and  N1_5 
ROOT
HETATM    1  C1  UNL     1      54.374  40.369  64.956  1.00  0.00     0.090 C 
HETATM    2  C7  UNL     1      53.632  40.474  63.625  1.00  0.00     0.072 C 
HETATM    3  C8  UNL     1      54.207  39.497  62.627  1.00  0.00     0.124 C 
HETATM    4  C9  UNL     1      53.713  38.126  63.011  1.00  0.00     0.032 C 
HETATM    5  C10 UNL     1      53.984  37.918  64.464  1.00  0.00     0.010 C 
HETATM    6  C11 UNL     1      54.853  38.956  65.105  1.00  0.00     0.024 C 
HETATM    7  C12 UNL     1      56.275  38.883  64.636  1.00  0.00     0.034 C 
HETATM    8  C13 UNL     1      56.309  38.690  63.154  1.00  0.00     0.168 C 
HETATM    9  O2  UNL     1      55.553  39.596  62.464  1.00  0.00    -0.386 OA
ENDROOT
BRANCH   1  10
HETATM   10  O1  UNL     1      55.424  41.280  64.864  1.00  0.00    -0.388 OA
ATOM     11  H1  UNL     1      55.372  41.717  64.022  1.00  0.00     0.210 HD
ENDBRANCH   1  10
BRANCH   1  12
HETATM   12  C2  UNL     1      53.471  40.788  66.093  1.00  0.00     0.310 C 
BRANCH  12  13
HETATM   13  N1  UNL     1      52.095  40.465  65.918  1.00  0.00     0.094 N 
HETATM   14  C3  UNL     1      51.477  39.697  66.930  1.00  0.00     0.300 C 
HETATM   15  C4  UNL     1      50.139  40.325  67.348  1.00  0.00     0.262 C 
HETATM   16  N2  UNL     1      50.508  41.649  67.869  1.00  0.00    -0.072 N 
HETATM   17  C5  UNL     1      50.909  42.443  66.724  1.00  0.00     0.262 C 
ATOM     18  H22 UNL     1      49.773  42.084  68.426  1.00  0.00     0.277 HD
ATOM     19  H21 UNL     1      51.216  41.612  68.603  1.00  0.00     0.277 HD
HETATM   20  C6  UNL     1      51.351  41.636  65.542  1.00  0.00     0.300 C 
ENDBRANCH  12  13
ENDBRANCH   1  12
TORSDOF 3
ENDMDL
MODEL 5
REMARK VINA RESULT: -5.942049499      1.400      2.369
REMARK  3 active torsions:
REMARK  status: ('A' for Active; 'I' for Inactive)
REMARK    1  A    between atoms: O1_1  and  C1_3 
REMARK    2  A    between atoms: C1_3  and  C2_4 
REMARK    3  A    between atoms: C2_4  and  N1_5 
ROOT
HETATM    1  C1  UNL     1      53.314  40.872  65.378  1.00  0.00     0.090 C 
HETATM    2  C7  UNL     1      53.066  41.159  66.857  1.00  0.00     0.072 C 
HETATM    3  C8  UNL     1      51.615  41.509  67.086  1.00  0.00     0.124 C 
HETATM    4  C9  UNL     1      50.830  40.225  67.009  1.00  0.00     0.032 C 
HETATM    5  C10 UNL     1      51.212  39.514  65.754  1.00  0.00     0.010 C 
HETATM    6  C11 UNL     1      52.049  40.310  64.800  1.00  0.00     0.024 C 
HETATM    7  C12 UNL     1      51.282  41.427  64.158  1.00  0.00     0.034 C 
HETATM    8  C13 UNL     1      50.450  42.124  65.186  1.00  0.00     0.168 C 
HETATM    9  O2  UNL     1      51.153  42.511  66.293  1.00  0.00    -0.386 OA
ENDROOT
BRANCH   1  10
HETATM   10  O1  UNL     1      53.656  42.100  64.817  1.00  0.00    -0.388 OA
ATOM     11  H1  UNL     1      52.869  42.504  64.472  1.00  0.00     0.210 HD
ENDBRANCH   1  10
BRANCH   1  12
HETATM   12  C2  UNL     1      54.483  39.927  65.216  1.00  0.00     0.310 C 
BRANCH  12  13
HETATM   13  N1  UNL     1      55.279  40.151  64.056  1.00  0.00     0.094 N 
HETATM   14  C3  UNL     1      56.649  39.815  64.138  1.00  0.00     0.300 C 
HETATM   15  C4  UNL     1      57.078  38.980  62.921  1.00  0.00     0.262 C 
HETATM   16  N2  UNL     1      56.251  37.767  63.007  1.00  0.00    -0.072 N 
HETATM   17  C5  UNL     1      54.898  38.169  62.678  1.00  0.00     0.262 C 
ATOM     18  H22 UNL     1      56.597  37.001  62.429  1.00  0.00     0.277 HD
ATOM     19  H21 UNL     1      56.325  37.290  63.905  1.00  0.00     0.277 HD
HETATM   20  C6  UNL     1      54.622  39.626  62.890  1.00  0.00     0.300 C 
ENDBRANCH  12  13
ENDBRANCH   1  12
TORSDOF 3
ENDMDL
