MODEL 1
REMARK VINA RESULT: -8.163564271      0.000      0.000
REMARK  1 active torsions:
REMARK  status: ('A' for Active; 'I' for Inactive)
REMARK    1  A    between atoms: C5_5  and  O1_6 
ROOT
HETATM    1  C1  UNL     1      39.739 -23.621  -0.204  1.00  0.00     0.049 C 
HETATM    2  C2  UNL     1      38.830 -22.500   0.175  1.00  0.00     0.085 C 
HETATM    3  C3  UNL     1      37.700 -23.015   1.058  1.00  0.00     0.043 C 
HETATM    4  C4  UNL     1      37.049 -21.820   1.673  1.00  0.00     0.044 C 
HETATM    5  C5  UNL     1      37.300 -20.577   0.815  1.00  0.00     0.089 C 
HETATM    6  C6  UNL     1      38.813 -20.350   0.989  1.00  0.00     0.207 C 
HETATM    7  O2  UNL     1      39.488 -21.584   1.044  1.00  0.00    -0.375 OA
HETATM    8  C7  UNL     1      37.116 -20.954  -0.630  1.00  0.00     0.019 C 
HETATM    9  C8  UNL     1      35.894 -21.812  -0.857  1.00  0.00     0.021 C 
HETATM   10  C9  UNL     1      36.863 -19.712  -1.523  1.00  0.00     0.016 C 
HETATM   11  C10 UNL     1      37.121 -20.018  -2.918  1.00  0.00     0.024 C 
HETATM   12  C11 UNL     1      37.693 -20.781  -4.007  1.00  0.00     0.081 C 
HETATM   13  C12 UNL     1      36.695 -20.944  -5.145  1.00  0.00     0.192 C 
HETATM   14  O3  UNL     1      37.001 -19.917  -6.029  1.00  0.00    -0.359 OA
HETATM   15  C13 UNL     1      38.354 -20.190  -6.219  1.00  0.00     0.278 C 
HETATM   16  O4  UNL     1      39.023 -19.292  -7.041  1.00  0.00    -0.289 OA
HETATM   17  C14 UNL     1      40.365 -19.336  -7.365  1.00  0.00     0.261 C 
HETATM   18  O5  UNL     1      40.698 -18.670  -8.371  1.00  0.00    -0.265 OA
HETATM   19  C15 UNL     1      41.459 -20.057  -6.689  1.00  0.00     0.111 C 
HETATM   20  C16 UNL     1      40.877 -21.138  -5.828  1.00  0.00     0.011 C 
HETATM   21  C17 UNL     1      40.164 -20.648  -4.612  1.00  0.00     0.016 C 
HETATM   22  C18 UNL     1      38.826 -20.088  -4.780  1.00  0.00     0.025 C 
HETATM   23  C19 UNL     1      38.787 -18.651  -4.302  1.00  0.00     0.022 C 
HETATM   24  C20 UNL     1      38.137 -22.144  -3.527  1.00  0.00     0.271 C 
HETATM   25  O6  UNL     1      38.409 -23.008  -4.356  1.00  0.00    -0.264 OA
HETATM   26  O7  UNL     1      38.259 -22.496  -2.194  1.00  0.00    -0.311 OA
HETATM   27  C21 UNL     1      38.353 -21.704  -1.018  1.00  0.00     0.177 C 
ENDROOT
BRANCH   5  28
HETATM   28  O1  UNL     1      36.584 -19.488   1.222  1.00  0.00    -0.387 OA
ATOM     29  H1  UNL     1      36.545 -19.397   2.166  1.00  0.00     0.210 HD
ENDBRANCH   5  28
TORSDOF 1
ENDMDL
MODEL 2
REMARK VINA RESULT: -8.131724004      1.613      1.821
REMARK  1 active torsions:
REMARK  status: ('A' for Active; 'I' for Inactive)
REMARK    1  A    between atoms: C5_5  and  O1_6 
ROOT
HETATM    1  C1  UNL     1      42.319 -22.069   0.581  1.00  0.00     0.049 C 
HETATM    2  C2  UNL     1      40.970 -21.488   0.840  1.00  0.00     0.085 C 
HETATM    3  C3  UNL     1      40.229 -22.320   1.881  1.00  0.00     0.043 C 
HETATM    4  C4  UNL     1      39.065 -21.506   2.339  1.00  0.00     0.044 C 
HETATM    5  C5  UNL     1      38.680 -20.479   1.271  1.00  0.00     0.089 C 
HETATM    6  C6  UNL     1      39.880 -19.514   1.287  1.00  0.00     0.207 C 
HETATM    7  O2  UNL     1      41.076 -20.227   1.492  1.00  0.00    -0.375 OA
HETATM    8  C7  UNL     1      38.727 -21.154  -0.073  1.00  0.00     0.019 C 
HETATM    9  C8  UNL     1      38.093 -22.524  -0.059  1.00  0.00     0.021 C 
HETATM   10  C9  UNL     1      37.905 -20.379  -1.136  1.00  0.00     0.016 C 
HETATM   11  C10 UNL     1      38.300 -20.767  -2.478  1.00  0.00     0.024 C 
HETATM   12  C11 UNL     1      39.190 -21.337  -3.467  1.00  0.00     0.081 C 
HETATM   13  C12 UNL     1      38.419 -22.170  -4.481  1.00  0.00     0.192 C 
HETATM   14  O3  UNL     1      38.189 -21.306  -5.544  1.00  0.00    -0.359 OA
HETATM   15  C13 UNL     1      39.503 -20.911  -5.791  1.00  0.00     0.278 C 
HETATM   16  O4  UNL     1      39.651 -19.968  -6.799  1.00  0.00    -0.289 OA
HETATM   17  C14 UNL     1      40.844 -19.408  -7.215  1.00  0.00     0.261 C 
HETATM   18  O5  UNL     1      40.818 -18.861  -8.340  1.00  0.00    -0.265 OA
HETATM   19  C15 UNL     1      42.142 -19.366  -6.517  1.00  0.00     0.111 C 
HETATM   20  C16 UNL     1      42.159 -20.417  -5.447  1.00  0.00     0.011 C 
HETATM   21  C17 UNL     1      41.280 -20.126  -4.276  1.00  0.00     0.016 C 
HETATM   22  C18 UNL     1      39.843 -20.333  -4.430  1.00  0.00     0.025 C 
HETATM   23  C19 UNL     1      39.091 -19.039  -4.193  1.00  0.00     0.022 C 
HETATM   24  C20 UNL     1      40.243 -22.196  -2.805  1.00  0.00     0.271 C 
HETATM   25  O6  UNL     1      40.918 -22.951  -3.499  1.00  0.00    -0.264 OA
HETATM   26  O7  UNL     1      40.505 -22.194  -1.446  1.00  0.00    -0.311 OA
HETATM   27  C21 UNL     1      40.178 -21.260  -0.427  1.00  0.00     0.177 C 
ENDROOT
BRANCH   5  28
HETATM   28  O1  UNL     1      37.514 -19.826   1.547  1.00  0.00    -0.387 OA
ATOM     29  H1  UNL     1      37.182 -19.325   0.812  1.00  0.00     0.210 HD
ENDBRANCH   5  28
TORSDOF 1
ENDMDL
MODEL 3
REMARK VINA RESULT: -7.991960035      2.002      6.595
REMARK  1 active torsions:
REMARK  status: ('A' for Active; 'I' for Inactive)
REMARK    1  A    between atoms: C5_5  and  O1_6 
ROOT
HETATM    1  C1  UNL     1      41.223 -20.657  -6.336  1.00  0.00     0.049 C 
HETATM    2  C2  UNL     1      39.769 -20.505  -6.037  1.00  0.00     0.085 C 
HETATM    3  C3  UNL     1      39.223 -19.249  -6.706  1.00  0.00     0.043 C 
HETATM    4  C4  UNL     1      37.734 -19.346  -6.662  1.00  0.00     0.044 C 
HETATM    5  C5  UNL     1      37.294 -20.269  -5.523  1.00  0.00     0.089 C 
HETATM    6  C6  UNL     1      37.776 -21.650  -6.007  1.00  0.00     0.207 C 
HETATM    7  O2  UNL     1      39.011 -21.529  -6.671  1.00  0.00    -0.375 OA
HETATM    8  C7  UNL     1      38.128 -19.957  -4.311  1.00  0.00     0.019 C 
HETATM    9  C8  UNL     1      38.287 -18.473  -4.080  1.00  0.00     0.021 C 
HETATM   10  C9  UNL     1      37.460 -20.462  -3.005  1.00  0.00     0.016 C 
HETATM   11  C10 UNL     1      38.431 -20.555  -1.931  1.00  0.00     0.024 C 
HETATM   12  C11 UNL     1      39.766 -20.648  -1.377  1.00  0.00     0.081 C 
HETATM   13  C12 UNL     1      39.909 -19.764  -0.146  1.00  0.00     0.192 C 
HETATM   14  O3  UNL     1      39.670 -20.616   0.926  1.00  0.00    -0.359 OA
HETATM   15  C13 UNL     1      40.614 -21.600   0.637  1.00  0.00     0.278 C 
HETATM   16  O4  UNL     1      40.620 -22.679   1.509  1.00  0.00    -0.289 OA
HETATM   17  C14 UNL     1      41.444 -23.785   1.423  1.00  0.00     0.261 C 
HETATM   18  O5  UNL     1      41.545 -24.464   2.470  1.00  0.00    -0.265 OA
HETATM   19  C15 UNL     1      42.219 -24.276   0.269  1.00  0.00     0.111 C 
HETATM   20  C16 UNL     1      42.377 -23.165  -0.726  1.00  0.00     0.011 C 
HETATM   21  C17 UNL     1      41.125 -22.801  -1.453  1.00  0.00     0.016 C 
HETATM   22  C18 UNL     1      40.130 -22.000  -0.745  1.00  0.00     0.025 C 
HETATM   23  C19 UNL     1      38.813 -22.744  -0.658  1.00  0.00     0.022 C 
HETATM   24  C20 UNL     1      40.799 -20.249  -2.406  1.00  0.00     0.271 C 
HETATM   25  O6  UNL     1      41.949 -20.027  -2.039  1.00  0.00    -0.264 OA
HETATM   26  O7  UNL     1      40.536 -20.112  -3.758  1.00  0.00    -0.311 OA
HETATM   27  C21 UNL     1      39.463 -20.587  -4.560  1.00  0.00     0.177 C 
ENDROOT
BRANCH   5  28
HETATM   28  O1  UNL     1      35.945 -20.260  -5.313  1.00  0.00    -0.387 OA
ATOM     29  H1  UNL     1      35.544 -21.114  -5.420  1.00  0.00     0.210 HD
ENDBRANCH   5  28
TORSDOF 1
ENDMDL
MODEL 4
REMARK VINA RESULT: -7.843381583      3.354      5.960
REMARK  1 active torsions:
REMARK  status: ('A' for Active; 'I' for Inactive)
REMARK    1  A    between atoms: C5_5  and  O1_6 
ROOT
HETATM    1  C1  UNL     1      37.227 -22.581  -2.702  1.00  0.00     0.049 C 
HETATM    2  C2  UNL     1      37.446 -21.464  -3.666  1.00  0.00     0.085 C 
HETATM    3  C3  UNL     1      36.733 -21.757  -4.981  1.00  0.00     0.043 C 
HETATM    4  C4  UNL     1      36.699 -20.478  -5.751  1.00  0.00     0.044 C 
HETATM    5  C5  UNL     1      37.824 -19.549  -5.290  1.00  0.00     0.089 C 
HETATM    6  C6  UNL     1      37.385 -19.175  -3.861  1.00  0.00     0.207 C 
HETATM    7  O2  UNL     1      36.786 -20.281  -3.231  1.00  0.00    -0.375 OA
HETATM    8  C7  UNL     1      39.075 -20.367  -5.121  1.00  0.00     0.019 C 
HETATM    9  C8  UNL     1      39.295 -21.336  -6.259  1.00  0.00     0.021 C 
HETATM   10  C9  UNL     1      40.350 -19.483  -5.140  1.00  0.00     0.016 C 
HETATM   11  C10 UNL     1      41.475 -20.188  -4.554  1.00  0.00     0.024 C 
HETATM   12  C11 UNL     1      42.101 -21.210  -3.741  1.00  0.00     0.081 C 
HETATM   13  C12 UNL     1      43.327 -21.786  -4.436  1.00  0.00     0.192 C 
HETATM   14  O3  UNL     1      44.395 -21.066  -3.916  1.00  0.00    -0.359 OA
HETATM   15  C13 UNL     1      44.169 -21.290  -2.559  1.00  0.00     0.278 C 
HETATM   16  O4  UNL     1      45.054 -20.647  -1.704  1.00  0.00    -0.289 OA
HETATM   17  C14 UNL     1      45.026 -20.696  -0.324  1.00  0.00     0.261 C 
HETATM   18  O5  UNL     1      46.085 -20.354   0.248  1.00  0.00    -0.265 OA
HETATM   19  C15 UNL     1      43.921 -21.094   0.567  1.00  0.00     0.111 C 
HETATM   20  C16 UNL     1      42.922 -21.893  -0.215  1.00  0.00     0.011 C 
HETATM   21  C17 UNL     1      42.125 -21.101  -1.197  1.00  0.00     0.016 C 
HETATM   22  C18 UNL     1      42.769 -20.714  -2.450  1.00  0.00     0.025 C 
HETATM   23  C19 UNL     1      42.795 -19.206  -2.591  1.00  0.00     0.022 C 
HETATM   24  C20 UNL     1      41.123 -22.323  -3.439  1.00  0.00     0.271 C 
HETATM   25  O6  UNL     1      41.548 -23.380  -2.982  1.00  0.00    -0.264 OA
HETATM   26  O7  UNL     1      39.758 -22.235  -3.646  1.00  0.00    -0.311 OA
HETATM   27  C21 UNL     1      38.906 -21.113  -3.834  1.00  0.00     0.177 C 
ENDROOT
BRANCH   5  28
HETATM   28  O1  UNL     1      37.962 -18.440  -6.073  1.00  0.00    -0.387 OA
ATOM     29  H1  UNL     1      37.528 -17.673  -5.717  1.00  0.00     0.210 HD
ENDBRANCH   5  28
TORSDOF 1
ENDMDL
MODEL 5
REMARK VINA RESULT: -7.830971797      1.626      1.877
REMARK  1 active torsions:
REMARK  status: ('A' for Active; 'I' for Inactive)
REMARK    1  A    between atoms: C5_5  and  O1_6 
ROOT
HETATM    1  C1  UNL     1      40.451 -23.182   1.628  1.00  0.00     0.049 C 
HETATM    2  C2  UNL     1      39.333 -22.201   1.499  1.00  0.00     0.085 C 
HETATM    3  C3  UNL     1      38.089 -22.726   2.205  1.00  0.00     0.043 C 
HETATM    4  C4  UNL     1      37.146 -21.576   2.338  1.00  0.00     0.044 C 
HETATM    5  C5  UNL     1      37.446 -20.517   1.274  1.00  0.00     0.089 C 
HETATM    6  C6  UNL     1      38.817 -19.973   1.721  1.00  0.00     0.207 C 
HETATM    7  O2  UNL     1      39.611 -21.015   2.234  1.00  0.00    -0.375 OA
HETATM    8  C7  UNL     1      37.702 -21.217  -0.033  1.00  0.00     0.019 C 
HETATM    9  C8  UNL     1      36.709 -22.321  -0.306  1.00  0.00     0.021 C 
HETATM   10  C9  UNL     1      37.531 -20.262  -1.243  1.00  0.00     0.016 C 
HETATM   11  C10 UNL     1      38.186 -20.798  -2.421  1.00  0.00     0.024 C 
HETATM   12  C11 UNL     1      39.121 -21.650  -3.126  1.00  0.00     0.081 C 
HETATM   13  C12 UNL     1      38.489 -22.236  -4.380  1.00  0.00     0.192 C 
HETATM   14  O3  UNL     1      38.878 -21.379  -5.402  1.00  0.00    -0.359 OA
HETATM   15  C13 UNL     1      40.258 -21.421  -5.209  1.00  0.00     0.278 C 
HETATM   16  O4  UNL     1      40.993 -20.605  -6.058  1.00  0.00    -0.289 OA
HETATM   17  C14 UNL     1      42.367 -20.458  -6.049  1.00  0.00     0.261 C 
HETATM   18  O5  UNL     1      42.862 -19.967  -7.089  1.00  0.00    -0.265 OA
HETATM   19  C15 UNL     1      43.330 -20.797  -4.986  1.00  0.00     0.111 C 
HETATM   20  C16 UNL     1      42.691 -21.765  -4.035  1.00  0.00     0.011 C 
HETATM   21  C17 UNL     1      41.624 -21.176  -3.173  1.00  0.00     0.016 C 
HETATM   22  C18 UNL     1      40.315 -20.931  -3.773  1.00  0.00     0.025 C 
HETATM   23  C19 UNL     1      39.961 -19.460  -3.693  1.00  0.00     0.022 C 
HETATM   24  C20 UNL     1      39.600 -22.771  -2.232  1.00  0.00     0.271 C 
HETATM   25  O6  UNL     1      40.193 -23.721  -2.734  1.00  0.00    -0.264 OA
HETATM   26  O7  UNL     1      39.412 -22.805  -0.861  1.00  0.00    -0.311 OA
HETATM   27  C21 UNL     1      39.086 -21.781   0.069  1.00  0.00     0.177 C 
ENDROOT
BRANCH   5  28
HETATM   28  O1  UNL     1      36.511 -19.524   1.222  1.00  0.00    -0.387 OA
ATOM     29  H1  UNL     1      35.996 -19.454   2.018  1.00  0.00     0.210 HD
ENDBRANCH   5  28
TORSDOF 1
ENDMDL
