MODEL 1
REMARK VINA RESULT: -7.091959040      0.000      0.000
REMARK  4 active torsions:
REMARK  status: ('A' for Active; 'I' for Inactive)
REMARK    1  A    between atoms: C2_2  and  C3_3 
REMARK    2  A    between atoms: C2_2  and  C19_24 
REMARK    3  A    between atoms: C3_3  and  N1_4 
REMARK    4  A    between atoms: C19_24  and  C21_26 
ROOT
HETATM    1  N1  UNL     1       5.104  45.864  18.264  1.00  0.00     0.112 N 
HETATM    2  C4  UNL     1       5.104  47.170  18.849  1.00  0.00     0.280 C 
HETATM    3  C5  UNL     1       6.332  47.283  19.731  1.00  0.00     0.104 C 
HETATM    4  C6  UNL     1       6.132  46.372  20.899  1.00  0.00     0.222 C 
HETATM    5  C7  UNL     1       7.456  45.836  21.438  1.00  0.00     0.243 C 
HETATM    6  O1  UNL     1       7.080  45.027  22.532  1.00  0.00    -0.347 OA
HETATM    7  C8  UNL     1       6.552  45.916  23.482  1.00  0.00     0.202 C 
HETATM    8  C9  UNL     1       7.561  45.971  24.608  1.00  0.00     0.076 C 
HETATM    9  C10 UNL     1       7.262  44.992  25.715  1.00  0.00    -0.009 C 
HETATM   10  C11 UNL     1       6.368  45.566  26.769  1.00  0.00     0.009 C 
HETATM   11  C12 UNL     1       4.930  45.675  26.359  1.00  0.00    -0.013 C 
HETATM   12  C13 UNL     1       4.437  44.304  25.914  1.00  0.00     0.010 C 
HETATM   13  C14 UNL     1       5.268  44.105  24.653  1.00  0.00    -0.004 C 
HETATM   14  C15 UNL     1       6.669  43.727  25.148  1.00  0.00     0.010 C 
HETATM   15  C16 UNL     1       5.235  45.459  24.027  1.00  0.00     0.055 C 
HETATM   16  C17 UNL     1       4.796  46.454  25.074  1.00  0.00     0.015 C 
HETATM   17  O2  UNL     1       6.369  47.199  22.970  1.00  0.00    -0.197 OA
HETATM   18  O3  UNL     1       5.568  47.100  21.933  1.00  0.00    -0.195 OA
HETATM   19  O4  UNL     1       5.331  45.314  20.512  1.00  0.00    -0.321 OA
HETATM   20  C18 UNL     1       5.647  44.918  19.218  1.00  0.00     0.443 C 
ENDROOT
BRANCH   1  21
HETATM   21  C3  UNL     1       3.927  45.449  17.619  1.00  0.00     0.280 C 
BRANCH  21  22
HETATM   22  C2  UNL     1       3.243  46.545  16.855  1.00  0.00     0.024 C 
HETATM   23  C1  UNL     1       2.271  47.162  17.890  1.00  0.00     0.012 C 
BRANCH  22  24
HETATM   24  C19 UNL     1       2.434  46.014  15.712  1.00  0.00     0.088 C 
HETATM   25  C20 UNL     1       3.053  44.845  15.013  1.00  0.00     0.021 C 
BRANCH  24  26
HETATM   26  C21 UNL     1       2.089  47.101  14.747  1.00  0.00     0.177 C 
HETATM   27  O5  UNL     1       2.506  48.287  14.960  1.00  0.00    -0.648 OA
HETATM   28  O6  UNL     1       1.322  46.785  13.645  1.00  0.00    -0.648 OA
ENDBRANCH  24  26
ENDBRANCH  22  24
ENDBRANCH  21  22
ENDBRANCH   1  21
TORSDOF 4
ENDMDL
MODEL 2
REMARK VINA RESULT: -6.952408085      2.393      3.525
REMARK  4 active torsions:
REMARK  status: ('A' for Active; 'I' for Inactive)
REMARK    1  A    between atoms: C2_2  and  C3_3 
REMARK    2  A    between atoms: C2_2  and  C19_24 
REMARK    3  A    between atoms: C3_3  and  N1_4 
REMARK    4  A    between atoms: C19_24  and  C21_26 
ROOT
HETATM    1  N1  UNL     1       4.855  46.533  19.445  1.00  0.00     0.112 N 
HETATM    2  C4  UNL     1       4.408  46.158  20.751  1.00  0.00     0.280 C 
HETATM    3  C5  UNL     1       5.296  46.857  21.763  1.00  0.00     0.104 C 
HETATM    4  C6  UNL     1       6.656  46.246  21.666  1.00  0.00     0.222 C 
HETATM    5  C7  UNL     1       7.756  47.240  22.032  1.00  0.00     0.243 C 
HETATM    6  O1  UNL     1       8.949  46.495  21.907  1.00  0.00    -0.347 OA
HETATM    7  C8  UNL     1       8.883  45.525  22.921  1.00  0.00     0.202 C 
HETATM    8  C9  UNL     1       9.918  45.926  23.949  1.00  0.00     0.076 C 
HETATM    9  C10 UNL     1      11.253  45.260  23.731  1.00  0.00    -0.009 C 
HETATM   10  C11 UNL     1      11.366  43.946  24.438  1.00  0.00     0.009 C 
HETATM   11  C12 UNL     1      10.605  42.832  23.785  1.00  0.00    -0.013 C 
HETATM   12  C13 UNL     1      11.054  42.710  22.334  1.00  0.00     0.010 C 
HETATM   13  C14 UNL     1      10.533  44.025  21.769  1.00  0.00    -0.004 C 
HETATM   14  C15 UNL     1      11.520  45.093  22.256  1.00  0.00     0.010 C 
HETATM   15  C16 UNL     1       9.197  44.149  22.421  1.00  0.00     0.055 C 
HETATM   16  C17 UNL     1       9.156  43.207  23.600  1.00  0.00     0.015 C 
HETATM   17  O2  UNL     1       7.632  45.473  23.531  1.00  0.00    -0.197 OA
HETATM   18  O3  UNL     1       6.746  45.221  22.593  1.00  0.00    -0.195 OA
HETATM   19  O4  UNL     1       6.855  45.794  20.374  1.00  0.00    -0.321 OA
HETATM   20  C18 UNL     1       6.296  46.682  19.462  1.00  0.00     0.443 C 
ENDROOT
BRANCH   1  21
HETATM   21  C3  UNL     1       4.346  45.802  18.358  1.00  0.00     0.280 C 
BRANCH  21  22
HETATM   22  C2  UNL     1       3.589  46.643  17.372  1.00  0.00     0.024 C 
HETATM   23  C1  UNL     1       2.832  47.659  18.261  1.00  0.00     0.012 C 
BRANCH  22  24
HETATM   24  C19 UNL     1       2.577  45.844  16.610  1.00  0.00     0.088 C 
HETATM   25  C20 UNL     1       2.928  44.398  16.454  1.00  0.00     0.021 C 
BRANCH  24  26
HETATM   26  C21 UNL     1       2.278  46.474  15.289  1.00  0.00     0.177 C 
HETATM   27  O5  UNL     1       2.105  45.734  14.264  1.00  0.00    -0.648 OA
HETATM   28  O6  UNL     1       2.197  47.849  15.218  1.00  0.00    -0.648 OA
ENDBRANCH  24  26
ENDBRANCH  22  24
ENDBRANCH  21  22
ENDBRANCH   1  21
TORSDOF 4
ENDMDL
MODEL 3
REMARK VINA RESULT: -6.921309790      1.124      1.349
REMARK  4 active torsions:
REMARK  status: ('A' for Active; 'I' for Inactive)
REMARK    1  A    between atoms: C2_2  and  C3_3 
REMARK    2  A    between atoms: C2_2  and  C19_24 
REMARK    3  A    between atoms: C3_3  and  N1_4 
REMARK    4  A    between atoms: C19_24  and  C21_26 
ROOT
HETATM    1  N1  UNL     1       4.727  46.407  17.908  1.00  0.00     0.112 N 
HETATM    2  C4  UNL     1       5.079  47.583  18.642  1.00  0.00     0.280 C 
HETATM    3  C5  UNL     1       6.273  47.245  19.514  1.00  0.00     0.104 C 
HETATM    4  C6  UNL     1       5.804  46.296  20.570  1.00  0.00     0.222 C 
HETATM    5  C7  UNL     1       6.915  45.353  21.024  1.00  0.00     0.243 C 
HETATM    6  O1  UNL     1       6.306  44.559  22.021  1.00  0.00    -0.347 OA
HETATM    7  C8  UNL     1       6.028  45.443  23.075  1.00  0.00     0.202 C 
HETATM    8  C9  UNL     1       6.991  45.083  24.186  1.00  0.00     0.076 C 
HETATM    9  C10 UNL     1       6.409  44.104  25.174  1.00  0.00    -0.009 C 
HETATM   10  C11 UNL     1       5.689  44.778  26.300  1.00  0.00     0.009 C 
HETATM   11  C12 UNL     1       4.347  45.331  25.926  1.00  0.00    -0.013 C 
HETATM   12  C13 UNL     1       3.500  44.214  25.329  1.00  0.00     0.010 C 
HETATM   13  C14 UNL     1       4.268  43.939  24.043  1.00  0.00    -0.004 C 
HETATM   14  C15 UNL     1       5.497  43.130  24.470  1.00  0.00     0.010 C 
HETATM   15  C16 UNL     1       4.626  45.312  23.581  1.00  0.00     0.055 C 
HETATM   16  C17 UNL     1       4.461  46.261  24.744  1.00  0.00     0.015 C 
HETATM   17  O2  UNL     1       6.221  46.777  22.720  1.00  0.00    -0.197 OA
HETATM   18  O3  UNL     1       5.445  47.027  21.690  1.00  0.00    -0.195 OA
HETATM   19  O4  UNL     1       4.747  45.557  20.072  1.00  0.00    -0.321 OA
HETATM   20  C18 UNL     1       4.966  45.242  18.737  1.00  0.00     0.443 C 
ENDROOT
BRANCH   1  21
HETATM   21  C3  UNL     1       3.494  46.414  17.235  1.00  0.00     0.280 C 
BRANCH  21  22
HETATM   22  C2  UNL     1       2.791  47.740  17.287  1.00  0.00     0.024 C 
HETATM   23  C1  UNL     1       1.720  47.544  18.388  1.00  0.00     0.012 C 
BRANCH  22  24
HETATM   24  C19 UNL     1       2.088  48.055  16.002  1.00  0.00     0.088 C 
HETATM   25  C20 UNL     1       2.251  47.013  14.941  1.00  0.00     0.021 C 
BRANCH  24  26
HETATM   26  C21 UNL     1       2.474  49.407  15.496  1.00  0.00     0.177 C 
HETATM   27  O5  UNL     1       3.142  50.192  16.246  1.00  0.00    -0.648 OA
HETATM   28  O6  UNL     1       2.091  49.767  14.221  1.00  0.00    -0.648 OA
ENDBRANCH  24  26
ENDBRANCH  22  24
ENDBRANCH  21  22
ENDBRANCH   1  21
TORSDOF 4
ENDMDL
MODEL 4
REMARK VINA RESULT: -6.722913861      4.915      8.282
REMARK  4 active torsions:
REMARK  status: ('A' for Active; 'I' for Inactive)
REMARK    1  A    between atoms: C2_2  and  C3_3 
REMARK    2  A    between atoms: C2_2  and  C19_24 
REMARK    3  A    between atoms: C3_3  and  N1_4 
REMARK    4  A    between atoms: C19_24  and  C21_26 
ROOT
HETATM    1  N1  UNL     1       6.445  42.882  21.406  1.00  0.00     0.112 N 
HETATM    2  C4  UNL     1       5.765  41.829  22.094  1.00  0.00     0.280 C 
HETATM    3  C5  UNL     1       6.187  40.515  21.463  1.00  0.00     0.104 C 
HETATM    4  C6  UNL     1       5.606  40.471  20.086  1.00  0.00     0.222 C 
HETATM    5  C7  UNL     1       6.470  39.654  19.129  1.00  0.00     0.243 C 
HETATM    6  O1  UNL     1       5.768  39.704  17.905  1.00  0.00    -0.347 OA
HETATM    7  C8  UNL     1       4.580  38.992  18.134  1.00  0.00     0.202 C 
HETATM    8  C9  UNL     1       4.707  37.704  17.349  1.00  0.00     0.076 C 
HETATM    9  C10 UNL     1       4.103  37.793  15.971  1.00  0.00    -0.009 C 
HETATM   10  C11 UNL     1       2.654  37.418  15.949  1.00  0.00     0.009 C 
HETATM   11  C12 UNL     1       1.742  38.466  16.512  1.00  0.00    -0.013 C 
HETATM   12  C13 UNL     1       1.976  39.776  15.770  1.00  0.00     0.010 C 
HETATM   13  C14 UNL     1       3.394  40.101  16.220  1.00  0.00    -0.004 C 
HETATM   14  C15 UNL     1       4.301  39.176  15.401  1.00  0.00     0.010 C 
HETATM   15  C16 UNL     1       3.366  39.733  17.666  1.00  0.00     0.055 C 
HETATM   16  C17 UNL     1       2.164  38.852  17.907  1.00  0.00     0.015 C 
HETATM   17  O2  UNL     1       4.390  38.687  19.481  1.00  0.00    -0.197 OA
HETATM   18  O3  UNL     1       4.385  39.822  20.145  1.00  0.00    -0.195 OA
HETATM   19  O4  UNL     1       5.484  41.764  19.608  1.00  0.00    -0.321 OA
HETATM   20  C18 UNL     1       6.574  42.529  20.006  1.00  0.00     0.443 C 
ENDROOT
BRANCH   1  21
HETATM   21  C3  UNL     1       6.009  44.195  21.650  1.00  0.00     0.280 C 
BRANCH  21  22
HETATM   22  C2  UNL     1       6.528  45.194  20.656  1.00  0.00     0.024 C 
HETATM   23  C1  UNL     1       7.737  45.836  21.378  1.00  0.00     0.012 C 
BRANCH  22  24
HETATM   24  C19 UNL     1       5.529  46.272  20.367  1.00  0.00     0.088 C 
HETATM   25  C20 UNL     1       4.448  46.399  21.394  1.00  0.00     0.021 C 
BRANCH  24  26
HETATM   26  C21 UNL     1       4.957  46.122  18.995  1.00  0.00     0.177 C 
HETATM   27  O5  UNL     1       5.487  45.298  18.179  1.00  0.00    -0.648 OA
HETATM   28  O6  UNL     1       3.863  46.887  18.650  1.00  0.00    -0.648 OA
ENDBRANCH  24  26
ENDBRANCH  22  24
ENDBRANCH  21  22
ENDBRANCH   1  21
TORSDOF 4
ENDMDL
MODEL 5
REMARK VINA RESULT: -6.717044606      1.790      2.442
REMARK  4 active torsions:
REMARK  status: ('A' for Active; 'I' for Inactive)
REMARK    1  A    between atoms: C2_2  and  C3_3 
REMARK    2  A    between atoms: C2_2  and  C19_24 
REMARK    3  A    between atoms: C3_3  and  N1_4 
REMARK    4  A    between atoms: C19_24  and  C21_26 
ROOT
HETATM    1  N1  UNL     1       5.795  45.454  18.457  1.00  0.00     0.112 N 
HETATM    2  C4  UNL     1       5.092  46.563  19.024  1.00  0.00     0.280 C 
HETATM    3  C5  UNL     1       5.646  46.800  20.416  1.00  0.00     0.104 C 
HETATM    4  C6  UNL     1       5.229  45.645  21.268  1.00  0.00     0.222 C 
HETATM    5  C7  UNL     1       6.234  45.365  22.383  1.00  0.00     0.243 C 
HETATM    6  O1  UNL     1       5.675  44.276  23.085  1.00  0.00    -0.347 OA
HETATM    7  C8  UNL     1       4.503  44.781  23.673  1.00  0.00     0.202 C 
HETATM    8  C9  UNL     1       4.781  44.856  25.158  1.00  0.00     0.076 C 
HETATM    9  C10 UNL     1       4.335  43.623  25.903  1.00  0.00    -0.009 C 
HETATM   10  C11 UNL     1       2.918  43.715  26.376  1.00  0.00     0.009 C 
HETATM   11  C12 UNL     1       1.898  43.535  25.292  1.00  0.00    -0.013 C 
HETATM   12  C13 UNL     1       2.152  42.208  24.588  1.00  0.00     0.010 C 
HETATM   13  C14 UNL     1       3.492  42.498  23.925  1.00  0.00    -0.004 C 
HETATM   14  C15 UNL     1       4.530  42.396  25.049  1.00  0.00     0.010 C 
HETATM   15  C16 UNL     1       3.318  43.898  23.440  1.00  0.00     0.055 C 
HETATM   16  C17 UNL     1       2.139  44.505  24.163  1.00  0.00     0.015 C 
HETATM   17  O2  UNL     1       4.176  46.052  23.206  1.00  0.00    -0.197 OA
HETATM   18  O3  UNL     1       4.041  45.970  21.901  1.00  0.00    -0.195 OA
HETATM   19  O4  UNL     1       5.101  44.522  20.471  1.00  0.00    -0.321 OA
HETATM   20  C18 UNL     1       6.099  44.500  19.505  1.00  0.00     0.443 C 
ENDROOT
BRANCH   1  21
HETATM   21  C3  UNL     1       5.271  44.895  17.279  1.00  0.00     0.280 C 
BRANCH  21  22
HETATM   22  C2  UNL     1       3.885  44.344  17.443  1.00  0.00     0.024 C 
HETATM   23  C1  UNL     1       4.103  42.812  17.495  1.00  0.00     0.012 C 
BRANCH  22  24
HETATM   24  C19 UNL     1       3.014  44.651  16.264  1.00  0.00     0.088 C 
HETATM   25  C20 UNL     1       3.650  44.368  14.940  1.00  0.00     0.021 C 
BRANCH  24  26
HETATM   26  C21 UNL     1       2.498  46.052  16.327  1.00  0.00     0.177 C 
HETATM   27  O5  UNL     1       2.408  46.638  17.456  1.00  0.00    -0.648 OA
HETATM   28  O6  UNL     1       2.130  46.672  15.152  1.00  0.00    -0.648 OA
ENDBRANCH  24  26
ENDBRANCH  22  24
ENDBRANCH  21  22
ENDBRANCH   1  21
TORSDOF 4
ENDMDL
