MODEL 1
REMARK VINA RESULT: -7.026537155      0.000      0.000
REMARK  8 active torsions:
REMARK  status: ('A' for Active; 'I' for Inactive)
REMARK    1  A    between atoms: C2_2  and  N1_4 
REMARK    2  A    between atoms: N1_4  and  C4_6 
REMARK    3  A    between atoms: C7_9  and  O1_10 
REMARK    4  A    between atoms: C10_14  and  O2_15 
REMARK    5  A    between atoms: C20_26  and  O3_27 
REMARK    6  A    between atoms: C21_29  and  C22_30 
REMARK    7  A    between atoms: C22_30  and  C24_32 
REMARK    8  A    between atoms: C25_33  and  C26_34 
ROOT
HETATM    1  C4  UNL     1      -5.991  -6.532  -5.552  1.00  0.00     0.085 C 
HETATM    2  C5  UNL     1      -7.165  -5.652  -5.471  1.00  0.00     0.017 C 
HETATM    3  C6  UNL     1      -8.321  -6.219  -4.669  1.00  0.00     0.038 C 
HETATM    4  C7  UNL     1      -9.410  -5.222  -5.013  1.00  0.00     0.119 C 
HETATM    5  C8  UNL     1      -9.201  -4.973  -6.487  1.00  0.00     0.039 C 
HETATM    6  C9  UNL     1      -7.739  -5.177  -6.780  1.00  0.00     0.023 C 
HETATM    7  C10 UNL     1      -7.451  -6.028  -7.959  1.00  0.00     0.123 C 
HETATM    8  C11 UNL     1      -7.714  -7.492  -7.794  1.00  0.00     0.037 C 
HETATM    9  C12 UNL     1      -6.520  -8.215  -7.234  1.00  0.00    -0.001 C 
HETATM   10  C13 UNL     1      -6.284  -8.008  -5.780  1.00  0.00     0.013 C 
HETATM   11  C14 UNL     1      -4.939  -8.690  -5.479  1.00  0.00     0.008 C 
HETATM   12  C15 UNL     1      -5.072 -10.130  -5.738  1.00  0.00     0.010 C 
HETATM   13  C16 UNL     1      -5.425 -10.494  -7.192  1.00  0.00    -0.033 C 
HETATM   14  C17 UNL     1      -4.211 -10.183  -7.975  1.00  0.00     0.016 C 
HETATM   15  C18 UNL     1      -6.546  -9.622  -7.709  1.00  0.00     0.001 C 
HETATM   16  C19 UNL     1      -7.836 -10.354  -7.533  1.00  0.00     0.038 C 
HETATM   17  C20 UNL     1      -7.417 -11.631  -6.820  1.00  0.00     0.124 C 
HETATM   18  C21 UNL     1      -5.981 -11.843  -7.152  1.00  0.00     0.030 C 
ENDROOT
BRANCH  18  19
HETATM   19  C22 UNL     1      -5.801 -12.806  -8.278  1.00  0.00     0.011 C 
HETATM   20  C23 UNL     1      -4.294 -13.253  -8.282  1.00  0.00     0.015 C 
BRANCH  19  21
HETATM   21  C24 UNL     1      -6.153 -12.382  -9.605  1.00  0.00    -0.015 C 
HETATM   22  C25 UNL     1      -7.142 -12.686 -10.378  1.00  0.00     0.080 C 
BRANCH  22  23
HETATM   23  C26 UNL     1      -8.250 -13.584 -10.170  1.00  0.00     0.198 C 
HETATM   24  O4  UNL     1      -9.391 -13.166  -9.910  1.00  0.00    -0.645 OA
HETATM   25  O5  UNL     1      -8.126 -14.976 -10.244  1.00  0.00    -0.645 OA
ENDBRANCH  22  23
ENDBRANCH  19  21
ENDBRANCH  18  19
BRANCH  17  26
HETATM   26  O3  UNL     1      -8.269 -12.677  -6.958  1.00  0.00    -0.395 OA
ATOM     27  H3  UNL     1      -8.163 -13.373  -6.320  1.00  0.00     0.210 HD
ENDBRANCH  17  26
BRANCH   1  28
HETATM   28  N1  UNL     1      -5.107  -6.430  -4.440  1.00  0.00    -0.413 N 
ATOM     29  H1  UNL     1      -5.213  -7.022  -3.616  1.00  0.00     0.154 HD
BRANCH  28  30
HETATM   30  C2  UNL     1      -4.076  -5.467  -4.537  1.00  0.00     0.068 C 
HETATM   31  C1  UNL     1      -4.449  -4.095  -3.984  1.00  0.00     0.031 C 
HETATM   32  C3  UNL     1      -3.667  -5.240  -6.001  1.00  0.00     0.031 C 
ENDBRANCH  28  30
ENDBRANCH   1  28
BRANCH   7  33
HETATM   33  O2  UNL     1      -8.274  -5.582  -9.011  1.00  0.00    -0.395 OA
ATOM     34  H2  UNL     1      -7.708  -5.201  -9.671  1.00  0.00     0.210 HD
ENDBRANCH   7  33
BRANCH   4  35
HETATM   35  O1  UNL     1      -9.249  -4.055  -4.264  1.00  0.00    -0.396 OA
ATOM     36  H1  UNL     1      -9.871  -3.396  -4.547  1.00  0.00     0.210 HD
ENDBRANCH   4  35
TORSDOF 8
ENDMDL
MODEL 2
REMARK VINA RESULT: -6.747336454      1.799      7.279
REMARK  8 active torsions:
REMARK  status: ('A' for Active; 'I' for Inactive)
REMARK    1  A    between atoms: C2_2  and  N1_4 
REMARK    2  A    between atoms: N1_4  and  C4_6 
REMARK    3  A    between atoms: C7_9  and  O1_10 
REMARK    4  A    between atoms: C10_14  and  O2_15 
REMARK    5  A    between atoms: C20_26  and  O3_27 
REMARK    6  A    between atoms: C21_29  and  C22_30 
REMARK    7  A    between atoms: C22_30  and  C24_32 
REMARK    8  A    between atoms: C25_33  and  C26_34 
ROOT
HETATM    1  C4  UNL     1      -5.165 -11.872  -8.059  1.00  0.00     0.085 C 
HETATM    2  C5  UNL     1      -6.092 -12.850  -8.643  1.00  0.00     0.017 C 
HETATM    3  C6  UNL     1      -6.701 -12.426  -9.965  1.00  0.00     0.038 C 
HETATM    4  C7  UNL     1      -7.768 -13.490 -10.132  1.00  0.00     0.119 C 
HETATM    5  C8  UNL     1      -8.329 -13.642  -8.739  1.00  0.00     0.039 C 
HETATM    6  C9  UNL     1      -7.232 -13.300  -7.767  1.00  0.00     0.023 C 
HETATM    7  C10 UNL     1      -7.623 -12.366  -6.685  1.00  0.00     0.123 C 
HETATM    8  C11 UNL     1      -7.832 -10.940  -7.090  1.00  0.00     0.037 C 
HETATM    9  C12 UNL     1      -6.552 -10.151  -7.032  1.00  0.00    -0.001 C 
HETATM   10  C13 UNL     1      -5.599 -10.415  -8.142  1.00  0.00     0.013 C 
HETATM   11  C14 UNL     1      -4.320  -9.640  -7.782  1.00  0.00     0.008 C 
HETATM   12  C15 UNL     1      -4.631  -8.204  -7.755  1.00  0.00     0.010 C 
HETATM   13  C16 UNL     1      -5.693  -7.793  -6.718  1.00  0.00    -0.033 C 
HETATM   14  C17 UNL     1      -5.035  -7.959  -5.404  1.00  0.00     0.016 C 
HETATM   15  C18 UNL     1      -6.880  -8.727  -6.763  1.00  0.00     0.001 C 
HETATM   16  C19 UNL     1      -7.931  -8.117  -7.630  1.00  0.00     0.038 C 
HETATM   17  C20 UNL     1      -7.265  -6.849  -8.144  1.00  0.00     0.124 C 
HETATM   18  C21 UNL     1      -6.211  -6.500  -7.153  1.00  0.00     0.030 C 
ENDROOT
BRANCH  18  19
HETATM   19  C22 UNL     1      -6.673  -5.466  -6.181  1.00  0.00     0.011 C 
HETATM   20  C23 UNL     1      -5.421  -4.610  -5.769  1.00  0.00     0.015 C 
BRANCH  19  21
HETATM   21  C24 UNL     1      -7.341  -5.901  -4.984  1.00  0.00    -0.015 C 
HETATM   22  C25 UNL     1      -8.574  -5.832  -4.606  1.00  0.00     0.080 C 
BRANCH  22  23
HETATM   23  C26 UNL     1      -9.725  -5.273  -5.269  1.00  0.00     0.198 C 
HETATM   24  O4  UNL     1     -10.291  -4.250  -4.849  1.00  0.00    -0.645 OA
HETATM   25  O5  UNL     1     -10.286  -5.834  -6.422  1.00  0.00    -0.645 OA
ENDBRANCH  22  23
ENDBRANCH  19  21
ENDBRANCH  18  19
BRANCH  17  26
HETATM   26  O3  UNL     1      -8.114  -5.873  -8.549  1.00  0.00    -0.395 OA
ATOM     27  H3  UNL     1      -8.733  -5.575  -7.891  1.00  0.00     0.210 HD
ENDBRANCH  17  26
BRANCH   1  28
HETATM   28  N1  UNL     1      -3.834 -11.958  -8.558  1.00  0.00    -0.413 N 
ATOM     29  H1  UNL     1      -3.541 -11.452  -9.394  1.00  0.00     0.154 HD
BRANCH  28  30
HETATM   30  C2  UNL     1      -2.939 -12.782  -7.836  1.00  0.00     0.068 C 
HETATM   31  C1  UNL     1      -2.784 -12.399  -6.367  1.00  0.00     0.031 C 
HETATM   32  C3  UNL     1      -1.527 -12.727  -8.441  1.00  0.00     0.031 C 
ENDBRANCH  28  30
ENDBRANCH   1  28
BRANCH   7  33
HETATM   33  O2  UNL     1      -8.847 -12.822  -6.158  1.00  0.00    -0.395 OA
ATOM     34  H2  UNL     1      -8.746 -12.877  -5.215  1.00  0.00     0.210 HD
ENDBRANCH   7  33
BRANCH   4  35
HETATM   35  O1  UNL     1      -7.195 -14.678 -10.590  1.00  0.00    -0.396 OA
ATOM     36  H1  UNL     1      -7.767 -15.412 -10.401  1.00  0.00     0.210 HD
ENDBRANCH   4  35
TORSDOF 8
ENDMDL
MODEL 3
REMARK VINA RESULT: -6.584116158      0.795      1.143
REMARK  8 active torsions:
REMARK  status: ('A' for Active; 'I' for Inactive)
REMARK    1  A    between atoms: C2_2  and  N1_4 
REMARK    2  A    between atoms: N1_4  and  C4_6 
REMARK    3  A    between atoms: C7_9  and  O1_10 
REMARK    4  A    between atoms: C10_14  and  O2_15 
REMARK    5  A    between atoms: C20_26  and  O3_27 
REMARK    6  A    between atoms: C21_29  and  C22_30 
REMARK    7  A    between atoms: C22_30  and  C24_32 
REMARK    8  A    between atoms: C25_33  and  C26_34 
ROOT
HETATM    1  C4  UNL     1      -6.536  -6.594  -6.365  1.00  0.00     0.085 C 
HETATM    2  C5  UNL     1      -7.753  -5.770  -6.397  1.00  0.00     0.017 C 
HETATM    3  C6  UNL     1      -8.900  -6.314  -5.567  1.00  0.00     0.038 C 
HETATM    4  C7  UNL     1     -10.027  -5.411  -6.031  1.00  0.00     0.119 C 
HETATM    5  C8  UNL     1      -9.792  -5.298  -7.519  1.00  0.00     0.039 C 
HETATM    6  C9  UNL     1      -8.315  -5.457  -7.759  1.00  0.00     0.023 C 
HETATM    7  C10 UNL     1      -7.955  -6.405  -8.840  1.00  0.00     0.123 C 
HETATM    8  C11 UNL     1      -8.152  -7.857  -8.536  1.00  0.00     0.037 C 
HETATM    9  C12 UNL     1      -6.940  -8.460  -7.881  1.00  0.00    -0.001 C 
HETATM   10  C13 UNL     1      -6.752  -8.099  -6.450  1.00  0.00     0.013 C 
HETATM   11  C14 UNL     1      -5.384  -8.679  -6.054  1.00  0.00     0.008 C 
HETATM   12  C15 UNL     1      -5.441 -10.142  -6.170  1.00  0.00     0.010 C 
HETATM   13  C16 UNL     1      -5.739 -10.666  -7.588  1.00  0.00    -0.033 C 
HETATM   14  C17 UNL     1      -4.520 -10.373  -8.372  1.00  0.00     0.016 C 
HETATM   15  C18 UNL     1      -6.886  -9.906  -8.213  1.00  0.00     0.001 C 
HETATM   16  C19 UNL     1      -8.143 -10.681  -7.993  1.00  0.00     0.038 C 
HETATM   17  C20 UNL     1      -7.682 -11.859  -7.146  1.00  0.00     0.124 C 
HETATM   18  C21 UNL     1      -6.230 -12.030  -7.426  1.00  0.00     0.030 C 
ENDROOT
BRANCH  18  19
HETATM   19  C22 UNL     1      -5.974 -13.090  -8.445  1.00  0.00     0.011 C 
HETATM   20  C23 UNL     1      -4.482 -13.554  -8.281  1.00  0.00     0.015 C 
BRANCH  19  21
HETATM   21  C24 UNL     1      -6.205 -12.777  -9.829  1.00  0.00    -0.015 C 
HETATM   22  C25 UNL     1      -7.190 -13.035 -10.624  1.00  0.00     0.080 C 
BRANCH  22  23
HETATM   23  C26 UNL     1      -8.420 -13.749 -10.387  1.00  0.00     0.198 C 
HETATM   24  O4  UNL     1      -8.431 -14.882  -9.877  1.00  0.00    -0.645 OA
HETATM   25  O5  UNL     1      -9.677 -13.226 -10.710  1.00  0.00    -0.645 OA
ENDBRANCH  22  23
ENDBRANCH  19  21
ENDBRANCH  18  19
BRANCH  17  26
HETATM   26  O3  UNL     1      -8.480 -12.955  -7.198  1.00  0.00    -0.395 OA
ATOM     27  H3  UNL     1      -9.404 -12.790  -7.050  1.00  0.00     0.210 HD
ENDBRANCH  17  26
BRANCH   1  28
HETATM   28  N1  UNL     1      -5.688  -6.339  -5.250  1.00  0.00    -0.413 N 
ATOM     29  H1  UNL     1      -5.622  -6.990  -4.467  1.00  0.00     0.154 HD
BRANCH  28  30
HETATM   30  C2  UNL     1      -4.941  -5.138  -5.284  1.00  0.00     0.068 C 
HETATM   31  C1  UNL     1      -3.565  -5.277  -5.928  1.00  0.00     0.031 C 
HETATM   32  C3  UNL     1      -4.695  -4.600  -3.865  1.00  0.00     0.031 C 
ENDBRANCH  28  30
ENDBRANCH   1  28
BRANCH   7  33
HETATM   33  O2  UNL     1      -8.770  -6.107  -9.949  1.00  0.00    -0.395 OA
ATOM     34  H2  UNL     1      -9.442  -5.505  -9.653  1.00  0.00     0.210 HD
ENDBRANCH   7  33
BRANCH   4  35
HETATM   35  O1  UNL     1      -9.942  -4.170  -5.400  1.00  0.00    -0.396 OA
ATOM     36  H1  UNL     1      -9.035  -3.894  -5.340  1.00  0.00     0.210 HD
ENDBRANCH   4  35
TORSDOF 8
ENDMDL
MODEL 4
REMARK VINA RESULT: -6.551831600      2.472      3.711
REMARK  8 active torsions:
REMARK  status: ('A' for Active; 'I' for Inactive)
REMARK    1  A    between atoms: C2_2  and  N1_4 
REMARK    2  A    between atoms: N1_4  and  C4_6 
REMARK    3  A    between atoms: C7_9  and  O1_10 
REMARK    4  A    between atoms: C10_14  and  O2_15 
REMARK    5  A    between atoms: C20_26  and  O3_27 
REMARK    6  A    between atoms: C21_29  and  C22_30 
REMARK    7  A    between atoms: C22_30  and  C24_32 
REMARK    8  A    between atoms: C25_33  and  C26_34 
ROOT
HETATM    1  C4  UNL     1      -5.466  -6.029  -7.967  1.00  0.00     0.085 C 
HETATM    2  C5  UNL     1      -5.004  -5.236  -6.819  1.00  0.00     0.017 C 
HETATM    3  C6  UNL     1      -3.631  -5.621  -6.303  1.00  0.00     0.038 C 
HETATM    4  C7  UNL     1      -3.593  -4.832  -5.009  1.00  0.00     0.119 C 
HETATM    5  C8  UNL     1      -4.988  -5.002  -4.456  1.00  0.00     0.039 C 
HETATM    6  C9  UNL     1      -5.918  -5.192  -5.623  1.00  0.00     0.023 C 
HETATM    7  C10 UNL     1      -6.865  -6.325  -5.491  1.00  0.00     0.123 C 
HETATM    8  C11 UNL     1      -6.276  -7.694  -5.623  1.00  0.00     0.037 C 
HETATM    9  C12 UNL     1      -6.244  -8.152  -7.056  1.00  0.00    -0.001 C 
HETATM   10  C13 UNL     1      -5.188  -7.524  -7.895  1.00  0.00     0.013 C 
HETATM   11  C14 UNL     1      -5.459  -8.007  -9.330  1.00  0.00     0.008 C 
HETATM   12  C15 UNL     1      -5.295  -9.467  -9.374  1.00  0.00     0.010 C 
HETATM   13  C16 UNL     1      -6.258 -10.253  -8.464  1.00  0.00    -0.033 C 
HETATM   14  C17 UNL     1      -7.589 -10.104  -9.090  1.00  0.00     0.016 C 
HETATM   15  C18 UNL     1      -6.322  -9.635  -7.086  1.00  0.00     0.001 C 
HETATM   16  C19 UNL     1      -5.371 -10.363  -6.195  1.00  0.00     0.038 C 
HETATM   17  C20 UNL     1      -4.703 -11.355  -7.137  1.00  0.00     0.124 C 
HETATM   18  C21 UNL     1      -5.652 -11.565  -8.264  1.00  0.00     0.030 C 
ENDROOT
BRANCH  18  19
HETATM   19  C22 UNL     1      -6.475 -12.797  -8.085  1.00  0.00     0.011 C 
HETATM   20  C23 UNL     1      -6.257 -13.701  -9.352  1.00  0.00     0.015 C 
BRANCH  19  21
HETATM   21  C24 UNL     1      -7.889 -12.650  -7.868  1.00  0.00    -0.015 C 
HETATM   22  C25 UNL     1      -8.756 -13.397  -7.269  1.00  0.00     0.080 C 
BRANCH  22  23
HETATM   23  C26 UNL     1      -8.597 -14.667  -6.606  1.00  0.00     0.198 C 
HETATM   24  O4  UNL     1      -8.507 -14.754  -5.370  1.00  0.00    -0.645 OA
HETATM   25  O5  UNL     1      -8.534 -15.882  -7.297  1.00  0.00    -0.645 OA
ENDBRANCH  22  23
ENDBRANCH  19  21
ENDBRANCH  18  19
BRANCH  17  26
HETATM   26  O3  UNL     1      -4.164 -12.447  -6.539  1.00  0.00    -0.395 OA
ATOM     27  H3  UNL     1      -3.971 -13.173  -7.121  1.00  0.00     0.210 HD
ENDBRANCH  17  26
BRANCH   1  28
HETATM   28  N1  UNL     1      -4.998  -5.560  -9.227  1.00  0.00    -0.413 N 
ATOM     29  H1  UNL     1      -4.713  -6.203  -9.966  1.00  0.00     0.154 HD
BRANCH  28  30
HETATM   30  C2  UNL     1      -4.947  -4.157  -9.402  1.00  0.00     0.068 C 
HETATM   31  C1  UNL     1      -5.737  -3.649 -10.604  1.00  0.00     0.031 C 
HETATM   32  C3  UNL     1      -3.501  -3.678  -9.609  1.00  0.00     0.031 C 
ENDBRANCH  28  30
ENDBRANCH   1  28
BRANCH   7  33
HETATM   33  O2  UNL     1      -7.433  -6.250  -4.204  1.00  0.00    -0.395 OA
ATOM     34  H2  UNL     1      -8.372  -6.353  -4.303  1.00  0.00     0.210 HD
ENDBRANCH   7  33
BRANCH   4  35
HETATM   35  O1  UNL     1      -3.300  -3.493  -5.268  1.00  0.00    -0.396 OA
ATOM     36  H1  UNL     1      -2.752  -3.137  -4.580  1.00  0.00     0.210 HD
ENDBRANCH   4  35
TORSDOF 8
ENDMDL
MODEL 5
REMARK VINA RESULT: -6.426545920      1.936      2.728
REMARK  8 active torsions:
REMARK  status: ('A' for Active; 'I' for Inactive)
REMARK    1  A    between atoms: C2_2  and  N1_4 
REMARK    2  A    between atoms: N1_4  and  C4_6 
REMARK    3  A    between atoms: C7_9  and  O1_10 
REMARK    4  A    between atoms: C10_14  and  O2_15 
REMARK    5  A    between atoms: C20_26  and  O3_27 
REMARK    6  A    between atoms: C21_29  and  C22_30 
REMARK    7  A    between atoms: C22_30  and  C24_32 
REMARK    8  A    between atoms: C25_33  and  C26_34 
ROOT
HETATM    1  C4  UNL     1      -6.484  -5.508  -5.308  1.00  0.00     0.085 C 
HETATM    2  C5  UNL     1      -7.780  -4.844  -5.113  1.00  0.00     0.017 C 
HETATM    3  C6  UNL     1      -8.775  -5.639  -4.289  1.00  0.00     0.038 C 
HETATM    4  C7  UNL     1     -10.033  -4.824  -4.515  1.00  0.00     0.119 C 
HETATM    5  C8  UNL     1      -9.959  -4.467  -5.980  1.00  0.00     0.039 C 
HETATM    6  C9  UNL     1      -8.504  -4.407  -6.359  1.00  0.00     0.023 C 
HETATM    7  C10 UNL     1      -8.150  -5.135  -7.601  1.00  0.00     0.123 C 
HETATM    8  C11 UNL     1      -8.157  -6.629  -7.513  1.00  0.00     0.037 C 
HETATM    9  C12 UNL     1      -6.828  -7.168  -7.060  1.00  0.00    -0.001 C 
HETATM   10  C13 UNL     1      -6.541  -6.999  -5.609  1.00  0.00     0.013 C 
HETATM   11  C14 UNL     1      -5.086  -7.459  -5.420  1.00  0.00     0.008 C 
HETATM   12  C15 UNL     1      -4.995  -8.885  -5.759  1.00  0.00     0.010 C 
HETATM   13  C16 UNL     1      -5.370  -9.229  -7.212  1.00  0.00    -0.033 C 
HETATM   14  C17 UNL     1      -4.274  -8.677  -8.036  1.00  0.00     0.016 C 
HETATM   15  C18 UNL     1      -6.649  -8.532  -7.617  1.00  0.00     0.001 C 
HETATM   16  C19 UNL     1      -7.787  -9.479  -7.421  1.00  0.00     0.038 C 
HETATM   17  C20 UNL     1      -7.120 -10.702  -6.809  1.00  0.00     0.124 C 
HETATM   18  C21 UNL     1      -5.692 -10.652  -7.226  1.00  0.00     0.030 C 
ENDROOT
BRANCH  18  19
HETATM   19  C22 UNL     1      -5.423 -11.512  -8.416  1.00  0.00     0.011 C 
HETATM   20  C23 UNL     1      -6.759 -11.616  -9.237  1.00  0.00     0.015 C 
BRANCH  19  21
HETATM   21  C24 UNL     1      -4.916 -12.840  -8.200  1.00  0.00    -0.015 C 
HETATM   22  C25 UNL     1      -3.718 -13.294  -8.034  1.00  0.00     0.080 C 
BRANCH  22  23
HETATM   23  C26 UNL     1      -2.452 -12.607  -8.018  1.00  0.00     0.198 C 
HETATM   24  O4  UNL     1      -1.480 -13.008  -8.681  1.00  0.00    -0.645 OA
HETATM   25  O5  UNL     1      -2.223 -11.450  -7.264  1.00  0.00    -0.645 OA
ENDBRANCH  22  23
ENDBRANCH  19  21
ENDBRANCH  18  19
BRANCH  17  26
HETATM   26  O3  UNL     1      -7.794 -11.869  -6.967  1.00  0.00    -0.395 OA
ATOM     27  H3  UNL     1      -7.981 -12.110  -7.867  1.00  0.00     0.210 HD
ENDBRANCH  17  26
BRANCH   1  28
HETATM   28  N1  UNL     1      -5.564  -5.316  -4.238  1.00  0.00    -0.413 N 
ATOM     29  H1  UNL     1      -5.409  -6.033  -3.529  1.00  0.00     0.154 HD
BRANCH  28  30
HETATM   30  C2  UNL     1      -4.875  -4.081  -4.209  1.00  0.00     0.068 C 
HETATM   31  C1  UNL     1      -3.532  -4.097  -4.933  1.00  0.00     0.031 C 
HETATM   32  C3  UNL     1      -4.574  -3.650  -2.764  1.00  0.00     0.031 C 
ENDBRANCH  28  30
ENDBRANCH   1  28
BRANCH   7  33
HETATM   33  O2  UNL     1      -9.098  -4.781  -8.581  1.00  0.00    -0.395 OA
ATOM     34  H2  UNL     1      -9.956  -4.993  -8.235  1.00  0.00     0.210 HD
ENDBRANCH   7  33
BRANCH   4  35
HETATM   35  O1  UNL     1     -10.023  -3.687  -3.706  1.00  0.00    -0.396 OA
ATOM     36  H1  UNL     1     -10.911  -3.390  -3.546  1.00  0.00     0.210 HD
ENDBRANCH   4  35
TORSDOF 8
ENDMDL
