MODEL 1
REMARK VINA RESULT: -4.980937655      0.000      0.000
REMARK  0 active torsions:
REMARK  status: ('A' for Active; 'I' for Inactive)
ROOT
HETATM    1  C1  UNL     1     -32.849   7.037   2.725  1.00  0.00     0.010 C 
HETATM    2  C2  UNL     1     -33.203   6.017   3.744  1.00  0.00    -0.014 C 
HETATM    3  C3  UNL     1     -34.109   4.901   3.317  1.00  0.00     0.009 C 
HETATM    4  C4  UNL     1     -35.115   5.248   4.374  1.00  0.00    -0.009 A 
HETATM    5  C5  UNL     1     -34.650   5.597   5.772  1.00  0.00     0.010 A 
HETATM    6  C6  UNL     1     -34.336   6.496   4.659  1.00  0.00    -0.006 A 
ENDROOT
TORSDOF 0
ENDMDL
MODEL 2
REMARK VINA RESULT: -4.977635282      0.831      1.685
REMARK  0 active torsions:
REMARK  status: ('A' for Active; 'I' for Inactive)
ROOT
HETATM    1  C1  UNL     1     -32.424   7.133   3.529  1.00  0.00     0.010 C 
HETATM    2  C2  UNL     1     -33.773   6.932   4.115  1.00  0.00    -0.014 C 
HETATM    3  C3  UNL     1     -33.868   6.839   5.609  1.00  0.00     0.009 C 
HETATM    4  C4  UNL     1     -34.499   5.480   5.532  1.00  0.00    -0.009 A 
HETATM    5  C5  UNL     1     -35.577   5.207   4.503  1.00  0.00     0.010 A 
HETATM    6  C6  UNL     1     -34.203   5.461   4.063  1.00  0.00    -0.006 A 
ENDROOT
TORSDOF 0
ENDMDL
MODEL 3
REMARK VINA RESULT: -4.777654788      0.894      2.661
REMARK  0 active torsions:
REMARK  status: ('A' for Active; 'I' for Inactive)
ROOT
HETATM    1  C1  UNL     1     -33.968   6.614   5.834  1.00  0.00     0.010 C 
HETATM    2  C2  UNL     1     -34.081   6.694   4.356  1.00  0.00    -0.014 C 
HETATM    3  C3  UNL     1     -34.179   5.401   3.601  1.00  0.00     0.009 C 
HETATM    4  C4  UNL     1     -32.957   5.723   2.795  1.00  0.00    -0.009 A 
HETATM    5  C5  UNL     1     -32.764   7.120   2.242  1.00  0.00     0.010 A 
HETATM    6  C6  UNL     1     -32.716   6.900   3.690  1.00  0.00    -0.006 A 
ENDROOT
TORSDOF 0
ENDMDL
MODEL 4
REMARK VINA RESULT: -4.714035041      1.084      1.295
REMARK  0 active torsions:
REMARK  status: ('A' for Active; 'I' for Inactive)
ROOT
HETATM    1  C1  UNL     1     -33.526   5.135   2.406  1.00  0.00     0.010 C 
HETATM    2  C2  UNL     1     -33.576   5.156   3.890  1.00  0.00    -0.014 C 
HETATM    3  C3  UNL     1     -34.792   4.574   4.547  1.00  0.00     0.009 C 
HETATM    4  C4  UNL     1     -35.092   5.866   5.246  1.00  0.00    -0.009 A 
HETATM    5  C5  UNL     1     -33.968   6.658   5.883  1.00  0.00     0.010 A 
HETATM    6  C6  UNL     1     -34.023   6.521   4.425  1.00  0.00    -0.006 A 
ENDROOT
TORSDOF 0
ENDMDL
MODEL 5
REMARK VINA RESULT: -4.682008528      1.004      2.332
REMARK  0 active torsions:
REMARK  status: ('A' for Active; 'I' for Inactive)
ROOT
HETATM    1  C1  UNL     1     -33.906   6.919   5.819  1.00  0.00     0.010 C 
HETATM    2  C2  UNL     1     -34.426   6.314   4.567  1.00  0.00    -0.014 C 
HETATM    3  C3  UNL     1     -35.115   4.986   4.676  1.00  0.00     0.009 C 
HETATM    4  C4  UNL     1     -34.149   4.352   3.720  1.00  0.00    -0.009 A 
HETATM    5  C5  UNL     1     -33.733   5.093   2.467  1.00  0.00     0.010 A 
HETATM    6  C6  UNL     1     -33.322   5.600   3.778  1.00  0.00    -0.006 A 
ENDROOT
TORSDOF 0
ENDMDL
