MODEL 1
REMARK VINA RESULT: -3.603271871      0.000      0.000
REMARK  0 active torsions:
REMARK  status: ('A' for Active; 'I' for Inactive)
ROOT
HETATM    1  C1  UNL     1     -34.317   4.373   3.690  1.00  0.00     0.309 C 
HETATM    2  N1  UNL     1     -34.793   5.449   4.486  1.00  0.00     0.084 N 
HETATM    3  C2  UNL     1     -34.756   5.340   5.900  1.00  0.00     0.273 C 
HETATM    4  C3  UNL     1     -34.116   6.737   5.932  1.00  0.00     0.060 C 
HETATM    5  C4  UNL     1     -33.918   6.602   4.419  1.00  0.00     0.273 C 
ENDROOT
TORSDOF 0
ENDMDL
MODEL 2
REMARK VINA RESULT: -3.583744798      0.941      1.710
REMARK  0 active torsions:
REMARK  status: ('A' for Active; 'I' for Inactive)
ROOT
HETATM    1  C1  UNL     1     -33.073   6.708   3.496  1.00  0.00     0.309 C 
HETATM    2  N1  UNL     1     -34.230   6.482   4.289  1.00  0.00     0.084 N 
HETATM    3  C2  UNL     1     -34.743   5.166   4.414  1.00  0.00     0.273 C 
HETATM    4  C3  UNL     1     -34.808   5.399   5.932  1.00  0.00     0.060 C 
HETATM    5  C4  UNL     1     -33.964   6.655   5.702  1.00  0.00     0.273 C 
ENDROOT
TORSDOF 0
ENDMDL
MODEL 3
REMARK VINA RESULT: -3.289406118      0.759      2.436
REMARK  0 active torsions:
REMARK  status: ('A' for Active; 'I' for Inactive)
ROOT
HETATM    1  C1  UNL     1     -34.711   5.572   5.902  1.00  0.00     0.309 C 
HETATM    2  N1  UNL     1     -34.688   5.752   4.493  1.00  0.00     0.084 N 
HETATM    3  C2  UNL     1     -33.639   6.502   3.903  1.00  0.00     0.273 C 
HETATM    4  C3  UNL     1     -33.469   5.358   2.891  1.00  0.00     0.060 C 
HETATM    5  C4  UNL     1     -34.379   4.521   3.794  1.00  0.00     0.273 C 
ENDROOT
TORSDOF 0
ENDMDL
MODEL 4
REMARK VINA RESULT: -3.097940573      0.832      2.587
REMARK  0 active torsions:
REMARK  status: ('A' for Active; 'I' for Inactive)
ROOT
HETATM    1  C1  UNL     1     -33.928   6.879   5.821  1.00  0.00     0.309 C 
HETATM    2  N1  UNL     1     -34.446   6.274   4.644  1.00  0.00     0.084 N 
HETATM    3  C2  UNL     1     -33.568   5.966   3.574  1.00  0.00     0.273 C 
HETATM    4  C3  UNL     1     -34.205   4.568   3.533  1.00  0.00     0.060 C 
HETATM    5  C4  UNL     1     -34.860   4.905   4.875  1.00  0.00     0.273 C 
ENDROOT
TORSDOF 0
ENDMDL
MODEL 5
REMARK VINA RESULT: -3.070339587      1.710      2.670
REMARK  0 active torsions:
REMARK  status: ('A' for Active; 'I' for Inactive)
ROOT
HETATM    1  C1  UNL     1     -32.673   7.179   2.260  1.00  0.00     0.309 C 
HETATM    2  N1  UNL     1     -32.937   6.201   3.256  1.00  0.00     0.084 N 
HETATM    3  C2  UNL     1     -33.962   6.436   4.208  1.00  0.00     0.273 C 
HETATM    4  C3  UNL     1     -34.482   5.020   3.910  1.00  0.00     0.060 C 
HETATM    5  C4  UNL     1     -33.544   5.009   2.699  1.00  0.00     0.273 C 
ENDROOT
TORSDOF 0
ENDMDL
