MODEL 1
REMARK VINA RESULT: -7.368790459      0.000      0.000
REMARK  5 active torsions:
REMARK  status: ('A' for Active; 'I' for Inactive)
REMARK    1  A    between atoms: N1_2  and  C2_5 
REMARK    2  A    between atoms: N2_8  and  C5_9 
REMARK    3  A    between atoms: C7_13  and  C8_14 
REMARK    4  A    between atoms: C13_19  and  C14_20 
REMARK    5  A    between atoms: C14_20  and  C15_21 
ROOT
HETATM    1  C5  UNL     1      10.206  51.711  82.282  1.00  0.00     0.109 A 
HETATM    2  N3  UNL     1       9.458  52.803  82.707  1.00  0.00    -0.351 N 
ATOM      3  H3  UNL     1       8.794  53.222  82.057  1.00  0.00     0.166 HD
HETATM    4  C6  UNL     1       9.573  53.326  83.931  1.00  0.00     0.097 A 
HETATM    5  C7  UNL     1      10.445  52.819  84.862  1.00  0.00    -0.038 A 
HETATM    6  C12 UNL     1      11.201  51.744  84.491  1.00  0.00     0.020 A 
HETATM    7  C13 UNL     1      11.072  51.197  83.199  1.00  0.00    -0.008 A 
ENDROOT
BRANCH   7   8
HETATM    8  C14 UNL     1      11.853  49.951  82.984  1.00  0.00     0.101 C 
BRANCH   8   9
HETATM    9  C15 UNL     1      12.972  50.081  82.010  1.00  0.00     0.037 A 
HETATM   10  N4  UNL     1      12.872  49.346  80.862  1.00  0.00    -0.301 N 
HETATM   11  N5  UNL     1      13.729  49.319  79.890  1.00  0.00    -0.266 N 
ATOM     12  H4  UNL     1      12.043  48.761  80.761  1.00  0.00     0.186 HD
HETATM   13  C16 UNL     1      14.821  50.060  79.968  1.00  0.00     0.266 A 
ATOM     14  H5  UNL     1      13.561  48.733  79.072  1.00  0.00     0.190 HD
HETATM   15  O1  UNL     1      15.664  50.046  79.027  1.00  0.00    -0.266 OA
HETATM   16  C17 UNL     1      15.030  50.839  81.069  1.00  0.00     0.019 A 
HETATM   17  C18 UNL     1      14.090  50.847  82.105  1.00  0.00    -0.022 A 
HETATM   18  C21 UNL     1      16.109  51.780  81.437  1.00  0.00     0.045 C 
HETATM   19  C19 UNL     1      14.556  51.745  83.185  1.00  0.00     0.042 C 
HETATM   20  C20 UNL     1      15.983  52.073  82.903  1.00  0.00     0.009 C 
ENDBRANCH   8   9
ENDBRANCH   7   8
BRANCH   1  21
HETATM   21  N2  UNL     1      10.051  51.312  80.935  1.00  0.00    -0.367 N 
HETATM   22  C4  UNL     1      10.631  51.861  79.756  1.00  0.00     0.126 C 
HETATM   23  C3  UNL     1       9.717  51.526  78.563  1.00  0.00     0.053 C 
HETATM   24  C2  UNL     1       8.274  51.700  78.821  1.00  0.00     0.188 C 
HETATM   25  C23 UNL     1       7.868  50.953  80.067  1.00  0.00     0.053 C 
HETATM   26  C22 UNL     1       9.094  50.225  80.650  1.00  0.00     0.126 C 
BRANCH  24  27
HETATM   27  N1  UNL     1       7.993  53.138  78.940  1.00  0.00    -0.075 N 
HETATM   28  C1  UNL     1       6.923  53.376  79.878  1.00  0.00     0.267 C 
ATOM     29  H12 UNL     1       7.801  53.561  78.032  1.00  0.00     0.277 HD
ATOM     30  H11 UNL     1       8.832  53.668  79.182  1.00  0.00     0.277 HD
ENDBRANCH  24  27
ENDBRANCH   1  21
BRANCH   5  31
HETATM   31  C8  UNL     1      10.577  53.379  86.217  1.00  0.00     0.020 A 
HETATM   32  C9  UNL     1      11.337  52.529  87.214  1.00  0.00     0.009 A 
HETATM   33  C10 UNL     1      10.078  52.348  88.001  1.00  0.00     0.001 A 
HETATM   34  C11 UNL     1       9.296  53.226  87.055  1.00  0.00     0.009 A 
ENDBRANCH   5  31
TORSDOF 5
ENDMDL
MODEL 2
REMARK VINA RESULT: -7.237331668     10.215     14.881
REMARK  5 active torsions:
REMARK  status: ('A' for Active; 'I' for Inactive)
REMARK    1  A    between atoms: N1_2  and  C2_5 
REMARK    2  A    between atoms: N2_8  and  C5_9 
REMARK    3  A    between atoms: C7_13  and  C8_14 
REMARK    4  A    between atoms: C13_19  and  C14_20 
REMARK    5  A    between atoms: C14_20  and  C15_21 
ROOT
HETATM    1  C5  UNL     1      13.694  52.285  94.365  1.00  0.00     0.109 A 
HETATM    2  N3  UNL     1      14.070  52.041  93.049  1.00  0.00    -0.351 N 
ATOM      3  H3  UNL     1      14.305  51.087  92.777  1.00  0.00     0.166 HD
HETATM    4  C6  UNL     1      14.138  53.005  92.126  1.00  0.00     0.097 A 
HETATM    5  C7  UNL     1      13.839  54.313  92.414  1.00  0.00    -0.038 A 
HETATM    6  C12 UNL     1      13.461  54.602  93.694  1.00  0.00     0.020 A 
HETATM    7  C13 UNL     1      13.391  53.579  94.662  1.00  0.00    -0.008 A 
ENDROOT
BRANCH   7   8
HETATM    8  C14 UNL     1      12.835  54.014  95.970  1.00  0.00     0.101 C 
BRANCH   8   9
HETATM    9  C15 UNL     1      11.506  54.679  95.888  1.00  0.00     0.037 A 
HETATM   10  N4  UNL     1      10.431  53.869  95.650  1.00  0.00    -0.301 N 
HETATM   11  N5  UNL     1       9.194  54.243  95.548  1.00  0.00    -0.266 N 
ATOM     12  H4  UNL     1      10.621  52.873  95.542  1.00  0.00     0.186 HD
HETATM   13  C16 UNL     1       8.892  55.524  95.682  1.00  0.00     0.266 A 
ATOM     14  H5  UNL     1       8.462  53.557  95.368  1.00  0.00     0.190 HD
HETATM   15  O1  UNL     1       7.690  55.903  95.587  1.00  0.00    -0.266 OA
HETATM   16  C17 UNL     1       9.883  56.430  95.925  1.00  0.00     0.019 A 
HETATM   17  C18 UNL     1      11.210  55.998  96.027  1.00  0.00    -0.022 A 
HETATM   18  C21 UNL     1       9.870  57.890  96.148  1.00  0.00     0.045 C 
HETATM   19  C19 UNL     1      12.089  57.164  96.267  1.00  0.00     0.042 C 
HETATM   20  C20 UNL     1      11.278  58.389  96.012  1.00  0.00     0.009 C 
ENDBRANCH   8   9
ENDBRANCH   7   8
BRANCH   1  21
HETATM   21  N2  UNL     1      13.749  51.193  95.261  1.00  0.00    -0.367 N 
HETATM   22  C4  UNL     1      12.722  50.640  96.078  1.00  0.00     0.126 C 
HETATM   23  C3  UNL     1      13.383  49.931  97.276  1.00  0.00     0.053 C 
HETATM   24  C2  UNL     1      14.497  50.674  97.897  1.00  0.00     0.188 C 
HETATM   25  C23 UNL     1      15.509  51.076  96.853  1.00  0.00     0.053 C 
HETATM   26  C22 UNL     1      15.060  50.551  95.476  1.00  0.00     0.126 C 
BRANCH  24  27
HETATM   27  N1  UNL     1      13.944  51.847  98.590  1.00  0.00    -0.075 N 
HETATM   28  C1  UNL     1      14.668  52.110  99.810  1.00  0.00     0.267 C 
ATOM     29  H12 UNL     1      12.943  51.749  98.758  1.00  0.00     0.277 HD
ATOM     30  H11 UNL     1      13.918  52.667  97.982  1.00  0.00     0.277 HD
ENDBRANCH  24  27
ENDBRANCH   1  21
BRANCH   5  31
HETATM   31  C8  UNL     1      13.901  55.384  91.406  1.00  0.00     0.020 A 
HETATM   32  C9  UNL     1      12.930  55.262  90.250  1.00  0.00     0.009 A 
HETATM   33  C10 UNL     1      14.084  55.064  89.318  1.00  0.00     0.001 A 
HETATM   34  C11 UNL     1      15.084  55.224  90.436  1.00  0.00     0.009 A 
ENDBRANCH   5  31
TORSDOF 5
ENDMDL
MODEL 3
REMARK VINA RESULT: -7.118976970      4.749      8.764
REMARK  5 active torsions:
REMARK  status: ('A' for Active; 'I' for Inactive)
REMARK    1  A    between atoms: N1_2  and  C2_5 
REMARK    2  A    between atoms: N2_8  and  C5_9 
REMARK    3  A    between atoms: C7_13  and  C8_14 
REMARK    4  A    between atoms: C13_19  and  C14_20 
REMARK    5  A    between atoms: C14_20  and  C15_21 
ROOT
HETATM    1  C5  UNL     1      10.058  53.219  87.401  1.00  0.00     0.109 A 
HETATM    2  N3  UNL     1       9.738  53.441  86.067  1.00  0.00    -0.351 N 
ATOM      3  H3  UNL     1       8.882  53.950  85.848  1.00  0.00     0.166 HD
HETATM    4  C6  UNL     1      10.506  53.016  85.059  1.00  0.00     0.097 A 
HETATM    5  C7  UNL     1      11.672  52.325  85.273  1.00  0.00    -0.038 A 
HETATM    6  C12 UNL     1      12.029  52.084  86.569  1.00  0.00     0.020 A 
HETATM    7  C13 UNL     1      11.215  52.537  87.626  1.00  0.00    -0.008 A 
ENDROOT
BRANCH   7   8
HETATM    8  C14 UNL     1      11.795  52.324  88.977  1.00  0.00     0.101 C 
BRANCH   8   9
HETATM    9  C15 UNL     1      12.626  53.453  89.479  1.00  0.00     0.037 A 
HETATM   10  N4  UNL     1      13.120  54.314  88.540  1.00  0.00    -0.301 N 
HETATM   11  N5  UNL     1      13.856  55.357  88.764  1.00  0.00    -0.266 N 
ATOM     12  H4  UNL     1      12.886  54.117  87.567  1.00  0.00     0.186 HD
HETATM   13  C16 UNL     1      14.187  55.660  90.008  1.00  0.00     0.266 A 
ATOM     14  H5  UNL     1      14.175  55.938  87.990  1.00  0.00     0.190 HD
HETATM   15  O1  UNL     1      14.903  56.675  90.243  1.00  0.00    -0.266 OA
HETATM   16  C17 UNL     1      13.751  54.873  91.034  1.00  0.00     0.019 A 
HETATM   17  C18 UNL     1      12.960  53.752  90.762  1.00  0.00    -0.022 A 
HETATM   18  C21 UNL     1      13.919  54.957  92.499  1.00  0.00     0.045 C 
HETATM   19  C19 UNL     1      12.640  53.057  92.029  1.00  0.00     0.042 C 
HETATM   20  C20 UNL     1      13.521  53.634  93.085  1.00  0.00     0.009 C 
ENDBRANCH   8   9
ENDBRANCH   7   8
BRANCH   1  21
HETATM   21  N2  UNL     1       9.115  53.645  88.366  1.00  0.00    -0.367 N 
HETATM   22  C4  UNL     1       9.290  54.518  89.478  1.00  0.00     0.126 C 
HETATM   23  C3  UNL     1       8.218  54.181  90.532  1.00  0.00     0.053 C 
HETATM   24  C2  UNL     1       8.003  52.738  90.757  1.00  0.00     0.188 C 
HETATM   25  C23 UNL     1       7.744  52.034  89.448  1.00  0.00     0.053 C 
HETATM   26  C22 UNL     1       7.761  53.062  88.302  1.00  0.00     0.126 C 
BRANCH  24  27
HETATM   27  N1  UNL     1       9.186  52.192  91.437  1.00  0.00    -0.075 N 
HETATM   28  C1  UNL     1       9.306  50.775  91.198  1.00  0.00     0.267 C 
ATOM     29  H12 UNL     1       9.181  52.408  92.434  1.00  0.00     0.277 HD
ATOM     30  H11 UNL     1      10.036  52.693  91.176  1.00  0.00     0.277 HD
ENDBRANCH  24  27
ENDBRANCH   1  21
BRANCH   5  31
HETATM   31  C8  UNL     1      12.532  51.857  84.173  1.00  0.00     0.020 A 
HETATM   32  C9  UNL     1      11.813  51.358  82.937  1.00  0.00     0.009 A 
HETATM   33  C10 UNL     1      12.335  49.981  83.204  1.00  0.00     0.001 A 
HETATM   34  C11 UNL     1      13.101  50.448  84.417  1.00  0.00     0.009 A 
ENDBRANCH   5  31
TORSDOF 5
ENDMDL
MODEL 4
REMARK VINA RESULT: -7.112950274      4.539      7.602
REMARK  5 active torsions:
REMARK  status: ('A' for Active; 'I' for Inactive)
REMARK    1  A    between atoms: N1_2  and  C2_5 
REMARK    2  A    between atoms: N2_8  and  C5_9 
REMARK    3  A    between atoms: C7_13  and  C8_14 
REMARK    4  A    between atoms: C13_19  and  C14_20 
REMARK    5  A    between atoms: C14_20  and  C15_21 
ROOT
HETATM    1  C5  UNL     1      10.581  52.367  87.031  1.00  0.00     0.109 A 
HETATM    2  N3  UNL     1       9.363  52.604  86.405  1.00  0.00    -0.351 N 
ATOM      3  H3  UNL     1       9.295  52.464  85.398  1.00  0.00     0.166 HD
HETATM    4  C6  UNL     1       8.275  53.009  87.069  1.00  0.00     0.097 A 
HETATM    5  C7  UNL     1       8.286  53.221  88.424  1.00  0.00    -0.038 A 
HETATM    6  C12 UNL     1       9.461  52.999  89.084  1.00  0.00     0.020 A 
HETATM    7  C13 UNL     1      10.602  52.571  88.377  1.00  0.00    -0.008 A 
ENDROOT
BRANCH   7   8
HETATM    8  C14 UNL     1      11.765  52.240  89.241  1.00  0.00     0.101 C 
BRANCH   8   9
HETATM    9  C15 UNL     1      12.550  53.417  89.703  1.00  0.00     0.037 A 
HETATM   10  N4  UNL     1      13.025  54.254  88.732  1.00  0.00    -0.301 N 
HETATM   11  N5  UNL     1      13.721  55.332  88.920  1.00  0.00    -0.266 N 
ATOM     12  H4  UNL     1      12.810  54.008  87.766  1.00  0.00     0.186 HD
HETATM   13  C16 UNL     1      14.026  55.700  90.153  1.00  0.00     0.266 A 
ATOM     14  H5  UNL     1      14.029  55.890  88.124  1.00  0.00     0.190 HD
HETATM   15  O1  UNL     1      14.703  56.749  90.351  1.00  0.00    -0.266 OA
HETATM   16  C17 UNL     1      13.605  54.942  91.207  1.00  0.00     0.019 A 
HETATM   17  C18 UNL     1      12.857  53.783  90.975  1.00  0.00    -0.022 A 
HETATM   18  C21 UNL     1      13.752  55.095  92.668  1.00  0.00     0.045 C 
HETATM   19  C19 UNL     1      12.546  53.132  92.268  1.00  0.00     0.042 C 
HETATM   20  C20 UNL     1      13.394  53.785  93.307  1.00  0.00     0.009 C 
ENDBRANCH   8   9
ENDBRANCH   7   8
BRANCH   1  21
HETATM   21  N2  UNL     1      11.674  52.028  86.200  1.00  0.00    -0.367 N 
HETATM   22  C4  UNL     1      12.477  52.866  85.375  1.00  0.00     0.126 C 
HETATM   23  C3  UNL     1      13.076  52.005  84.246  1.00  0.00     0.053 C 
HETATM   24  C2  UNL     1      12.133  51.052  83.629  1.00  0.00     0.188 C 
HETATM   25  C23 UNL     1      11.470  50.206  84.688  1.00  0.00     0.053 C 
HETATM   26  C22 UNL     1      12.018  50.599  86.073  1.00  0.00     0.126 C 
BRANCH  24  27
HETATM   27  N1  UNL     1      11.145  51.812  82.850  1.00  0.00    -0.075 N 
HETATM   28  C1  UNL     1       9.821  51.267  83.030  1.00  0.00     0.267 C 
ATOM     29  H12 UNL     1      11.401  51.864  81.865  1.00  0.00     0.277 HD
ATOM     30  H11 UNL     1      11.177  52.808  83.070  1.00  0.00     0.277 HD
ENDBRANCH  24  27
ENDBRANCH   1  21
BRANCH   5  31
HETATM   31  C8  UNL     1       7.094  53.659  89.170  1.00  0.00     0.020 A 
HETATM   32  C9  UNL     1       6.181  54.629  88.449  1.00  0.00     0.009 A 
HETATM   33  C10 UNL     1       6.527  55.683  89.455  1.00  0.00     0.001 A 
HETATM   34  C11 UNL     1       7.411  54.733  90.226  1.00  0.00     0.009 A 
ENDBRANCH   5  31
TORSDOF 5
ENDMDL
MODEL 5
REMARK VINA RESULT: -7.000630574      4.435      7.830
REMARK  5 active torsions:
REMARK  status: ('A' for Active; 'I' for Inactive)
REMARK    1  A    between atoms: N1_2  and  C2_5 
REMARK    2  A    between atoms: N2_8  and  C5_9 
REMARK    3  A    between atoms: C7_13  and  C8_14 
REMARK    4  A    between atoms: C13_19  and  C14_20 
REMARK    5  A    between atoms: C14_20  and  C15_21 
ROOT
HETATM    1  C5  UNL     1      12.233  52.476  88.796  1.00  0.00     0.109 A 
HETATM    2  N3  UNL     1      12.200  51.545  89.828  1.00  0.00    -0.351 N 
ATOM      3  H3  UNL     1      12.385  51.863  90.778  1.00  0.00     0.166 HD
HETATM    4  C6  UNL     1      11.935  50.251  89.625  1.00  0.00     0.097 A 
HETATM    5  C7  UNL     1      11.678  49.746  88.376  1.00  0.00    -0.038 A 
HETATM    6  C12 UNL     1      11.697  50.623  87.329  1.00  0.00     0.020 A 
HETATM    7  C13 UNL     1      11.975  51.987  87.552  1.00  0.00    -0.008 A 
ENDROOT
BRANCH   7   8
HETATM    8  C14 UNL     1      11.827  52.843  86.346  1.00  0.00     0.101 C 
BRANCH   8   9
HETATM    9  C15 UNL     1      12.854  52.614  85.293  1.00  0.00     0.037 A 
HETATM   10  N4  UNL     1      13.949  53.432  85.319  1.00  0.00    -0.301 N 
HETATM   11  N5  UNL     1      14.955  53.396  84.502  1.00  0.00    -0.266 N 
ATOM     12  H4  UNL     1      13.978  54.140  86.053  1.00  0.00     0.186 HD
HETATM   13  C16 UNL     1      14.970  52.497  83.532  1.00  0.00     0.266 A 
ATOM     14  H5  UNL     1      15.727  54.054  84.606  1.00  0.00     0.190 HD
HETATM   15  O1  UNL     1      15.945  52.449  82.729  1.00  0.00    -0.266 OA
HETATM   16  C17 UNL     1      13.930  51.623  83.406  1.00  0.00     0.019 A 
HETATM   17  C18 UNL     1      12.856  51.686  84.301  1.00  0.00    -0.022 A 
HETATM   18  C21 UNL     1      13.668  50.510  82.471  1.00  0.00     0.045 C 
HETATM   19  C19 UNL     1      11.855  50.657  83.941  1.00  0.00     0.042 C 
HETATM   20  C20 UNL     1      12.219  50.140  82.590  1.00  0.00     0.009 C 
ENDBRANCH   8   9
ENDBRANCH   7   8
BRANCH   1  21
HETATM   21  N2  UNL     1      12.611  53.796  89.134  1.00  0.00    -0.367 N 
HETATM   22  C4  UNL     1      13.846  54.469  88.912  1.00  0.00     0.126 C 
HETATM   23  C3  UNL     1      13.987  55.586  89.962  1.00  0.00     0.053 C 
HETATM   24  C2  UNL     1      13.598  55.199  91.333  1.00  0.00     0.188 C 
HETATM   25  C23 UNL     1      12.215  54.595  91.337  1.00  0.00     0.053 C 
HETATM   26  C22 UNL     1      11.648  54.606  89.905  1.00  0.00     0.126 C 
BRANCH  24  27
HETATM   27  N1  UNL     1      14.599  54.256  91.852  1.00  0.00    -0.075 N 
HETATM   28  C1  UNL     1      13.984  53.285  92.724  1.00  0.00     0.267 C 
ATOM     29  H12 UNL     1      15.371  54.740  92.310  1.00  0.00     0.277 HD
ATOM     30  H11 UNL     1      15.122  53.809  91.099  1.00  0.00     0.277 HD
ENDBRANCH  24  27
ENDBRANCH   1  21
BRANCH   5  31
HETATM   31  C8  UNL     1      11.377  48.324  88.139  1.00  0.00     0.020 A 
HETATM   32  C9  UNL     1      12.495  47.351  88.452  1.00  0.00     0.009 A 
HETATM   33  C10 UNL     1      12.590  47.011  86.997  1.00  0.00     0.001 A 
HETATM   34  C11 UNL     1      11.451  47.938  86.651  1.00  0.00     0.009 A 
ENDBRANCH   5  31
TORSDOF 5
ENDMDL
