MODEL 1
REMARK VINA RESULT: -6.682578742      0.000      0.000
REMARK  7 active torsions:
REMARK  status: ('A' for Active; 'I' for Inactive)
REMARK    1  A    between atoms: C5_9  and  O1_10 
REMARK    2  A    between atoms: C6_12  and  O2_13 
REMARK    3  A    between atoms: C7_15  and  N3_16 
REMARK       I    between atoms: N4_27  and  C17_28 
REMARK    4  A    between atoms: C17_28  and  C18_30 
REMARK    5  A    between atoms: C18_30  and  C19_31 
REMARK    6  A    between atoms: C19_31  and  C20_32 
REMARK    7  A    between atoms: C20_32  and  N5_33 
ROOT
HETATM    1  C1  UNL     1      14.749  55.613  89.877  1.00  0.00     0.147 C 
HETATM    2  N1  UNL     1      13.763  55.063  90.702  1.00  0.00    -0.379 N 
ATOM      3  H1  UNL     1      13.829  55.343  91.681  1.00  0.00     0.160 HD
HETATM    4  C2  UNL     1      12.811  54.287  90.452  1.00  0.00     0.133 C 
HETATM    5  C3  UNL     1      12.484  53.732  89.128  1.00  0.00     0.084 A 
HETATM    6  N2  UNL     1      13.060  53.884  87.943  1.00  0.00    -0.350 N 
ATOM      7  H2  UNL     1      13.881  54.454  87.740  1.00  0.00     0.166 HD
HETATM    8  C4  UNL     1      12.354  53.138  87.042  1.00  0.00     0.080 A 
HETATM    9  C5  UNL     1      12.550  52.963  85.683  1.00  0.00     0.129 A 
HETATM   10  C6  UNL     1      11.725  52.159  84.926  1.00  0.00     0.128 A 
HETATM   11  C7  UNL     1      10.681  51.526  85.570  1.00  0.00     0.067 A 
HETATM   12  C12 UNL     1      10.488  51.706  86.934  1.00  0.00     0.046 A 
HETATM   13  C13 UNL     1      11.318  52.511  87.683  1.00  0.00     0.004 A 
HETATM   14  C14 UNL     1      11.406  52.890  89.006  1.00  0.00    -0.013 A 
HETATM   15  C15 UNL     1      10.505  52.476  90.106  1.00  0.00     0.062 C 
HETATM   16  C16 UNL     1      10.579  53.425  91.277  1.00  0.00     0.138 C 
HETATM   17  N4  UNL     1      11.923  53.868  91.528  1.00  0.00    -0.302 N 
HETATM   18  C17 UNL     1      12.436  53.915  92.845  1.00  0.00     0.225 C 
HETATM   19  O4  UNL     1      13.614  54.312  93.027  1.00  0.00    -0.273 OA
ENDROOT
BRANCH  18  20
HETATM   20  C18 UNL     1      11.625  53.508  94.029  1.00  0.00     0.105 C 
BRANCH  20  21
HETATM   21  C19 UNL     1      11.833  54.468  95.170  1.00  0.00     0.029 C 
BRANCH  21  22
HETATM   22  C20 UNL     1      11.314  55.839  94.878  1.00  0.00     0.117 C 
BRANCH  22  23
HETATM   23  N5  UNL     1      11.024  56.567  96.073  1.00  0.00    -0.408 N 
HETATM   24  C21 UNL     1      10.003  57.553  95.967  1.00  0.00     0.143 C 
HETATM   25  C22 UNL     1       8.714  57.214  96.653  1.00  0.00     0.187 C 
HETATM   26  O5  UNL     1       8.852  56.504  97.817  1.00  0.00    -0.388 OA
HETATM   27  C23 UNL     1      10.140  56.439  98.294  1.00  0.00     0.187 C 
HETATM   28  C24 UNL     1      11.027  55.796  97.273  1.00  0.00     0.143 C 
ENDBRANCH  22  23
ENDBRANCH  21  22
ENDBRANCH  20  21
ENDBRANCH  18  20
BRANCH   9  29
HETATM   29  O1  UNL     1      13.610  53.613  85.062  1.00  0.00    -0.356 OA
ATOM     30  H1  UNL     1      13.901  53.314  84.208  1.00  0.00     0.218 HD
ENDBRANCH   9  29
BRANCH  10  31
HETATM   31  O2  UNL     1      11.958  52.010  83.566  1.00  0.00    -0.356 OA
ATOM     32  H2  UNL     1      11.909  51.148  83.167  1.00  0.00     0.218 HD
ENDBRANCH  10  31
BRANCH  11  33
HETATM   33  N3  UNL     1       9.814  50.697  84.818  1.00  0.00    -0.374 N 
HETATM   34  C8  UNL     1       8.573  51.262  84.283  1.00  0.00     0.149 C 
HETATM   35  C9  UNL     1       7.740  50.080  83.820  1.00  0.00     0.187 C 
HETATM   36  O3  UNL     1       8.392  49.433  82.789  1.00  0.00    -0.388 OA
HETATM   37  C10 UNL     1       9.611  48.910  83.144  1.00  0.00     0.187 C 
HETATM   38  C11 UNL     1      10.065  49.299  84.530  1.00  0.00     0.149 C 
ENDBRANCH  11  33
TORSDOF 7
ENDMDL
MODEL 2
REMARK VINA RESULT: -6.577816926      3.031     10.422
REMARK  7 active torsions:
REMARK  status: ('A' for Active; 'I' for Inactive)
REMARK    1  A    between atoms: C5_9  and  O1_10 
REMARK    2  A    between atoms: C6_12  and  O2_13 
REMARK    3  A    between atoms: C7_15  and  N3_16 
REMARK       I    between atoms: N4_27  and  C17_28 
REMARK    4  A    between atoms: C17_28  and  C18_30 
REMARK    5  A    between atoms: C18_30  and  C19_31 
REMARK    6  A    between atoms: C19_31  and  C20_32 
REMARK    7  A    between atoms: C20_32  and  N5_33 
ROOT
HETATM    1  C1  UNL     1      15.036  55.217  89.583  1.00  0.00     0.147 C 
HETATM    2  N1  UNL     1      14.205  54.441  88.768  1.00  0.00    -0.379 N 
ATOM      3  H1  UNL     1      14.536  54.337  87.809  1.00  0.00     0.160 HD
HETATM    4  C2  UNL     1      13.126  53.852  89.008  1.00  0.00     0.133 C 
HETATM    5  C3  UNL     1      12.428  53.836  90.304  1.00  0.00     0.084 A 
HETATM    6  N2  UNL     1      12.723  54.396  91.469  1.00  0.00    -0.350 N 
ATOM      7  H2  UNL     1      13.542  54.969  91.673  1.00  0.00     0.166 HD
HETATM    8  C4  UNL     1      11.730  54.067  92.348  1.00  0.00     0.080 A 
HETATM    9  C5  UNL     1      11.574  54.404  93.682  1.00  0.00     0.129 A 
HETATM   10  C6  UNL     1      10.491  53.976  94.419  1.00  0.00     0.128 A 
HETATM   11  C7  UNL     1       9.552  53.189  93.781  1.00  0.00     0.067 A 
HETATM   12  C12 UNL     1       9.714  52.854  92.443  1.00  0.00     0.046 A 
HETATM   13  C13 UNL     1      10.800  53.286  91.714  1.00  0.00     0.004 A 
HETATM   14  C14 UNL     1      11.247  53.143  90.417  1.00  0.00    -0.013 A 
HETATM   15  C15 UNL     1      10.587  52.380  89.333  1.00  0.00     0.062 C 
HETATM   16  C16 UNL     1      11.552  52.029  88.227  1.00  0.00     0.138 C 
HETATM   17  N4  UNL     1      12.464  53.104  87.947  1.00  0.00    -0.302 N 
HETATM   18  C17 UNL     1      12.756  53.476  86.614  1.00  0.00     0.225 C 
HETATM   19  O4  UNL     1      13.562  54.417  86.406  1.00  0.00    -0.273 OA
ENDROOT
BRANCH  18  20
HETATM   20  C18 UNL     1      12.139  52.789  85.443  1.00  0.00     0.105 C 
BRANCH  20  21
HETATM   21  C19 UNL     1      13.138  52.644  84.325  1.00  0.00     0.029 C 
BRANCH  21  22
HETATM   22  C20 UNL     1      12.867  51.459  83.455  1.00  0.00     0.117 C 
BRANCH  22  23
HETATM   23  N5  UNL     1      14.020  51.074  82.703  1.00  0.00    -0.408 N 
HETATM   24  C21 UNL     1      13.765  50.400  81.476  1.00  0.00     0.143 C 
HETATM   25  C22 UNL     1      14.047  51.198  80.239  1.00  0.00     0.187 C 
HETATM   26  O5  UNL     1      15.117  52.049  80.335  1.00  0.00    -0.388 OA
HETATM   27  C23 UNL     1      15.903  51.849  81.446  1.00  0.00     0.187 C 
HETATM   28  C24 UNL     1      15.083  52.024  82.685  1.00  0.00     0.143 C 
ENDBRANCH  22  23
ENDBRANCH  21  22
ENDBRANCH  20  21
ENDBRANCH  18  20
BRANCH   9  29
HETATM   29  O1  UNL     1      12.534  55.198  94.297  1.00  0.00    -0.356 OA
ATOM     30  H1  UNL     1      13.197  55.623  93.764  1.00  0.00     0.218 HD
ENDBRANCH   9  29
BRANCH  10  31
HETATM   31  O2  UNL     1      10.372  54.338  95.753  1.00  0.00    -0.356 OA
ATOM     32  H2  UNL     1       9.929  55.145  95.990  1.00  0.00     0.218 HD
ENDBRANCH  10  31
BRANCH  11  33
HETATM   33  N3  UNL     1       8.431  52.731  94.513  1.00  0.00    -0.374 N 
HETATM   34  C8  UNL     1       8.474  51.402  95.127  1.00  0.00     0.149 C 
HETATM   35  C9  UNL     1       7.050  51.088  95.549  1.00  0.00     0.187 C 
HETATM   36  O3  UNL     1       6.646  51.990  96.514  1.00  0.00    -0.388 OA
HETATM   37  C10 UNL     1       6.626  53.293  96.082  1.00  0.00     0.187 C 
HETATM   38  C11 UNL     1       7.214  53.493  94.707  1.00  0.00     0.149 C 
ENDBRANCH  11  33
TORSDOF 7
ENDMDL
MODEL 3
REMARK VINA RESULT: -6.572364963      0.843      1.023
REMARK  7 active torsions:
REMARK  status: ('A' for Active; 'I' for Inactive)
REMARK    1  A    between atoms: C5_9  and  O1_10 
REMARK    2  A    between atoms: C6_12  and  O2_13 
REMARK    3  A    between atoms: C7_15  and  N3_16 
REMARK       I    between atoms: N4_27  and  C17_28 
REMARK    4  A    between atoms: C17_28  and  C18_30 
REMARK    5  A    between atoms: C18_30  and  C19_31 
REMARK    6  A    between atoms: C19_31  and  C20_32 
REMARK    7  A    between atoms: C20_32  and  N5_33 
ROOT
HETATM    1  C1  UNL     1      14.696  55.629  89.836  1.00  0.00     0.147 C 
HETATM    2  N1  UNL     1      13.725  54.987  90.610  1.00  0.00    -0.379 N 
ATOM      3  H1  UNL     1      13.745  55.236  91.599  1.00  0.00     0.160 HD
HETATM    4  C2  UNL     1      12.835  54.161  90.305  1.00  0.00     0.133 C 
HETATM    5  C3  UNL     1      12.584  53.633  88.954  1.00  0.00     0.084 A 
HETATM    6  N2  UNL     1      13.182  53.864  87.793  1.00  0.00    -0.350 N 
ATOM      7  H2  UNL     1      13.969  54.493  87.635  1.00  0.00     0.166 HD
HETATM    8  C4  UNL     1      12.553  53.106  86.847  1.00  0.00     0.080 A 
HETATM    9  C5  UNL     1      12.800  52.992  85.489  1.00  0.00     0.129 A 
HETATM   10  C6  UNL     1      12.052  52.164  84.680  1.00  0.00     0.128 A 
HETATM   11  C7  UNL     1      11.033  51.441  85.270  1.00  0.00     0.067 A 
HETATM   12  C12 UNL     1      10.790  51.560  86.632  1.00  0.00     0.046 A 
HETATM   13  C13 UNL     1      11.543  52.390  87.433  1.00  0.00     0.004 A 
HETATM   14  C14 UNL     1      11.567  52.728  88.770  1.00  0.00    -0.013 A 
HETATM   15  C15 UNL     1      10.664  52.217  89.827  1.00  0.00     0.062 C 
HETATM   16  C16 UNL     1      10.641  53.127  91.031  1.00  0.00     0.138 C 
HETATM   17  N4  UNL     1      11.945  53.647  91.338  1.00  0.00    -0.302 N 
HETATM   18  C17 UNL     1      12.416  53.680  92.672  1.00  0.00     0.225 C 
HETATM   19  O4  UNL     1      13.559  54.147  92.904  1.00  0.00    -0.273 OA
ENDROOT
BRANCH  18  20
HETATM   20  C18 UNL     1      11.600  53.180  93.815  1.00  0.00     0.105 C 
BRANCH  20  21
HETATM   21  C19 UNL     1      12.252  53.531  95.127  1.00  0.00     0.029 C 
BRANCH  21  22
HETATM   22  C20 UNL     1      11.359  54.325  96.025  1.00  0.00     0.117 C 
BRANCH  22  23
HETATM   23  N5  UNL     1      10.877  55.510  95.389  1.00  0.00    -0.408 N 
HETATM   24  C21 UNL     1       9.474  55.733  95.473  1.00  0.00     0.143 C 
HETATM   25  C22 UNL     1       9.059  56.852  96.381  1.00  0.00     0.187 C 
HETATM   26  O5  UNL     1       9.918  57.919  96.408  1.00  0.00    -0.388 OA
HETATM   27  C23 UNL     1      10.875  57.903  95.420  1.00  0.00     0.187 C 
HETATM   28  C24 UNL     1      11.704  56.662  95.537  1.00  0.00     0.143 C 
ENDBRANCH  22  23
ENDBRANCH  21  22
ENDBRANCH  20  21
ENDBRANCH  18  20
BRANCH   9  29
HETATM   29  O1  UNL     1      13.832  53.731  84.923  1.00  0.00    -0.356 OA
ATOM     30  H1  UNL     1      13.980  53.679  83.986  1.00  0.00     0.218 HD
ENDBRANCH   9  29
BRANCH  10  31
HETATM   31  O2  UNL     1      12.333  52.077  83.324  1.00  0.00    -0.356 OA
ATOM     32  H2  UNL     1      12.109  52.796  82.745  1.00  0.00     0.218 HD
ENDBRANCH  10  31
BRANCH  11  33
HETATM   33  N3  UNL     1      10.245  50.585  84.464  1.00  0.00    -0.374 N 
HETATM   34  C8  UNL     1       8.999  51.095  83.887  1.00  0.00     0.149 C 
HETATM   35  C9  UNL     1       8.252  49.882  83.364  1.00  0.00     0.187 C 
HETATM   36  O3  UNL     1       8.981  49.293  82.349  1.00  0.00    -0.388 OA
HETATM   37  C10 UNL     1      10.210  48.828  82.747  1.00  0.00     0.187 C 
HETATM   38  C11 UNL     1      10.583  49.209  84.159  1.00  0.00     0.149 C 
ENDBRANCH  11  33
TORSDOF 7
ENDMDL
MODEL 4
REMARK VINA RESULT: -6.434278283      2.573      3.712
REMARK  7 active torsions:
REMARK  status: ('A' for Active; 'I' for Inactive)
REMARK    1  A    between atoms: C5_9  and  O1_10 
REMARK    2  A    between atoms: C6_12  and  O2_13 
REMARK    3  A    between atoms: C7_15  and  N3_16 
REMARK       I    between atoms: N4_27  and  C17_28 
REMARK    4  A    between atoms: C17_28  and  C18_30 
REMARK    5  A    between atoms: C18_30  and  C19_31 
REMARK    6  A    between atoms: C19_31  and  C20_32 
REMARK    7  A    between atoms: C20_32  and  N5_33 
ROOT
HETATM    1  C1  UNL     1       8.237  54.546  89.052  1.00  0.00     0.147 C 
HETATM    2  N1  UNL     1       9.212  53.692  89.576  1.00  0.00    -0.379 N 
ATOM      3  H1  UNL     1       9.274  53.699  90.594  1.00  0.00     0.160 HD
HETATM    4  C2  UNL     1      10.024  52.919  89.016  1.00  0.00     0.133 C 
HETATM    5  C3  UNL     1      10.148  52.714  87.564  1.00  0.00     0.084 A 
HETATM    6  N2  UNL     1       9.496  53.247  86.540  1.00  0.00    -0.350 N 
ATOM      7  H2  UNL     1       8.745  53.935  86.596  1.00  0.00     0.166 HD
HETATM    8  C4  UNL     1      10.012  52.709  85.395  1.00  0.00     0.080 A 
HETATM    9  C5  UNL     1       9.674  52.938  84.072  1.00  0.00     0.129 A 
HETATM   10  C6  UNL     1      10.316  52.296  83.035  1.00  0.00     0.128 A 
HETATM   11  C7  UNL     1      11.318  51.402  83.357  1.00  0.00     0.067 A 
HETATM   12  C12 UNL     1      11.652  51.175  84.686  1.00  0.00     0.046 A 
HETATM   13  C13 UNL     1      11.006  51.823  85.717  1.00  0.00     0.004 A 
HETATM   14  C14 UNL     1      11.089  51.830  87.093  1.00  0.00    -0.013 A 
HETATM   15  C15 UNL     1      12.016  51.032  87.927  1.00  0.00     0.062 C 
HETATM   16  C16 UNL     1      11.526  50.909  89.349  1.00  0.00     0.138 C 
HETATM   17  N4  UNL     1      10.945  52.134  89.827  1.00  0.00    -0.302 N 
HETATM   18  C17 UNL     1      11.251  52.625  91.117  1.00  0.00     0.225 C 
HETATM   19  O4  UNL     1      10.721  53.697  91.503  1.00  0.00    -0.273 OA
ENDROOT
BRANCH  18  20
HETATM   20  C18 UNL     1      12.183  51.913  92.038  1.00  0.00     0.105 C 
BRANCH  20  21
HETATM   21  C19 UNL     1      13.166  52.878  92.648  1.00  0.00     0.029 C 
BRANCH  21  22
HETATM   22  C20 UNL     1      13.017  53.000  94.131  1.00  0.00     0.117 C 
BRANCH  22  23
HETATM   23  N5  UNL     1      11.903  53.821  94.489  1.00  0.00    -0.408 N 
HETATM   24  C21 UNL     1      11.166  53.402  95.632  1.00  0.00     0.143 C 
HETATM   25  C22 UNL     1      11.338  54.257  96.852  1.00  0.00     0.187 C 
HETATM   26  O5  UNL     1      11.493  55.595  96.598  1.00  0.00    -0.388 OA
HETATM   27  C23 UNL     1      11.215  55.964  95.303  1.00  0.00     0.187 C 
HETATM   28  C24 UNL     1      12.113  55.225  94.361  1.00  0.00     0.143 C 
ENDBRANCH  22  23
ENDBRANCH  21  22
ENDBRANCH  20  21
ENDBRANCH  18  20
BRANCH   9  29
HETATM   29  O1  UNL     1       8.662  53.844  83.778  1.00  0.00    -0.356 OA
ATOM     30  H1  UNL     1       8.144  53.720  82.991  1.00  0.00     0.218 HD
ENDBRANCH   9  29
BRANCH  10  31
HETATM   31  O2  UNL     1       9.948  52.556  81.723  1.00  0.00    -0.356 OA
ATOM     32  H2  UNL     1       9.983  51.863  81.073  1.00  0.00     0.218 HD
ENDBRANCH  10  31
BRANCH  11  33
HETATM   33  N3  UNL     1      11.993  50.724  82.314  1.00  0.00    -0.374 N 
HETATM   34  C8  UNL     1      11.287  49.676  81.572  1.00  0.00     0.149 C 
HETATM   35  C9  UNL     1      12.348  48.946  80.767  1.00  0.00     0.187 C 
HETATM   36  O3  UNL     1      12.909  49.814  79.850  1.00  0.00    -0.388 OA
HETATM   37  C10 UNL     1      13.549  50.886  80.420  1.00  0.00     0.187 C 
HETATM   38  C11 UNL     1      13.359  50.991  81.914  1.00  0.00     0.149 C 
ENDBRANCH  11  33
TORSDOF 7
ENDMDL
MODEL 5
REMARK VINA RESULT: -6.406600020      3.514      5.441
REMARK  7 active torsions:
REMARK  status: ('A' for Active; 'I' for Inactive)
REMARK    1  A    between atoms: C5_9  and  O1_10 
REMARK    2  A    between atoms: C6_12  and  O2_13 
REMARK    3  A    between atoms: C7_15  and  N3_16 
REMARK       I    between atoms: N4_27  and  C17_28 
REMARK    4  A    between atoms: C17_28  and  C18_30 
REMARK    5  A    between atoms: C18_30  and  C19_31 
REMARK    6  A    between atoms: C19_31  and  C20_32 
REMARK    7  A    between atoms: C20_32  and  N5_33 
ROOT
HETATM    1  C1  UNL     1       6.514  54.448  88.001  1.00  0.00     0.147 C 
HETATM    2  N1  UNL     1       7.372  53.628  88.739  1.00  0.00    -0.379 N 
ATOM      3  H1  UNL     1       7.189  53.622  89.742  1.00  0.00     0.160 HD
HETATM    4  C2  UNL     1       8.327  52.898  88.386  1.00  0.00     0.133 C 
HETATM    5  C3  UNL     1       8.804  52.719  87.005  1.00  0.00     0.084 A 
HETATM    6  N2  UNL     1       8.392  53.241  85.857  1.00  0.00    -0.350 N 
ATOM      7  H2  UNL     1       7.620  53.896  85.735  1.00  0.00     0.166 HD
HETATM    8  C4  UNL     1       9.190  52.741  84.867  1.00  0.00     0.080 A 
HETATM    9  C5  UNL     1       9.168  52.976  83.503  1.00  0.00     0.129 A 
HETATM   10  C6  UNL     1      10.066  52.376  82.646  1.00  0.00     0.128 A 
HETATM   11  C7  UNL     1      11.001  51.520  83.195  1.00  0.00     0.067 A 
HETATM   12  C12 UNL     1      11.017  51.287  84.564  1.00  0.00     0.046 A 
HETATM   13  C13 UNL     1      10.116  51.892  85.413  1.00  0.00     0.004 A 
HETATM   14  C14 UNL     1       9.867  51.882  86.769  1.00  0.00    -0.013 A 
HETATM   15  C15 UNL     1      10.602  51.111  87.797  1.00  0.00     0.062 C 
HETATM   16  C16 UNL     1       9.793  50.947  89.060  1.00  0.00     0.138 C 
HETATM   17  N4  UNL     1       9.062  52.139  89.390  1.00  0.00    -0.302 N 
HETATM   18  C17 UNL     1       9.029  52.623  90.719  1.00  0.00     0.225 C 
HETATM   19  O4  UNL     1       8.375  53.666  90.972  1.00  0.00    -0.273 OA
ENDROOT
BRANCH  18  20
HETATM   20  C18 UNL     1       9.744  51.937  91.833  1.00  0.00     0.105 C 
BRANCH  20  21
HETATM   21  C19 UNL     1      10.841  52.812  92.378  1.00  0.00     0.029 C 
BRANCH  21  22
HETATM   22  C20 UNL     1      12.120  52.685  91.614  1.00  0.00     0.117 C 
BRANCH  22  23
HETATM   23  N5  UNL     1      12.398  53.854  90.841  1.00  0.00    -0.408 N 
HETATM   24  C21 UNL     1      13.353  54.752  91.396  1.00  0.00     0.143 C 
HETATM   25  C22 UNL     1      14.679  54.786  90.697  1.00  0.00     0.187 C 
HETATM   26  O5  UNL     1      14.617  54.616  89.339  1.00  0.00    -0.388 OA
HETATM   27  C23 UNL     1      13.349  54.697  88.813  1.00  0.00     0.187 C 
HETATM   28  C24 UNL     1      12.476  53.651  89.432  1.00  0.00     0.143 C 
ENDBRANCH  22  23
ENDBRANCH  21  22
ENDBRANCH  20  21
ENDBRANCH  18  20
BRANCH   9  29
HETATM   29  O1  UNL     1       8.217  53.844  82.979  1.00  0.00    -0.356 OA
ATOM     30  H1  UNL     1       7.742  53.593  82.195  1.00  0.00     0.218 HD
ENDBRANCH   9  29
BRANCH  10  31
HETATM   31  O2  UNL     1      10.011  52.640  81.285  1.00  0.00    -0.356 OA
ATOM     32  H2  UNL     1       9.171  52.697  80.845  1.00  0.00     0.218 HD
ENDBRANCH  10  31
BRANCH  11  33
HETATM   33  N3  UNL     1      11.934  50.886  82.340  1.00  0.00    -0.374 N 
HETATM   34  C8  UNL     1      11.445  49.981  81.297  1.00  0.00     0.149 C 
HETATM   35  C9  UNL     1      12.664  49.238  80.781  1.00  0.00     0.187 C 
HETATM   36  O3  UNL     1      13.536  50.135  80.193  1.00  0.00    -0.388 OA
HETATM   37  C10 UNL     1      14.019  51.086  81.057  1.00  0.00     0.187 C 
HETATM   38  C11 UNL     1      13.369  51.066  82.419  1.00  0.00     0.149 C 
ENDBRANCH  11  33
TORSDOF 7
ENDMDL
