MODEL 1
REMARK VINA RESULT: -8.339229655      0.000      0.000
REMARK  12 active torsions:
REMARK  status: ('A' for Active; 'I' for Inactive)
REMARK    1  A    between atoms: C1_2  and  C2_4 
REMARK    2  A    between atoms: C2_4  and  C3_5 
REMARK    3  A    between atoms: C6_8  and  C7_9 
REMARK    4  A    between atoms: C7_9  and  N2_10 
REMARK    5  A    between atoms: C10_16  and  S1_17 
REMARK    6  A    between atoms: S1_17  and  C11_18 
REMARK    7  A    between atoms: C17_24  and  N4_25 
REMARK    8  A    between atoms: N4_25  and  C18_27 
REMARK    9  A    between atoms: N5_30  and  C21_31 
REMARK   10  A    between atoms: C21_31  and  C22_32 
REMARK   11  A    between atoms: C22_32  and  O2_33 
REMARK   12  A    between atoms: O2_33  and  C23_34 
ROOT
HETATM    1  N2  UNL     1       9.598  52.335  83.702  1.00  0.00    -0.226 N 
ATOM      2  H2  UNL     1       9.177  52.373  82.773  1.00  0.00     0.177 HD
HETATM    3  C8  UNL     1       8.837  52.603  84.686  1.00  0.00     0.679 A 
HETATM    4  N3  UNL     1       7.530  52.915  84.432  1.00  0.00    -0.201 N 
ATOM      5  H3  UNL     1       7.213  52.913  83.462  1.00  0.00     0.183 HD
HETATM    6  C9  UNL     1       6.645  53.224  85.384  1.00  0.00     0.129 A 
HETATM    7  C10 UNL     1       7.010  53.245  86.710  1.00  0.00     0.066 A 
HETATM    8  C17 UNL     1       8.346  52.929  86.990  1.00  0.00     0.136 A 
HETATM    9  N7  UNL     1       9.191  52.626  85.993  1.00  0.00    -0.176 N 
ATOM     10  H7  UNL     1      10.156  52.399  86.233  1.00  0.00     0.186 HD
ENDROOT
BRANCH   1  11
HETATM   11  C7  UNL     1      10.978  51.986  83.766  1.00  0.00     0.143 C 
BRANCH  11  12
HETATM   12  C6  UNL     1      11.344  51.070  82.603  1.00  0.00     0.008 C 
HETATM   13  C5  UNL     1      11.106  51.868  81.350  1.00  0.00     0.007 C 
HETATM   14  C4  UNL     1      10.835  51.046  80.138  1.00  0.00     0.010 C 
HETATM   15  C3  UNL     1      12.107  50.383  79.620  1.00  0.00     0.027 C 
HETATM   16  C32 UNL     1      13.304  51.000  80.251  1.00  0.00    -0.047 A 
HETATM   17  C27 UNL     1      13.599  51.119  81.593  1.00  0.00    -0.051 A 
HETATM   18  C31 UNL     1      14.205  51.503  79.341  1.00  0.00     0.008 A 
HETATM   19  C26 UNL     1      12.776  50.665  82.768  1.00  0.00     0.045 C 
HETATM   20  C28 UNL     1      14.766  51.726  82.002  1.00  0.00     0.007 A 
HETATM   21  C29 UNL     1      15.684  52.238  81.107  1.00  0.00     0.001 A 
HETATM   22  C30 UNL     1      15.355  52.102  79.774  1.00  0.00     0.001 A 
BRANCH  15  23
HETATM   23  C2  UNL     1      11.964  48.915  79.905  1.00  0.00     0.108 C 
BRANCH  23  24
HETATM   24  C1  UNL     1      12.228  48.023  78.779  1.00  0.00     0.231 C 
HETATM   25  N1  UNL     1      11.421  46.831  78.706  1.00  0.00    -0.062 NA
HETATM   26  O1  UNL     1      13.080  48.227  77.911  1.00  0.00    -0.277 OA
ENDBRANCH  23  24
ENDBRANCH  15  23
ENDBRANCH  11  12
ENDBRANCH   1  11
BRANCH   8  27
HETATM   27  N4  UNL     1       8.707  52.953  88.199  1.00  0.00    -0.370 N 
ATOM     28  H4  UNL     1       8.393  52.180  88.785  1.00  0.00     0.161 HD
BRANCH  27  29
HETATM   29  C18 UNL     1       9.511  53.953  88.833  1.00  0.00     0.086 C 
HETATM   30  C19 UNL     1       9.061  54.012  90.286  1.00  0.00     0.055 C 
HETATM   31  C20 UNL     1      10.276  54.358  91.121  1.00  0.00     0.274 C 
HETATM   32  N5  UNL     1      11.207  53.234  91.148  1.00  0.00     0.090 N 
HETATM   33  C24 UNL     1      11.578  52.850  89.805  1.00  0.00     0.274 C 
HETATM   34  C25 UNL     1      10.975  53.700  88.733  1.00  0.00     0.055 C 
BRANCH  32  35
HETATM   35  C21 UNL     1      12.322  53.499  92.019  1.00  0.00     0.299 C 
BRANCH  35  36
HETATM   36  C22 UNL     1      13.628  53.652  91.282  1.00  0.00     0.210 C 
BRANCH  36  37
HETATM   37  O2  UNL     1      13.915  54.939  90.848  1.00  0.00    -0.305 OA
BRANCH  37  38
HETATM   38  C23 UNL     1      14.460  55.232  89.635  1.00  0.00     0.372 C 
HETATM   39  N6  UNL     1      14.789  56.566  89.226  1.00  0.00    -0.032 NA
HETATM   40  O3  UNL     1      14.702  54.337  88.810  1.00  0.00    -0.242 OA
ENDBRANCH  37  38
ENDBRANCH  36  37
ENDBRANCH  35  36
ENDBRANCH  32  35
ENDBRANCH  27  29
ENDBRANCH   8  27
BRANCH   7  41
HETATM   41  S1  UNL     1       5.855  53.651  88.009  1.00  0.00    -0.085 SA
BRANCH  41  42
HETATM   42  C11 UNL     1       5.487  55.390  88.037  1.00  0.00     0.005 A 
HETATM   43  C12 UNL     1       6.389  56.228  88.677  1.00  0.00     0.019 A 
HETATM   44  C13 UNL     1       6.150  57.589  88.723  1.00  0.00     0.001 A 
HETATM   45  C14 UNL     1       5.004  58.059  88.116  1.00  0.00     0.000 A 
HETATM   46  C15 UNL     1       4.110  57.208  87.478  1.00  0.00     0.001 A 
HETATM   47  C16 UNL     1       4.342  55.850  87.430  1.00  0.00     0.019 A 
ENDBRANCH  41  42
ENDBRANCH   7  41
TORSDOF 12
ENDMDL
MODEL 2
REMARK VINA RESULT: -8.234893044      2.043      2.463
REMARK  12 active torsions:
REMARK  status: ('A' for Active; 'I' for Inactive)
REMARK    1  A    between atoms: C1_2  and  C2_4 
REMARK    2  A    between atoms: C2_4  and  C3_5 
REMARK    3  A    between atoms: C6_8  and  C7_9 
REMARK    4  A    between atoms: C7_9  and  N2_10 
REMARK    5  A    between atoms: C10_16  and  S1_17 
REMARK    6  A    between atoms: S1_17  and  C11_18 
REMARK    7  A    between atoms: C17_24  and  N4_25 
REMARK    8  A    between atoms: N4_25  and  C18_27 
REMARK    9  A    between atoms: N5_30  and  C21_31 
REMARK   10  A    between atoms: C21_31  and  C22_32 
REMARK   11  A    between atoms: C22_32  and  O2_33 
REMARK   12  A    between atoms: O2_33  and  C23_34 
ROOT
HETATM    1  N2  UNL     1       9.749  52.290  84.307  1.00  0.00    -0.226 N 
ATOM      2  H2  UNL     1       9.123  51.925  83.589  1.00  0.00     0.177 HD
HETATM    3  C8  UNL     1       9.204  52.774  85.350  1.00  0.00     0.679 A 
HETATM    4  N3  UNL     1       7.839  52.766  85.434  1.00  0.00    -0.201 N 
ATOM      5  H3  UNL     1       7.310  52.365  84.660  1.00  0.00     0.183 HD
HETATM    6  C9  UNL     1       7.159  53.257  86.475  1.00  0.00     0.129 A 
HETATM    7  C10 UNL     1       7.814  53.811  87.550  1.00  0.00     0.066 A 
HETATM    8  C17 UNL     1       9.214  53.828  87.481  1.00  0.00     0.136 A 
HETATM    9  N7  UNL     1       9.843  53.321  86.411  1.00  0.00    -0.176 N 
ATOM     10  H7  UNL     1      10.862  53.350  86.395  1.00  0.00     0.186 HD
ENDROOT
BRANCH   1  11
HETATM   11  C7  UNL     1      11.146  52.207  84.040  1.00  0.00     0.143 C 
BRANCH  11  12
HETATM   12  C6  UNL     1      11.403  51.263  82.869  1.00  0.00     0.008 C 
HETATM   13  C5  UNL     1      11.104  52.052  81.623  1.00  0.00     0.007 C 
HETATM   14  C4  UNL     1      10.725  51.222  80.445  1.00  0.00     0.010 C 
HETATM   15  C3  UNL     1      11.938  50.512  79.852  1.00  0.00     0.027 C 
HETATM   16  C32 UNL     1      13.194  51.100  80.390  1.00  0.00    -0.047 A 
HETATM   17  C27 UNL     1      13.584  51.227  81.706  1.00  0.00    -0.051 A 
HETATM   18  C31 UNL     1      14.044  51.562  79.413  1.00  0.00     0.008 A 
HETATM   19  C26 UNL     1      12.830  50.816  82.943  1.00  0.00     0.045 C 
HETATM   20  C28 UNL     1      14.794  51.803  82.026  1.00  0.00     0.007 A 
HETATM   21  C29 UNL     1      15.664  52.273  81.062  1.00  0.00     0.001 A 
HETATM   22  C30 UNL     1      15.240  52.129  79.756  1.00  0.00     0.001 A 
BRANCH  15  23
HETATM   23  C2  UNL     1      11.770  49.054  80.169  1.00  0.00     0.108 C 
BRANCH  23  24
HETATM   24  C1  UNL     1      12.126  48.128  79.098  1.00  0.00     0.231 C 
HETATM   25  N1  UNL     1      11.813  46.739  79.323  1.00  0.00    -0.062 NA
HETATM   26  O1  UNL     1      12.665  48.458  78.039  1.00  0.00    -0.277 OA
ENDBRANCH  23  24
ENDBRANCH  15  23
ENDBRANCH  11  12
ENDBRANCH   1  11
BRANCH   8  27
HETATM   27  N4  UNL     1       9.836  54.343  88.451  1.00  0.00    -0.370 N 
ATOM     28  H4  UNL     1       9.656  55.329  88.638  1.00  0.00     0.161 HD
BRANCH  27  29
HETATM   29  C18 UNL     1      10.767  53.686  89.317  1.00  0.00     0.086 C 
HETATM   30  C19 UNL     1      11.835  54.714  89.662  1.00  0.00     0.055 C 
HETATM   31  C20 UNL     1      12.307  54.420  91.070  1.00  0.00     0.274 C 
HETATM   32  N5  UNL     1      11.261  54.751  92.033  1.00  0.00     0.090 N 
HETATM   33  C24 UNL     1      10.042  54.040  91.722  1.00  0.00     0.274 C 
HETATM   34  C25 UNL     1      10.148  53.121  90.548  1.00  0.00     0.055 C 
BRANCH  32  35
HETATM   35  C21 UNL     1      11.720  54.578  93.386  1.00  0.00     0.299 C 
BRANCH  35  36
HETATM   36  C22 UNL     1      11.107  55.559  94.353  1.00  0.00     0.210 C 
BRANCH  36  37
HETATM   37  O2  UNL     1      11.697  56.815  94.375  1.00  0.00    -0.305 OA
BRANCH  37  38
HETATM   38  C23 UNL     1      11.046  57.958  94.726  1.00  0.00     0.372 C 
HETATM   39  N6  UNL     1      11.672  59.247  94.727  1.00  0.00    -0.032 NA
HETATM   40  O3  UNL     1       9.854  57.934  95.069  1.00  0.00    -0.242 OA
ENDBRANCH  37  38
ENDBRANCH  36  37
ENDBRANCH  35  36
ENDBRANCH  32  35
ENDBRANCH  27  29
ENDBRANCH   8  27
BRANCH   7  41
HETATM   41  S1  UNL     1       6.940  54.473  88.959  1.00  0.00    -0.085 SA
BRANCH  41  42
HETATM   42  C11 UNL     1       6.120  55.999  88.560  1.00  0.00     0.005 A 
HETATM   43  C12 UNL     1       6.834  57.177  88.726  1.00  0.00     0.019 A 
HETATM   44  C13 UNL     1       6.241  58.389  88.426  1.00  0.00     0.001 A 
HETATM   45  C14 UNL     1       4.942  58.370  87.965  1.00  0.00     0.000 A 
HETATM   46  C15 UNL     1       4.238  57.183  87.803  1.00  0.00     0.001 A 
HETATM   47  C16 UNL     1       4.823  55.971  88.101  1.00  0.00     0.019 A 
ENDBRANCH  41  42
ENDBRANCH   7  41
TORSDOF 12
ENDMDL
MODEL 3
REMARK VINA RESULT: -8.207641284      3.217      9.519
REMARK  12 active torsions:
REMARK  status: ('A' for Active; 'I' for Inactive)
REMARK    1  A    between atoms: C1_2  and  C2_4 
REMARK    2  A    between atoms: C2_4  and  C3_5 
REMARK    3  A    between atoms: C6_8  and  C7_9 
REMARK    4  A    between atoms: C7_9  and  N2_10 
REMARK    5  A    between atoms: C10_16  and  S1_17 
REMARK    6  A    between atoms: S1_17  and  C11_18 
REMARK    7  A    between atoms: C17_24  and  N4_25 
REMARK    8  A    between atoms: N4_25  and  C18_27 
REMARK    9  A    between atoms: N5_30  and  C21_31 
REMARK   10  A    between atoms: C21_31  and  C22_32 
REMARK   11  A    between atoms: C22_32  and  O2_33 
REMARK   12  A    between atoms: O2_33  and  C23_34 
ROOT
HETATM    1  N2  UNL     1      11.501  49.877  89.383  1.00  0.00    -0.226 N 
ATOM      2  H2  UNL     1      11.895  48.957  89.585  1.00  0.00     0.177 HD
HETATM    3  C8  UNL     1      11.382  50.192  88.156  1.00  0.00     0.679 A 
HETATM    4  N3  UNL     1      11.780  49.287  87.210  1.00  0.00    -0.201 N 
ATOM      5  H3  UNL     1      12.150  48.390  87.526  1.00  0.00     0.183 HD
HETATM    6  C9  UNL     1      11.712  49.514  85.895  1.00  0.00     0.129 A 
HETATM    7  C10 UNL     1      11.223  50.702  85.406  1.00  0.00     0.066 A 
HETATM    8  C17 UNL     1      10.811  51.642  86.361  1.00  0.00     0.136 A 
HETATM    9  N7  UNL     1      10.902  51.360  87.669  1.00  0.00    -0.176 N 
ATOM     10  H7  UNL     1      10.592  52.067  88.335  1.00  0.00     0.186 HD
ENDROOT
BRANCH   1  11
HETATM   11  C7  UNL     1      11.141  50.679  90.504  1.00  0.00     0.143 C 
BRANCH  11  12
HETATM   12  C6  UNL     1      12.069  51.885  90.608  1.00  0.00     0.008 C 
HETATM   13  C5  UNL     1      11.177  53.096  90.657  1.00  0.00     0.007 C 
HETATM   14  C4  UNL     1      11.820  54.354  90.183  1.00  0.00     0.010 C 
HETATM   15  C3  UNL     1      12.811  54.892  91.210  1.00  0.00     0.027 C 
HETATM   16  C32 UNL     1      12.617  54.214  92.520  1.00  0.00    -0.047 A 
HETATM   17  C27 UNL     1      12.657  52.865  92.800  1.00  0.00    -0.051 A 
HETATM   18  C31 UNL     1      12.368  55.086  93.555  1.00  0.00     0.008 A 
HETATM   19  C26 UNL     1      12.896  51.725  91.846  1.00  0.00     0.045 C 
HETATM   20  C28 UNL     1      12.453  52.410  94.084  1.00  0.00     0.007 A 
HETATM   21  C29 UNL     1      12.201  53.266  95.138  1.00  0.00     0.001 A 
HETATM   22  C30 UNL     1      12.167  54.608  94.820  1.00  0.00     0.001 A 
BRANCH  15  23
HETATM   23  C2  UNL     1      14.178  54.688  90.622  1.00  0.00     0.108 C 
BRANCH  23  24
HETATM   24  C1  UNL     1      14.366  55.195  89.266  1.00  0.00     0.231 C 
HETATM   25  N1  UNL     1      14.830  56.555  89.149  1.00  0.00    -0.062 NA
HETATM   26  O1  UNL     1      14.156  54.542  88.241  1.00  0.00    -0.277 OA
ENDBRANCH  23  24
ENDBRANCH  15  23
ENDBRANCH  11  12
ENDBRANCH   1  11
BRANCH   8  27
HETATM   27  N4  UNL     1      10.369  52.745  85.935  1.00  0.00    -0.370 N 
ATOM     28  H4  UNL     1      11.041  53.360  85.475  1.00  0.00     0.161 HD
BRANCH  27  29
HETATM   29  C18 UNL     1       9.024  53.224  86.031  1.00  0.00     0.086 C 
HETATM   30  C19 UNL     1       8.121  52.006  85.897  1.00  0.00     0.055 C 
HETATM   31  C20 UNL     1       6.895  52.257  86.749  1.00  0.00     0.274 C 
HETATM   32  N5  UNL     1       7.244  52.207  88.165  1.00  0.00     0.090 N 
HETATM   33  C24 UNL     1       8.298  53.151  88.460  1.00  0.00     0.274 C 
HETATM   34  C25 UNL     1       8.738  53.969  87.289  1.00  0.00     0.055 C 
BRANCH  32  35
HETATM   35  C21 UNL     1       6.077  52.341  88.997  1.00  0.00     0.299 C 
BRANCH  35  36
HETATM   36  C22 UNL     1       6.189  53.458  90.003  1.00  0.00     0.210 C 
BRANCH  36  37
HETATM   37  O2  UNL     1       5.386  54.562  89.752  1.00  0.00    -0.305 OA
BRANCH  37  38
HETATM   38  C23 UNL     1       5.695  55.544  88.860  1.00  0.00     0.372 C 
HETATM   39  N6  UNL     1       5.127  55.614  87.546  1.00  0.00    -0.032 NA
HETATM   40  O3  UNL     1       6.499  56.442  89.152  1.00  0.00    -0.242 OA
ENDBRANCH  37  38
ENDBRANCH  36  37
ENDBRANCH  35  36
ENDBRANCH  32  35
ENDBRANCH  27  29
ENDBRANCH   8  27
BRANCH   7  41
HETATM   41  S1  UNL     1      11.114  51.039  83.657  1.00  0.00    -0.085 SA
BRANCH  41  42
HETATM   42  C11 UNL     1      12.645  51.680  83.019  1.00  0.00     0.005 A 
HETATM   43  C12 UNL     1      13.139  52.848  83.583  1.00  0.00     0.019 A 
HETATM   44  C13 UNL     1      14.329  53.383  83.123  1.00  0.00     0.001 A 
HETATM   45  C14 UNL     1      14.981  52.718  82.108  1.00  0.00     0.000 A 
HETATM   46  C15 UNL     1      14.475  51.549  81.552  1.00  0.00     0.001 A 
HETATM   47  C16 UNL     1      13.289  51.010  82.004  1.00  0.00     0.019 A 
ENDBRANCH  41  42
ENDBRANCH   7  41
TORSDOF 12
ENDMDL
MODEL 4
REMARK VINA RESULT: -8.200516283      4.481     10.893
REMARK  12 active torsions:
REMARK  status: ('A' for Active; 'I' for Inactive)
REMARK    1  A    between atoms: C1_2  and  C2_4 
REMARK    2  A    between atoms: C2_4  and  C3_5 
REMARK    3  A    between atoms: C6_8  and  C7_9 
REMARK    4  A    between atoms: C7_9  and  N2_10 
REMARK    5  A    between atoms: C10_16  and  S1_17 
REMARK    6  A    between atoms: S1_17  and  C11_18 
REMARK    7  A    between atoms: C17_24  and  N4_25 
REMARK    8  A    between atoms: N4_25  and  C18_27 
REMARK    9  A    between atoms: N5_30  and  C21_31 
REMARK   10  A    between atoms: C21_31  and  C22_32 
REMARK   11  A    between atoms: C22_32  and  O2_33 
REMARK   12  A    between atoms: O2_33  and  C23_34 
ROOT
HETATM    1  N2  UNL     1      12.349  53.675  89.708  1.00  0.00    -0.226 N 
ATOM      2  H2  UNL     1      13.127  54.312  89.876  1.00  0.00     0.177 HD
HETATM    3  C8  UNL     1      12.077  53.411  88.493  1.00  0.00     0.679 A 
HETATM    4  N3  UNL     1      12.838  53.989  87.515  1.00  0.00    -0.201 N 
ATOM      5  H3  UNL     1      13.602  54.604  87.799  1.00  0.00     0.183 HD
HETATM    6  C9  UNL     1      12.638  53.794  86.209  1.00  0.00     0.129 A 
HETATM    7  C10 UNL     1      11.625  52.977  85.763  1.00  0.00     0.066 A 
HETATM    8  C17 UNL     1      10.833  52.376  86.751  1.00  0.00     0.136 A 
HETATM    9  N7  UNL     1      11.081  52.608  88.048  1.00  0.00    -0.176 N 
ATOM     10  H7  UNL     1      10.485  52.154  88.740  1.00  0.00     0.186 HD
ENDROOT
BRANCH   1  11
HETATM   11  C7  UNL     1      11.675  53.170  90.858  1.00  0.00     0.143 C 
BRANCH  11  12
HETATM   12  C6  UNL     1      11.672  54.216  91.968  1.00  0.00     0.008 C 
HETATM   13  C5  UNL     1      10.453  53.935  92.805  1.00  0.00     0.007 C 
HETATM   14  C4  UNL     1       9.934  55.116  93.551  1.00  0.00     0.010 C 
HETATM   15  C3  UNL     1      10.824  55.455  94.742  1.00  0.00     0.027 C 
HETATM   16  C32 UNL     1      11.757  54.332  95.027  1.00  0.00    -0.047 A 
HETATM   17  C27 UNL     1      12.669  53.742  94.179  1.00  0.00    -0.051 A 
HETATM   18  C31 UNL     1      11.660  53.853  96.313  1.00  0.00     0.008 A 
HETATM   19  C26 UNL     1      12.948  54.074  92.738  1.00  0.00     0.045 C 
HETATM   20  C28 UNL     1      13.460  52.701  94.616  1.00  0.00     0.007 A 
HETATM   21  C29 UNL     1      13.380  52.205  95.901  1.00  0.00     0.001 A 
HETATM   22  C30 UNL     1      12.456  52.819  96.721  1.00  0.00     0.001 A 
BRANCH  15  23
HETATM   23  C2  UNL     1      11.517  56.742  94.397  1.00  0.00     0.108 C 
BRANCH  23  24
HETATM   24  C1  UNL     1      10.815  57.963  94.783  1.00  0.00     0.231 C 
HETATM   25  N1  UNL     1      11.583  59.182  94.744  1.00  0.00    -0.062 NA
HETATM   26  O1  UNL     1       9.633  58.008  95.133  1.00  0.00    -0.277 OA
ENDBRANCH  23  24
ENDBRANCH  15  23
ENDBRANCH  11  12
ENDBRANCH   1  11
BRANCH   8  27
HETATM   27  N4  UNL     1       9.890  51.632  86.365  1.00  0.00    -0.370 N 
ATOM     28  H4  UNL     1       9.053  52.098  86.015  1.00  0.00     0.161 HD
BRANCH  27  29
HETATM   29  C18 UNL     1       9.874  50.201  86.365  1.00  0.00     0.086 C 
HETATM   30  C19 UNL     1      11.322  49.752  86.235  1.00  0.00     0.055 C 
HETATM   31  C20 UNL     1      11.464  48.456  87.006  1.00  0.00     0.274 C 
HETATM   32  N5  UNL     1      11.365  48.708  88.440  1.00  0.00     0.090 N 
HETATM   33  C24 UNL     1      10.122  49.378  88.752  1.00  0.00     0.274 C 
HETATM   34  C25 UNL     1       9.234  49.607  87.572  1.00  0.00     0.055 C 
BRANCH  32  35
HETATM   35  C21 UNL     1      11.599  47.509  89.200  1.00  0.00     0.299 C 
BRANCH  35  36
HETATM   36  C22 UNL     1      12.509  47.722  90.383  1.00  0.00     0.210 C 
BRANCH  36  37
HETATM   37  O2  UNL     1      13.187  48.934  90.395  1.00  0.00    -0.305 OA
BRANCH  37  38
HETATM   38  C23 UNL     1      13.150  49.818  91.430  1.00  0.00     0.372 C 
HETATM   39  N6  UNL     1      14.239  50.692  91.752  1.00  0.00    -0.032 NA
HETATM   40  O3  UNL     1      12.149  49.909  92.157  1.00  0.00    -0.242 OA
ENDBRANCH  37  38
ENDBRANCH  36  37
ENDBRANCH  35  36
ENDBRANCH  32  35
ENDBRANCH  27  29
ENDBRANCH   8  27
BRANCH   7  41
HETATM   41  S1  UNL     1      11.328  52.690  84.026  1.00  0.00    -0.085 SA
BRANCH  41  42
HETATM   42  C11 UNL     1      12.848  52.460  83.134  1.00  0.00     0.005 A 
HETATM   43  C12 UNL     1      13.890  53.338  83.398  1.00  0.00     0.019 A 
HETATM   44  C13 UNL     1      15.094  53.198  82.732  1.00  0.00     0.001 A 
HETATM   45  C14 UNL     1      15.205  52.170  81.819  1.00  0.00     0.000 A 
HETATM   46  C15 UNL     1      14.154  51.298  81.564  1.00  0.00     0.001 A 
HETATM   47  C16 UNL     1      12.951  51.432  82.224  1.00  0.00     0.019 A 
ENDBRANCH  41  42
ENDBRANCH   7  41
TORSDOF 12
ENDMDL
MODEL 5
REMARK VINA RESULT: -8.123269395      3.907      9.595
REMARK  12 active torsions:
REMARK  status: ('A' for Active; 'I' for Inactive)
REMARK    1  A    between atoms: C1_2  and  C2_4 
REMARK    2  A    between atoms: C2_4  and  C3_5 
REMARK    3  A    between atoms: C6_8  and  C7_9 
REMARK    4  A    between atoms: C7_9  and  N2_10 
REMARK    5  A    between atoms: C10_16  and  S1_17 
REMARK    6  A    between atoms: S1_17  and  C11_18 
REMARK    7  A    between atoms: C17_24  and  N4_25 
REMARK    8  A    between atoms: N4_25  and  C18_27 
REMARK    9  A    between atoms: N5_30  and  C21_31 
REMARK   10  A    between atoms: C21_31  and  C22_32 
REMARK   11  A    between atoms: C22_32  and  O2_33 
REMARK   12  A    between atoms: O2_33  and  C23_34 
ROOT
HETATM    1  N2  UNL     1       9.908  53.173  87.116  1.00  0.00    -0.226 N 
ATOM      2  H2  UNL     1      10.126  54.158  87.268  1.00  0.00     0.177 HD
HETATM    3  C8  UNL     1      10.171  52.699  85.964  1.00  0.00     0.679 A 
HETATM    4  N3  UNL     1      10.723  53.531  85.029  1.00  0.00    -0.201 N 
ATOM      5  H3  UNL     1      10.911  54.498  85.295  1.00  0.00     0.183 HD
HETATM    6  C9  UNL     1      11.031  53.146  83.787  1.00  0.00     0.129 A 
HETATM    7  C10 UNL     1      10.802  51.857  83.368  1.00  0.00     0.066 A 
HETATM    8  C17 UNL     1      10.235  50.990  84.313  1.00  0.00     0.136 A 
HETATM    9  N7  UNL     1       9.948  51.431  85.546  1.00  0.00    -0.176 N 
ATOM     10  H7  UNL     1       9.537  50.773  86.208  1.00  0.00     0.186 HD
ENDROOT
BRANCH   1  11
HETATM   11  C7  UNL     1       9.337  52.467  88.214  1.00  0.00     0.143 C 
BRANCH  11  12
HETATM   12  C6  UNL     1       9.738  53.126  89.529  1.00  0.00     0.008 C 
HETATM   13  C5  UNL     1      10.740  52.205  90.171  1.00  0.00     0.007 C 
HETATM   14  C4  UNL     1      10.826  52.326  91.654  1.00  0.00     0.010 C 
HETATM   15  C3  UNL     1      11.553  53.602  92.066  1.00  0.00     0.027 C 
HETATM   16  C32 UNL     1      12.261  54.192  90.898  1.00  0.00    -0.047 A 
HETATM   17  C27 UNL     1      11.737  54.572  89.681  1.00  0.00    -0.051 A 
HETATM   18  C31 UNL     1      13.611  54.362  91.106  1.00  0.00     0.008 A 
HETATM   19  C26 UNL     1      10.310  54.473  89.213  1.00  0.00     0.045 C 
HETATM   20  C28 UNL     1      12.549  55.107  88.705  1.00  0.00     0.007 A 
HETATM   21  C29 UNL     1      13.905  55.287  88.892  1.00  0.00     0.001 A 
HETATM   22  C30 UNL     1      14.394  54.895  90.121  1.00  0.00     0.001 A 
BRANCH  15  23
HETATM   23  C2  UNL     1      10.512  54.507  92.660  1.00  0.00     0.108 C 
BRANCH  23  24
HETATM   24  C1  UNL     1      10.911  55.221  93.869  1.00  0.00     0.231 C 
HETATM   25  N1  UNL     1      12.158  54.818  94.469  1.00  0.00    -0.062 NA
HETATM   26  O1  UNL     1      10.257  56.127  94.393  1.00  0.00    -0.277 OA
ENDBRANCH  23  24
ENDBRANCH  15  23
ENDBRANCH  11  12
ENDBRANCH   1  11
BRANCH   8  27
HETATM   27  N4  UNL     1      10.006  49.804  83.947  1.00  0.00    -0.370 N 
ATOM     28  H4  UNL     1       9.188  49.658  83.356  1.00  0.00     0.161 HD
BRANCH  27  29
HETATM   29  C18 UNL     1      10.775  48.642  84.276  1.00  0.00     0.086 C 
HETATM   30  C19 UNL     1      12.210  49.112  84.460  1.00  0.00     0.055 C 
HETATM   31  C20 UNL     1      12.840  48.235  85.521  1.00  0.00     0.274 C 
HETATM   32  N5  UNL     1      12.264  48.532  86.829  1.00  0.00     0.090 N 
HETATM   33  C24 UNL     1      10.827  48.379  86.798  1.00  0.00     0.274 C 
HETATM   34  C25 UNL     1      10.286  47.919  85.482  1.00  0.00     0.055 C 
BRANCH  32  35
HETATM   35  C21 UNL     1      12.917  47.784  87.871  1.00  0.00     0.299 C 
BRANCH  35  36
HETATM   36  C22 UNL     1      12.510  48.214  89.258  1.00  0.00     0.210 C 
BRANCH  36  37
HETATM   37  O2  UNL     1      13.301  49.203  89.826  1.00  0.00    -0.305 OA
BRANCH  37  38
HETATM   38  C23 UNL     1      13.216  49.596  91.127  1.00  0.00     0.372 C 
HETATM   39  N6  UNL     1      14.079  50.583  91.706  1.00  0.00    -0.032 NA
HETATM   40  O3  UNL     1      12.368  49.104  91.888  1.00  0.00    -0.242 OA
ENDBRANCH  37  38
ENDBRANCH  36  37
ENDBRANCH  35  36
ENDBRANCH  32  35
ENDBRANCH  27  29
ENDBRANCH   8  27
BRANCH   7  41
HETATM   41  S1  UNL     1      11.202  51.307  81.718  1.00  0.00    -0.085 SA
BRANCH  41  42
HETATM   42  C11 UNL     1      12.919  51.569  81.340  1.00  0.00     0.005 A 
HETATM   43  C12 UNL     1      13.347  51.279  80.052  1.00  0.00     0.019 A 
HETATM   44  C13 UNL     1      14.673  51.471  79.709  1.00  0.00     0.001 A 
HETATM   45  C14 UNL     1      15.523  51.951  80.681  1.00  0.00     0.000 A 
HETATM   46  C15 UNL     1      15.082  52.238  81.967  1.00  0.00     0.001 A 
HETATM   47  C16 UNL     1      13.762  52.049  82.317  1.00  0.00     0.019 A 
ENDBRANCH  41  42
ENDBRANCH   7  41
TORSDOF 12
ENDMDL
