MODEL 1
REMARK VINA RESULT: -9.494811553      0.000      0.000
REMARK  11 active torsions:
REMARK  status: ('A' for Active; 'I' for Inactive)
REMARK    1  A    between atoms: C4_4  and  N1_5 
REMARK    2  A    between atoms: N1_5  and  C5_7 
REMARK    3  A    between atoms: C6_10  and  N3_11 
REMARK    4  A    between atoms: N3_11  and  C7_13 
REMARK    5  A    between atoms: C16_22  and  C17_23 
REMARK    6  A    between atoms: C22_32  and  N6_33 
REMARK    7  A    between atoms: N6_33  and  C23_35 
REMARK    8  A    between atoms: C23_35  and  C24_36 
REMARK    9  A    between atoms: C24_36  and  C25_37 
REMARK   10  A    between atoms: C25_37  and  C26_38 
REMARK   11  A    between atoms: C26_38  and  N7_39 
ROOT
HETATM    1  C5  UNL     1      10.306  53.194  87.905  1.00  0.00     0.713 A 
HETATM    2  N2  UNL     1      10.578  52.736  86.675  1.00  0.00    -0.021 N 
ATOM      3  H2  UNL     1       9.875  52.184  86.184  1.00  0.00     0.203 HD
HETATM    4  C6  UNL     1      11.776  52.990  86.062  1.00  0.00     0.707 A 
HETATM    5  N5  UNL     1      12.657  53.710  86.739  1.00  0.00    -0.022 N 
ATOM      6  H5  UNL     1      13.554  53.909  86.296  1.00  0.00     0.203 HD
HETATM    7  C22 UNL     1      12.436  54.204  87.998  1.00  0.00     0.707 A 
HETATM    8  N9  UNL     1      11.241  53.920  88.544  1.00  0.00    -0.021 N 
ATOM      9  H9  UNL     1      11.034  54.269  89.479  1.00  0.00     0.203 HD
ENDROOT
BRANCH   4  10
HETATM   10  N3  UNL     1      11.916  52.508  84.905  1.00  0.00    -0.219 N 
ATOM     11  H3  UNL     1      11.040  52.304  84.424  1.00  0.00     0.178 HD
BRANCH  10  12
HETATM   12  C7  UNL     1      13.079  52.200  84.155  1.00  0.00     0.114 C 
HETATM   13  C8  UNL     1      13.848  53.462  83.771  1.00  0.00     0.031 C 
HETATM   14  C9  UNL     1      15.104  53.087  83.057  1.00  0.00     0.041 C 
HETATM   15  C10 UNL     1      14.778  52.228  81.898  1.00  0.00    -0.051 A 
HETATM   16  C11 UNL     1      15.653  52.321  80.805  1.00  0.00     0.007 A 
HETATM   17  C15 UNL     1      13.703  51.400  81.888  1.00  0.00    -0.040 A 
HETATM   18  C12 UNL     1      15.438  51.562  79.675  1.00  0.00     0.001 A 
HETATM   19  C13 UNL     1      14.352  50.718  79.649  1.00  0.00     0.001 A 
HETATM   20  C14 UNL     1      13.500  50.642  80.743  1.00  0.00     0.008 A 
HETATM   21  C16 UNL     1      12.783  51.288  83.026  1.00  0.00     0.092 C 
BRANCH  21  22
HETATM   22  C17 UNL     1      11.359  51.261  82.611  1.00  0.00     0.019 A 
HETATM   23  C18 UNL     1      10.810  52.324  81.968  1.00  0.00     0.026 A 
HETATM   24  C19 UNL     1       9.481  52.350  81.559  1.00  0.00     0.003 A 
HETATM   25  C20 UNL     1       8.699  51.245  81.821  1.00  0.00     0.017 A 
HETATM   26  C21 UNL     1       9.270  50.170  82.475  1.00  0.00     0.088 A 
HETATM   27  N4  UNL     1      10.561  50.206  82.846  1.00  0.00    -0.369 N 
ATOM     28  H4  UNL     1      10.951  49.396  83.327  1.00  0.00     0.165 HD
ENDBRANCH  21  22
ENDBRANCH  10  12
ENDBRANCH   4  10
BRANCH   1  29
HETATM   29  N1  UNL     1       9.073  52.944  88.564  1.00  0.00    -0.174 N 
ATOM     30  H1  UNL     1       8.916  52.056  89.040  1.00  0.00     0.186 HD
BRANCH  29  31
HETATM   31  C4  UNL     1       8.152  53.849  88.555  1.00  0.00     0.137 A 
HETATM   32  C3  UNL     1       7.024  53.787  87.729  1.00  0.00     0.076 A 
HETATM   33  C2  UNL     1       6.240  54.899  87.964  1.00  0.00     0.025 A 
HETATM   34  C1  UNL     1       4.942  55.225  87.291  1.00  0.00     0.070 C 
HETATM   35  N11 UNL     1       6.889  55.610  88.908  1.00  0.00    -0.304 N 
HETATM   36  N10 UNL     1       8.020  54.976  89.250  1.00  0.00    -0.285 N 
ATOM     37  H11 UNL     1       6.567  56.494  89.303  1.00  0.00     0.186 HD
ATOM     38  H10 UNL     1       8.686  55.311  89.946  1.00  0.00     0.188 HD
ENDBRANCH  29  31
ENDBRANCH   1  29
BRANCH   7  39
HETATM   39  N6  UNL     1      13.353  54.890  88.574  1.00  0.00    -0.225 N 
ATOM     40  H6  UNL     1      14.238  55.009  88.081  1.00  0.00     0.177 HD
BRANCH  39  41
HETATM   41  C23 UNL     1      13.218  55.500  89.862  1.00  0.00     0.138 C 
BRANCH  41  42
HETATM   42  C24 UNL     1      14.295  54.861  90.749  1.00  0.00     0.022 C 
BRANCH  42  43
HETATM   43  C25 UNL     1      13.602  54.252  91.910  1.00  0.00     0.021 C 
BRANCH  43  44
HETATM   44  C26 UNL     1      12.118  54.339  91.939  1.00  0.00     0.117 C 
BRANCH  44  45
HETATM   45  N7  UNL     1      11.495  54.830  93.106  1.00  0.00    -0.411 N 
HETATM   46  C27 UNL     1      10.494  54.051  93.717  1.00  0.00     0.118 C 
HETATM   47  C28 UNL     1       9.182  54.828  93.911  1.00  0.00     0.050 C 
HETATM   48  C29 UNL     1       9.436  55.691  95.140  1.00  0.00     0.273 C 
HETATM   49  N8  UNL     1      10.444  56.655  94.730  1.00  0.00     0.085 N 
HETATM   50  C30 UNL     1      10.104  57.997  95.087  1.00  0.00     0.309 C 
HETATM   51  C31 UNL     1      11.765  56.236  95.097  1.00  0.00     0.291 C 
HETATM   52  C32 UNL     1      12.420  55.500  93.953  1.00  0.00     0.147 C 
ENDBRANCH  44  45
ENDBRANCH  43  44
ENDBRANCH  42  43
ENDBRANCH  41  42
ENDBRANCH  39  41
ENDBRANCH   7  39
TORSDOF 11
ENDMDL
MODEL 2
REMARK VINA RESULT: -9.302002772      0.887      1.194
REMARK  11 active torsions:
REMARK  status: ('A' for Active; 'I' for Inactive)
REMARK    1  A    between atoms: C4_4  and  N1_5 
REMARK    2  A    between atoms: N1_5  and  C5_7 
REMARK    3  A    between atoms: C6_10  and  N3_11 
REMARK    4  A    between atoms: N3_11  and  C7_13 
REMARK    5  A    between atoms: C16_22  and  C17_23 
REMARK    6  A    between atoms: C22_32  and  N6_33 
REMARK    7  A    between atoms: N6_33  and  C23_35 
REMARK    8  A    between atoms: C23_35  and  C24_36 
REMARK    9  A    between atoms: C24_36  and  C25_37 
REMARK   10  A    between atoms: C25_37  and  C26_38 
REMARK   11  A    between atoms: C26_38  and  N7_39 
ROOT
HETATM    1  C5  UNL     1      10.365  53.173  88.027  1.00  0.00     0.713 A 
HETATM    2  N2  UNL     1      10.608  52.798  86.763  1.00  0.00    -0.021 N 
ATOM      3  H2  UNL     1       9.866  52.347  86.228  1.00  0.00     0.203 HD
HETATM    4  C6  UNL     1      11.826  53.006  86.172  1.00  0.00     0.707 A 
HETATM    5  N5  UNL     1      12.757  53.594  86.907  1.00  0.00    -0.022 N 
ATOM      6  H5  UNL     1      13.671  53.756  86.482  1.00  0.00     0.203 HD
HETATM    7  C22 UNL     1      12.569  53.998  88.202  1.00  0.00     0.707 A 
HETATM    8  N9  UNL     1      11.351  53.766  88.723  1.00  0.00    -0.021 N 
ATOM      9  H9  UNL     1      11.167  54.052  89.684  1.00  0.00     0.203 HD
ENDROOT
BRANCH   4  10
HETATM   10  N3  UNL     1      11.935  52.612  84.979  1.00  0.00    -0.219 N 
ATOM     11  H3  UNL     1      11.048  52.527  84.481  1.00  0.00     0.178 HD
BRANCH  10  12
HETATM   12  C7  UNL     1      13.073  52.266  84.209  1.00  0.00     0.114 C 
HETATM   13  C8  UNL     1      13.863  53.504  83.791  1.00  0.00     0.031 C 
HETATM   14  C9  UNL     1      15.094  53.090  83.055  1.00  0.00     0.041 C 
HETATM   15  C10 UNL     1      14.723  52.223  81.916  1.00  0.00    -0.051 A 
HETATM   16  C11 UNL     1      15.575  52.281  80.803  1.00  0.00     0.007 A 
HETATM   17  C15 UNL     1      13.628  51.421  81.941  1.00  0.00    -0.040 A 
HETATM   18  C12 UNL     1      15.318  51.512  79.688  1.00  0.00     0.001 A 
HETATM   19  C13 UNL     1      14.212  50.693  79.698  1.00  0.00     0.001 A 
HETATM   20  C14 UNL     1      13.383  50.652  80.812  1.00  0.00     0.008 A 
HETATM   21  C16 UNL     1      12.732  51.346  83.100  1.00  0.00     0.092 C 
BRANCH  21  22
HETATM   22  C17 UNL     1      11.299  51.346  82.716  1.00  0.00     0.019 A 
HETATM   23  C18 UNL     1      10.761  52.413  82.070  1.00  0.00     0.026 A 
HETATM   24  C19 UNL     1       9.424  52.465  81.689  1.00  0.00     0.003 A 
HETATM   25  C20 UNL     1       8.622  51.383  81.984  1.00  0.00     0.017 A 
HETATM   26  C21 UNL     1       9.182  50.304  82.641  1.00  0.00     0.088 A 
HETATM   27  N4  UNL     1      10.481  50.314  82.983  1.00  0.00    -0.369 N 
ATOM     28  H4  UNL     1      10.863  49.502  83.468  1.00  0.00     0.165 HD
ENDBRANCH  21  22
ENDBRANCH  10  12
ENDBRANCH   4  10
BRANCH   1  29
HETATM   29  N1  UNL     1       9.112  52.970  88.662  1.00  0.00    -0.174 N 
ATOM     30  H1  UNL     1       8.921  52.095  89.153  1.00  0.00     0.186 HD
BRANCH  29  31
HETATM   31  C4  UNL     1       8.215  53.898  88.615  1.00  0.00     0.137 A 
HETATM   32  C3  UNL     1       7.041  53.792  87.861  1.00  0.00     0.076 A 
HETATM   33  C2  UNL     1       6.302  54.946  88.028  1.00  0.00     0.025 A 
HETATM   34  C1  UNL     1       4.976  55.247  87.398  1.00  0.00     0.070 C 
HETATM   35  N11 UNL     1       7.021  55.723  88.863  1.00  0.00    -0.304 N 
HETATM   36  N10 UNL     1       8.152  55.090  89.203  1.00  0.00    -0.285 N 
ATOM     37  H11 UNL     1       6.745  56.650  89.186  1.00  0.00     0.186 HD
ATOM     38  H10 UNL     1       8.865  55.469  89.827  1.00  0.00     0.188 HD
ENDBRANCH  29  31
ENDBRANCH   1  29
BRANCH   7  39
HETATM   39  N6  UNL     1      13.534  54.558  88.833  1.00  0.00    -0.225 N 
ATOM     40  H6  UNL     1      14.486  54.299  88.574  1.00  0.00     0.177 HD
BRANCH  39  41
HETATM   41  C23 UNL     1      13.365  55.523  89.878  1.00  0.00     0.138 C 
BRANCH  41  42
HETATM   42  C24 UNL     1      14.048  54.930  91.117  1.00  0.00     0.022 C 
BRANCH  42  43
HETATM   43  C25 UNL     1      12.975  54.453  92.024  1.00  0.00     0.021 C 
BRANCH  43  44
HETATM   44  C26 UNL     1      13.258  54.474  93.483  1.00  0.00     0.117 C 
BRANCH  44  45
HETATM   45  N7  UNL     1      12.244  54.914  94.360  1.00  0.00    -0.411 N 
HETATM   46  C27 UNL     1      11.499  56.057  94.011  1.00  0.00     0.118 C 
HETATM   47  C28 UNL     1      11.513  57.126  95.116  1.00  0.00     0.050 C 
HETATM   48  C29 UNL     1      10.500  56.622  96.136  1.00  0.00     0.273 C 
HETATM   49  N8  UNL     1      11.089  55.419  96.701  1.00  0.00     0.085 N 
HETATM   50  C30 UNL     1      11.045  55.400  98.130  1.00  0.00     0.309 C 
HETATM   51  C31 UNL     1      10.607  54.234  96.055  1.00  0.00     0.291 C 
HETATM   52  C32 UNL     1      11.545  53.823  94.945  1.00  0.00     0.147 C 
ENDBRANCH  44  45
ENDBRANCH  43  44
ENDBRANCH  42  43
ENDBRANCH  41  42
ENDBRANCH  39  41
ENDBRANCH   7  39
TORSDOF 11
ENDMDL
MODEL 3
REMARK VINA RESULT: -9.172893329      1.663      2.264
REMARK  11 active torsions:
REMARK  status: ('A' for Active; 'I' for Inactive)
REMARK    1  A    between atoms: C4_4  and  N1_5 
REMARK    2  A    between atoms: N1_5  and  C5_7 
REMARK    3  A    between atoms: C6_10  and  N3_11 
REMARK    4  A    between atoms: N3_11  and  C7_13 
REMARK    5  A    between atoms: C16_22  and  C17_23 
REMARK    6  A    between atoms: C22_32  and  N6_33 
REMARK    7  A    between atoms: N6_33  and  C23_35 
REMARK    8  A    between atoms: C23_35  and  C24_36 
REMARK    9  A    between atoms: C24_36  and  C25_37 
REMARK   10  A    between atoms: C25_37  and  C26_38 
REMARK   11  A    between atoms: C26_38  and  N7_39 
ROOT
HETATM    1  C5  UNL     1      10.730  53.120  87.902  1.00  0.00     0.713 A 
HETATM    2  N2  UNL     1      10.942  52.679  86.653  1.00  0.00    -0.021 N 
ATOM      3  H2  UNL     1      10.249  52.073  86.216  1.00  0.00     0.203 HD
HETATM    4  C6  UNL     1      12.067  53.022  85.951  1.00  0.00     0.707 A 
HETATM    5  N5  UNL     1      12.939  53.811  86.561  1.00  0.00    -0.022 N 
ATOM      6  H5  UNL     1      13.782  54.077  86.052  1.00  0.00     0.203 HD
HETATM    7  C22 UNL     1      12.777  54.291  87.834  1.00  0.00     0.707 A 
HETATM    8  N9  UNL     1      11.652  53.918  88.469  1.00  0.00    -0.021 N 
ATOM      9  H9  UNL     1      11.491  54.254  89.418  1.00  0.00     0.203 HD
ENDROOT
BRANCH   4  10
HETATM   10  N3  UNL     1      12.156  52.549  84.786  1.00  0.00    -0.219 N 
ATOM     11  H3  UNL     1      11.259  52.393  84.325  1.00  0.00     0.178 HD
BRANCH  10  12
HETATM   12  C7  UNL     1      13.284  52.195  84.005  1.00  0.00     0.114 C 
HETATM   13  C8  UNL     1      14.071  53.428  83.566  1.00  0.00     0.031 C 
HETATM   14  C9  UNL     1      15.291  53.005  82.819  1.00  0.00     0.041 C 
HETATM   15  C10 UNL     1      14.904  52.131  81.691  1.00  0.00    -0.051 A 
HETATM   16  C11 UNL     1      15.742  52.178  80.566  1.00  0.00     0.007 A 
HETATM   17  C15 UNL     1      13.809  51.331  81.736  1.00  0.00    -0.040 A 
HETATM   18  C12 UNL     1      15.470  51.400  79.462  1.00  0.00     0.001 A 
HETATM   19  C13 UNL     1      14.363  50.584  79.492  1.00  0.00     0.001 A 
HETATM   20  C14 UNL     1      13.547  50.553  80.616  1.00  0.00     0.008 A 
HETATM   21  C16 UNL     1      12.926  51.266  82.907  1.00  0.00     0.092 C 
BRANCH  21  22
HETATM   22  C17 UNL     1      11.489  51.267  82.541  1.00  0.00     0.019 A 
HETATM   23  C18 UNL     1      10.953  52.313  81.861  1.00  0.00     0.026 A 
HETATM   24  C19 UNL     1       9.612  52.364  81.495  1.00  0.00     0.003 A 
HETATM   25  C20 UNL     1       8.804  51.302  81.842  1.00  0.00     0.017 A 
HETATM   26  C21 UNL     1       9.361  50.244  82.533  1.00  0.00     0.088 A 
HETATM   27  N4  UNL     1      10.665  50.254  82.858  1.00  0.00    -0.369 N 
ATOM     28  H4  UNL     1      11.045  49.458  83.369  1.00  0.00     0.165 HD
ENDBRANCH  21  22
ENDBRANCH  10  12
ENDBRANCH   4  10
BRANCH   1  29
HETATM   29  N1  UNL     1       9.574  52.778  88.651  1.00  0.00    -0.174 N 
ATOM     30  H1  UNL     1       9.529  51.889  89.150  1.00  0.00     0.186 HD
BRANCH  29  31
HETATM   31  C4  UNL     1       8.578  53.600  88.696  1.00  0.00     0.137 A 
HETATM   32  C3  UNL     1       7.503  53.552  87.802  1.00  0.00     0.076 A 
HETATM   33  C2  UNL     1       6.615  54.559  88.122  1.00  0.00     0.025 A 
HETATM   34  C1  UNL     1       5.328  54.862  87.416  1.00  0.00     0.070 C 
HETATM   35  N11 UNL     1       7.150  55.194  89.184  1.00  0.00    -0.304 N 
HETATM   36  N10 UNL     1       8.313  54.615  89.515  1.00  0.00    -0.285 N 
ATOM     37  H11 UNL     1       6.733  55.992  89.663  1.00  0.00     0.186 HD
ATOM     38  H10 UNL     1       8.911  54.912  90.286  1.00  0.00     0.188 HD
ENDBRANCH  29  31
ENDBRANCH   1  29
BRANCH   7  39
HETATM   39  N6  UNL     1      13.679  55.048  88.340  1.00  0.00    -0.225 N 
ATOM     40  H6  UNL     1      14.559  55.142  87.834  1.00  0.00     0.177 HD
BRANCH  39  41
HETATM   41  C23 UNL     1      13.534  55.769  89.569  1.00  0.00     0.138 C 
BRANCH  41  42
HETATM   42  C24 UNL     1      14.440  55.063  90.585  1.00  0.00     0.022 C 
BRANCH  42  43
HETATM   43  C25 UNL     1      13.593  54.691  91.745  1.00  0.00     0.021 C 
BRANCH  43  44
HETATM   44  C26 UNL     1      13.264  53.251  91.913  1.00  0.00     0.117 C 
BRANCH  44  45
HETATM   45  N7  UNL     1      13.270  52.706  93.214  1.00  0.00    -0.411 N 
HETATM   46  C27 UNL     1      12.172  52.961  94.058  1.00  0.00     0.118 C 
HETATM   47  C28 UNL     1      12.596  53.567  95.406  1.00  0.00     0.050 C 
HETATM   48  C29 UNL     1      13.099  52.375  96.210  1.00  0.00     0.273 C 
HETATM   49  N8  UNL     1      14.313  51.943  95.538  1.00  0.00     0.085 N 
HETATM   50  C30 UNL     1      15.405  51.745  96.440  1.00  0.00     0.309 C 
HETATM   51  C31 UNL     1      14.065  50.865  94.627  1.00  0.00     0.291 C 
HETATM   52  C32 UNL     1      13.829  51.399  93.234  1.00  0.00     0.147 C 
ENDBRANCH  44  45
ENDBRANCH  43  44
ENDBRANCH  42  43
ENDBRANCH  41  42
ENDBRANCH  39  41
ENDBRANCH   7  39
TORSDOF 11
ENDMDL
MODEL 4
REMARK VINA RESULT: -9.108747940      1.502      2.754
REMARK  11 active torsions:
REMARK  status: ('A' for Active; 'I' for Inactive)
REMARK    1  A    between atoms: C4_4  and  N1_5 
REMARK    2  A    between atoms: N1_5  and  C5_7 
REMARK    3  A    between atoms: C6_10  and  N3_11 
REMARK    4  A    between atoms: N3_11  and  C7_13 
REMARK    5  A    between atoms: C16_22  and  C17_23 
REMARK    6  A    between atoms: C22_32  and  N6_33 
REMARK    7  A    between atoms: N6_33  and  C23_35 
REMARK    8  A    between atoms: C23_35  and  C24_36 
REMARK    9  A    between atoms: C24_36  and  C25_37 
REMARK   10  A    between atoms: C25_37  and  C26_38 
REMARK   11  A    between atoms: C26_38  and  N7_39 
ROOT
HETATM    1  C5  UNL     1      10.300  53.147  88.017  1.00  0.00     0.713 A 
HETATM    2  N2  UNL     1      10.563  52.801  86.749  1.00  0.00    -0.021 N 
ATOM      3  H2  UNL     1       9.828  52.370  86.189  1.00  0.00     0.203 HD
HETATM    4  C6  UNL     1      11.794  53.011  86.187  1.00  0.00     0.707 A 
HETATM    5  N5  UNL     1      12.716  53.573  86.953  1.00  0.00    -0.022 N 
ATOM      6  H5  UNL     1      13.639  53.738  86.550  1.00  0.00     0.203 HD
HETATM    7  C22 UNL     1      12.506  53.947  88.255  1.00  0.00     0.707 A 
HETATM    8  N9  UNL     1      11.276  53.714  88.746  1.00  0.00    -0.021 N 
ATOM      9  H9  UNL     1      11.076  53.978  89.711  1.00  0.00     0.203 HD
ENDROOT
BRANCH   4  10
HETATM   10  N3  UNL     1      11.922  52.646  84.987  1.00  0.00    -0.219 N 
ATOM     11  H3  UNL     1      11.046  52.586  84.469  1.00  0.00     0.178 HD
BRANCH  10  12
HETATM   12  C7  UNL     1      13.072  52.302  84.233  1.00  0.00     0.114 C 
HETATM   13  C8  UNL     1      13.862  53.542  83.820  1.00  0.00     0.031 C 
HETATM   14  C9  UNL     1      15.104  53.130  83.102  1.00  0.00     0.041 C 
HETATM   15  C10 UNL     1      14.751  52.258  81.961  1.00  0.00    -0.051 A 
HETATM   16  C11 UNL     1      15.617  52.316  80.858  1.00  0.00     0.007 A 
HETATM   17  C15 UNL     1      13.659  51.452  81.974  1.00  0.00    -0.040 A 
HETATM   18  C12 UNL     1      15.377  51.542  79.743  1.00  0.00     0.001 A 
HETATM   19  C13 UNL     1      14.274  50.719  79.741  1.00  0.00     0.001 A 
HETATM   20  C14 UNL     1      13.431  50.678  80.845  1.00  0.00     0.008 A 
HETATM   21  C16 UNL     1      12.748  51.376  83.122  1.00  0.00     0.092 C 
BRANCH  21  22
HETATM   22  C17 UNL     1      11.320  51.370  82.720  1.00  0.00     0.019 A 
HETATM   23  C18 UNL     1      10.788  52.430  82.057  1.00  0.00     0.026 A 
HETATM   24  C19 UNL     1       9.456  52.475  81.659  1.00  0.00     0.003 A 
HETATM   25  C20 UNL     1       8.653  51.394  81.955  1.00  0.00     0.017 A 
HETATM   26  C21 UNL     1       9.207  50.323  82.628  1.00  0.00     0.088 A 
HETATM   27  N4  UNL     1      10.501  50.339  82.987  1.00  0.00    -0.369 N 
ATOM     28  H4  UNL     1      10.879  49.532  83.484  1.00  0.00     0.165 HD
ENDBRANCH  21  22
ENDBRANCH  10  12
ENDBRANCH   4  10
BRANCH   1  29
HETATM   29  N1  UNL     1       9.032  52.939  88.623  1.00  0.00    -0.174 N 
ATOM     30  H1  UNL     1       8.822  52.052  89.082  1.00  0.00     0.186 HD
BRANCH  29  31
HETATM   31  C4  UNL     1       8.148  53.880  88.590  1.00  0.00     0.137 A 
HETATM   32  C3  UNL     1       6.973  53.801  87.835  1.00  0.00     0.076 A 
HETATM   33  C2  UNL     1       6.249  54.962  88.019  1.00  0.00     0.025 A 
HETATM   34  C1  UNL     1       4.927  55.290  87.393  1.00  0.00     0.070 C 
HETATM   35  N11 UNL     1       6.978  55.717  88.865  1.00  0.00    -0.304 N 
HETATM   36  N10 UNL     1       8.101  55.064  89.196  1.00  0.00    -0.285 N 
ATOM     37  H11 UNL     1       6.715  56.643  89.202  1.00  0.00     0.186 HD
ATOM     38  H10 UNL     1       8.819  55.424  89.824  1.00  0.00     0.188 HD
ENDBRANCH  29  31
ENDBRANCH   1  29
BRANCH   7  39
HETATM   39  N6  UNL     1      13.463  54.483  88.917  1.00  0.00    -0.225 N 
ATOM     40  H6  UNL     1      14.417  54.305  88.603  1.00  0.00     0.177 HD
BRANCH  39  41
HETATM   41  C23 UNL     1      13.283  55.315  90.070  1.00  0.00     0.138 C 
BRANCH  41  42
HETATM   42  C24 UNL     1      13.997  54.600  91.225  1.00  0.00     0.022 C 
BRANCH  42  43
HETATM   43  C25 UNL     1      13.246  54.913  92.465  1.00  0.00     0.021 C 
BRANCH  43  44
HETATM   44  C26 UNL     1      12.019  54.118  92.736  1.00  0.00     0.117 C 
BRANCH  44  45
HETATM   45  N7  UNL     1      12.001  52.758  92.359  1.00  0.00    -0.411 N 
HETATM   46  C27 UNL     1      12.703  51.829  93.150  1.00  0.00     0.118 C 
HETATM   47  C28 UNL     1      13.699  50.994  92.328  1.00  0.00     0.050 C 
HETATM   48  C29 UNL     1      12.832  49.946  91.642  1.00  0.00     0.273 C 
HETATM   49  N8  UNL     1      12.013  50.685  90.694  1.00  0.00     0.085 N 
HETATM   50  C30 UNL     1      12.010  50.099  89.390  1.00  0.00     0.309 C 
HETATM   51  C31 UNL     1      10.722  50.995  91.232  1.00  0.00     0.291 C 
HETATM   52  C32 UNL     1      10.728  52.370  91.856  1.00  0.00     0.147 C 
ENDBRANCH  44  45
ENDBRANCH  43  44
ENDBRANCH  42  43
ENDBRANCH  41  42
ENDBRANCH  39  41
ENDBRANCH   7  39
TORSDOF 11
ENDMDL
MODEL 5
REMARK VINA RESULT: -9.092817437      1.551      2.192
REMARK  11 active torsions:
REMARK  status: ('A' for Active; 'I' for Inactive)
REMARK    1  A    between atoms: C4_4  and  N1_5 
REMARK    2  A    between atoms: N1_5  and  C5_7 
REMARK    3  A    between atoms: C6_10  and  N3_11 
REMARK    4  A    between atoms: N3_11  and  C7_13 
REMARK    5  A    between atoms: C16_22  and  C17_23 
REMARK    6  A    between atoms: C22_32  and  N6_33 
REMARK    7  A    between atoms: N6_33  and  C23_35 
REMARK    8  A    between atoms: C23_35  and  C24_36 
REMARK    9  A    between atoms: C24_36  and  C25_37 
REMARK   10  A    between atoms: C25_37  and  C26_38 
REMARK   11  A    between atoms: C26_38  and  N7_39 
ROOT
HETATM    1  C5  UNL     1      10.497  53.152  87.973  1.00  0.00     0.713 A 
HETATM    2  N2  UNL     1      10.742  52.686  86.740  1.00  0.00    -0.021 N 
ATOM      3  H2  UNL     1      10.052  52.084  86.290  1.00  0.00     0.203 HD
HETATM    4  C6  UNL     1      11.894  52.997  86.069  1.00  0.00     0.707 A 
HETATM    5  N5  UNL     1      12.760  53.781  86.694  1.00  0.00    -0.022 N 
ATOM      6  H5  UNL     1      13.624  54.023  86.208  1.00  0.00     0.203 HD
HETATM    7  C22 UNL     1      12.565  54.286  87.952  1.00  0.00     0.707 A 
HETATM    8  N9  UNL     1      11.413  53.944  88.556  1.00  0.00    -0.021 N 
ATOM      9  H9  UNL     1      11.227  54.300  89.493  1.00  0.00     0.203 HD
ENDROOT
BRANCH   4  10
HETATM   10  N3  UNL     1      12.013  52.502  84.916  1.00  0.00    -0.219 N 
ATOM     11  H3  UNL     1      11.127  52.286  84.457  1.00  0.00     0.178 HD
BRANCH  10  12
HETATM   12  C7  UNL     1      13.161  52.190  84.146  1.00  0.00     0.114 C 
HETATM   13  C8  UNL     1      13.929  53.450  83.751  1.00  0.00     0.031 C 
HETATM   14  C9  UNL     1      15.171  53.072  83.015  1.00  0.00     0.041 C 
HETATM   15  C10 UNL     1      14.821  52.218  81.859  1.00  0.00    -0.051 A 
HETATM   16  C11 UNL     1      15.677  52.310  80.751  1.00  0.00     0.007 A 
HETATM   17  C15 UNL     1      13.742  51.395  81.866  1.00  0.00    -0.040 A 
HETATM   18  C12 UNL     1      15.440  51.555  79.623  1.00  0.00     0.001 A 
HETATM   19  C13 UNL     1      14.349  50.716  79.614  1.00  0.00     0.001 A 
HETATM   20  C14 UNL     1      13.516  50.640  80.722  1.00  0.00     0.008 A 
HETATM   21  C16 UNL     1      12.842  51.283  83.019  1.00  0.00     0.092 C 
BRANCH  21  22
HETATM   22  C17 UNL     1      11.411  51.263  82.628  1.00  0.00     0.019 A 
HETATM   23  C18 UNL     1      10.849  52.340  82.020  1.00  0.00     0.026 A 
HETATM   24  C19 UNL     1       9.514  52.373  81.635  1.00  0.00     0.003 A 
HETATM   25  C20 UNL     1       8.737  51.262  81.886  1.00  0.00     0.017 A 
HETATM   26  C21 UNL     1       9.321  50.173  82.504  1.00  0.00     0.088 A 
HETATM   27  N4  UNL     1      10.618  50.202  82.853  1.00  0.00    -0.369 N 
ATOM     28  H4  UNL     1      11.018  49.382  83.309  1.00  0.00     0.165 HD
ENDBRANCH  21  22
ENDBRANCH  10  12
ENDBRANCH   4  10
BRANCH   1  29
HETATM   29  N1  UNL     1       9.310  52.844  88.689  1.00  0.00    -0.174 N 
ATOM     30  H1  UNL     1       8.521  52.408  88.212  1.00  0.00     0.186 HD
BRANCH  29  31
HETATM   31  C4  UNL     1       9.237  53.120  89.949  1.00  0.00     0.137 A 
HETATM   32  C3  UNL     1       9.546  52.199  90.955  1.00  0.00     0.076 A 
HETATM   33  C2  UNL     1       9.369  52.806  92.182  1.00  0.00     0.025 A 
HETATM   34  C1  UNL     1       9.589  52.174  93.523  1.00  0.00     0.070 C 
HETATM   35  N11 UNL     1       8.962  54.062  91.912  1.00  0.00    -0.304 N 
HETATM   36  N10 UNL     1       8.889  54.236  90.585  1.00  0.00    -0.285 N 
ATOM     37  H11 UNL     1       8.744  54.772  92.611  1.00  0.00     0.186 HD
ATOM     38  H10 UNL     1       8.605  55.102  90.127  1.00  0.00     0.188 HD
ENDBRANCH  29  31
ENDBRANCH   1  29
BRANCH   7  39
HETATM   39  N6  UNL     1      13.464  55.036  88.475  1.00  0.00    -0.225 N 
ATOM     40  H6  UNL     1      14.314  55.206  87.936  1.00  0.00     0.177 HD
BRANCH  39  41
HETATM   41  C23 UNL     1      13.355  55.652  89.764  1.00  0.00     0.138 C 
BRANCH  41  42
HETATM   42  C24 UNL     1      14.403  54.967  90.651  1.00  0.00     0.022 C 
BRANCH  42  43
HETATM   43  C25 UNL     1      13.668  54.130  91.630  1.00  0.00     0.021 C 
BRANCH  43  44
HETATM   44  C26 UNL     1      12.440  54.710  92.235  1.00  0.00     0.117 C 
BRANCH  44  45
HETATM   45  N7  UNL     1      12.298  54.672  93.638  1.00  0.00    -0.411 N 
HETATM   46  C27 UNL     1      13.261  53.981  94.396  1.00  0.00     0.118 C 
HETATM   47  C28 UNL     1      12.633  52.924  95.321  1.00  0.00     0.050 C 
HETATM   48  C29 UNL     1      12.100  53.728  96.499  1.00  0.00     0.273 C 
HETATM   49  N8  UNL     1      11.009  54.523  95.959  1.00  0.00     0.085 N 
HETATM   50  C30 UNL     1       9.823  54.449  96.756  1.00  0.00     0.309 C 
HETATM   51  C31 UNL     1      11.434  55.847  95.611  1.00  0.00     0.291 C 
HETATM   52  C32 UNL     1      11.816  55.908  94.151  1.00  0.00     0.147 C 
ENDBRANCH  44  45
ENDBRANCH  43  44
ENDBRANCH  42  43
ENDBRANCH  41  42
ENDBRANCH  39  41
ENDBRANCH   7  39
TORSDOF 11
ENDMDL
