MODEL 1
REMARK VINA RESULT: -6.411621599      0.000      0.000
REMARK  8 active torsions:
REMARK  status: ('A' for Active; 'I' for Inactive)
REMARK    1  A    between atoms: N2_3  and  C2_5 
REMARK    2  A    between atoms: C2_5  and  C3_6 
REMARK    3  A    between atoms: C3_6  and  C4_7 
REMARK    4  A    between atoms: C4_7  and  N3_8 
REMARK    5  A    between atoms: N3_8  and  C5_10 
REMARK    6  A    between atoms: C8_15  and  N5_16 
REMARK    7  A    between atoms: N5_16  and  C9_18 
REMARK    8  A    between atoms: C9_18  and  C10_19 
ROOT
HETATM    1  N1  UNL     1      21.505 -24.019 -20.073  1.00  0.00    -0.172 NA
HETATM    2  C1  UNL     1      20.390 -24.331 -19.977  1.00  0.00     0.177 C 
HETATM    3  N2  UNL     1      19.054 -24.718 -19.882  1.00  0.00    -0.329 N 
ATOM      4  H2  UNL     1      18.676 -25.395 -20.545  1.00  0.00     0.171 HD
ENDROOT
BRANCH   3   5
HETATM    5  C2  UNL     1      18.203 -24.169 -18.856  1.00  0.00     0.133 C 
BRANCH   5   6
HETATM    6  C3  UNL     1      17.620 -22.873 -19.401  1.00  0.00     0.040 C 
BRANCH   6   7
HETATM    7  C4  UNL     1      16.158 -23.032 -19.737  1.00  0.00     0.139 C 
BRANCH   7   8
HETATM    8  N3  UNL     1      15.969 -22.829 -21.139  1.00  0.00    -0.226 N 
ATOM      9  H3  UNL     1      15.655 -21.915 -21.464  1.00  0.00     0.177 HD
BRANCH   8  10
HETATM   10  C5  UNL     1      16.180 -23.759 -22.011  1.00  0.00     0.679 A 
HETATM   11  N4  UNL     1      15.199 -24.677 -22.246  1.00  0.00    -0.202 N 
HETATM   12  C6  UNL     1      15.351 -25.665 -23.132  1.00  0.00     0.110 A 
ATOM     13  H4  UNL     1      14.323 -24.607 -21.729  1.00  0.00     0.183 HD
HETATM   14  C7  UNL     1      16.537 -25.749 -23.823  1.00  0.00     0.066 A 
HETATM   15  C8  UNL     1      17.564 -24.832 -23.614  1.00  0.00     0.118 A 
HETATM   16  N6  UNL     1      17.323 -23.874 -22.705  1.00  0.00    -0.177 N 
ATOM     17  H6  UNL     1      18.058 -23.188 -22.530  1.00  0.00     0.185 HD
BRANCH  15  18
HETATM   18  N5  UNL     1      18.681 -24.893 -24.245  1.00  0.00    -0.372 N 
ATOM     19  H5  UNL     1      19.145 -24.046 -24.575  1.00  0.00     0.161 HD
BRANCH  18  20
HETATM   20  C9  UNL     1      19.258 -26.190 -24.474  1.00  0.00     0.159 C 
BRANCH  20  21
HETATM   21  C10 UNL     1      20.227 -26.599 -23.453  1.00  0.00    -0.041 A 
HETATM   22  C11 UNL     1      19.738 -27.355 -22.384  1.00  0.00     0.009 A 
HETATM   23  C12 UNL     1      20.526 -27.802 -21.366  1.00  0.00     0.001 A 
HETATM   24  C13 UNL     1      21.870 -27.488 -21.401  1.00  0.00     0.000 A 
HETATM   25  C14 UNL     1      22.372 -26.748 -22.437  1.00  0.00     0.001 A 
HETATM   26  C15 UNL     1      21.571 -26.295 -23.471  1.00  0.00     0.009 A 
ENDBRANCH  20  21
ENDBRANCH  18  20
ENDBRANCH  15  18
ENDBRANCH   8  10
ENDBRANCH   7   8
ENDBRANCH   6   7
ENDBRANCH   5   6
ENDBRANCH   3   5
TORSDOF 8
ENDMDL
MODEL 2
REMARK VINA RESULT: -6.357135009      0.858      1.348
REMARK  8 active torsions:
REMARK  status: ('A' for Active; 'I' for Inactive)
REMARK    1  A    between atoms: N2_3  and  C2_5 
REMARK    2  A    between atoms: C2_5  and  C3_6 
REMARK    3  A    between atoms: C3_6  and  C4_7 
REMARK    4  A    between atoms: C4_7  and  N3_8 
REMARK    5  A    between atoms: N3_8  and  C5_10 
REMARK    6  A    between atoms: C8_15  and  N5_16 
REMARK    7  A    between atoms: N5_16  and  C9_18 
REMARK    8  A    between atoms: C9_18  and  C10_19 
ROOT
HETATM    1  N1  UNL     1      22.402 -22.869 -19.291  1.00  0.00    -0.172 NA
HETATM    2  C1  UNL     1      21.324 -22.930 -18.864  1.00  0.00     0.177 C 
HETATM    3  N2  UNL     1      20.038 -22.994 -18.330  1.00  0.00    -0.329 N 
ATOM      4  H2  UNL     1      19.864 -22.650 -17.386  1.00  0.00     0.171 HD
ENDROOT
BRANCH   3   5
HETATM    5  C2  UNL     1      18.951 -23.543 -19.102  1.00  0.00     0.133 C 
BRANCH   5   6
HETATM    6  C3  UNL     1      17.828 -22.516 -19.093  1.00  0.00     0.040 C 
BRANCH   6   7
HETATM    7  C4  UNL     1      16.495 -23.162 -19.375  1.00  0.00     0.139 C 
BRANCH   7   8
HETATM    8  N3  UNL     1      16.113 -22.892 -20.726  1.00  0.00    -0.226 N 
ATOM      9  H3  UNL     1      15.718 -21.978 -20.950  1.00  0.00     0.177 HD
BRANCH   8  10
HETATM   10  C5  UNL     1      16.249 -23.759 -21.674  1.00  0.00     0.679 A 
HETATM   11  N4  UNL     1      15.216 -24.607 -21.944  1.00  0.00    -0.202 N 
HETATM   12  C6  UNL     1      15.289 -25.528 -22.909  1.00  0.00     0.110 A 
ATOM     13  H4  UNL     1      14.361 -24.536 -21.393  1.00  0.00     0.183 HD
HETATM   14  C7  UNL     1      16.446 -25.615 -23.647  1.00  0.00     0.066 A 
HETATM   15  C8  UNL     1      17.525 -24.767 -23.403  1.00  0.00     0.118 A 
HETATM   16  N6  UNL     1      17.362 -23.874 -22.416  1.00  0.00    -0.177 N 
ATOM     17  H6  UNL     1      18.136 -23.240 -22.214  1.00  0.00     0.185 HD
BRANCH  15  18
HETATM   18  N5  UNL     1      18.617 -24.832 -24.077  1.00  0.00    -0.372 N 
ATOM     19  H5  UNL     1      19.086 -23.985 -24.400  1.00  0.00     0.161 HD
BRANCH  18  20
HETATM   20  C9  UNL     1      19.158 -26.133 -24.363  1.00  0.00     0.159 C 
BRANCH  20  21
HETATM   21  C10 UNL     1      20.057 -26.645 -23.325  1.00  0.00    -0.041 A 
HETATM   22  C11 UNL     1      21.412 -26.322 -23.445  1.00  0.00     0.009 A 
HETATM   23  C12 UNL     1      22.357 -26.730 -22.553  1.00  0.00     0.001 A 
HETATM   24  C13 UNL     1      21.949 -27.501 -21.483  1.00  0.00     0.000 A 
HETATM   25  C14 UNL     1      20.628 -27.832 -21.344  1.00  0.00     0.001 A 
HETATM   26  C15 UNL     1      19.668 -27.415 -22.251  1.00  0.00     0.009 A 
ENDBRANCH  20  21
ENDBRANCH  18  20
ENDBRANCH  15  18
ENDBRANCH   8  10
ENDBRANCH   7   8
ENDBRANCH   6   7
ENDBRANCH   5   6
ENDBRANCH   3   5
TORSDOF 8
ENDMDL
MODEL 3
REMARK VINA RESULT: -6.320489412      1.376      1.895
REMARK  8 active torsions:
REMARK  status: ('A' for Active; 'I' for Inactive)
REMARK    1  A    between atoms: N2_3  and  C2_5 
REMARK    2  A    between atoms: C2_5  and  C3_6 
REMARK    3  A    between atoms: C3_6  and  C4_7 
REMARK    4  A    between atoms: C4_7  and  N3_8 
REMARK    5  A    between atoms: N3_8  and  C5_10 
REMARK    6  A    between atoms: C8_15  and  N5_16 
REMARK    7  A    between atoms: N5_16  and  C9_18 
REMARK    8  A    between atoms: C9_18  and  C10_19 
ROOT
HETATM    1  N1  UNL     1      21.449 -24.147 -20.418  1.00  0.00    -0.172 NA
HETATM    2  C1  UNL     1      21.418 -24.014 -19.264  1.00  0.00     0.177 C 
HETATM    3  N2  UNL     1      21.399 -23.871 -17.878  1.00  0.00    -0.329 N 
ATOM      4  H2  UNL     1      22.104 -24.343 -17.311  1.00  0.00     0.171 HD
ENDROOT
BRANCH   3   5
HETATM    5  C2  UNL     1      20.392 -23.063 -17.239  1.00  0.00     0.133 C 
BRANCH   5   6
HETATM    6  C3  UNL     1      19.060 -23.402 -17.893  1.00  0.00     0.040 C 
BRANCH   6   7
HETATM    7  C4  UNL     1      18.430 -22.180 -18.514  1.00  0.00     0.139 C 
BRANCH   7   8
HETATM    8  N3  UNL     1      18.747 -22.140 -19.907  1.00  0.00    -0.226 N 
ATOM      9  H3  UNL     1      19.553 -21.595 -20.210  1.00  0.00     0.177 HD
BRANCH   8  10
HETATM   10  C5  UNL     1      18.050 -22.767 -20.797  1.00  0.00     0.679 A 
HETATM   11  N4  UNL     1      16.691 -22.774 -20.686  1.00  0.00    -0.202 N 
HETATM   12  C6  UNL     1      15.912 -23.403 -21.569  1.00  0.00     0.110 A 
ATOM     13  H4  UNL     1      16.257 -22.283 -19.904  1.00  0.00     0.183 HD
HETATM   14  C7  UNL     1      16.508 -24.061 -22.619  1.00  0.00     0.066 A 
HETATM   15  C8  UNL     1      17.893 -24.078 -22.769  1.00  0.00     0.118 A 
HETATM   16  N6  UNL     1      18.596 -23.420 -21.836  1.00  0.00    -0.177 N 
ATOM     17  H6  UNL     1      19.613 -23.416 -21.920  1.00  0.00     0.185 HD
BRANCH  15  18
HETATM   18  N5  UNL     1      18.472 -24.688 -23.741  1.00  0.00    -0.372 N 
ATOM     19  H5  UNL     1      18.821 -24.175 -24.550  1.00  0.00     0.161 HD
BRANCH  18  20
HETATM   20  C9  UNL     1      18.615 -26.117 -23.652  1.00  0.00     0.159 C 
BRANCH  20  21
HETATM   21  C10 UNL     1      19.853 -26.553 -23.000  1.00  0.00    -0.041 A 
HETATM   22  C11 UNL     1      19.721 -27.267 -21.806  1.00  0.00     0.009 A 
HETATM   23  C12 UNL     1      20.786 -27.733 -21.095  1.00  0.00     0.001 A 
HETATM   24  C13 UNL     1      22.052 -27.481 -21.584  1.00  0.00     0.000 A 
HETATM   25  C14 UNL     1      22.207 -26.783 -22.751  1.00  0.00     0.001 A 
HETATM   26  C15 UNL     1      21.124 -26.311 -23.474  1.00  0.00     0.009 A 
ENDBRANCH  20  21
ENDBRANCH  18  20
ENDBRANCH  15  18
ENDBRANCH   8  10
ENDBRANCH   7   8
ENDBRANCH   6   7
ENDBRANCH   5   6
ENDBRANCH   3   5
TORSDOF 8
ENDMDL
MODEL 4
REMARK VINA RESULT: -6.104820475      1.858      3.173
REMARK  8 active torsions:
REMARK  status: ('A' for Active; 'I' for Inactive)
REMARK    1  A    between atoms: N2_3  and  C2_5 
REMARK    2  A    between atoms: C2_5  and  C3_6 
REMARK    3  A    between atoms: C3_6  and  C4_7 
REMARK    4  A    between atoms: C4_7  and  N3_8 
REMARK    5  A    between atoms: N3_8  and  C5_10 
REMARK    6  A    between atoms: C8_15  and  N5_16 
REMARK    7  A    between atoms: N5_16  and  C9_18 
REMARK    8  A    between atoms: C9_18  and  C10_19 
ROOT
HETATM    1  N1  UNL     1      12.357 -21.912 -17.065  1.00  0.00    -0.172 NA
HETATM    2  C1  UNL     1      13.496 -22.129 -17.137  1.00  0.00     0.177 C 
HETATM    3  N2  UNL     1      14.864 -22.388 -17.200  1.00  0.00    -0.329 N 
ATOM      4  H2  UNL     1      15.395 -22.512 -16.338  1.00  0.00     0.171 HD
ENDROOT
BRANCH   3   5
HETATM    5  C2  UNL     1      15.534 -22.483 -18.472  1.00  0.00     0.133 C 
BRANCH   5   6
HETATM    6  C3  UNL     1      15.029 -23.746 -19.154  1.00  0.00     0.040 C 
BRANCH   6   7
HETATM    7  C4  UNL     1      14.357 -23.426 -20.467  1.00  0.00     0.139 C 
BRANCH   7   8
HETATM    8  N3  UNL     1      15.354 -23.171 -21.459  1.00  0.00    -0.226 N 
ATOM      9  H3  UNL     1      15.724 -22.225 -21.549  1.00  0.00     0.177 HD
BRANCH   8  10
HETATM   10  C5  UNL     1      15.804 -24.092 -22.246  1.00  0.00     0.679 A 
HETATM   11  N4  UNL     1      14.990 -25.136 -22.572  1.00  0.00    -0.202 N 
HETATM   12  C6  UNL     1      15.392 -26.122 -23.378  1.00  0.00     0.110 A 
ATOM     13  H4  UNL     1      14.046 -25.166 -22.188  1.00  0.00     0.183 HD
HETATM   14  C7  UNL     1      16.667 -26.073 -23.891  1.00  0.00     0.066 A 
HETATM   15  C8  UNL     1      17.530 -25.024 -23.583  1.00  0.00     0.118 A 
HETATM   16  N6  UNL     1      17.042 -24.078 -22.766  1.00  0.00    -0.177 N 
ATOM     17  H6  UNL     1      17.652 -23.297 -22.523  1.00  0.00     0.185 HD
BRANCH  15  18
HETATM   18  N5  UNL     1      18.727 -24.958 -24.048  1.00  0.00    -0.372 N 
ATOM     19  H5  UNL     1      19.196 -24.060 -24.164  1.00  0.00     0.161 HD
BRANCH  18  20
HETATM   20  C9  UNL     1      19.384 -26.188 -24.399  1.00  0.00     0.159 C 
BRANCH  20  21
HETATM   21  C10 UNL     1      20.367 -26.641 -23.411  1.00  0.00    -0.041 A 
HETATM   22  C11 UNL     1      19.900 -27.473 -22.389  1.00  0.00     0.009 A 
HETATM   23  C12 UNL     1      20.702 -27.967 -21.405  1.00  0.00     0.001 A 
HETATM   24  C13 UNL     1      22.040 -27.624 -21.426  1.00  0.00     0.000 A 
HETATM   25  C14 UNL     1      22.521 -26.810 -22.416  1.00  0.00     0.001 A 
HETATM   26  C15 UNL     1      21.704 -26.309 -23.416  1.00  0.00     0.009 A 
ENDBRANCH  20  21
ENDBRANCH  18  20
ENDBRANCH  15  18
ENDBRANCH   8  10
ENDBRANCH   7   8
ENDBRANCH   6   7
ENDBRANCH   5   6
ENDBRANCH   3   5
TORSDOF 8
ENDMDL
MODEL 5
REMARK VINA RESULT: -6.030266009      1.873      3.168
REMARK  8 active torsions:
REMARK  status: ('A' for Active; 'I' for Inactive)
REMARK    1  A    between atoms: N2_3  and  C2_5 
REMARK    2  A    between atoms: C2_5  and  C3_6 
REMARK    3  A    between atoms: C3_6  and  C4_7 
REMARK    4  A    between atoms: C4_7  and  N3_8 
REMARK    5  A    between atoms: N3_8  and  C5_10 
REMARK    6  A    between atoms: C8_15  and  N5_16 
REMARK    7  A    between atoms: N5_16  and  C9_18 
REMARK    8  A    between atoms: C9_18  and  C10_19 
ROOT
HETATM    1  N1  UNL     1      13.768 -23.615 -19.628  1.00  0.00    -0.172 NA
HETATM    2  C1  UNL     1      14.774 -23.180 -20.013  1.00  0.00     0.177 C 
HETATM    3  N2  UNL     1      15.969 -22.645 -20.491  1.00  0.00    -0.329 N 
ATOM      4  H2  UNL     1      15.947 -21.916 -21.204  1.00  0.00     0.171 HD
ENDROOT
BRANCH   3   5
HETATM    5  C2  UNL     1      17.235 -23.114 -19.987  1.00  0.00     0.133 C 
BRANCH   5   6
HETATM    6  C3  UNL     1      18.295 -22.736 -21.011  1.00  0.00     0.040 C 
BRANCH   6   7
HETATM    7  C4  UNL     1      17.704 -22.631 -22.395  1.00  0.00     0.139 C 
BRANCH   7   8
HETATM    8  N3  UNL     1      18.040 -23.801 -23.144  1.00  0.00    -0.226 N 
ATOM      9  H3  UNL     1      18.842 -23.767 -23.773  1.00  0.00     0.177 HD
BRANCH   8  10
HETATM   10  C5  UNL     1      17.367 -24.901 -23.056  1.00  0.00     0.679 A 
HETATM   11  N4  UNL     1      16.237 -25.044 -23.806  1.00  0.00    -0.202 N 
HETATM   12  C6  UNL     1      15.494 -26.153 -23.762  1.00  0.00     0.110 A 
ATOM     13  H4  UNL     1      15.951 -24.282 -24.419  1.00  0.00     0.183 HD
HETATM   14  C7  UNL     1      15.888 -27.175 -22.931  1.00  0.00     0.066 A 
HETATM   15  C8  UNL     1      17.036 -27.069 -22.149  1.00  0.00     0.118 A 
HETATM   16  N6  UNL     1      17.720 -25.921 -22.257  1.00  0.00    -0.177 N 
ATOM     17  H6  UNL     1      18.565 -25.815 -21.695  1.00  0.00     0.185 HD
BRANCH  15  18
HETATM   18  N5  UNL     1      17.423 -28.010 -21.363  1.00  0.00    -0.372 N 
ATOM     19  H5  UNL     1      16.964 -28.167 -20.466  1.00  0.00     0.161 HD
BRANCH  18  20
HETATM   20  C9  UNL     1      18.523 -28.834 -21.786  1.00  0.00     0.159 C 
BRANCH  20  21
HETATM   21  C10 UNL     1      19.841 -28.240 -21.539  1.00  0.00    -0.041 A 
HETATM   22  C11 UNL     1      20.174 -27.972 -20.208  1.00  0.00     0.009 A 
HETATM   23  C12 UNL     1      21.363 -27.422 -19.835  1.00  0.00     0.001 A 
HETATM   24  C13 UNL     1      22.277 -27.119 -20.824  1.00  0.00     0.000 A 
HETATM   25  C14 UNL     1      21.973 -27.371 -22.135  1.00  0.00     0.001 A 
HETATM   26  C15 UNL     1      20.764 -27.931 -22.513  1.00  0.00     0.009 A 
ENDBRANCH  20  21
ENDBRANCH  18  20
ENDBRANCH  15  18
ENDBRANCH   8  10
ENDBRANCH   7   8
ENDBRANCH   6   7
ENDBRANCH   5   6
ENDBRANCH   3   5
TORSDOF 8
ENDMDL
