MODEL 1
REMARK VINA RESULT: -7.183490188      0.000      0.000
REMARK  10 active torsions:
REMARK  status: ('A' for Active; 'I' for Inactive)
REMARK    1  A    between atoms: C3_3  and  C4_4 
REMARK    2  A    between atoms: C5_5  and  C6_6 
REMARK    3  A    between atoms: C6_6  and  O1_8 
REMARK    4  A    between atoms: C6_6  and  C8_10 
REMARK       I    between atoms: C8_10  and  N1_12 
REMARK    5  A    between atoms: N1_12  and  C9_14 
REMARK    6  A    between atoms: C9_14  and  C10_15 
REMARK    7  A    between atoms: C9_14  and  C12_19 
REMARK    8  A    between atoms: C10_15  and  C11_16 
REMARK    9  A    between atoms: C13_21  and  O6_22 
REMARK   10  A    between atoms: C13_21  and  C14_24 
ROOT
HETATM    1  C9  UNL     1     -34.481 -46.364  11.561  1.00  0.00     0.131 C 
ENDROOT
BRANCH   1   2
HETATM    2  N1  UNL     1     -35.660 -46.093  12.442  1.00  0.00    -0.350 N 
HETATM    3  C8  UNL     1     -36.478 -44.960  12.230  1.00  0.00     0.256 C 
HETATM    4  O2  UNL     1     -36.207 -44.176  11.285  1.00  0.00    -0.270 OA
ATOM      5  H1  UNL     1     -35.875 -46.733  13.206  1.00  0.00     0.163 HD
BRANCH   3   6
HETATM    6  C6  UNL     1     -37.637 -44.710  13.113  1.00  0.00     0.152 C 
HETATM    7  C7  UNL     1     -38.771 -45.600  12.699  1.00  0.00     0.061 C 
BRANCH   6   8
HETATM    8  C5  UNL     1     -37.297 -44.735  14.533  1.00  0.00     0.020 C 
HETATM    9  C4  UNL     1     -37.945 -44.329  15.572  1.00  0.00    -0.001 C 
BRANCH   9  10
HETATM   10  C3  UNL     1     -39.255 -43.714  15.532  1.00  0.00    -0.005 C 
HETATM   11  C2  UNL     1     -39.967 -43.600  16.669  1.00  0.00    -0.031 C 
HETATM   12  C1  UNL     1     -39.347 -44.122  17.908  1.00  0.00     0.036 C 
ENDBRANCH   9  10
ENDBRANCH   6   8
BRANCH   6  13
HETATM   13  O1  UNL     1     -38.069 -43.380  12.812  1.00  0.00    -0.376 OA
ATOM     14  H1  UNL     1     -37.627 -43.121  12.012  1.00  0.00     0.211 HD
ENDBRANCH   6  13
ENDBRANCH   3   6
ENDBRANCH   1   2
BRANCH   1  15
HETATM   15  C10 UNL     1     -33.344 -45.728  12.266  1.00  0.00     0.141 C 
BRANCH  15  16
HETATM   16  C11 UNL     1     -32.644 -44.670  11.569  1.00  0.00     0.174 C 
HETATM   17  O3  UNL     1     -32.665 -43.461  11.863  1.00  0.00    -0.648 OA
HETATM   18  O4  UNL     1     -31.864 -45.037  10.453  1.00  0.00    -0.648 OA
ENDBRANCH  15  16
ENDBRANCH   1  15
BRANCH   1  19
HETATM   19  C12 UNL     1     -34.467 -47.854  11.460  1.00  0.00     0.225 C 
HETATM   20  O5  UNL     1     -35.666 -48.500  11.270  1.00  0.00    -0.325 OA
HETATM   21  C13 UNL     1     -34.936 -49.509  10.605  1.00  0.00     0.320 C 
HETATM   22  C15 UNL     1     -34.002 -48.426  10.176  1.00  0.00     0.230 C 
HETATM   23  O9  UNL     1     -33.298 -48.257   9.228  1.00  0.00    -0.288 OA
BRANCH  21  24
HETATM   24  O6  UNL     1     -34.389 -50.354  11.579  1.00  0.00    -0.351 OA
ATOM     25  H6  UNL     1     -33.468 -50.142  11.664  1.00  0.00     0.214 HD
ENDBRANCH  21  24
BRANCH  21  26
HETATM   26  C14 UNL     1     -35.650 -50.182   9.524  1.00  0.00     0.247 C 
HETATM   27  O7  UNL     1     -35.797 -51.428   9.582  1.00  0.00    -0.644 OA
HETATM   28  O8  UNL     1     -36.160 -49.502   8.462  1.00  0.00    -0.644 OA
ENDBRANCH  21  26
ENDBRANCH   1  19
TORSDOF 10
ENDMDL
MODEL 2
REMARK VINA RESULT: -6.992776023      1.551      4.317
REMARK  10 active torsions:
REMARK  status: ('A' for Active; 'I' for Inactive)
REMARK    1  A    between atoms: C3_3  and  C4_4 
REMARK    2  A    between atoms: C5_5  and  C6_6 
REMARK    3  A    between atoms: C6_6  and  O1_8 
REMARK    4  A    between atoms: C6_6  and  C8_10 
REMARK       I    between atoms: C8_10  and  N1_12 
REMARK    5  A    between atoms: N1_12  and  C9_14 
REMARK    6  A    between atoms: C9_14  and  C10_15 
REMARK    7  A    between atoms: C9_14  and  C12_19 
REMARK    8  A    between atoms: C10_15  and  C11_16 
REMARK    9  A    between atoms: C13_21  and  O6_22 
REMARK   10  A    between atoms: C13_21  and  C14_24 
ROOT
HETATM    1  C9  UNL     1     -35.902 -47.830   9.971  1.00  0.00     0.131 C 
ENDROOT
BRANCH   1   2
HETATM    2  N1  UNL     1     -36.674 -46.702  10.580  1.00  0.00    -0.350 N 
HETATM    3  C8  UNL     1     -36.572 -46.416  11.960  1.00  0.00     0.256 C 
HETATM    4  O2  UNL     1     -35.821 -47.122  12.679  1.00  0.00    -0.270 OA
ATOM      5  H1  UNL     1     -37.281 -46.131   9.991  1.00  0.00     0.163 HD
BRANCH   3   6
HETATM    6  C6  UNL     1     -37.344 -45.296  12.541  1.00  0.00     0.152 C 
HETATM    7  C7  UNL     1     -38.763 -45.378  12.063  1.00  0.00     0.061 C 
BRANCH   6   8
HETATM    8  C5  UNL     1     -37.168 -45.162  13.985  1.00  0.00     0.020 C 
HETATM    9  C4  UNL     1     -37.849 -44.516  14.870  1.00  0.00    -0.001 C 
BRANCH   9  10
HETATM   10  C3  UNL     1     -39.028 -43.728  14.582  1.00  0.00    -0.005 C 
HETATM   11  C2  UNL     1     -39.848 -43.372  15.589  1.00  0.00    -0.031 C 
HETATM   12  C1  UNL     1     -39.478 -43.820  16.950  1.00  0.00     0.036 C 
ENDBRANCH   9  10
ENDBRANCH   6   8
BRANCH   6  13
HETATM   13  O1  UNL     1     -36.810 -44.111  11.945  1.00  0.00    -0.376 OA
ATOM     14  H1  UNL     1     -37.313 -43.948  11.155  1.00  0.00     0.211 HD
ENDBRANCH   6  13
ENDBRANCH   3   6
ENDBRANCH   1   2
BRANCH   1  15
HETATM   15  C10 UNL     1     -36.758 -48.298   8.857  1.00  0.00     0.141 C 
BRANCH  15  16
HETATM   16  C11 UNL     1     -36.751 -49.717   8.571  1.00  0.00     0.174 C 
HETATM   17  O3  UNL     1     -37.534 -50.315   7.809  1.00  0.00    -0.648 OA
HETATM   18  O4  UNL     1     -35.770 -50.501   9.212  1.00  0.00    -0.648 OA
ENDBRANCH  15  16
ENDBRANCH   1  15
BRANCH   1  19
HETATM   19  C12 UNL     1     -34.601 -47.194   9.604  1.00  0.00     0.225 C 
HETATM   20  O5  UNL     1     -34.494 -45.828   9.721  1.00  0.00    -0.325 OA
HETATM   21  C13 UNL     1     -33.116 -46.027   9.954  1.00  0.00     0.320 C 
HETATM   22  C15 UNL     1     -33.502 -47.323  10.587  1.00  0.00     0.230 C 
HETATM   23  O9  UNL     1     -33.038 -47.999  11.454  1.00  0.00    -0.288 OA
BRANCH  21  24
HETATM   24  O6  UNL     1     -32.490 -46.185   8.711  1.00  0.00    -0.351 OA
ATOM     25  H6  UNL     1     -32.683 -45.416   8.188  1.00  0.00     0.214 HD
ENDBRANCH  21  24
BRANCH  21  26
HETATM   26  C14 UNL     1     -32.492 -45.056  10.848  1.00  0.00     0.247 C 
HETATM   27  O7  UNL     1     -31.438 -44.483  10.475  1.00  0.00    -0.644 OA
HETATM   28  O8  UNL     1     -33.016 -44.755  12.066  1.00  0.00    -0.644 OA
ENDBRANCH  21  26
ENDBRANCH   1  19
TORSDOF 10
ENDMDL
MODEL 3
REMARK VINA RESULT: -6.944175304      1.213      1.802
REMARK  10 active torsions:
REMARK  status: ('A' for Active; 'I' for Inactive)
REMARK    1  A    between atoms: C3_3  and  C4_4 
REMARK    2  A    between atoms: C5_5  and  C6_6 
REMARK    3  A    between atoms: C6_6  and  O1_8 
REMARK    4  A    between atoms: C6_6  and  C8_10 
REMARK       I    between atoms: C8_10  and  N1_12 
REMARK    5  A    between atoms: N1_12  and  C9_14 
REMARK    6  A    between atoms: C9_14  and  C10_15 
REMARK    7  A    between atoms: C9_14  and  C12_19 
REMARK    8  A    between atoms: C10_15  and  C11_16 
REMARK    9  A    between atoms: C13_21  and  O6_22 
REMARK   10  A    between atoms: C13_21  and  C14_24 
ROOT
HETATM    1  C9  UNL     1     -35.042 -45.422  10.417  1.00  0.00     0.131 C 
ENDROOT
BRANCH   1   2
HETATM    2  N1  UNL     1     -35.725 -45.676  11.724  1.00  0.00    -0.350 N 
HETATM    3  C8  UNL     1     -36.817 -44.880  12.137  1.00  0.00     0.256 C 
HETATM    4  O2  UNL     1     -37.215 -43.949  11.391  1.00  0.00    -0.270 OA
ATOM      5  H1  UNL     1     -35.398 -46.433  12.324  1.00  0.00     0.163 HD
BRANCH   3   6
HETATM    6  C6  UNL     1     -37.478 -45.147  13.433  1.00  0.00     0.152 C 
HETATM    7  C7  UNL     1     -37.367 -46.609  13.749  1.00  0.00     0.061 C 
BRANCH   6   8
HETATM    8  C5  UNL     1     -37.057 -44.235  14.494  1.00  0.00     0.020 C 
HETATM    9  C4  UNL     1     -37.519 -44.039  15.683  1.00  0.00    -0.001 C 
BRANCH   9  10
HETATM   10  C3  UNL     1     -38.645 -44.749  16.251  1.00  0.00    -0.005 C 
HETATM   11  C2  UNL     1     -38.769 -44.831  17.589  1.00  0.00    -0.031 C 
HETATM   12  C1  UNL     1     -37.723 -44.173  18.404  1.00  0.00     0.036 C 
ENDBRANCH   9  10
ENDBRANCH   6   8
BRANCH   6  13
HETATM   13  O1  UNL     1     -38.871 -44.911  13.210  1.00  0.00    -0.376 OA
ATOM     14  H1  UNL     1     -39.056 -44.032  13.519  1.00  0.00     0.211 HD
ENDBRANCH   6  13
ENDBRANCH   3   6
ENDBRANCH   1   2
BRANCH   1  15
HETATM   15  C10 UNL     1     -34.094 -44.322  10.709  1.00  0.00     0.141 C 
BRANCH  15  16
HETATM   16  C11 UNL     1     -32.799 -44.691  11.238  1.00  0.00     0.174 C 
HETATM   17  O3  UNL     1     -31.729 -44.721  10.602  1.00  0.00    -0.648 OA
HETATM   18  O4  UNL     1     -32.736 -45.052  12.600  1.00  0.00    -0.648 OA
ENDBRANCH  15  16
ENDBRANCH   1  15
BRANCH   1  19
HETATM   19  C12 UNL     1     -34.452 -46.752  10.077  1.00  0.00     0.225 C 
HETATM   20  O5  UNL     1     -34.111 -47.590  11.113  1.00  0.00    -0.325 OA
HETATM   21  C13 UNL     1     -34.359 -48.664  10.230  1.00  0.00     0.320 C 
HETATM   22  C15 UNL     1     -35.393 -47.790   9.600  1.00  0.00     0.230 C 
HETATM   23  O9  UNL     1     -36.421 -47.991   9.029  1.00  0.00    -0.288 OA
BRANCH  21  24
HETATM   24  O6  UNL     1     -33.221 -48.835   9.432  1.00  0.00    -0.351 OA
ATOM     25  H6  UNL     1     -33.352 -48.344   8.629  1.00  0.00     0.214 HD
ENDBRANCH  21  24
BRANCH  21  26
HETATM   26  C14 UNL     1     -34.868 -49.879  10.860  1.00  0.00     0.247 C 
HETATM   27  O7  UNL     1     -34.717 -50.026  12.098  1.00  0.00    -0.644 OA
HETATM   28  O8  UNL     1     -35.497 -50.853  10.148  1.00  0.00    -0.644 OA
ENDBRANCH  21  26
ENDBRANCH   1  19
TORSDOF 10
ENDMDL
MODEL 4
REMARK VINA RESULT: -6.279784174      1.390      1.657
REMARK  10 active torsions:
REMARK  status: ('A' for Active; 'I' for Inactive)
REMARK    1  A    between atoms: C3_3  and  C4_4 
REMARK    2  A    between atoms: C5_5  and  C6_6 
REMARK    3  A    between atoms: C6_6  and  O1_8 
REMARK    4  A    between atoms: C6_6  and  C8_10 
REMARK       I    between atoms: C8_10  and  N1_12 
REMARK    5  A    between atoms: N1_12  and  C9_14 
REMARK    6  A    between atoms: C9_14  and  C10_15 
REMARK    7  A    between atoms: C9_14  and  C12_19 
REMARK    8  A    between atoms: C10_15  and  C11_16 
REMARK    9  A    between atoms: C13_21  and  O6_22 
REMARK   10  A    between atoms: C13_21  and  C14_24 
ROOT
HETATM    1  C9  UNL     1     -35.435 -46.123  10.140  1.00  0.00     0.131 C 
ENDROOT
BRANCH   1   2
HETATM    2  N1  UNL     1     -36.119 -46.265  11.464  1.00  0.00    -0.350 N 
HETATM    3  C8  UNL     1     -36.818 -45.179  12.038  1.00  0.00     0.256 C 
HETATM    4  O2  UNL     1     -36.863 -44.084  11.423  1.00  0.00    -0.270 OA
ATOM      5  H1  UNL     1     -36.080 -47.157  11.957  1.00  0.00     0.163 HD
BRANCH   3   6
HETATM    6  C6  UNL     1     -37.487 -45.341  13.347  1.00  0.00     0.152 C 
HETATM    7  C7  UNL     1     -37.402 -46.778  13.768  1.00  0.00     0.061 C 
BRANCH   6   8
HETATM    8  C5  UNL     1     -37.055 -44.362  14.341  1.00  0.00     0.020 C 
HETATM    9  C4  UNL     1     -37.518 -44.073  15.510  1.00  0.00    -0.001 C 
BRANCH   9  10
HETATM   10  C3  UNL     1     -38.657 -44.721  16.123  1.00  0.00    -0.005 C 
HETATM   11  C2  UNL     1     -38.748 -44.770  17.465  1.00  0.00    -0.031 C 
HETATM   12  C1  UNL     1     -37.652 -44.144  18.238  1.00  0.00     0.036 C 
ENDBRANCH   9  10
ENDBRANCH   6   8
BRANCH   6  13
HETATM   13  O1  UNL     1     -38.875 -45.099  13.101  1.00  0.00    -0.376 OA
ATOM     14  H1  UNL     1     -39.077 -45.482  12.255  1.00  0.00     0.211 HD
ENDBRANCH   6  13
ENDBRANCH   3   6
ENDBRANCH   1   2
BRANCH   1  15
HETATM   15  C10 UNL     1     -34.330 -45.171  10.402  1.00  0.00     0.141 C 
BRANCH  15  16
HETATM   16  C11 UNL     1     -33.224 -45.650  11.205  1.00  0.00     0.174 C 
HETATM   17  O3  UNL     1     -33.281 -45.988  12.402  1.00  0.00    -0.648 OA
HETATM   18  O4  UNL     1     -31.964 -45.744  10.580  1.00  0.00    -0.648 OA
ENDBRANCH  15  16
ENDBRANCH   1  15
BRANCH   1  19
HETATM   19  C12 UNL     1     -35.052 -47.527   9.802  1.00  0.00     0.225 C 
HETATM   20  O5  UNL     1     -35.461 -48.530  10.650  1.00  0.00    -0.325 OA
HETATM   21  C13 UNL     1     -35.458 -49.384   9.525  1.00  0.00     0.320 C 
HETATM   22  C15 UNL     1     -35.826 -48.180   8.722  1.00  0.00     0.230 C 
HETATM   23  O9  UNL     1     -36.448 -48.004   7.719  1.00  0.00    -0.288 OA
BRANCH  21  24
HETATM   24  O6  UNL     1     -34.140 -49.807   9.313  1.00  0.00    -0.351 OA
ATOM     25  H6  UNL     1     -33.998 -49.855   8.375  1.00  0.00     0.214 HD
ENDBRANCH  21  24
BRANCH  21  26
HETATM   26  C14 UNL     1     -36.458 -50.447   9.552  1.00  0.00     0.247 C 
HETATM   27  O7  UNL     1     -36.136 -51.566  10.022  1.00  0.00    -0.644 OA
HETATM   28  O8  UNL     1     -37.722 -50.262   9.085  1.00  0.00    -0.644 OA
ENDBRANCH  21  26
ENDBRANCH   1  19
TORSDOF 10
ENDMDL
MODEL 5
REMARK VINA RESULT: -6.278863783      6.304     10.251
REMARK  10 active torsions:
REMARK  status: ('A' for Active; 'I' for Inactive)
REMARK    1  A    between atoms: C3_3  and  C4_4 
REMARK    2  A    between atoms: C5_5  and  C6_6 
REMARK    3  A    between atoms: C6_6  and  O1_8 
REMARK    4  A    between atoms: C6_6  and  C8_10 
REMARK       I    between atoms: C8_10  and  N1_12 
REMARK    5  A    between atoms: N1_12  and  C9_14 
REMARK    6  A    between atoms: C9_14  and  C10_15 
REMARK    7  A    between atoms: C9_14  and  C12_19 
REMARK    8  A    between atoms: C10_15  and  C11_16 
REMARK    9  A    between atoms: C13_21  and  O6_22 
REMARK   10  A    between atoms: C13_21  and  C14_24 
ROOT
HETATM    1  C9  UNL     1     -37.831 -40.499  20.111  1.00  0.00     0.131 C 
ENDROOT
BRANCH   1   2
HETATM    2  N1  UNL     1     -37.855 -41.758  19.301  1.00  0.00    -0.350 N 
HETATM    3  C8  UNL     1     -38.933 -42.038  18.431  1.00  0.00     0.256 C 
HETATM    4  O2  UNL     1     -39.879 -41.214  18.340  1.00  0.00    -0.270 OA
ATOM      5  H1  UNL     1     -37.084 -42.421  19.378  1.00  0.00     0.163 HD
BRANCH   3   6
HETATM    6  C6  UNL     1     -38.938 -43.287  17.639  1.00  0.00     0.152 C 
HETATM    7  C7  UNL     1     -39.750 -44.322  18.360  1.00  0.00     0.061 C 
BRANCH   6   8
HETATM    8  C5  UNL     1     -39.278 -43.080  16.234  1.00  0.00     0.020 C 
HETATM    9  C4  UNL     1     -38.902 -43.698  15.166  1.00  0.00    -0.001 C 
BRANCH   9  10
HETATM   10  C3  UNL     1     -37.988 -44.819  15.147  1.00  0.00    -0.005 C 
HETATM   11  C2  UNL     1     -37.567 -45.311  13.967  1.00  0.00    -0.031 C 
HETATM   12  C1  UNL     1     -38.079 -44.654  12.742  1.00  0.00     0.036 C 
ENDBRANCH   9  10
ENDBRANCH   6   8
BRANCH   6  13
HETATM   13  O1  UNL     1     -37.591 -43.769  17.675  1.00  0.00    -0.376 OA
ATOM     14  H1  UNL     1     -37.347 -43.839  18.591  1.00  0.00     0.211 HD
ENDBRANCH   6  13
ENDBRANCH   3   6
ENDBRANCH   1   2
BRANCH   1  15
HETATM   15  C10 UNL     1     -38.208 -40.937  21.475  1.00  0.00     0.141 C 
BRANCH  15  16
HETATM   16  C11 UNL     1     -38.073 -42.347  21.776  1.00  0.00     0.174 C 
HETATM   17  O3  UNL     1     -38.999 -43.177  21.826  1.00  0.00    -0.648 OA
HETATM   18  O4  UNL     1     -36.774 -42.829  22.037  1.00  0.00    -0.648 OA
ENDBRANCH  15  16
ENDBRANCH   1  15
BRANCH   1  19
HETATM   19  C12 UNL     1     -36.435 -40.000  19.923  1.00  0.00     0.225 C 
HETATM   20  O5  UNL     1     -35.646 -40.627  18.987  1.00  0.00    -0.325 OA
HETATM   21  C13 UNL     1     -34.974 -39.394  18.833  1.00  0.00     0.320 C 
HETATM   22  C15 UNL     1     -36.280 -38.746  19.153  1.00  0.00     0.230 C 
HETATM   23  O9  UNL     1     -36.795 -37.712  18.853  1.00  0.00    -0.288 OA
BRANCH  21  24
HETATM   24  O6  UNL     1     -34.036 -39.286  19.867  1.00  0.00    -0.351 OA
ATOM     25  H6  UNL     1     -33.269 -38.847  19.518  1.00  0.00     0.214 HD
ENDBRANCH  21  24
BRANCH  21  26
HETATM   26  C14 UNL     1     -34.459 -39.133  17.492  1.00  0.00     0.247 C 
HETATM   27  O7  UNL     1     -33.267 -38.757  17.366  1.00  0.00    -0.644 OA
HETATM   28  O8  UNL     1     -35.228 -39.284  16.380  1.00  0.00    -0.644 OA
ENDBRANCH  21  26
ENDBRANCH   1  19
TORSDOF 10
ENDMDL
