MODEL 1
REMARK VINA RESULT: -5.585178416      0.000      0.000
REMARK  12 active torsions:
REMARK  status: ('A' for Active; 'I' for Inactive)
REMARK    1  A    between atoms: C2_2  and  C4_4 
REMARK    2  A    between atoms: C4_4  and  N1_5 
REMARK    3  A    between atoms: C4_4  and  C9_11 
REMARK    4  A    between atoms: N1_5  and  C5_7 
REMARK       I    between atoms: C9_11  and  N2_13 
REMARK    5  A    between atoms: N2_13  and  C10_15 
REMARK    6  A    between atoms: C10_15  and  C11_16 
REMARK    7  A    between atoms: C10_15  and  C16_28 
REMARK       I    between atoms: C11_16  and  N3_18 
REMARK    8  A    between atoms: N3_18  and  C12_20 
REMARK    9  A    between atoms: C12_20  and  C13_21 
REMARK   10  A    between atoms: C13_21  and  O3_22 
REMARK   11  A    between atoms: C13_21  and  N4_24 
REMARK   12  A    between atoms: N4_24  and  N5_25 
ROOT
HETATM    1  C10 UNL     1      37.701  68.953  18.582  1.00  0.00     0.208 C 
ENDROOT
BRANCH   1   2
HETATM    2  N2  UNL     1      38.027  70.347  18.862  1.00  0.00    -0.344 N 
HETATM    3  C9  UNL     1      39.128  70.756  19.599  1.00  0.00     0.241 C 
HETATM    4  O1  UNL     1      39.983  69.980  20.109  1.00  0.00    -0.271 OA
ATOM      5  H2  UNL     1      37.406  71.066  18.493  1.00  0.00     0.163 HD
BRANCH   3   6
HETATM    6  C4  UNL     1      39.342  72.247  19.814  1.00  0.00     0.173 C 
BRANCH   6   7
HETATM    7  C2  UNL     1      39.582  72.806  18.444  1.00  0.00     0.009 C 
HETATM    8  C1  UNL     1      39.235  74.284  18.456  1.00  0.00     0.012 C 
HETATM    9  C3  UNL     1      40.851  72.454  17.773  1.00  0.00     0.012 C 
ENDBRANCH   6   7
BRANCH   6  10
HETATM   10  N1  UNL     1      38.314  72.784  20.552  1.00  0.00    -0.401 N 
ATOM     11  H1  UNL     1      37.393  72.691  20.123  1.00  0.00     0.154 HD
BRANCH  10  12
HETATM   12  C5  UNL     1      38.310  73.423  21.762  1.00  0.00     0.015 C 
HETATM   13  C6  UNL     1      37.395  72.777  22.820  1.00  0.00     0.037 C 
HETATM   14  C7  UNL     1      37.492  74.761  21.476  1.00  0.00     0.037 C 
HETATM   15  C8  UNL     1      39.536  73.900  22.431  1.00  0.00     0.037 C 
ENDBRANCH  10  12
ENDBRANCH   6  10
ENDBRANCH   3   6
ENDBRANCH   1   2
BRANCH   1  16
HETATM   16  C11 UNL     1      38.796  68.395  17.753  1.00  0.00     0.246 C 
HETATM   17  O2  UNL     1      38.865  68.681  16.519  1.00  0.00    -0.271 OA
HETATM   18  N3  UNL     1      39.789  67.541  18.296  1.00  0.00    -0.335 N 
ATOM     19  H3  UNL     1      39.693  67.329  19.289  1.00  0.00     0.168 HD
BRANCH  18  20
HETATM   20  C12 UNL     1      40.887  66.948  17.647  1.00  0.00     0.113 C 
BRANCH  20  21
HETATM   21  C13 UNL     1      42.242  67.521  17.810  1.00  0.00     0.264 C 
BRANCH  21  22
HETATM   22  O3  UNL     1      42.241  68.811  18.282  1.00  0.00    -0.374 OA
ATOM     23  H3  UNL     1      41.938  68.888  19.178  1.00  0.00     0.212 HD
ENDBRANCH  21  22
BRANCH  21  24
HETATM   24  N4  UNL     1      43.087  66.736  18.696  1.00  0.00    -0.128 NA
BRANCH  24  25
HETATM   25  N5  UNL     1      42.545  66.584  19.977  1.00  0.00    -0.240 NA
HETATM   26  C14 UNL     1      43.530  67.132  20.901  1.00  0.00     0.131 C 
HETATM   27  C15 UNL     1      42.318  65.215  20.324  1.00  0.00     0.131 C 
ENDBRANCH  24  25
ENDBRANCH  21  24
ENDBRANCH  20  21
ENDBRANCH  18  20
ENDBRANCH   1  16
BRANCH   1  28
HETATM   28  C16 UNL     1      36.351  68.786  18.014  1.00  0.00     0.182 A 
HETATM   29  O4  UNL     1      35.805  67.536  17.739  1.00  0.00    -0.373 OA
HETATM   30  C17 UNL     1      35.237  68.307  18.851  1.00  0.00     0.149 A 
HETATM   31  C18 UNL     1      33.807  68.722  18.505  1.00  0.00     0.042 C 
ENDBRANCH   1  28
TORSDOF 12
ENDMDL
MODEL 2
REMARK VINA RESULT: -5.476816217      1.165      1.339
REMARK  12 active torsions:
REMARK  status: ('A' for Active; 'I' for Inactive)
REMARK    1  A    between atoms: C2_2  and  C4_4 
REMARK    2  A    between atoms: C4_4  and  N1_5 
REMARK    3  A    between atoms: C4_4  and  C9_11 
REMARK    4  A    between atoms: N1_5  and  C5_7 
REMARK       I    between atoms: C9_11  and  N2_13 
REMARK    5  A    between atoms: N2_13  and  C10_15 
REMARK    6  A    between atoms: C10_15  and  C11_16 
REMARK    7  A    between atoms: C10_15  and  C16_28 
REMARK       I    between atoms: C11_16  and  N3_18 
REMARK    8  A    between atoms: N3_18  and  C12_20 
REMARK    9  A    between atoms: C12_20  and  C13_21 
REMARK   10  A    between atoms: C13_21  and  O3_22 
REMARK   11  A    between atoms: C13_21  and  N4_24 
REMARK   12  A    between atoms: N4_24  and  N5_25 
ROOT
HETATM    1  C10 UNL     1      37.643  69.042  18.398  1.00  0.00     0.208 C 
ENDROOT
BRANCH   1   2
HETATM    2  N2  UNL     1      38.015  70.421  18.695  1.00  0.00    -0.344 N 
HETATM    3  C9  UNL     1      39.033  70.783  19.562  1.00  0.00     0.241 C 
HETATM    4  O1  UNL     1      39.765  69.972  20.195  1.00  0.00    -0.271 OA
ATOM      5  H2  UNL     1      37.493  71.166  18.234  1.00  0.00     0.163 HD
BRANCH   3   6
HETATM    6  C4  UNL     1      39.309  72.264  19.778  1.00  0.00     0.173 C 
BRANCH   6   7
HETATM    7  C2  UNL     1      39.580  72.812  18.409  1.00  0.00     0.009 C 
HETATM    8  C1  UNL     1      39.248  74.293  18.405  1.00  0.00     0.012 C 
HETATM    9  C3  UNL     1      40.857  72.441  17.764  1.00  0.00     0.012 C 
ENDBRANCH   6   7
BRANCH   6  10
HETATM   10  N1  UNL     1      38.300  72.845  20.511  1.00  0.00    -0.401 N 
ATOM     11  H1  UNL     1      37.386  72.824  20.059  1.00  0.00     0.154 HD
BRANCH  10  12
HETATM   12  C5  UNL     1      38.309  73.447  21.739  1.00  0.00     0.015 C 
HETATM   13  C6  UNL     1      37.389  72.783  22.780  1.00  0.00     0.037 C 
HETATM   14  C7  UNL     1      37.508  74.804  21.496  1.00  0.00     0.037 C 
HETATM   15  C8  UNL     1      39.544  73.888  22.417  1.00  0.00     0.037 C 
ENDBRANCH  10  12
ENDBRANCH   6  10
ENDBRANCH   3   6
ENDBRANCH   1   2
BRANCH   1  16
HETATM   16  C11 UNL     1      38.622  68.516  17.417  1.00  0.00     0.246 C 
HETATM   17  O2  UNL     1      39.169  69.301  16.584  1.00  0.00    -0.271 OA
HETATM   18  N3  UNL     1      38.978  67.144  17.373  1.00  0.00    -0.335 N 
ATOM     19  H3  UNL     1      38.510  66.545  18.052  1.00  0.00     0.168 HD
BRANCH  18  20
HETATM   20  C12 UNL     1      39.890  66.501  16.517  1.00  0.00     0.113 C 
BRANCH  20  21
HETATM   21  C13 UNL     1      41.201  66.050  17.035  1.00  0.00     0.264 C 
BRANCH  21  22
HETATM   22  O3  UNL     1      41.840  65.155  16.213  1.00  0.00    -0.374 OA
ATOM     23  H3  UNL     1      41.651  65.282  15.291  1.00  0.00     0.212 HD
ENDBRANCH  21  22
BRANCH  21  24
HETATM   24  N4  UNL     1      42.124  67.148  17.277  1.00  0.00    -0.128 NA
BRANCH  24  25
HETATM   25  N5  UNL     1      41.857  67.835  18.466  1.00  0.00    -0.240 NA
HETATM   26  C14 UNL     1      42.728  69.005  18.462  1.00  0.00     0.131 C 
HETATM   27  C15 UNL     1      42.153  67.061  19.633  1.00  0.00     0.131 C 
ENDBRANCH  24  25
ENDBRANCH  21  24
ENDBRANCH  20  21
ENDBRANCH  18  20
ENDBRANCH   1  16
BRANCH   1  28
HETATM   28  C16 UNL     1      36.231  68.906  17.996  1.00  0.00     0.182 A 
HETATM   29  O4  UNL     1      35.721  67.734  17.446  1.00  0.00    -0.373 OA
HETATM   30  C17 UNL     1      35.295  68.103  18.801  1.00  0.00     0.149 A 
HETATM   31  C18 UNL     1      33.807  68.451  18.790  1.00  0.00     0.042 C 
ENDBRANCH   1  28
TORSDOF 12
ENDMDL
MODEL 3
REMARK VINA RESULT: -5.407419821      2.053      2.738
REMARK  12 active torsions:
REMARK  status: ('A' for Active; 'I' for Inactive)
REMARK    1  A    between atoms: C2_2  and  C4_4 
REMARK    2  A    between atoms: C4_4  and  N1_5 
REMARK    3  A    between atoms: C4_4  and  C9_11 
REMARK    4  A    between atoms: N1_5  and  C5_7 
REMARK       I    between atoms: C9_11  and  N2_13 
REMARK    5  A    between atoms: N2_13  and  C10_15 
REMARK    6  A    between atoms: C10_15  and  C11_16 
REMARK    7  A    between atoms: C10_15  and  C16_28 
REMARK       I    between atoms: C11_16  and  N3_18 
REMARK    8  A    between atoms: N3_18  and  C12_20 
REMARK    9  A    between atoms: C12_20  and  C13_21 
REMARK   10  A    between atoms: C13_21  and  O3_22 
REMARK   11  A    between atoms: C13_21  and  N4_24 
REMARK   12  A    between atoms: N4_24  and  N5_25 
ROOT
HETATM    1  C10 UNL     1      37.790  69.339  17.867  1.00  0.00     0.208 C 
ENDROOT
BRANCH   1   2
HETATM    2  N2  UNL     1      38.238  70.504  18.623  1.00  0.00    -0.344 N 
HETATM    3  C9  UNL     1      39.207  70.464  19.613  1.00  0.00     0.241 C 
HETATM    4  O1  UNL     1      39.824  69.424  19.977  1.00  0.00    -0.271 OA
ATOM      5  H2  UNL     1      37.811  71.405  18.409  1.00  0.00     0.163 HD
BRANCH   3   6
HETATM    6  C4  UNL     1      39.573  71.760  20.322  1.00  0.00     0.173 C 
BRANCH   6   7
HETATM    7  C2  UNL     1      40.492  72.473  19.375  1.00  0.00     0.009 C 
HETATM    8  C1  UNL     1      41.592  71.517  18.955  1.00  0.00     0.012 C 
HETATM    9  C3  UNL     1      39.876  73.257  18.284  1.00  0.00     0.012 C 
ENDBRANCH   6   7
BRANCH   6  10
HETATM   10  N1  UNL     1      38.443  72.424  20.736  1.00  0.00    -0.401 N 
ATOM     11  H1  UNL     1      37.596  72.176  20.223  1.00  0.00     0.154 HD
BRANCH  10  12
HETATM   12  C5  UNL     1      38.255  73.359  21.717  1.00  0.00     0.015 C 
HETATM   13  C6  UNL     1      37.035  73.096  22.621  1.00  0.00     0.037 C 
HETATM   14  C7  UNL     1      37.732  74.636  20.920  1.00  0.00     0.037 C 
HETATM   15  C8  UNL     1      39.350  73.892  22.550  1.00  0.00     0.037 C 
ENDBRANCH  10  12
ENDBRANCH   6  10
ENDBRANCH   3   6
ENDBRANCH   1   2
BRANCH   1  16
HETATM   16  C11 UNL     1      38.563  69.302  16.602  1.00  0.00     0.246 C 
HETATM   17  O2  UNL     1      38.605  68.235  15.917  1.00  0.00    -0.271 OA
HETATM   18  N3  UNL     1      39.267  70.433  16.119  1.00  0.00    -0.335 N 
ATOM     19  H3  UNL     1      39.216  71.268  16.703  1.00  0.00     0.168 HD
BRANCH  18  20
HETATM   20  C12 UNL     1      40.028  70.556  14.942  1.00  0.00     0.113 C 
BRANCH  20  21
HETATM   21  C13 UNL     1      41.461  70.918  15.020  1.00  0.00     0.264 C 
BRANCH  21  22
HETATM   22  O3  UNL     1      41.685  72.178  15.517  1.00  0.00    -0.374 OA
ATOM     23  H3  UNL     1      42.321  72.202  16.221  1.00  0.00     0.212 HD
ENDBRANCH  21  22
BRANCH  21  24
HETATM   24  N4  UNL     1      42.237  69.990  15.829  1.00  0.00    -0.128 NA
BRANCH  24  25
HETATM   25  N5  UNL     1      41.953  68.649  15.548  1.00  0.00    -0.240 NA
HETATM   26  C14 UNL     1      42.056  67.940  16.818  1.00  0.00     0.131 C 
HETATM   27  C15 UNL     1      42.883  68.065  14.631  1.00  0.00     0.131 C 
ENDBRANCH  24  25
ENDBRANCH  21  24
ENDBRANCH  20  21
ENDBRANCH  18  20
ENDBRANCH   1  16
BRANCH   1  28
HETATM   28  C16 UNL     1      36.326  69.298  17.697  1.00  0.00     0.182 A 
HETATM   29  O4  UNL     1      35.685  68.298  16.973  1.00  0.00    -0.373 OA
HETATM   30  C17 UNL     1      35.511  68.314  18.431  1.00  0.00     0.149 A 
HETATM   31  C18 UNL     1      34.057  68.645  18.765  1.00  0.00     0.042 C 
ENDBRANCH   1  28
TORSDOF 12
ENDMDL
MODEL 4
REMARK VINA RESULT: -5.402962535      2.110      3.355
REMARK  12 active torsions:
REMARK  status: ('A' for Active; 'I' for Inactive)
REMARK    1  A    between atoms: C2_2  and  C4_4 
REMARK    2  A    between atoms: C4_4  and  N1_5 
REMARK    3  A    between atoms: C4_4  and  C9_11 
REMARK    4  A    between atoms: N1_5  and  C5_7 
REMARK       I    between atoms: C9_11  and  N2_13 
REMARK    5  A    between atoms: N2_13  and  C10_15 
REMARK    6  A    between atoms: C10_15  and  C11_16 
REMARK    7  A    between atoms: C10_15  and  C16_28 
REMARK       I    between atoms: C11_16  and  N3_18 
REMARK    8  A    between atoms: N3_18  and  C12_20 
REMARK    9  A    between atoms: C12_20  and  C13_21 
REMARK   10  A    between atoms: C13_21  and  O3_22 
REMARK   11  A    between atoms: C13_21  and  N4_24 
REMARK   12  A    between atoms: N4_24  and  N5_25 
ROOT
HETATM    1  C10 UNL     1      37.587  69.054  18.443  1.00  0.00     0.208 C 
ENDROOT
BRANCH   1   2
HETATM    2  N2  UNL     1      37.973  70.429  18.735  1.00  0.00    -0.344 N 
HETATM    3  C9  UNL     1      39.026  70.784  19.564  1.00  0.00     0.241 C 
HETATM    4  O1  UNL     1      39.781  69.967  20.160  1.00  0.00    -0.271 OA
ATOM      5  H2  UNL     1      37.434  71.179  18.301  1.00  0.00     0.163 HD
BRANCH   3   6
HETATM    6  C4  UNL     1      39.312  72.263  19.780  1.00  0.00     0.173 C 
BRANCH   6   7
HETATM    7  C2  UNL     1      39.593  72.807  18.411  1.00  0.00     0.009 C 
HETATM    8  C1  UNL     1      39.273  74.291  18.405  1.00  0.00     0.012 C 
HETATM    9  C3  UNL     1      40.870  72.426  17.772  1.00  0.00     0.012 C 
ENDBRANCH   6   7
BRANCH   6  10
HETATM   10  N1  UNL     1      38.305  72.852  20.507  1.00  0.00    -0.401 N 
ATOM     11  H1  UNL     1      37.392  72.840  20.051  1.00  0.00     0.154 HD
BRANCH  10  12
HETATM   12  C5  UNL     1      38.312  73.452  21.736  1.00  0.00     0.015 C 
HETATM   13  C6  UNL     1      37.383  72.793  22.772  1.00  0.00     0.037 C 
HETATM   14  C7  UNL     1      37.521  74.815  21.492  1.00  0.00     0.037 C 
HETATM   15  C8  UNL     1      39.546  73.884  22.420  1.00  0.00     0.037 C 
ENDBRANCH  10  12
ENDBRANCH   6  10
ENDBRANCH   3   6
ENDBRANCH   1   2
BRANCH   1  16
HETATM   16  C11 UNL     1      38.562  68.513  17.465  1.00  0.00     0.246 C 
HETATM   17  O2  UNL     1      39.133  69.293  16.643  1.00  0.00    -0.271 OA
HETATM   18  N3  UNL     1      38.888  67.135  17.413  1.00  0.00    -0.335 N 
ATOM     19  H3  UNL     1      38.402  66.541  18.084  1.00  0.00     0.168 HD
BRANCH  18  20
HETATM   20  C12 UNL     1      39.794  66.479  16.559  1.00  0.00     0.113 C 
BRANCH  20  21
HETATM   21  C13 UNL     1      39.363  65.286  15.797  1.00  0.00     0.264 C 
BRANCH  21  22
HETATM   22  O3  UNL     1      39.023  64.218  16.591  1.00  0.00    -0.374 OA
ATOM     23  H3  UNL     1      38.595  63.513  16.120  1.00  0.00     0.212 HD
ENDBRANCH  21  22
BRANCH  21  24
HETATM   24  N4  UNL     1      38.230  65.550  14.922  1.00  0.00    -0.128 NA
BRANCH  24  25
HETATM   25  N5  UNL     1      38.321  66.783  14.268  1.00  0.00    -0.240 NA
HETATM   26  C14 UNL     1      36.961  67.304  14.196  1.00  0.00     0.131 C 
HETATM   27  C15 UNL     1      38.827  66.668  12.934  1.00  0.00     0.131 C 
ENDBRANCH  24  25
ENDBRANCH  21  24
ENDBRANCH  20  21
ENDBRANCH  18  20
ENDBRANCH   1  16
BRANCH   1  28
HETATM   28  C16 UNL     1      36.175  68.930  18.039  1.00  0.00     0.182 A 
HETATM   29  O4  UNL     1      35.667  67.782  17.439  1.00  0.00    -0.373 OA
HETATM   30  C17 UNL     1      35.243  68.089  18.811  1.00  0.00     0.149 A 
HETATM   31  C18 UNL     1      33.754  68.432  18.818  1.00  0.00     0.042 C 
ENDBRANCH   1  28
TORSDOF 12
ENDMDL
MODEL 5
REMARK VINA RESULT: -5.386779190      2.745      4.252
REMARK  12 active torsions:
REMARK  status: ('A' for Active; 'I' for Inactive)
REMARK    1  A    between atoms: C2_2  and  C4_4 
REMARK    2  A    between atoms: C4_4  and  N1_5 
REMARK    3  A    between atoms: C4_4  and  C9_11 
REMARK    4  A    between atoms: N1_5  and  C5_7 
REMARK       I    between atoms: C9_11  and  N2_13 
REMARK    5  A    between atoms: N2_13  and  C10_15 
REMARK    6  A    between atoms: C10_15  and  C11_16 
REMARK    7  A    between atoms: C10_15  and  C16_28 
REMARK       I    between atoms: C11_16  and  N3_18 
REMARK    8  A    between atoms: N3_18  and  C12_20 
REMARK    9  A    between atoms: C12_20  and  C13_21 
REMARK   10  A    between atoms: C13_21  and  O3_22 
REMARK   11  A    between atoms: C13_21  and  N4_24 
REMARK   12  A    between atoms: N4_24  and  N5_25 
ROOT
HETATM    1  C10 UNL     1      37.915  69.369  18.016  1.00  0.00     0.208 C 
ENDROOT
BRANCH   1   2
HETATM    2  N2  UNL     1      38.229  70.619  18.699  1.00  0.00    -0.344 N 
HETATM    3  C9  UNL     1      39.211  70.750  19.669  1.00  0.00     0.241 C 
HETATM    4  O1  UNL     1      39.954  69.814  20.075  1.00  0.00    -0.271 OA
ATOM      5  H2  UNL     1      37.693  71.449  18.447  1.00  0.00     0.163 HD
BRANCH   3   6
HETATM    6  C4  UNL     1      39.428  72.119  20.300  1.00  0.00     0.173 C 
BRANCH   6   7
HETATM    7  C2  UNL     1      40.092  72.937  19.233  1.00  0.00     0.009 C 
HETATM    8  C1  UNL     1      41.072  72.053  18.484  1.00  0.00     0.012 C 
HETATM    9  C3  UNL     1      39.229  73.792  18.390  1.00  0.00     0.012 C 
ENDBRANCH   6   7
BRANCH   6  10
HETATM   10  N1  UNL     1      38.256  72.598  20.836  1.00  0.00    -0.401 N 
ATOM     11  H1  UNL     1      37.413  72.289  20.351  1.00  0.00     0.154 HD
BRANCH  10  12
HETATM   12  C5  UNL     1      38.023  73.418  21.906  1.00  0.00     0.015 C 
HETATM   13  C6  UNL     1      37.441  74.795  21.538  1.00  0.00     0.037 C 
HETATM   14  C7  UNL     1      39.485  73.855  22.367  1.00  0.00     0.037 C 
HETATM   15  C8  UNL     1      37.387  72.958  23.156  1.00  0.00     0.037 C 
ENDBRANCH  10  12
ENDBRANCH   6  10
ENDBRANCH   3   6
ENDBRANCH   1   2
BRANCH   1  16
HETATM   16  C11 UNL     1      38.775  69.289  16.811  1.00  0.00     0.246 C 
HETATM   17  O2  UNL     1      39.346  68.195  16.512  1.00  0.00    -0.271 OA
HETATM   18  N3  UNL     1      38.987  70.405  15.964  1.00  0.00    -0.335 N 
ATOM     19  H3  UNL     1      38.519  71.266  16.243  1.00  0.00     0.168 HD
BRANCH  18  20
HETATM   20  C12 UNL     1      39.759  70.481  14.789  1.00  0.00     0.113 C 
BRANCH  20  21
HETATM   21  C13 UNL     1      39.101  70.416  13.465  1.00  0.00     0.264 C 
BRANCH  21  22
HETATM   22  O3  UNL     1      39.911  70.809  12.428  1.00  0.00    -0.374 OA
ATOM     23  H3  UNL     1      39.686  70.409  11.597  1.00  0.00     0.212 HD
ENDBRANCH  21  22
BRANCH  21  24
HETATM   24  N4  UNL     1      38.603  69.087  13.145  1.00  0.00    -0.128 NA
BRANCH  24  25
HETATM   25  N5  UNL     1      37.275  68.890  13.538  1.00  0.00    -0.240 NA
HETATM   26  C14 UNL     1      37.145  67.466  13.824  1.00  0.00     0.131 C 
HETATM   27  C15 UNL     1      36.336  69.229  12.512  1.00  0.00     0.131 C 
ENDBRANCH  24  25
ENDBRANCH  21  24
ENDBRANCH  20  21
ENDBRANCH  18  20
ENDBRANCH   1  16
BRANCH   1  28
HETATM   28  C16 UNL     1      36.473  69.208  17.756  1.00  0.00     0.182 A 
HETATM   29  O4  UNL     1      35.947  68.085  17.126  1.00  0.00    -0.373 OA
HETATM   30  C17 UNL     1      35.665  68.270  18.554  1.00  0.00     0.149 A 
HETATM   31  C18 UNL     1      34.173  68.541  18.746  1.00  0.00     0.042 C 
ENDBRANCH   1  28
TORSDOF 12
ENDMDL
