MODEL 1
REMARK VINA RESULT: -7.600906328      0.000      0.000
REMARK  15 active torsions:
REMARK  status: ('A' for Active; 'I' for Inactive)
REMARK    1  A    between atoms: C2_2  and  N1_3 
REMARK    2  A    between atoms: C2_2  and  C15_44 
REMARK       I    between atoms: N1_3  and  C3_5 
REMARK    3  A    between atoms: C3_5  and  C4_7 
REMARK    4  A    between atoms: C4_7  and  N2_8 
REMARK    5  A    between atoms: C6_12  and  N4_13 
REMARK    6  A    between atoms: C7_18  and  C8_19 
REMARK    7  A    between atoms: C9_23  and  C10_24 
REMARK    8  A    between atoms: C10_24  and  O3_25 
REMARK    9  A    between atoms: C13_33  and  N9_34 
REMARK   10  A    between atoms: C14_39  and  N11_40 
REMARK   11  A    between atoms: C15_44  and  O4_45 
REMARK   12  A    between atoms: C15_44  and  C16_47 
REMARK   13  A    between atoms: C16_47  and  O5_48 
REMARK   14  A    between atoms: C16_47  and  C17_50 
REMARK   15  A    between atoms: C17_50  and  O6_51 
ROOT
HETATM    1  N2  UNL     1      23.936  37.143 -22.682  1.00  0.00    -0.243 N 
HETATM    2  C5  UNL     1      22.963  36.693 -21.833  1.00  0.00     0.155 A 
HETATM    3  N3  UNL     1      22.680  35.452 -21.390  1.00  0.00    -0.174 N 
ATOM      4  H3  UNL     1      23.258  34.674 -21.709  1.00  0.00     0.186 HD
HETATM    5  C6  UNL     1      21.672  35.201 -20.551  1.00  0.00     0.678 A 
HETATM    6  N5  UNL     1      20.920  36.235 -20.141  1.00  0.00    -0.187 N 
ATOM      7  H5  UNL     1      20.149  36.045 -19.501  1.00  0.00     0.184 HD
HETATM    8  C7  UNL     1      21.127  37.518 -20.532  1.00  0.00     0.113 A 
HETATM    9  C11 UNL     1      22.177  37.742 -21.400  1.00  0.00     0.088 A 
HETATM   10  C12 UNL     1      22.732  38.839 -22.034  1.00  0.00     0.177 A 
HETATM   11  N8  UNL     1      22.404  40.132 -22.006  1.00  0.00    -0.173 N 
ATOM     12  H8  UNL     1      21.612  40.416 -21.430  1.00  0.00     0.186 HD
HETATM   13  C13 UNL     1      23.056  41.073 -22.691  1.00  0.00     0.692 A 
HETATM   14  N10 UNL     1      24.081  40.675 -23.432  1.00  0.00    -0.021 N 
ATOM     15  H10 UNL     1      24.593  41.377 -23.965  1.00  0.00     0.203 HD
HETATM   16  C14 UNL     1      24.491  39.364 -23.521  1.00  0.00     0.713 A 
HETATM   17  N12 UNL     1      23.791  38.446 -22.801  1.00  0.00    -0.064 N 
ENDROOT
BRANCH   1  18
HETATM   18  C4  UNL     1      24.900  36.265 -23.294  1.00  0.00     0.254 C 
BRANCH  18  19
HETATM   19  C3  UNL     1      26.036  35.967 -22.385  1.00  0.00     0.237 C 
HETATM   20  N1  UNL     1      26.327  34.716 -21.836  1.00  0.00    -0.353 N 
ATOM     21  H1  UNL     1      25.696  33.953 -22.082  1.00  0.00     0.163 HD
HETATM   22  O1  UNL     1      26.805  36.928 -22.087  1.00  0.00    -0.272 OA
BRANCH  20  23
HETATM   23  C2  UNL     1      27.404  34.392 -20.973  1.00  0.00     0.111 C 
HETATM   24  C1  UNL     1      28.385  33.407 -21.561  1.00  0.00     0.035 C 
BRANCH  23  25
HETATM   25  C15 UNL     1      27.047  33.909 -19.602  1.00  0.00     0.171 C 
BRANCH  25  26
HETATM   26  O4  UNL     1      28.240  33.393 -19.054  1.00  0.00    -0.391 OA
ATOM     27  H4  UNL     1      28.446  33.949 -18.313  1.00  0.00     0.210 HD
ENDBRANCH  25  26
BRANCH  25  28
HETATM   28  C16 UNL     1      26.574  35.021 -18.695  1.00  0.00     0.172 C 
BRANCH  28  29
HETATM   29  O5  UNL     1      27.155  36.199 -19.141  1.00  0.00    -0.391 OA
ATOM     30  H5  UNL     1      26.684  36.920 -18.740  1.00  0.00     0.210 HD
ENDBRANCH  28  29
BRANCH  28  31
HETATM   31  C17 UNL     1      25.078  35.158 -18.825  1.00  0.00     0.198 C 
BRANCH  31  32
HETATM   32  O6  UNL     1      24.477  33.952 -19.188  1.00  0.00    -0.398 OA
ATOM     33  H6  UNL     1      23.608  34.085 -19.547  1.00  0.00     0.209 HD
ENDBRANCH  31  32
ENDBRANCH  28  31
ENDBRANCH  25  28
ENDBRANCH  23  25
ENDBRANCH  20  23
ENDBRANCH  18  19
ENDBRANCH   1  18
BRANCH  16  34
HETATM   34  N11 UNL     1      25.453  39.145 -24.261  1.00  0.00    -0.232 N 
ATOM     35 2H11 UNL     1      26.154  39.819 -24.566  1.00  0.00     0.174 HD
ATOM     36 1H11 UNL     1      25.557  38.185 -24.590  1.00  0.00     0.174 HD
ENDBRANCH  16  34
BRANCH   5  37
HETATM   37  N4  UNL     1      21.432  34.008 -20.149  1.00  0.00    -0.234 N 
ATOM     38  H42 UNL     1      22.159  33.444 -19.707  1.00  0.00     0.174 HD
ATOM     39  H41 UNL     1      20.507  33.594 -20.262  1.00  0.00     0.174 HD
ENDBRANCH   5  37
BRANCH   8  40
HETATM   40  C8  UNL     1      20.288  38.599 -20.068  1.00  0.00     0.156 A 
HETATM   41  N6  UNL     1      19.077  39.054 -20.350  1.00  0.00    -0.241 N 
HETATM   42  O2  UNL     1      18.798  40.080 -19.613  1.00  0.00    -0.220 OA
ATOM     43  H6  UNL     1      18.453  38.653 -21.049  1.00  0.00     0.196 HD
HETATM   44  C9  UNL     1      19.798  40.346 -18.823  1.00  0.00     0.172 A 
HETATM   45  N7  UNL     1      20.744  39.441 -19.080  1.00  0.00    -0.320 N 
ATOM     46  H7  UNL     1      21.653  39.383 -18.621  1.00  0.00     0.169 HD
BRANCH  44  47
HETATM   47  C10 UNL     1      19.942  41.421 -17.807  1.00  0.00     0.250 C 
BRANCH  47  48
HETATM   48  O3  UNL     1      21.214  41.398 -17.240  1.00  0.00    -0.393 OA
ATOM     49  H3  UNL     1      21.297  42.068 -16.572  1.00  0.00     0.210 HD
ENDBRANCH  47  48
ENDBRANCH  44  47
ENDBRANCH   8  40
BRANCH  13  50
HETATM   50  N9  UNL     1      22.733  42.310 -22.660  1.00  0.00    -0.234 N 
ATOM     51  H92 UNL     1      22.134  42.662 -21.913  1.00  0.00     0.174 HD
ATOM     52  H91 UNL     1      23.049  42.986 -23.355  1.00  0.00     0.174 HD
ENDBRANCH  13  50
TORSDOF 15
ENDMDL
MODEL 2
REMARK VINA RESULT: -7.536583722      0.732      1.029
REMARK  15 active torsions:
REMARK  status: ('A' for Active; 'I' for Inactive)
REMARK    1  A    between atoms: C2_2  and  N1_3 
REMARK    2  A    between atoms: C2_2  and  C15_44 
REMARK       I    between atoms: N1_3  and  C3_5 
REMARK    3  A    between atoms: C3_5  and  C4_7 
REMARK    4  A    between atoms: C4_7  and  N2_8 
REMARK    5  A    between atoms: C6_12  and  N4_13 
REMARK    6  A    between atoms: C7_18  and  C8_19 
REMARK    7  A    between atoms: C9_23  and  C10_24 
REMARK    8  A    between atoms: C10_24  and  O3_25 
REMARK    9  A    between atoms: C13_33  and  N9_34 
REMARK   10  A    between atoms: C14_39  and  N11_40 
REMARK   11  A    between atoms: C15_44  and  O4_45 
REMARK   12  A    between atoms: C15_44  and  C16_47 
REMARK   13  A    between atoms: C16_47  and  O5_48 
REMARK   14  A    between atoms: C16_47  and  C17_50 
REMARK   15  A    between atoms: C17_50  and  O6_51 
ROOT
HETATM    1  N2  UNL     1      24.548  37.019 -22.637  1.00  0.00    -0.243 N 
HETATM    2  C5  UNL     1      23.562  36.561 -21.807  1.00  0.00     0.155 A 
HETATM    3  N3  UNL     1      23.323  35.329 -21.314  1.00  0.00    -0.174 N 
ATOM      4  H3  UNL     1      23.952  34.568 -21.568  1.00  0.00     0.186 HD
HETATM    5  C6  UNL     1      22.292  35.068 -20.505  1.00  0.00     0.678 A 
HETATM    6  N5  UNL     1      21.472  36.080 -20.181  1.00  0.00    -0.187 N 
ATOM      7  H5  UNL     1      20.684  35.881 -19.564  1.00  0.00     0.184 HD
HETATM    8  C7  UNL     1      21.632  37.351 -20.627  1.00  0.00     0.113 A 
HETATM    9  C11 UNL     1      22.707  37.587 -21.460  1.00  0.00     0.088 A 
HETATM   10  C12 UNL     1      23.234  38.680 -22.126  1.00  0.00     0.177 A 
HETATM   11  N8  UNL     1      22.841  39.954 -22.176  1.00  0.00    -0.173 N 
ATOM     12  H8  UNL     1      22.011  40.224 -21.649  1.00  0.00     0.186 HD
HETATM   13  C13 UNL     1      23.475  40.893 -22.881  1.00  0.00     0.692 A 
HETATM   14  N10 UNL     1      24.550  40.513 -23.557  1.00  0.00    -0.021 N 
ATOM     15  H10 UNL     1      25.049  41.215 -24.103  1.00  0.00     0.203 HD
HETATM   16  C14 UNL     1      25.028  39.223 -23.563  1.00  0.00     0.713 A 
HETATM   17  N12 UNL     1      24.344  38.306 -22.827  1.00  0.00    -0.064 N 
ENDROOT
BRANCH   1  18
HETATM   18  C4  UNL     1      25.581  36.164 -23.162  1.00  0.00     0.254 C 
BRANCH  18  19
HETATM   19  C3  UNL     1      26.515  35.703 -22.103  1.00  0.00     0.237 C 
HETATM   20  N1  UNL     1      26.867  34.374 -21.855  1.00  0.00    -0.353 N 
ATOM     21  H1  UNL     1      26.436  33.671 -22.455  1.00  0.00     0.163 HD
HETATM   22  O1  UNL     1      27.035  36.592 -21.366  1.00  0.00    -0.272 OA
BRANCH  20  23
HETATM   23  C2  UNL     1      27.758  33.899 -20.862  1.00  0.00     0.111 C 
HETATM   24  C1  UNL     1      28.653  32.776 -21.328  1.00  0.00     0.035 C 
BRANCH  23  25
HETATM   25  C15 UNL     1      27.153  33.480 -19.558  1.00  0.00     0.171 C 
BRANCH  25  26
HETATM   26  O4  UNL     1      27.800  34.250 -18.570  1.00  0.00    -0.391 OA
ATOM     27  H4  UNL     1      28.716  34.000 -18.606  1.00  0.00     0.210 HD
ENDBRANCH  25  26
BRANCH  25  28
HETATM   28  C16 UNL     1      25.675  33.784 -19.476  1.00  0.00     0.172 C 
BRANCH  28  29
HETATM   29  O5  UNL     1      25.029  32.617 -19.097  1.00  0.00    -0.391 OA
ATOM     30  H5  UNL     1      24.547  32.803 -18.300  1.00  0.00     0.210 HD
ENDBRANCH  28  29
BRANCH  28  31
HETATM   31  C17 UNL     1      25.445  34.817 -18.402  1.00  0.00     0.198 C 
BRANCH  31  32
HETATM   32  O6  UNL     1      25.322  36.101 -18.935  1.00  0.00    -0.398 OA
ATOM     33  H6  UNL     1      26.169  36.502 -19.087  1.00  0.00     0.209 HD
ENDBRANCH  31  32
ENDBRANCH  28  31
ENDBRANCH  25  28
ENDBRANCH  23  25
ENDBRANCH  20  23
ENDBRANCH  18  19
ENDBRANCH   1  18
BRANCH  16  34
HETATM   34  N11 UNL     1      26.031  39.018 -24.250  1.00  0.00    -0.232 N 
ATOM     35 2H11 UNL     1      26.079  38.992 -25.268  1.00  0.00     0.174 HD
ATOM     36 1H11 UNL     1      26.903  38.872 -23.741  1.00  0.00     0.174 HD
ENDBRANCH  16  34
BRANCH   5  37
HETATM   37  N4  UNL     1      22.095  33.884 -20.054  1.00  0.00    -0.234 N 
ATOM     38  H42 UNL     1      22.572  33.079 -20.460  1.00  0.00     0.174 HD
ATOM     39  H41 UNL     1      21.454  33.721 -19.277  1.00  0.00     0.174 HD
ENDBRANCH   5  37
BRANCH   8  40
HETATM   40  C8  UNL     1      20.720  38.408 -20.253  1.00  0.00     0.156 A 
HETATM   41  N6  UNL     1      19.532  38.828 -20.656  1.00  0.00    -0.241 N 
HETATM   42  O2  UNL     1      19.152  39.847 -19.955  1.00  0.00    -0.220 OA
ATOM     43  H6  UNL     1      18.992  38.409 -21.413  1.00  0.00     0.196 HD
HETATM   44  C9  UNL     1      20.059  40.142 -19.071  1.00  0.00     0.172 A 
HETATM   45  N7  UNL     1      21.052  39.264 -19.228  1.00  0.00    -0.320 N 
ATOM     46  H7  UNL     1      21.911  39.233 -18.680  1.00  0.00     0.169 HD
BRANCH  44  47
HETATM   47  C10 UNL     1      20.070  41.222 -18.049  1.00  0.00     0.250 C 
BRANCH  47  48
HETATM   48  O3  UNL     1      21.220  41.150 -17.267  1.00  0.00    -0.393 OA
ATOM     49  H3  UNL     1      21.423  41.997 -16.887  1.00  0.00     0.210 HD
ENDBRANCH  47  48
ENDBRANCH  44  47
ENDBRANCH   8  40
BRANCH  13  50
HETATM   50  N9  UNL     1      23.090  42.112 -22.926  1.00  0.00    -0.234 N 
ATOM     51  H92 UNL     1      22.819  42.593 -22.067  1.00  0.00     0.174 HD
ATOM     52  H91 UNL     1      23.037  42.648 -23.792  1.00  0.00     0.174 HD
ENDBRANCH  13  50
TORSDOF 15
ENDMDL
MODEL 3
REMARK VINA RESULT: -7.436287037      1.262      1.551
REMARK  15 active torsions:
REMARK  status: ('A' for Active; 'I' for Inactive)
REMARK    1  A    between atoms: C2_2  and  N1_3 
REMARK    2  A    between atoms: C2_2  and  C15_44 
REMARK       I    between atoms: N1_3  and  C3_5 
REMARK    3  A    between atoms: C3_5  and  C4_7 
REMARK    4  A    between atoms: C4_7  and  N2_8 
REMARK    5  A    between atoms: C6_12  and  N4_13 
REMARK    6  A    between atoms: C7_18  and  C8_19 
REMARK    7  A    between atoms: C9_23  and  C10_24 
REMARK    8  A    between atoms: C10_24  and  O3_25 
REMARK    9  A    between atoms: C13_33  and  N9_34 
REMARK   10  A    between atoms: C14_39  and  N11_40 
REMARK   11  A    between atoms: C15_44  and  O4_45 
REMARK   12  A    between atoms: C15_44  and  C16_47 
REMARK   13  A    between atoms: C16_47  and  O5_48 
REMARK   14  A    between atoms: C16_47  and  C17_50 
REMARK   15  A    between atoms: C17_50  and  O6_51 
ROOT
HETATM    1  N2  UNL     1      23.984  36.159 -23.321  1.00  0.00    -0.243 N 
HETATM    2  C5  UNL     1      23.242  35.774 -22.239  1.00  0.00     0.155 A 
HETATM    3  N3  UNL     1      23.257  34.638 -21.515  1.00  0.00    -0.174 N 
ATOM      4  H3  UNL     1      23.915  33.902 -21.771  1.00  0.00     0.186 HD
HETATM    5  C6  UNL     1      22.443  34.438 -20.475  1.00  0.00     0.678 A 
HETATM    6  N5  UNL     1      21.581  35.415 -20.152  1.00  0.00    -0.187 N 
ATOM      7  H5  UNL     1      20.958  35.263 -19.358  1.00  0.00     0.184 HD
HETATM    8  C7  UNL     1      21.492  36.593 -20.820  1.00  0.00     0.113 A 
HETATM    9  C11 UNL     1      22.349  36.767 -21.889  1.00  0.00     0.088 A 
HETATM   10  C12 UNL     1      22.597  37.762 -22.818  1.00  0.00     0.177 A 
HETATM   11  N8  UNL     1      22.045  38.964 -22.989  1.00  0.00    -0.173 N 
ATOM     12  H8  UNL     1      21.306  39.252 -22.348  1.00  0.00     0.186 HD
HETATM   13  C13 UNL     1      22.409  39.812 -23.953  1.00  0.00     0.692 A 
HETATM   14  N10 UNL     1      23.372  39.412 -24.771  1.00  0.00    -0.021 N 
ATOM     15  H10 UNL     1      23.666  40.043 -25.516  1.00  0.00     0.203 HD
HETATM   16  C14 UNL     1      23.998  38.190 -24.670  1.00  0.00     0.713 A 
HETATM   17  N12 UNL     1      23.589  37.366 -23.669  1.00  0.00    -0.064 N 
ENDROOT
BRANCH   1  18
HETATM   18  C4  UNL     1      24.994  35.317 -23.909  1.00  0.00     0.254 C 
BRANCH  18  19
HETATM   19  C3  UNL     1      26.177  35.165 -23.023  1.00  0.00     0.237 C 
HETATM   20  N1  UNL     1      26.591  33.974 -22.423  1.00  0.00    -0.353 N 
ATOM     21  H1  UNL     1      26.024  33.148 -22.613  1.00  0.00     0.163 HD
HETATM   22  O1  UNL     1      26.865  36.204 -22.796  1.00  0.00    -0.272 OA
BRANCH  20  23
HETATM   23  C2  UNL     1      27.715  33.789 -21.580  1.00  0.00     0.111 C 
HETATM   24  C1  UNL     1      28.877  33.097 -22.252  1.00  0.00     0.035 C 
BRANCH  23  25
HETATM   25  C15 UNL     1      27.472  33.097 -20.275  1.00  0.00     0.171 C 
BRANCH  25  26
HETATM   26  O4  UNL     1      28.659  33.255 -19.530  1.00  0.00    -0.391 OA
ATOM     27  H4  UNL     1      29.257  32.591 -19.851  1.00  0.00     0.210 HD
ENDBRANCH  25  26
BRANCH  25  28
HETATM   28  C16 UNL     1      26.350  33.724 -19.482  1.00  0.00     0.172 C 
BRANCH  28  29
HETATM   29  O5  UNL     1      25.438  32.722 -19.183  1.00  0.00    -0.391 OA
ATOM     30  H5  UNL     1      25.689  32.347 -18.348  1.00  0.00     0.210 HD
ENDBRANCH  28  29
BRANCH  28  31
HETATM   31  C17 UNL     1      26.902  34.257 -18.184  1.00  0.00     0.198 C 
BRANCH  31  32
HETATM   32  O6  UNL     1      27.336  35.577 -18.308  1.00  0.00    -0.398 OA
ATOM     33  H6  UNL     1      27.655  35.762 -19.183  1.00  0.00     0.209 HD
ENDBRANCH  31  32
ENDBRANCH  28  31
ENDBRANCH  25  28
ENDBRANCH  23  25
ENDBRANCH  20  23
ENDBRANCH  18  19
ENDBRANCH   1  18
BRANCH  16  34
HETATM   34  N11 UNL     1      24.867  37.953 -25.512  1.00  0.00    -0.232 N 
ATOM     35 2H11 UNL     1      24.728  37.821 -26.514  1.00  0.00     0.174 HD
ATOM     36 1H11 UNL     1      25.825  37.896 -25.166  1.00  0.00     0.174 HD
ENDBRANCH  16  34
BRANCH   5  37
HETATM   37  N4  UNL     1      22.485  33.344 -19.808  1.00  0.00    -0.234 N 
ATOM     38  H42 UNL     1      22.421  32.439 -20.275  1.00  0.00     0.174 HD
ATOM     39  H41 UNL     1      22.584  33.354 -18.793  1.00  0.00     0.174 HD
ENDBRANCH   5  37
BRANCH   8  40
HETATM   40  C8  UNL     1      20.545  37.614 -20.437  1.00  0.00     0.156 A 
HETATM   41  N6  UNL     1      19.286  37.903 -20.725  1.00  0.00    -0.241 N 
HETATM   42  O2  UNL     1      18.907  38.960 -20.082  1.00  0.00    -0.220 OA
ATOM     43  H6  UNL     1      18.698  37.368 -21.364  1.00  0.00     0.196 HD
HETATM   44  C9  UNL     1      19.884  39.410 -19.352  1.00  0.00     0.172 A 
HETATM   45  N7  UNL     1      20.922  38.595 -19.549  1.00  0.00    -0.320 N 
ATOM     46  H7  UNL     1      21.840  38.683 -19.113  1.00  0.00     0.169 HD
BRANCH  44  47
HETATM   47  C10 UNL     1      19.926  40.590 -18.447  1.00  0.00     0.250 C 
BRANCH  47  48
HETATM   48  O3  UNL     1      20.808  40.373 -17.392  1.00  0.00    -0.393 OA
ATOM     49  H3  UNL     1      21.689  40.638 -17.629  1.00  0.00     0.210 HD
ENDBRANCH  47  48
ENDBRANCH  44  47
ENDBRANCH   8  40
BRANCH  13  50
HETATM   50  N9  UNL     1      21.874  40.962 -24.111  1.00  0.00    -0.234 N 
ATOM     51  H92 UNL     1      20.971  41.045 -24.579  1.00  0.00     0.174 HD
ATOM     52  H91 UNL     1      22.307  41.827 -23.787  1.00  0.00     0.174 HD
ENDBRANCH  13  50
TORSDOF 15
ENDMDL
MODEL 4
REMARK VINA RESULT: -7.387607297      1.786      6.651
REMARK  15 active torsions:
REMARK  status: ('A' for Active; 'I' for Inactive)
REMARK    1  A    between atoms: C2_2  and  N1_3 
REMARK    2  A    between atoms: C2_2  and  C15_44 
REMARK       I    between atoms: N1_3  and  C3_5 
REMARK    3  A    between atoms: C3_5  and  C4_7 
REMARK    4  A    between atoms: C4_7  and  N2_8 
REMARK    5  A    between atoms: C6_12  and  N4_13 
REMARK    6  A    between atoms: C7_18  and  C8_19 
REMARK    7  A    between atoms: C9_23  and  C10_24 
REMARK    8  A    between atoms: C10_24  and  O3_25 
REMARK    9  A    between atoms: C13_33  and  N9_34 
REMARK   10  A    between atoms: C14_39  and  N11_40 
REMARK   11  A    between atoms: C15_44  and  O4_45 
REMARK   12  A    between atoms: C15_44  and  C16_47 
REMARK   13  A    between atoms: C16_47  and  O5_48 
REMARK   14  A    between atoms: C16_47  and  C17_50 
REMARK   15  A    between atoms: C17_50  and  O6_51 
ROOT
HETATM    1  N2  UNL     1      22.938  38.953 -22.531  1.00  0.00    -0.243 N 
HETATM    2  C5  UNL     1      22.369  37.979 -21.758  1.00  0.00     0.155 A 
HETATM    3  N3  UNL     1      21.104  37.823 -21.322  1.00  0.00    -0.174 N 
ATOM      4  H3  UNL     1      20.406  38.519 -21.581  1.00  0.00     0.186 HD
HETATM    5  C6  UNL     1      20.729  36.789 -20.562  1.00  0.00     0.678 A 
HETATM    6  N5  UNL     1      21.659  35.881 -20.229  1.00  0.00    -0.187 N 
ATOM      7  H5  UNL     1      21.374  35.092 -19.648  1.00  0.00     0.184 HD
HETATM    8  C7  UNL     1      22.957  35.953 -20.621  1.00  0.00     0.113 A 
HETATM    9  C11 UNL     1      23.310  37.033 -21.405  1.00  0.00     0.088 A 
HETATM   10  C12 UNL     1      24.468  37.494 -22.006  1.00  0.00     0.177 A 
HETATM   11  N8  UNL     1      25.708  37.002 -22.021  1.00  0.00    -0.173 N 
ATOM     12  H8  UNL     1      25.890  36.135 -21.517  1.00  0.00     0.186 HD
HETATM   13  C13 UNL     1      26.724  37.586 -22.660  1.00  0.00     0.692 A 
HETATM   14  N10 UNL     1      26.459  38.712 -23.306  1.00  0.00    -0.021 N 
ATOM     15  H10 UNL     1      27.221  39.175 -23.801  1.00  0.00     0.203 HD
HETATM   16  C14 UNL     1      25.211  39.291 -23.346  1.00  0.00     0.713 A 
HETATM   17  N12 UNL     1      24.212  38.655 -22.678  1.00  0.00    -0.064 N 
ENDROOT
BRANCH   1  18
HETATM   18  C4  UNL     1      22.191  40.074 -23.041  1.00  0.00     0.254 C 
BRANCH  18  19
HETATM   19  C3  UNL     1      21.554  40.860 -21.954  1.00  0.00     0.237 C 
HETATM   20  N1  UNL     1      22.232  41.639 -21.014  1.00  0.00    -0.353 N 
ATOM     21  H1  UNL     1      23.249  41.657 -21.086  1.00  0.00     0.163 HD
HETATM   22  O1  UNL     1      20.291  40.820 -21.878  1.00  0.00    -0.272 OA
BRANCH  20  23
HETATM   23  C2  UNL     1      21.659  42.407 -19.969  1.00  0.00     0.111 C 
HETATM   24  C1  UNL     1      22.381  43.704 -19.696  1.00  0.00     0.035 C 
BRANCH  23  25
HETATM   25  C15 UNL     1      21.461  41.716 -18.656  1.00  0.00     0.171 C 
BRANCH  25  26
HETATM   26  O4  UNL     1      21.852  42.646 -17.670  1.00  0.00    -0.391 OA
ATOM     27  H4  UNL     1      22.369  42.156 -17.042  1.00  0.00     0.210 HD
ENDBRANCH  25  26
BRANCH  25  28
HETATM   28  C16 UNL     1      20.017  41.358 -18.396  1.00  0.00     0.172 C 
BRANCH  28  29
HETATM   29  O5  UNL     1      19.251  41.972 -19.377  1.00  0.00    -0.391 OA
ATOM     30  H5  UNL     1      18.636  41.327 -19.705  1.00  0.00     0.210 HD
ENDBRANCH  28  29
BRANCH  28  31
HETATM   31  C17 UNL     1      19.847  39.866 -18.536  1.00  0.00     0.198 C 
BRANCH  31  32
HETATM   32  O6  UNL     1      18.982  39.539 -19.581  1.00  0.00    -0.398 OA
ATOM     33  H6  UNL     1      18.885  38.599 -19.677  1.00  0.00     0.209 HD
ENDBRANCH  31  32
ENDBRANCH  28  31
ENDBRANCH  25  28
ENDBRANCH  23  25
ENDBRANCH  20  23
ENDBRANCH  18  19
ENDBRANCH   1  18
BRANCH  16  34
HETATM   34  N11 UNL     1      25.122  40.347 -23.977  1.00  0.00    -0.232 N 
ATOM     35 2H11 UNL     1      25.806  41.102 -24.004  1.00  0.00     0.174 HD
ATOM     36 1H11 UNL     1      24.278  40.466 -24.537  1.00  0.00     0.174 HD
ENDBRANCH  16  34
BRANCH   5  37
HETATM   37  N4  UNL     1      19.516  36.672 -20.165  1.00  0.00    -0.234 N 
ATOM     38  H42 UNL     1      19.042  35.769 -20.179  1.00  0.00     0.174 HD
ATOM     39  H41 UNL     1      18.996  37.481 -19.825  1.00  0.00     0.174 HD
ENDBRANCH   5  37
BRANCH   8  40
HETATM   40  C8  UNL     1      23.924  34.952 -20.233  1.00  0.00     0.156 A 
HETATM   41  N6  UNL     1      24.176  33.694 -20.559  1.00  0.00    -0.241 N 
HETATM   42  O2  UNL     1      25.195  33.252 -19.895  1.00  0.00    -0.220 OA
ATOM     43  H6  UNL     1      23.643  33.150 -21.237  1.00  0.00     0.196 HD
HETATM   44  C9  UNL     1      25.654  34.184 -19.112  1.00  0.00     0.172 A 
HETATM   45  N7  UNL     1      24.885  35.258 -19.298  1.00  0.00    -0.320 N 
ATOM     46  H7  UNL     1      24.992  36.156 -18.826  1.00  0.00     0.169 HD
BRANCH  44  47
HETATM   47  C10 UNL     1      26.802  34.147 -18.168  1.00  0.00     0.250 C 
BRANCH  47  48
HETATM   48  O3  UNL     1      27.338  35.421 -17.991  1.00  0.00    -0.393 OA
ATOM     49  H3  UNL     1      28.266  35.371 -17.794  1.00  0.00     0.210 HD
ENDBRANCH  47  48
ENDBRANCH  44  47
ENDBRANCH   8  40
BRANCH  13  50
HETATM   50  N9  UNL     1      27.911  37.109 -22.668  1.00  0.00    -0.234 N 
ATOM     51  H92 UNL     1      28.071  36.136 -22.403  1.00  0.00     0.174 HD
ATOM     52  H91 UNL     1      28.729  37.656 -22.932  1.00  0.00     0.174 HD
ENDBRANCH  13  50
TORSDOF 15
ENDMDL
MODEL 5
REMARK VINA RESULT: -7.339639799      1.134      1.731
REMARK  15 active torsions:
REMARK  status: ('A' for Active; 'I' for Inactive)
REMARK    1  A    between atoms: C2_2  and  N1_3 
REMARK    2  A    between atoms: C2_2  and  C15_44 
REMARK       I    between atoms: N1_3  and  C3_5 
REMARK    3  A    between atoms: C3_5  and  C4_7 
REMARK    4  A    between atoms: C4_7  and  N2_8 
REMARK    5  A    between atoms: C6_12  and  N4_13 
REMARK    6  A    between atoms: C7_18  and  C8_19 
REMARK    7  A    between atoms: C9_23  and  C10_24 
REMARK    8  A    between atoms: C10_24  and  O3_25 
REMARK    9  A    between atoms: C13_33  and  N9_34 
REMARK   10  A    between atoms: C14_39  and  N11_40 
REMARK   11  A    between atoms: C15_44  and  O4_45 
REMARK   12  A    between atoms: C15_44  and  C16_47 
REMARK   13  A    between atoms: C16_47  and  O5_48 
REMARK   14  A    between atoms: C16_47  and  C17_50 
REMARK   15  A    between atoms: C17_50  and  O6_51 
ROOT
HETATM    1  N2  UNL     1      24.602  36.911 -22.650  1.00  0.00    -0.243 N 
HETATM    2  C5  UNL     1      23.618  36.464 -21.812  1.00  0.00     0.155 A 
HETATM    3  N3  UNL     1      23.368  35.236 -21.318  1.00  0.00    -0.174 N 
ATOM      4  H3  UNL     1      23.985  34.467 -21.579  1.00  0.00     0.186 HD
HETATM    5  C6  UNL     1      22.341  34.987 -20.500  1.00  0.00     0.678 A 
HETATM    6  N5  UNL     1      21.538  36.008 -20.166  1.00  0.00    -0.187 N 
ATOM      7  H5  UNL     1      20.753  35.819 -19.542  1.00  0.00     0.184 HD
HETATM    8  C7  UNL     1      21.710  37.279 -20.613  1.00  0.00     0.113 A 
HETATM    9  C11 UNL     1      22.780  37.501 -21.456  1.00  0.00     0.088 A 
HETATM   10  C12 UNL     1      23.314  38.588 -22.125  1.00  0.00     0.177 A 
HETATM   11  N8  UNL     1      22.937  39.867 -22.171  1.00  0.00    -0.173 N 
ATOM     12  H8  UNL     1      22.115  40.147 -21.636  1.00  0.00     0.186 HD
HETATM   13  C13 UNL     1      23.576  40.799 -22.881  1.00  0.00     0.692 A 
HETATM   14  N10 UNL     1      24.639  40.406 -23.567  1.00  0.00    -0.021 N 
ATOM     15  H10 UNL     1      25.143  41.102 -24.117  1.00  0.00     0.203 HD
HETATM   16  C14 UNL     1      25.101  39.109 -23.579  1.00  0.00     0.713 A 
HETATM   17  N12 UNL     1      24.413  38.201 -22.838  1.00  0.00    -0.064 N 
ENDROOT
BRANCH   1  18
HETATM   18  C4  UNL     1      25.619  36.043 -23.186  1.00  0.00     0.254 C 
BRANCH  18  19
HETATM   19  C3  UNL     1      26.559  35.573 -22.137  1.00  0.00     0.237 C 
HETATM   20  N1  UNL     1      26.883  34.239 -21.879  1.00  0.00    -0.353 N 
ATOM     21  H1  UNL     1      26.426  33.539 -22.463  1.00  0.00     0.163 HD
HETATM   22  O1  UNL     1      27.113  36.458 -21.420  1.00  0.00    -0.272 OA
BRANCH  20  23
HETATM   23  C2  UNL     1      27.780  33.753 -20.895  1.00  0.00     0.111 C 
HETATM   24  C1  UNL     1      28.618  32.585 -21.353  1.00  0.00     0.035 C 
BRANCH  23  25
HETATM   25  C15 UNL     1      27.190  33.392 -19.567  1.00  0.00     0.171 C 
BRANCH  25  26
HETATM   26  O4  UNL     1      27.870  34.182 -18.617  1.00  0.00    -0.391 OA
ATOM     27  H4  UNL     1      27.640  35.082 -18.817  1.00  0.00     0.210 HD
ENDBRANCH  25  26
BRANCH  25  28
HETATM   28  C16 UNL     1      25.720  33.728 -19.469  1.00  0.00     0.172 C 
BRANCH  28  29
HETATM   29  O5  UNL     1      25.056  32.582 -19.058  1.00  0.00    -0.391 OA
ATOM     30  H5  UNL     1      25.597  31.838 -19.293  1.00  0.00     0.210 HD
ENDBRANCH  28  29
BRANCH  28  31
HETATM   31  C17 UNL     1      25.527  34.786 -18.411  1.00  0.00     0.198 C 
BRANCH  31  32
HETATM   32  O6  UNL     1      25.404  36.059 -18.969  1.00  0.00    -0.398 OA
ATOM     33  H6  UNL     1      26.057  36.658 -18.627  1.00  0.00     0.209 HD
ENDBRANCH  31  32
ENDBRANCH  28  31
ENDBRANCH  25  28
ENDBRANCH  23  25
ENDBRANCH  20  23
ENDBRANCH  18  19
ENDBRANCH   1  18
BRANCH  16  34
HETATM   34  N11 UNL     1      26.095  38.893 -24.276  1.00  0.00    -0.232 N 
ATOM     35 2H11 UNL     1      26.351  39.371 -25.139  1.00  0.00     0.174 HD
ATOM     36 1H11 UNL     1      26.729  38.167 -23.942  1.00  0.00     0.174 HD
ENDBRANCH  16  34
BRANCH   5  37
HETATM   37  N4  UNL     1      22.133  33.805 -20.047  1.00  0.00    -0.234 N 
ATOM     38  H42 UNL     1      22.702  33.016 -20.354  1.00  0.00     0.174 HD
ATOM     39  H41 UNL     1      21.392  33.628 -19.369  1.00  0.00     0.174 HD
ENDBRANCH   5  37
BRANCH   8  40
HETATM   40  C8  UNL     1      20.815  38.347 -20.229  1.00  0.00     0.156 A 
HETATM   41  N6  UNL     1      20.767  39.249 -19.262  1.00  0.00    -0.241 N 
HETATM   42  O2  UNL     1      19.717  39.993 -19.391  1.00  0.00    -0.220 OA
ATOM     43  H6  UNL     1      21.460  39.344 -18.520  1.00  0.00     0.196 HD
HETATM   44  C9  UNL     1      19.033  39.621 -20.433  1.00  0.00     0.172 A 
HETATM   45  N7  UNL     1      19.689  38.596 -20.980  1.00  0.00    -0.320 N 
ATOM     46  H7  UNL     1      19.405  38.083 -21.815  1.00  0.00     0.169 HD
BRANCH  44  47
HETATM   47  C10 UNL     1      17.764  40.170 -20.980  1.00  0.00     0.250 C 
BRANCH  47  48
HETATM   48  O3  UNL     1      16.676  39.405 -20.567  1.00  0.00    -0.393 OA
ATOM     49  H3  UNL     1      15.982  39.429 -21.216  1.00  0.00     0.210 HD
ENDBRANCH  47  48
ENDBRANCH  44  47
ENDBRANCH   8  40
BRANCH  13  50
HETATM   50  N9  UNL     1      23.206  42.022 -22.921  1.00  0.00    -0.234 N 
ATOM     51  H92 UNL     1      23.498  42.668 -22.186  1.00  0.00     0.174 HD
ATOM     52  H91 UNL     1      22.621  42.404 -23.664  1.00  0.00     0.174 HD
ENDBRANCH  13  50
TORSDOF 15
ENDMDL
