MODEL 1
REMARK VINA RESULT: -10.200360517      0.000      0.000
REMARK  8 active torsions:
REMARK  status: ('A' for Active; 'I' for Inactive)
REMARK    1  A    between atoms: C2_2  and  C3_3 
REMARK    2  A    between atoms: C3_3  and  C4_4 
REMARK    3  A    between atoms: C4_4  and  N1_5 
REMARK    4  A    between atoms: C4_4  and  C13_18 
REMARK    5  A    between atoms: N1_5  and  S1_7 
REMARK    6  A    between atoms: S1_7  and  C5_10 
REMARK       I    between atoms: C13_18  and  N2_20 
REMARK    7  A    between atoms: N2_20  and  C14_22 
REMARK    8  A    between atoms: C14_22  and  C15_23 
ROOT
HETATM    1  C4  UNL     1      33.224 -20.849 -11.166  1.00  0.00     0.193 C 
ENDROOT
BRANCH   1   2
HETATM    2  C3  UNL     1      33.321 -19.850 -12.265  1.00  0.00    -0.011 C 
HETATM    3  C25 UNL     1      33.841 -18.494 -11.815  1.00  0.00     0.012 C 
HETATM    4  C26 UNL     1      32.709 -17.520 -11.850  1.00  0.00     0.001 C 
HETATM    5  C27 UNL     1      31.517 -18.214 -12.464  1.00  0.00     0.001 C 
HETATM    6  C28 UNL     1      31.983 -19.558 -12.916  1.00  0.00     0.012 C 
BRANCH   2   7
HETATM    7  C2  UNL     1      34.325 -20.325 -13.294  1.00  0.00     0.007 C 
HETATM    8  C1  UNL     1      35.318 -19.282 -13.681  1.00  0.00     0.006 C 
ENDBRANCH   2   7
ENDBRANCH   1   2
BRANCH   1   9
HETATM    9  N1  UNL     1      34.383 -21.634 -10.955  1.00  0.00    -0.301 N 
ATOM     10  H1  UNL     1      34.449 -22.482 -11.519  1.00  0.00     0.173 HD
BRANCH   9  11
HETATM   11  S1  UNL     1      35.616 -21.369  -9.942  1.00  0.00     0.260 S 
HETATM   12  O1  UNL     1      36.487 -20.239 -10.566  1.00  0.00    -0.200 OA
HETATM   13  O2  UNL     1      36.646 -22.505  -9.889  1.00  0.00    -0.200 OA
BRANCH  11  14
HETATM   14  C5  UNL     1      35.352 -20.817  -8.343  1.00  0.00     0.085 A 
HETATM   15  C6  UNL     1      35.356 -19.492  -8.016  1.00  0.00     0.026 A 
HETATM   16  C7  UNL     1      35.122 -18.999  -6.735  1.00  0.00     0.008 A 
HETATM   17  C8  UNL     1      34.868 -19.905  -5.733  1.00  0.00    -0.061 A 
HETATM   18  C9  UNL     1      34.609 -19.463  -4.345  1.00  0.00     0.048 C 
HETATM   19  C10 UNL     1      34.851 -21.242  -6.007  1.00  0.00     0.015 A 
HETATM   20  C11 UNL     1      35.088 -21.696  -7.284  1.00  0.00    -0.038 A 
HETATM   21  C12 UNL     1      35.061 -23.143  -7.532  1.00  0.00     0.050 C 
ENDBRANCH  11  14
ENDBRANCH   9  11
ENDBRANCH   1   9
BRANCH   1  22
HETATM   22  C13 UNL     1      32.068 -21.826 -11.480  1.00  0.00     0.241 C 
HETATM   23  O3  UNL     1      32.199 -22.750 -12.305  1.00  0.00    -0.271 OA
HETATM   24  N2  UNL     1      30.830 -21.698 -10.837  1.00  0.00    -0.359 N 
ATOM     25  H2  UNL     1      30.707 -20.951 -10.154  1.00  0.00     0.162 HD
BRANCH  24  26
HETATM   26  C14 UNL     1      29.713 -22.593 -11.108  1.00  0.00     0.132 C 
BRANCH  26  27
HETATM   27  C15 UNL     1      29.407 -23.472  -9.941  1.00  0.00    -0.023 C 
HETATM   28  C16 UNL     1      30.361 -24.629  -9.883  1.00  0.00     0.015 C 
HETATM   29  C17 UNL     1      30.023 -25.570  -8.764  1.00  0.00    -0.013 C 
HETATM   30  C18 UNL     1      29.953 -24.870  -7.424  1.00  0.00     0.009 C 
HETATM   31  C22 UNL     1      28.676 -26.189  -9.021  1.00  0.00     0.009 C 
HETATM   32  C19 UNL     1      28.968 -23.732  -7.552  1.00  0.00    -0.013 C 
HETATM   33  C20 UNL     1      27.614 -24.325  -7.787  1.00  0.00     0.009 C 
HETATM   34  C24 UNL     1      29.396 -22.770  -8.627  1.00  0.00     0.015 C 
HETATM   35  C21 UNL     1      27.659 -25.075  -9.109  1.00  0.00    -0.013 C 
HETATM   36  C23 UNL     1      28.014 -24.072 -10.173  1.00  0.00     0.015 C 
ENDBRANCH  26  27
ENDBRANCH  24  26
ENDBRANCH   1  22
TORSDOF 8
ENDMDL
MODEL 2
REMARK VINA RESULT: -10.184273511      0.132      1.256
REMARK  8 active torsions:
REMARK  status: ('A' for Active; 'I' for Inactive)
REMARK    1  A    between atoms: C2_2  and  C3_3 
REMARK    2  A    between atoms: C3_3  and  C4_4 
REMARK    3  A    between atoms: C4_4  and  N1_5 
REMARK    4  A    between atoms: C4_4  and  C13_18 
REMARK    5  A    between atoms: N1_5  and  S1_7 
REMARK    6  A    between atoms: S1_7  and  C5_10 
REMARK       I    between atoms: C13_18  and  N2_20 
REMARK    7  A    between atoms: N2_20  and  C14_22 
REMARK    8  A    between atoms: C14_22  and  C15_23 
ROOT
HETATM    1  C4  UNL     1      33.216 -20.886 -11.107  1.00  0.00     0.193 C 
ENDROOT
BRANCH   1   2
HETATM    2  C3  UNL     1      33.358 -19.840 -12.156  1.00  0.00    -0.011 C 
HETATM    3  C25 UNL     1      33.926 -18.528 -11.638  1.00  0.00     0.012 C 
HETATM    4  C26 UNL     1      32.833 -17.511 -11.632  1.00  0.00     0.001 C 
HETATM    5  C27 UNL     1      31.620 -18.128 -12.284  1.00  0.00     0.001 C 
HETATM    6  C28 UNL     1      32.036 -19.466 -12.798  1.00  0.00     0.012 C 
BRANCH   2   7
HETATM    7  C2  UNL     1      34.350 -20.303 -13.202  1.00  0.00     0.007 C 
HETATM    8  C1  UNL     1      35.339 -19.255 -13.588  1.00  0.00     0.006 C 
ENDBRANCH   2   7
ENDBRANCH   1   2
BRANCH   1   9
HETATM    9  N1  UNL     1      34.357 -21.697 -10.900  1.00  0.00    -0.301 N 
ATOM     10  H1  UNL     1      34.412 -22.536 -11.478  1.00  0.00     0.173 HD
BRANCH   9  11
HETATM   11  S1  UNL     1      35.585 -21.475  -9.871  1.00  0.00     0.260 S 
HETATM   12  O1  UNL     1      36.531 -20.415 -10.508  1.00  0.00    -0.200 OA
HETATM   13  O2  UNL     1      36.547 -22.666  -9.766  1.00  0.00    -0.200 OA
BRANCH  11  14
HETATM   14  C5  UNL     1      35.325 -20.864  -8.293  1.00  0.00     0.085 A 
HETATM   15  C6  UNL     1      35.345 -19.528  -8.013  1.00  0.00     0.026 A 
HETATM   16  C7  UNL     1      35.114 -18.988  -6.750  1.00  0.00     0.008 A 
HETATM   17  C8  UNL     1      34.847 -19.854  -5.718  1.00  0.00    -0.061 A 
HETATM   18  C9  UNL     1      34.591 -19.360  -4.346  1.00  0.00     0.048 C 
HETATM   19  C10 UNL     1      34.816 -21.200  -5.944  1.00  0.00     0.015 A 
HETATM   20  C11 UNL     1      35.049 -21.702  -7.204  1.00  0.00    -0.038 A 
HETATM   21  C12 UNL     1      35.005 -23.156  -7.400  1.00  0.00     0.050 C 
ENDBRANCH  11  14
ENDBRANCH   9  11
ENDBRANCH   1   9
BRANCH   1  22
HETATM   22  C13 UNL     1      32.056 -21.831 -11.499  1.00  0.00     0.241 C 
HETATM   23  O3  UNL     1      32.178 -22.674 -12.406  1.00  0.00    -0.271 OA
HETATM   24  N2  UNL     1      30.825 -21.763 -10.834  1.00  0.00    -0.359 N 
ATOM     25  H2  UNL     1      30.708 -21.082 -10.083  1.00  0.00     0.162 HD
BRANCH  24  26
HETATM   26  C14 UNL     1      29.704 -22.630 -11.175  1.00  0.00     0.132 C 
BRANCH  26  27
HETATM   27  C15 UNL     1      29.298 -23.492 -10.027  1.00  0.00    -0.023 C 
HETATM   28  C16 UNL     1      29.395 -22.738  -8.734  1.00  0.00     0.015 C 
HETATM   29  C17 UNL     1      29.067 -23.609  -7.558  1.00  0.00    -0.013 C 
HETATM   30  C18 UNL     1      27.712 -24.268  -7.688  1.00  0.00     0.009 C 
HETATM   31  C22 UNL     1      30.093 -24.705  -7.447  1.00  0.00     0.009 C 
HETATM   32  C19 UNL     1      27.691 -25.019  -8.999  1.00  0.00    -0.013 C 
HETATM   33  C20 UNL     1      28.690 -26.130  -8.905  1.00  0.00     0.009 C 
HETATM   34  C24 UNL     1      27.938 -24.087 -10.155  1.00  0.00     0.015 C 
HETATM   35  C21 UNL     1      30.065 -25.504  -8.729  1.00  0.00    -0.013 C 
HETATM   36  C23 UNL     1      30.313 -24.640  -9.935  1.00  0.00     0.015 C 
ENDBRANCH  26  27
ENDBRANCH  24  26
ENDBRANCH   1  22
TORSDOF 8
ENDMDL
MODEL 3
REMARK VINA RESULT: -10.116133356      0.568      1.833
REMARK  8 active torsions:
REMARK  status: ('A' for Active; 'I' for Inactive)
REMARK    1  A    between atoms: C2_2  and  C3_3 
REMARK    2  A    between atoms: C3_3  and  C4_4 
REMARK    3  A    between atoms: C4_4  and  N1_5 
REMARK    4  A    between atoms: C4_4  and  C13_18 
REMARK    5  A    between atoms: N1_5  and  S1_7 
REMARK    6  A    between atoms: S1_7  and  C5_10 
REMARK       I    between atoms: C13_18  and  N2_20 
REMARK    7  A    between atoms: N2_20  and  C14_22 
REMARK    8  A    between atoms: C14_22  and  C15_23 
ROOT
HETATM    1  C4  UNL     1      32.946 -20.632 -10.954  1.00  0.00     0.193 C 
ENDROOT
BRANCH   1   2
HETATM    2  C3  UNL     1      32.758 -19.398 -11.764  1.00  0.00    -0.011 C 
HETATM    3  C25 UNL     1      33.788 -19.229 -12.870  1.00  0.00     0.012 C 
HETATM    4  C26 UNL     1      34.704 -18.111 -12.493  1.00  0.00     0.001 C 
HETATM    5  C27 UNL     1      34.169 -17.475 -11.234  1.00  0.00     0.001 C 
HETATM    6  C28 UNL     1      32.860 -18.129 -10.939  1.00  0.00     0.012 C 
BRANCH   2   7
HETATM    7  C2  UNL     1      31.427 -19.462 -12.484  1.00  0.00     0.007 C 
HETATM    8  C1  UNL     1      30.504 -18.347 -12.126  1.00  0.00     0.006 C 
ENDBRANCH   2   7
ENDBRANCH   1   2
BRANCH   1   9
HETATM    9  N1  UNL     1      34.208 -21.257 -11.083  1.00  0.00    -0.301 N 
ATOM     10  H1  UNL     1      34.336 -21.823 -11.922  1.00  0.00     0.173 HD
BRANCH   9  11
HETATM   11  S1  UNL     1      35.476 -21.196 -10.081  1.00  0.00     0.260 S 
HETATM   12  O1  UNL     1      36.441 -20.103 -10.628  1.00  0.00    -0.200 OA
HETATM   13  O2  UNL     1      36.395 -22.424 -10.147  1.00  0.00    -0.200 OA
BRANCH  11  14
HETATM   14  C5  UNL     1      35.291 -20.760  -8.435  1.00  0.00     0.085 A 
HETATM   15  C6  UNL     1      35.303 -19.462  -8.016  1.00  0.00     0.026 A 
HETATM   16  C7  UNL     1      35.131 -19.062  -6.693  1.00  0.00     0.008 A 
HETATM   17  C8  UNL     1      34.935 -20.039  -5.747  1.00  0.00    -0.061 A 
HETATM   18  C9  UNL     1      34.744 -19.697  -4.319  1.00  0.00     0.048 C 
HETATM   19  C10 UNL     1      34.914 -21.354  -6.113  1.00  0.00     0.015 A 
HETATM   20  C11 UNL     1      35.088 -21.714  -7.429  1.00  0.00    -0.038 A 
HETATM   21  C12 UNL     1      35.058 -23.140  -7.777  1.00  0.00     0.050 C 
ENDBRANCH  11  14
ENDBRANCH   9  11
ENDBRANCH   1   9
BRANCH   1  22
HETATM   22  C13 UNL     1      31.882 -21.672 -11.376  1.00  0.00     0.241 C 
HETATM   23  O3  UNL     1      32.097 -22.495 -12.285  1.00  0.00    -0.271 OA
HETATM   24  N2  UNL     1      30.636 -21.718 -10.737  1.00  0.00    -0.359 N 
ATOM     25  H2  UNL     1      30.444 -21.055  -9.986  1.00  0.00     0.162 HD
BRANCH  24  26
HETATM   26  C14 UNL     1      29.603 -22.677 -11.107  1.00  0.00     0.132 C 
BRANCH  26  27
HETATM   27  C15 UNL     1      29.210 -23.543  -9.958  1.00  0.00    -0.023 C 
HETATM   28  C16 UNL     1      29.282 -22.780  -8.668  1.00  0.00     0.015 C 
HETATM   29  C17 UNL     1      28.967 -23.653  -7.489  1.00  0.00    -0.013 C 
HETATM   30  C18 UNL     1      27.628 -24.344  -7.624  1.00  0.00     0.009 C 
HETATM   31  C22 UNL     1      30.017 -24.723  -7.365  1.00  0.00     0.009 C 
HETATM   32  C19 UNL     1      27.634 -25.102  -8.931  1.00  0.00    -0.013 C 
HETATM   33  C20 UNL     1      28.658 -26.188  -8.824  1.00  0.00     0.009 C 
HETATM   34  C24 UNL     1      27.866 -24.171 -10.090  1.00  0.00     0.015 C 
HETATM   35  C21 UNL     1      30.016 -25.529  -8.643  1.00  0.00    -0.013 C 
HETATM   36  C23 UNL     1      30.252 -24.666  -9.853  1.00  0.00     0.015 C 
ENDBRANCH  26  27
ENDBRANCH  24  26
ENDBRANCH   1  22
TORSDOF 8
ENDMDL
MODEL 4
REMARK VINA RESULT: -10.029422980      1.966      2.986
REMARK  8 active torsions:
REMARK  status: ('A' for Active; 'I' for Inactive)
REMARK    1  A    between atoms: C2_2  and  C3_3 
REMARK    2  A    between atoms: C3_3  and  C4_4 
REMARK    3  A    between atoms: C4_4  and  N1_5 
REMARK    4  A    between atoms: C4_4  and  C13_18 
REMARK    5  A    between atoms: N1_5  and  S1_7 
REMARK    6  A    between atoms: S1_7  and  C5_10 
REMARK       I    between atoms: C13_18  and  N2_20 
REMARK    7  A    between atoms: N2_20  and  C14_22 
REMARK    8  A    between atoms: C14_22  and  C15_23 
ROOT
HETATM    1  C4  UNL     1      31.765 -20.975 -11.647  1.00  0.00     0.193 C 
ENDROOT
BRANCH   1   2
HETATM    2  C3  UNL     1      31.127 -19.654 -11.900  1.00  0.00    -0.011 C 
HETATM    3  C25 UNL     1      31.695 -18.921 -13.105  1.00  0.00     0.012 C 
HETATM    4  C26 UNL     1      32.493 -17.758 -12.617  1.00  0.00     0.001 C 
HETATM    5  C27 UNL     1      32.309 -17.663 -11.122  1.00  0.00     0.001 C 
HETATM    6  C28 UNL     1      31.292 -18.688 -10.743  1.00  0.00     0.012 C 
BRANCH   2   7
HETATM    7  C2  UNL     1      29.662 -19.854 -12.225  1.00  0.00     0.007 C 
HETATM    8  C1  UNL     1      28.857 -18.602 -12.136  1.00  0.00     0.006 C 
ENDBRANCH   2   7
ENDBRANCH   1   2
BRANCH   1   9
HETATM    9  N1  UNL     1      32.785 -21.341 -12.557  1.00  0.00    -0.301 N 
ATOM     10  H1  UNL     1      32.469 -21.794 -13.414  1.00  0.00     0.173 HD
BRANCH   9  11
HETATM   11  S1  UNL     1      34.384 -21.138 -12.422  1.00  0.00     0.260 S 
HETATM   12  O1  UNL     1      34.881 -20.512 -13.758  1.00  0.00    -0.200 OA
HETATM   13  O2  UNL     1      35.190 -22.444 -12.421  1.00  0.00    -0.200 OA
BRANCH  11  14
HETATM   14  C5  UNL     1      35.054 -20.102 -11.235  1.00  0.00     0.085 A 
HETATM   15  C6  UNL     1      35.642 -18.911 -11.551  1.00  0.00     0.026 A 
HETATM   16  C7  UNL     1      36.176 -18.028 -10.616  1.00  0.00     0.008 A 
HETATM   17  C8  UNL     1      36.106 -18.375  -9.289  1.00  0.00    -0.061 A 
HETATM   18  C9  UNL     1      36.650 -17.491  -8.234  1.00  0.00     0.048 C 
HETATM   19  C10 UNL     1      35.526 -19.554  -8.919  1.00  0.00     0.015 A 
HETATM   20  C11 UNL     1      35.009 -20.405  -9.868  1.00  0.00    -0.038 A 
HETATM   21  C12 UNL     1      34.396 -21.663  -9.424  1.00  0.00     0.050 C 
ENDBRANCH  11  14
ENDBRANCH   9  11
ENDBRANCH   1   9
BRANCH   1  22
HETATM   22  C13 UNL     1      30.681 -22.075 -11.718  1.00  0.00     0.241 C 
HETATM   23  O3  UNL     1      30.585 -22.835 -12.699  1.00  0.00    -0.271 OA
HETATM   24  N2  UNL     1      29.771 -22.249 -10.667  1.00  0.00    -0.359 N 
ATOM     25  H2  UNL     1      29.839 -21.639  -9.852  1.00  0.00     0.162 HD
BRANCH  24  26
HETATM   26  C14 UNL     1      28.730 -23.269 -10.696  1.00  0.00     0.132 C 
BRANCH  26  27
HETATM   27  C15 UNL     1      28.659 -24.028  -9.414  1.00  0.00    -0.023 C 
HETATM   28  C16 UNL     1      27.289 -24.607  -9.214  1.00  0.00     0.015 C 
HETATM   29  C17 UNL     1      27.170 -25.307  -7.893  1.00  0.00    -0.013 C 
HETATM   30  C18 UNL     1      28.230 -26.372  -7.706  1.00  0.00     0.009 C 
HETATM   31  C22 UNL     1      27.335 -24.307  -6.781  1.00  0.00     0.009 C 
HETATM   32  C19 UNL     1      29.577 -25.717  -7.906  1.00  0.00    -0.013 C 
HETATM   33  C20 UNL     1      29.773 -24.731  -6.797  1.00  0.00     0.009 C 
HETATM   34  C24 UNL     1      29.678 -25.105  -9.277  1.00  0.00     0.015 C 
HETATM   35  C21 UNL     1      28.696 -23.666  -6.926  1.00  0.00    -0.013 C 
HETATM   36  C23 UNL     1      28.872 -23.022  -8.274  1.00  0.00     0.015 C 
ENDBRANCH  26  27
ENDBRANCH  24  26
ENDBRANCH   1  22
TORSDOF 8
ENDMDL
MODEL 5
REMARK VINA RESULT: -10.009682102      1.479      2.101
REMARK  8 active torsions:
REMARK  status: ('A' for Active; 'I' for Inactive)
REMARK    1  A    between atoms: C2_2  and  C3_3 
REMARK    2  A    between atoms: C3_3  and  C4_4 
REMARK    3  A    between atoms: C4_4  and  N1_5 
REMARK    4  A    between atoms: C4_4  and  C13_18 
REMARK    5  A    between atoms: N1_5  and  S1_7 
REMARK    6  A    between atoms: S1_7  and  C5_10 
REMARK       I    between atoms: C13_18  and  N2_20 
REMARK    7  A    between atoms: N2_20  and  C14_22 
REMARK    8  A    between atoms: C14_22  and  C15_23 
ROOT
HETATM    1  C4  UNL     1      32.947 -21.584 -11.260  1.00  0.00     0.193 C 
ENDROOT
BRANCH   1   2
HETATM    2  C3  UNL     1      32.025 -21.403 -12.414  1.00  0.00    -0.011 C 
HETATM    3  C25 UNL     1      31.692 -19.950 -12.709  1.00  0.00     0.012 C 
HETATM    4  C26 UNL     1      30.272 -19.703 -12.318  1.00  0.00     0.001 C 
HETATM    5  C27 UNL     1      29.662 -21.026 -11.922  1.00  0.00     0.001 C 
HETATM    6  C28 UNL     1      30.683 -22.078 -12.207  1.00  0.00     0.012 C 
BRANCH   2   7
HETATM    7  C2  UNL     1      32.689 -21.910 -13.677  1.00  0.00     0.007 C 
HETATM    8  C1  UNL     1      31.798 -22.761 -14.517  1.00  0.00     0.006 C 
ENDBRANCH   2   7
ENDBRANCH   1   2
BRANCH   1   9
HETATM    9  N1  UNL     1      34.325 -21.478 -11.561  1.00  0.00    -0.301 N 
ATOM     10  H1  UNL     1      34.624 -21.930 -12.425  1.00  0.00     0.173 HD
BRANCH   9  11
HETATM   11  S1  UNL     1      35.492 -20.736 -10.721  1.00  0.00     0.260 S 
HETATM   12  O1  UNL     1      35.581 -19.275 -11.251  1.00  0.00    -0.200 OA
HETATM   13  O2  UNL     1      36.911 -21.225 -11.040  1.00  0.00    -0.200 OA
BRANCH  11  14
HETATM   14  C5  UNL     1      35.373 -20.526  -9.025  1.00  0.00     0.085 A 
HETATM   15  C6  UNL     1      35.207 -19.300  -8.449  1.00  0.00     0.026 A 
HETATM   16  C7  UNL     1      35.081 -19.088  -7.079  1.00  0.00     0.008 A 
HETATM   17  C8  UNL     1      35.125 -20.183  -6.251  1.00  0.00    -0.061 A 
HETATM   18  C9  UNL     1      34.998 -20.042  -4.783  1.00  0.00     0.048 C 
HETATM   19  C10 UNL     1      35.289 -21.433  -6.776  1.00  0.00     0.015 A 
HETATM   20  C11 UNL     1      35.411 -21.608  -8.135  1.00  0.00    -0.038 A 
HETATM   21  C12 UNL     1      35.586 -22.970  -8.655  1.00  0.00     0.050 C 
ENDBRANCH  11  14
ENDBRANCH   9  11
ENDBRANCH   1   9
BRANCH   1  22
HETATM   22  C13 UNL     1      32.724 -22.991 -10.658  1.00  0.00     0.241 C 
HETATM   23  O3  UNL     1      33.102 -24.021 -11.248  1.00  0.00    -0.271 OA
HETATM   24  N2  UNL     1      32.086 -23.146  -9.421  1.00  0.00    -0.359 N 
ATOM     25  H2  UNL     1      31.775 -22.313  -8.921  1.00  0.00     0.162 HD
BRANCH  24  26
HETATM   26  C14 UNL     1      31.851 -24.453  -8.821  1.00  0.00     0.132 C 
BRANCH  26  27
HETATM   27  C15 UNL     1      30.449 -24.598  -8.333  1.00  0.00    -0.023 C 
HETATM   28  C16 UNL     1      29.761 -25.740  -9.022  1.00  0.00     0.015 C 
HETATM   29  C17 UNL     1      28.324 -25.854  -8.604  1.00  0.00    -0.013 C 
HETATM   30  C18 UNL     1      28.166 -25.965  -7.104  1.00  0.00     0.009 C 
HETATM   31  C22 UNL     1      27.576 -24.626  -9.047  1.00  0.00     0.009 C 
HETATM   32  C19 UNL     1      28.867 -24.780  -6.480  1.00  0.00    -0.013 C 
HETATM   33  C20 UNL     1      28.126 -23.545  -6.890  1.00  0.00     0.009 C 
HETATM   34  C24 UNL     1      30.323 -24.759  -6.858  1.00  0.00     0.015 C 
HETATM   35  C21 UNL     1      28.227 -23.424  -8.402  1.00  0.00    -0.013 C 
HETATM   36  C23 UNL     1      29.689 -23.327  -8.740  1.00  0.00     0.015 C 
ENDBRANCH  26  27
ENDBRANCH  24  26
ENDBRANCH   1  22
TORSDOF 8
ENDMDL
