MODEL 1
REMARK VINA RESULT: -8.737369672      0.000      0.000
REMARK  8 active torsions:
REMARK  status: ('A' for Active; 'I' for Inactive)
REMARK    1  A    between atoms: C3_3  and  C4_4 
REMARK    2  A    between atoms: C4_4  and  N1_7 
REMARK    3  A    between atoms: N1_7  and  C7_8 
REMARK       I    between atoms: N1_7  and  C12_14 
REMARK    4  A    between atoms: C7_8  and  C8_9 
REMARK    5  A    between atoms: C12_14  and  C13_16 
REMARK    6  A    between atoms: C13_16  and  C14_19 
REMARK    7  A    between atoms: C14_19  and  O3_20 
REMARK    8  A    between atoms: N2_22  and  O4_24 
ROOT
HETATM    1  N1  UNL     1      27.954   9.702   2.168  1.00  0.00    -0.307 N 
HETATM    2  C12 UNL     1      28.177  10.242   0.885  1.00  0.00     0.306 C 
HETATM    3  O2  UNL     1      28.912   9.608   0.035  1.00  0.00    -0.266 OA
ENDROOT
BRANCH   1   4
HETATM    4  C4  UNL     1      28.492   8.375   2.454  1.00  0.00     0.060 C 
HETATM    5  C5  UNL     1      28.887   8.562   3.940  1.00  0.00     0.044 C 
HETATM    6  C6  UNL     1      29.814   8.183   1.725  1.00  0.00     0.044 C 
BRANCH   4   7
HETATM    7  C3  UNL     1      27.673   7.192   2.263  1.00  0.00    -0.006 A 
HETATM    8  C2  UNL     1      27.317   6.288   3.154  1.00  0.00     0.021 A 
HETATM    9  C1  UNL     1      27.610   6.165   4.616  1.00  0.00     0.055 C 
HETATM   10  C18 UNL     1      26.457   5.263   2.553  1.00  0.00     0.290 A 
HETATM   11  O5  UNL     1      26.295   5.574   1.248  1.00  0.00    -0.302 OA
HETATM   12  O6  UNL     1      25.921   4.243   3.077  1.00  0.00    -0.260 OA
HETATM   13  C15 UNL     1      26.939   6.811   1.022  1.00  0.00     0.090 A 
HETATM   14  C16 UNL     1      27.773   6.564  -0.200  1.00  0.00     0.051 C 
HETATM   15  C17 UNL     1      25.821   7.740   0.633  1.00  0.00     0.051 C 
ENDBRANCH   4   7
ENDBRANCH   1   4
BRANCH   1  16
HETATM   16  C7  UNL     1      27.100  10.326   3.106  1.00  0.00     0.132 C 
BRANCH  16  17
HETATM   17  C8  UNL     1      27.438  11.544   3.821  1.00  0.00     0.090 A 
HETATM   18  C9  UNL     1      27.619  11.468   5.231  1.00  0.00     0.040 A 
HETATM   19  C10 UNL     1      27.925  12.718   5.680  1.00  0.00     0.027 A 
HETATM   20  C11 UNL     1      27.929  13.531   4.577  1.00  0.00     0.142 A 
HETATM   21  O1  UNL     1      27.644  12.778   3.575  1.00  0.00    -0.321 OA
ENDBRANCH  16  17
ENDBRANCH   1  16
BRANCH   2  22
HETATM   22  C13 UNL     1      27.656  11.502   0.322  1.00  0.00     0.387 C 
HETATM   23  F1  UNL     1      26.469  11.943   0.786  1.00  0.00    -0.186 F 
HETATM   24  F2  UNL     1      28.559  12.540   0.722  1.00  0.00    -0.186 F 
BRANCH  22  25
HETATM   25  C14 UNL     1      27.753  11.467  -1.177  1.00  0.00     0.219 C 
HETATM   26  N2  UNL     1      28.240  12.488  -1.811  1.00  0.00    -0.245 N 
ATOM     27  H2  UNL     1      28.547  13.294  -1.267  1.00  0.00     0.196 HD
BRANCH  25  28
HETATM   28  O3  UNL     1      27.352  10.405  -1.956  1.00  0.00    -0.343 OA
ATOM     29  H3  UNL     1      27.394  10.392  -2.904  1.00  0.00     0.219 HD
ENDBRANCH  25  28
BRANCH  26  30
HETATM   30  O4  UNL     1      28.364  12.540  -3.175  1.00  0.00    -0.288 OA
ATOM     31  H4  UNL     1      29.139  12.247  -3.641  1.00  0.00     0.244 HD
ENDBRANCH  26  30
ENDBRANCH  22  25
ENDBRANCH   2  22
TORSDOF 8
ENDMDL
MODEL 2
REMARK VINA RESULT: -8.611366333      2.002      4.176
REMARK  8 active torsions:
REMARK  status: ('A' for Active; 'I' for Inactive)
REMARK    1  A    between atoms: C3_3  and  C4_4 
REMARK    2  A    between atoms: C4_4  and  N1_7 
REMARK    3  A    between atoms: N1_7  and  C7_8 
REMARK       I    between atoms: N1_7  and  C12_14 
REMARK    4  A    between atoms: C7_8  and  C8_9 
REMARK    5  A    between atoms: C12_14  and  C13_16 
REMARK    6  A    between atoms: C13_16  and  C14_19 
REMARK    7  A    between atoms: C14_19  and  O3_20 
REMARK    8  A    between atoms: N2_22  and  O4_24 
ROOT
HETATM    1  N1  UNL     1      27.426   8.448   1.111  1.00  0.00    -0.307 N 
HETATM    2  C12 UNL     1      27.907   9.763   1.273  1.00  0.00     0.306 C 
HETATM    3  O2  UNL     1      28.967   9.982   1.977  1.00  0.00    -0.266 OA
ENDROOT
BRANCH   1   4
HETATM    4  C4  UNL     1      28.216   7.357   1.675  1.00  0.00     0.060 C 
HETATM    5  C5  UNL     1      29.564   8.088   1.893  1.00  0.00     0.044 C 
HETATM    6  C6  UNL     1      28.509   6.320   0.601  1.00  0.00     0.044 C 
BRANCH   4   7
HETATM    7  C3  UNL     1      27.775   6.676   2.878  1.00  0.00    -0.006 A 
HETATM    8  C2  UNL     1      27.826   7.100   4.126  1.00  0.00     0.021 A 
HETATM    9  C1  UNL     1      28.327   8.378   4.721  1.00  0.00     0.055 C 
HETATM   10  C18 UNL     1      27.247   6.113   5.043  1.00  0.00     0.290 A 
HETATM   11  O5  UNL     1      26.833   5.058   4.307  1.00  0.00    -0.302 OA
HETATM   12  O6  UNL     1      27.116   6.154   6.303  1.00  0.00    -0.260 OA
HETATM   13  C15 UNL     1      27.039   5.381   2.948  1.00  0.00     0.090 A 
HETATM   14  C16 UNL     1      27.746   4.179   2.396  1.00  0.00     0.051 C 
HETATM   15  C17 UNL     1      25.653   5.405   2.364  1.00  0.00     0.051 C 
ENDBRANCH   4   7
ENDBRANCH   1   4
BRANCH   1  16
HETATM   16  C7  UNL     1      26.312   8.154   0.291  1.00  0.00     0.132 C 
BRANCH  16  17
HETATM   17  C8  UNL     1      26.413   7.817  -1.118  1.00  0.00     0.090 A 
HETATM   18  C9  UNL     1      25.641   6.723  -1.604  1.00  0.00     0.040 A 
HETATM   19  C10 UNL     1      25.895   6.595  -2.938  1.00  0.00     0.027 A 
HETATM   20  C11 UNL     1      26.794   7.580  -3.253  1.00  0.00     0.142 A 
HETATM   21  O1  UNL     1      27.026   8.218  -2.161  1.00  0.00    -0.321 OA
ENDBRANCH  16  17
ENDBRANCH   1  16
BRANCH   2  22
HETATM   22  C13 UNL     1      27.357  11.012   0.715  1.00  0.00     0.387 C 
HETATM   23  F1  UNL     1      26.027  11.209   0.830  1.00  0.00    -0.186 F 
HETATM   24  F2  UNL     1      27.904  12.088   1.486  1.00  0.00    -0.186 F 
BRANCH  22  25
HETATM   25  C14 UNL     1      27.889  11.227  -0.674  1.00  0.00     0.219 C 
HETATM   26  N2  UNL     1      27.474  12.240  -1.369  1.00  0.00    -0.245 N 
ATOM     27  H2  UNL     1      26.790  12.868  -0.947  1.00  0.00     0.196 HD
BRANCH  25  28
HETATM   28  O3  UNL     1      28.810  10.409  -1.287  1.00  0.00    -0.343 OA
ATOM     29  H3  UNL     1      29.749  10.469  -1.156  1.00  0.00     0.219 HD
ENDBRANCH  25  28
BRANCH  26  30
HETATM   30  O4  UNL     1      27.907  12.511  -2.641  1.00  0.00    -0.288 OA
ATOM     31  H4  UNL     1      27.321  12.609  -3.383  1.00  0.00     0.244 HD
ENDBRANCH  26  30
ENDBRANCH  22  25
ENDBRANCH   2  22
TORSDOF 8
ENDMDL
MODEL 3
REMARK VINA RESULT: -8.378657250      1.989      4.322
REMARK  8 active torsions:
REMARK  status: ('A' for Active; 'I' for Inactive)
REMARK    1  A    between atoms: C3_3  and  C4_4 
REMARK    2  A    between atoms: C4_4  and  N1_7 
REMARK    3  A    between atoms: N1_7  and  C7_8 
REMARK       I    between atoms: N1_7  and  C12_14 
REMARK    4  A    between atoms: C7_8  and  C8_9 
REMARK    5  A    between atoms: C12_14  and  C13_16 
REMARK    6  A    between atoms: C13_16  and  C14_19 
REMARK    7  A    between atoms: C14_19  and  O3_20 
REMARK    8  A    between atoms: N2_22  and  O4_24 
ROOT
HETATM    1  N1  UNL     1      27.348   8.587   1.410  1.00  0.00    -0.307 N 
HETATM    2  C12 UNL     1      27.802   9.920   1.486  1.00  0.00     0.306 C 
HETATM    3  O2  UNL     1      28.837  10.210   2.199  1.00  0.00    -0.266 OA
ENDROOT
BRANCH   1   4
HETATM    4  C4  UNL     1      28.140   7.556   2.076  1.00  0.00     0.060 C 
HETATM    5  C5  UNL     1      29.525   8.251   2.089  1.00  0.00     0.044 C 
HETATM    6  C6  UNL     1      28.317   6.361   1.151  1.00  0.00     0.044 C 
BRANCH   4   7
HETATM    7  C3  UNL     1      27.768   7.080   3.395  1.00  0.00    -0.006 A 
HETATM    8  C2  UNL     1      27.388   5.869   3.754  1.00  0.00     0.021 A 
HETATM    9  C1  UNL     1      27.219   4.608   2.968  1.00  0.00     0.055 C 
HETATM   10  C18 UNL     1      27.129   5.803   5.196  1.00  0.00     0.290 A 
HETATM   11  O5  UNL     1      27.367   7.027   5.716  1.00  0.00    -0.302 OA
HETATM   12  O6  UNL     1      26.751   4.826   5.909  1.00  0.00    -0.260 OA
HETATM   13  C15 UNL     1      27.861   7.842   4.674  1.00  0.00     0.090 A 
HETATM   14  C16 UNL     1      27.036   9.090   4.771  1.00  0.00     0.051 C 
HETATM   15  C17 UNL     1      29.260   8.185   5.109  1.00  0.00     0.051 C 
ENDBRANCH   4   7
ENDBRANCH   1   4
BRANCH   1  16
HETATM   16  C7  UNL     1      26.263   8.211   0.586  1.00  0.00     0.132 C 
BRANCH  16  17
HETATM   17  C8  UNL     1      26.399   7.855  -0.816  1.00  0.00     0.090 A 
HETATM   18  C9  UNL     1      25.601   6.789  -1.319  1.00  0.00     0.040 A 
HETATM   19  C10 UNL     1      25.896   6.637  -2.642  1.00  0.00     0.027 A 
HETATM   20  C11 UNL     1      26.844   7.581  -2.934  1.00  0.00     0.142 A 
HETATM   21  O1  UNL     1      27.064   8.221  -1.841  1.00  0.00    -0.321 OA
ENDBRANCH  16  17
ENDBRANCH   1  16
BRANCH   2  22
HETATM   22  C13 UNL     1      27.246  11.112   0.821  1.00  0.00     0.387 C 
HETATM   23  F1  UNL     1      25.908  11.280   0.866  1.00  0.00    -0.186 F 
HETATM   24  F2  UNL     1      27.733  12.253   1.539  1.00  0.00    -0.186 F 
BRANCH  22  25
HETATM   25  C14 UNL     1      27.833  11.248  -0.556  1.00  0.00     0.219 C 
HETATM   26  N2  UNL     1      27.384  12.164  -1.356  1.00  0.00    -0.245 N 
ATOM     27  H2  UNL     1      26.636  12.772  -1.023  1.00  0.00     0.196 HD
BRANCH  25  28
HETATM   28  O3  UNL     1      28.841  10.452  -1.051  1.00  0.00    -0.343 OA
ATOM     29  H3  UNL     1      29.037  10.350  -1.974  1.00  0.00     0.219 HD
ENDBRANCH  25  28
BRANCH  26  30
HETATM   30  O4  UNL     1      27.862  12.357  -2.626  1.00  0.00    -0.288 OA
ATOM     31  H4  UNL     1      28.598  11.876  -2.986  1.00  0.00     0.244 HD
ENDBRANCH  26  30
ENDBRANCH  22  25
ENDBRANCH   2  22
TORSDOF 8
ENDMDL
MODEL 4
REMARK VINA RESULT: -8.329600820      3.049      6.803
REMARK  8 active torsions:
REMARK  status: ('A' for Active; 'I' for Inactive)
REMARK    1  A    between atoms: C3_3  and  C4_4 
REMARK    2  A    between atoms: C4_4  and  N1_7 
REMARK    3  A    between atoms: N1_7  and  C7_8 
REMARK       I    between atoms: N1_7  and  C12_14 
REMARK    4  A    between atoms: C7_8  and  C8_9 
REMARK    5  A    between atoms: C12_14  and  C13_16 
REMARK    6  A    between atoms: C13_16  and  C14_19 
REMARK    7  A    between atoms: C14_19  and  O3_20 
REMARK    8  A    between atoms: N2_22  and  O4_24 
ROOT
HETATM    1  N1  UNL     1      27.310   7.572   1.336  1.00  0.00    -0.307 N 
HETATM    2  C12 UNL     1      27.503   6.523   2.258  1.00  0.00     0.306 C 
HETATM    3  O2  UNL     1      28.536   6.523   3.031  1.00  0.00    -0.266 OA
ENDROOT
BRANCH   1   4
HETATM    4  C4  UNL     1      28.254   8.686   1.361  1.00  0.00     0.060 C 
HETATM    5  C5  UNL     1      28.307   9.025  -0.149  1.00  0.00     0.044 C 
HETATM    6  C6  UNL     1      29.649   8.177   1.692  1.00  0.00     0.044 C 
BRANCH   4   7
HETATM    7  C3  UNL     1      27.979   9.864   2.164  1.00  0.00    -0.006 A 
HETATM    8  C2  UNL     1      27.966   9.977   3.478  1.00  0.00     0.021 A 
HETATM    9  C1  UNL     1      28.223   8.980   4.563  1.00  0.00     0.055 C 
HETATM   10  C18 UNL     1      27.670  11.354   3.886  1.00  0.00     0.290 A 
HETATM   11  O5  UNL     1      27.502  12.090   2.766  1.00  0.00    -0.302 OA
HETATM   12  O6  UNL     1      27.570  11.853   5.046  1.00  0.00    -0.260 OA
HETATM   13  C15 UNL     1      27.777  11.254   1.662  1.00  0.00     0.090 A 
HETATM   14  C16 UNL     1      26.609  11.471   0.746  1.00  0.00     0.051 C 
HETATM   15  C17 UNL     1      28.984  11.880   1.020  1.00  0.00     0.051 C 
ENDBRANCH   4   7
ENDBRANCH   1   4
BRANCH   1  16
HETATM   16  C7  UNL     1      26.159   7.650   0.520  1.00  0.00     0.132 C 
BRANCH  16  17
HETATM   17  C8  UNL     1      26.060   7.049  -0.799  1.00  0.00     0.090 A 
HETATM   18  C9  UNL     1      26.932   5.969  -1.112  1.00  0.00     0.040 A 
HETATM   19  C10 UNL     1      26.662   5.572  -2.389  1.00  0.00     0.027 A 
HETATM   20  C11 UNL     1      25.656   6.387  -2.838  1.00  0.00     0.142 A 
HETATM   21  O1  UNL     1      25.383   7.188  -1.870  1.00  0.00    -0.321 OA
ENDBRANCH  16  17
ENDBRANCH   1  16
BRANCH   2  22
HETATM   22  C13 UNL     1      26.641   5.352   2.500  1.00  0.00     0.387 C 
HETATM   23  F1  UNL     1      25.317   5.500   2.283  1.00  0.00    -0.186 F 
HETATM   24  F2  UNL     1      27.010   4.358   1.537  1.00  0.00    -0.186 F 
BRANCH  22  25
HETATM   25  C14 UNL     1      26.977   4.738   3.831  1.00  0.00     0.219 C 
HETATM   26  N2  UNL     1      26.776   5.416   4.917  1.00  0.00    -0.245 N 
ATOM     27  H2  UNL     1      26.391   6.357   4.836  1.00  0.00     0.196 HD
BRANCH  25  28
HETATM   28  O3  UNL     1      27.497   3.474   3.992  1.00  0.00    -0.343 OA
ATOM     29  H3  UNL     1      28.249   3.272   4.536  1.00  0.00     0.219 HD
ENDBRANCH  25  28
BRANCH  26  30
HETATM   30  O4  UNL     1      27.053   4.934   6.170  1.00  0.00    -0.288 OA
ATOM     31  H4  UNL     1      27.907   4.606   6.427  1.00  0.00     0.244 HD
ENDBRANCH  26  30
ENDBRANCH  22  25
ENDBRANCH   2  22
TORSDOF 8
ENDMDL
MODEL 5
REMARK VINA RESULT: -8.132475292      2.169      4.555
REMARK  8 active torsions:
REMARK  status: ('A' for Active; 'I' for Inactive)
REMARK    1  A    between atoms: C3_3  and  C4_4 
REMARK    2  A    between atoms: C4_4  and  N1_7 
REMARK    3  A    between atoms: N1_7  and  C7_8 
REMARK       I    between atoms: N1_7  and  C12_14 
REMARK    4  A    between atoms: C7_8  and  C8_9 
REMARK    5  A    between atoms: C12_14  and  C13_16 
REMARK    6  A    between atoms: C13_16  and  C14_19 
REMARK    7  A    between atoms: C14_19  and  O3_20 
REMARK    8  A    between atoms: N2_22  and  O4_24 
ROOT
HETATM    1  N1  UNL     1      27.327   8.591   1.398  1.00  0.00    -0.307 N 
HETATM    2  C12 UNL     1      27.935   9.860   1.316  1.00  0.00     0.306 C 
HETATM    3  O2  UNL     1      29.058  10.079   1.913  1.00  0.00    -0.266 OA
ENDROOT
BRANCH   1   4
HETATM    4  C4  UNL     1      28.055   7.528   2.087  1.00  0.00     0.060 C 
HETATM    5  C5  UNL     1      29.500   8.076   1.972  1.00  0.00     0.044 C 
HETATM    6  C6  UNL     1      28.053   6.265   1.240  1.00  0.00     0.044 C 
BRANCH   4   7
HETATM    7  C3  UNL     1      27.724   7.178   3.456  1.00  0.00    -0.006 A 
HETATM    8  C2  UNL     1      27.394   5.998   3.945  1.00  0.00     0.021 A 
HETATM    9  C1  UNL     1      27.256   4.657   3.295  1.00  0.00     0.055 C 
HETATM   10  C18 UNL     1      27.163   6.071   5.391  1.00  0.00     0.290 A 
HETATM   11  O5  UNL     1      27.367   7.349   5.778  1.00  0.00    -0.302 OA
HETATM   12  O6  UNL     1      26.833   5.161   6.207  1.00  0.00    -0.260 OA
HETATM   13  C15 UNL     1      27.813   8.069   4.648  1.00  0.00     0.090 A 
HETATM   14  C16 UNL     1      26.945   9.292   4.635  1.00  0.00     0.051 C 
HETATM   15  C17 UNL     1      29.206   8.502   5.016  1.00  0.00     0.051 C 
ENDBRANCH   4   7
ENDBRANCH   1   4
BRANCH   1  16
HETATM   16  C7  UNL     1      26.136   8.284   0.703  1.00  0.00     0.132 C 
BRANCH  16  17
HETATM   17  C8  UNL     1      26.103   7.732  -0.640  1.00  0.00     0.090 A 
HETATM   18  C9  UNL     1      27.214   7.979  -1.496  1.00  0.00     0.040 A 
HETATM   19  C10 UNL     1      26.962   7.371  -2.691  1.00  0.00     0.027 A 
HETATM   20  C11 UNL     1      25.736   6.773  -2.566  1.00  0.00     0.142 A 
HETATM   21  O1  UNL     1      25.329   7.032  -1.373  1.00  0.00    -0.321 OA
ENDBRANCH  16  17
ENDBRANCH   1  16
BRANCH   2  22
HETATM   22  C13 UNL     1      27.459  11.054   0.594  1.00  0.00     0.387 C 
HETATM   23  F1  UNL     1      27.262  10.937  -0.736  1.00  0.00    -0.186 F 
HETATM   24  F2  UNL     1      26.145  11.340   1.085  1.00  0.00    -0.186 F 
BRANCH  22  25
HETATM   25  C14 UNL     1      28.283  12.249   0.986  1.00  0.00     0.219 C 
HETATM   26  N2  UNL     1      29.182  12.703   0.170  1.00  0.00    -0.245 N 
ATOM     27  H2  UNL     1      29.305  12.230  -0.725  1.00  0.00     0.196 HD
BRANCH  25  28
HETATM   28  O3  UNL     1      28.154  12.920   2.181  1.00  0.00    -0.343 OA
ATOM     29  H3  UNL     1      27.482  12.737   2.827  1.00  0.00     0.219 HD
ENDBRANCH  25  28
BRANCH  26  30
HETATM   30  O4  UNL     1      29.975  13.786   0.448  1.00  0.00    -0.288 OA
ATOM     31  H4  UNL     1      30.917  13.789   0.325  1.00  0.00     0.244 HD
ENDBRANCH  26  30
ENDBRANCH  22  25
ENDBRANCH   2  22
TORSDOF 8
ENDMDL
