MODEL 1
REMARK VINA RESULT: -8.189925029      0.000      0.000
REMARK  15 active torsions:
REMARK  status: ('A' for Active; 'I' for Inactive)
REMARK    1  A    between atoms: C2_2  and  O1_3 
REMARK    2  A    between atoms: O1_3  and  C3_4 
REMARK    3  A    between atoms: C3_4  and  C4_5 
REMARK    4  A    between atoms: C4_5  and  C5_6 
REMARK    5  A    between atoms: C4_5  and  O4_14 
REMARK    6  A    between atoms: C5_6  and  C6_7 
REMARK    7  A    between atoms: C6_7  and  C7_8 
REMARK       I    between atoms: C7_8  and  N1_10 
REMARK    8  A    between atoms: N1_10  and  O3_12 
REMARK    9  A    between atoms: O4_14  and  C10_15 
REMARK   10  A    between atoms: C11_16  and  C12_17 
REMARK   11  A    between atoms: C12_17  and  O5_18 
REMARK   12  A    between atoms: C16_23  and  O6_24 
REMARK   13  A    between atoms: C23_32  and  O7_33 
REMARK   14  A    between atoms: O7_33  and  C24_34 
REMARK   15  A    between atoms: C28_39  and  O9_40 
ROOT
HETATM    1  C10 UNL     1       6.493  39.272  23.126  1.00  0.00     0.135 C 
HETATM    2  C11 UNL     1       5.592  40.418  23.335  1.00  0.00     0.039 C 
HETATM    3  C13 UNL     1       5.295  41.141  21.998  1.00  0.00     0.016 C 
HETATM    4  C14 UNL     1       5.810  40.286  20.907  1.00  0.00     0.018 C 
HETATM    5  C15 UNL     1       5.098  40.491  19.588  1.00  0.00     0.013 C 
HETATM    6  C16 UNL     1       7.272  40.051  20.843  1.00  0.00     0.075 C 
HETATM    7  C17 UNL     1       7.655  39.483  22.198  1.00  0.00     0.051 C 
HETATM    8  C18 UNL     1       8.716  40.155  22.961  1.00  0.00     0.011 C 
HETATM    9  C19 UNL     1       9.884  40.517  22.008  1.00  0.00     0.006 C 
HETATM   10  C20 UNL     1       9.220  41.576  21.155  1.00  0.00     0.001 C 
HETATM   11  C21 UNL     1      10.243  42.489  20.637  1.00  0.00    -0.002 C 
HETATM   12  C22 UNL     1      11.551  41.906  20.180  1.00  0.00     0.038 C 
HETATM   13  C23 UNL     1      12.580  43.035  20.126  1.00  0.00     0.137 C 
HETATM   14  C26 UNL     1      12.002  44.371  19.827  1.00  0.00     0.026 C 
HETATM   15  C27 UNL     1      13.047  45.222  19.178  1.00  0.00     0.039 C 
HETATM   16  C28 UNL     1      13.104  45.188  17.705  1.00  0.00     0.118 C 
HETATM   17  C29 UNL     1      12.331  44.113  17.020  1.00  0.00     0.032 C 
HETATM   18  C30 UNL     1      10.995  43.794  17.595  1.00  0.00     0.012 C 
HETATM   19  C31 UNL     1      10.738  44.307  18.963  1.00  0.00    -0.034 C 
HETATM   20  C32 UNL     1      10.270  45.749  18.816  1.00  0.00     0.016 C 
HETATM   21  C33 UNL     1       9.690  43.576  19.749  1.00  0.00    -0.001 C 
HETATM   22  C34 UNL     1       8.554  43.153  18.900  1.00  0.00     0.007 C 
HETATM   23  C35 UNL     1       7.608  42.155  19.466  1.00  0.00     0.013 C 
HETATM   24  C36 UNL     1       8.203  40.996  20.215  1.00  0.00    -0.008 C 
HETATM   25  C37 UNL     1       9.029  40.295  19.113  1.00  0.00     0.019 C 
ENDROOT
BRANCH   1  26
HETATM   26  O4  UNL     1       6.957  38.793  24.345  1.00  0.00    -0.378 OA
BRANCH  26  27
HETATM   27  C4  UNL     1       6.684  37.455  24.582  1.00  0.00     0.146 C 
BRANCH  27  28
HETATM   28  C3  UNL     1       5.471  37.322  25.531  1.00  0.00     0.199 C 
BRANCH  28  29
HETATM   29  O1  UNL     1       4.312  37.118  24.789  1.00  0.00    -0.389 OA
BRANCH  29  30
HETATM   30  C2  UNL     1       4.417  35.856  24.210  1.00  0.00     0.163 C 
HETATM   31  C1  UNL     1       3.195  35.432  23.465  1.00  0.00     0.033 C 
ENDBRANCH  29  30
ENDBRANCH  28  29
ENDBRANCH  27  28
BRANCH  27  32
HETATM   32  C5  UNL     1       7.751  36.647  25.199  1.00  0.00     0.043 C 
BRANCH  32  33
HETATM   33  C6  UNL     1       7.588  36.194  26.603  1.00  0.00     0.107 C 
BRANCH  33  34
HETATM   34  C7  UNL     1       8.664  35.222  26.921  1.00  0.00     0.242 C 
HETATM   35  O2  UNL     1       9.326  34.715  25.994  1.00  0.00    -0.271 OA
HETATM   36  N1  UNL     1       8.945  34.866  28.257  1.00  0.00    -0.231 N 
HETATM   37  C8  UNL     1      10.001  33.914  28.565  1.00  0.00     0.188 C 
BRANCH  36  38
HETATM   38  O3  UNL     1       8.270  35.372  29.317  1.00  0.00    -0.281 OA
HETATM   39  C9  UNL     1       8.959  35.039  30.481  1.00  0.00     0.238 C 
ENDBRANCH  36  38
ENDBRANCH  33  34
ENDBRANCH  32  33
ENDBRANCH  27  32
ENDBRANCH  26  27
ENDBRANCH   1  26
BRANCH   2  40
HETATM   40  C12 UNL     1       5.850  41.413  24.395  1.00  0.00     0.171 C 
BRANCH  40  41
HETATM   41  O5  UNL     1       5.742  40.987  25.704  1.00  0.00    -0.400 OA
ATOM     42  H5  UNL     1       6.489  41.131  26.273  1.00  0.00     0.209 HD
ENDBRANCH  40  41
ENDBRANCH   2  40
BRANCH   6  43
HETATM   43  O6  UNL     1       7.308  38.882  19.992  1.00  0.00    -0.388 OA
ATOM     44  H6  UNL     1       7.242  39.293  19.138  1.00  0.00     0.210 HD
ENDBRANCH   6  43
BRANCH  13  45
HETATM   45  O7  UNL     1      13.397  42.904  21.219  1.00  0.00    -0.316 OA
BRANCH  45  46
HETATM   46  C24 UNL     1      13.972  41.757  21.715  1.00  0.00     0.255 C 
HETATM   47  C25 UNL     1      14.922  40.899  20.976  1.00  0.00     0.126 C 
HETATM   48  O8  UNL     1      13.595  41.526  22.868  1.00  0.00    -0.266 OA
ENDBRANCH  45  46
ENDBRANCH  13  45
BRANCH  16  49
HETATM   49  O9  UNL     1      14.442  45.047  17.247  1.00  0.00    -0.396 OA
ATOM     50  H9  UNL     1      14.972  44.572  17.876  1.00  0.00     0.210 HD
ENDBRANCH  16  49
TORSDOF 15
ENDMDL
MODEL 2
REMARK VINA RESULT: -7.884052810      1.131      1.731
REMARK  15 active torsions:
REMARK  status: ('A' for Active; 'I' for Inactive)
REMARK    1  A    between atoms: C2_2  and  O1_3 
REMARK    2  A    between atoms: O1_3  and  C3_4 
REMARK    3  A    between atoms: C3_4  and  C4_5 
REMARK    4  A    between atoms: C4_5  and  C5_6 
REMARK    5  A    between atoms: C4_5  and  O4_14 
REMARK    6  A    between atoms: C5_6  and  C6_7 
REMARK    7  A    between atoms: C6_7  and  C7_8 
REMARK       I    between atoms: C7_8  and  N1_10 
REMARK    8  A    between atoms: N1_10  and  O3_12 
REMARK    9  A    between atoms: O4_14  and  C10_15 
REMARK   10  A    between atoms: C11_16  and  C12_17 
REMARK   11  A    between atoms: C12_17  and  O5_18 
REMARK   12  A    between atoms: C16_23  and  O6_24 
REMARK   13  A    between atoms: C23_32  and  O7_33 
REMARK   14  A    between atoms: O7_33  and  C24_34 
REMARK   15  A    between atoms: C28_39  and  O9_40 
ROOT
HETATM    1  C10 UNL     1       6.813  39.351  23.406  1.00  0.00     0.135 C 
HETATM    2  C11 UNL     1       5.873  40.473  23.570  1.00  0.00     0.039 C 
HETATM    3  C13 UNL     1       5.504  41.092  22.199  1.00  0.00     0.016 C 
HETATM    4  C14 UNL     1       6.016  40.186  21.150  1.00  0.00     0.018 C 
HETATM    5  C15 UNL     1       5.253  40.274  19.846  1.00  0.00     0.013 C 
HETATM    6  C16 UNL     1       7.484  40.003  21.050  1.00  0.00     0.075 C 
HETATM    7  C17 UNL     1       7.934  39.542  22.425  1.00  0.00     0.051 C 
HETATM    8  C18 UNL     1       8.992  40.305  23.103  1.00  0.00     0.011 C 
HETATM    9  C19 UNL     1      10.111  40.645  22.087  1.00  0.00     0.006 C 
HETATM   10  C20 UNL     1       9.378  41.618  21.190  1.00  0.00     0.001 C 
HETATM   11  C21 UNL     1      10.345  42.533  20.577  1.00  0.00    -0.002 C 
HETATM   12  C22 UNL     1      11.660  41.970  20.112  1.00  0.00     0.038 C 
HETATM   13  C23 UNL     1      12.640  43.131  19.947  1.00  0.00     0.137 C 
HETATM   14  C26 UNL     1      12.000  44.421  19.581  1.00  0.00     0.026 C 
HETATM   15  C27 UNL     1      12.987  45.266  18.840  1.00  0.00     0.039 C 
HETATM   16  C28 UNL     1      12.997  45.134  17.372  1.00  0.00     0.118 C 
HETATM   17  C29 UNL     1      12.245  43.986  16.788  1.00  0.00     0.032 C 
HETATM   18  C30 UNL     1      10.943  43.656  17.430  1.00  0.00     0.012 C 
HETATM   19  C31 UNL     1      10.711  44.250  18.769  1.00  0.00    -0.034 C 
HETATM   20  C32 UNL     1      10.180  45.660  18.543  1.00  0.00     0.016 C 
HETATM   21  C33 UNL     1       9.720  43.535  19.639  1.00  0.00    -0.001 C 
HETATM   22  C34 UNL     1       8.574  43.012  18.861  1.00  0.00     0.007 C 
HETATM   23  C35 UNL     1       7.688  42.020  19.525  1.00  0.00     0.013 C 
HETATM   24  C36 UNL     1       8.354  40.938  20.327  1.00  0.00    -0.008 C 
HETATM   25  C37 UNL     1       9.171  40.196  19.245  1.00  0.00     0.019 C 
ENDROOT
BRANCH   1  26
HETATM   26  O4  UNL     1       7.336  38.973  24.636  1.00  0.00    -0.378 OA
BRANCH  26  27
HETATM   27  C4  UNL     1       6.761  37.838  25.185  1.00  0.00     0.146 C 
BRANCH  27  28
HETATM   28  C3  UNL     1       6.214  38.151  26.597  1.00  0.00     0.199 C 
BRANCH  28  29
HETATM   29  O1  UNL     1       6.833  39.292  27.100  1.00  0.00    -0.389 OA
BRANCH  29  30
HETATM   30  C2  UNL     1       6.933  39.126  28.478  1.00  0.00     0.163 C 
HETATM   31  C1  UNL     1       8.325  38.876  28.954  1.00  0.00     0.033 C 
ENDBRANCH  29  30
ENDBRANCH  28  29
ENDBRANCH  27  28
BRANCH  27  32
HETATM   32  C5  UNL     1       7.626  36.658  25.357  1.00  0.00     0.043 C 
BRANCH  32  33
HETATM   33  C6  UNL     1       7.659  35.976  26.675  1.00  0.00     0.107 C 
BRANCH  33  34
HETATM   34  C7  UNL     1       8.795  35.021  26.693  1.00  0.00     0.242 C 
HETATM   35  O2  UNL     1       9.372  34.734  25.625  1.00  0.00    -0.271 OA
HETATM   36  N1  UNL     1       9.228  34.437  27.901  1.00  0.00    -0.231 N 
HETATM   37  C8  UNL     1      10.344  33.502  27.915  1.00  0.00     0.188 C 
BRANCH  36  38
HETATM   38  O3  UNL     1       8.654  34.698  29.100  1.00  0.00    -0.281 OA
HETATM   39  C9  UNL     1       9.538  34.318  30.108  1.00  0.00     0.238 C 
ENDBRANCH  36  38
ENDBRANCH  33  34
ENDBRANCH  32  33
ENDBRANCH  27  32
ENDBRANCH  26  27
ENDBRANCH   1  26
BRANCH   2  40
HETATM   40  C12 UNL     1       6.126  41.547  24.552  1.00  0.00     0.171 C 
BRANCH  40  41
HETATM   41  O5  UNL     1       5.534  41.423  25.793  1.00  0.00    -0.400 OA
ATOM     42  H5  UNL     1       4.772  40.858  25.858  1.00  0.00     0.209 HD
ENDBRANCH  40  41
ENDBRANCH   2  40
BRANCH   6  43
HETATM   43  O6  UNL     1       7.538  38.781  20.277  1.00  0.00    -0.388 OA
ATOM     44  H6  UNL     1       7.141  39.076  19.466  1.00  0.00     0.210 HD
ENDBRANCH   6  43
BRANCH  13  45
HETATM   45  O7  UNL     1      13.498  43.105  21.017  1.00  0.00    -0.316 OA
BRANCH  45  46
HETATM   46  C24 UNL     1      13.867  42.023  21.781  1.00  0.00     0.255 C 
HETATM   47  C25 UNL     1      13.423  41.774  23.168  1.00  0.00     0.126 C 
HETATM   48  O8  UNL     1      14.626  41.271  21.159  1.00  0.00    -0.266 OA
ENDBRANCH  45  46
ENDBRANCH  13  45
BRANCH  16  49
HETATM   49  O9  UNL     1      14.323  45.013  16.876  1.00  0.00    -0.396 OA
ATOM     50  H9  UNL     1      14.329  44.656  15.996  1.00  0.00     0.210 HD
ENDBRANCH  16  49
TORSDOF 15
ENDMDL
MODEL 3
REMARK VINA RESULT: -7.815244374      2.794      9.733
REMARK  15 active torsions:
REMARK  status: ('A' for Active; 'I' for Inactive)
REMARK    1  A    between atoms: C2_2  and  O1_3 
REMARK    2  A    between atoms: O1_3  and  C3_4 
REMARK    3  A    between atoms: C3_4  and  C4_5 
REMARK    4  A    between atoms: C4_5  and  C5_6 
REMARK    5  A    between atoms: C4_5  and  O4_14 
REMARK    6  A    between atoms: C5_6  and  C6_7 
REMARK    7  A    between atoms: C6_7  and  C7_8 
REMARK       I    between atoms: C7_8  and  N1_10 
REMARK    8  A    between atoms: N1_10  and  O3_12 
REMARK    9  A    between atoms: O4_14  and  C10_15 
REMARK   10  A    between atoms: C11_16  and  C12_17 
REMARK   11  A    between atoms: C12_17  and  O5_18 
REMARK   12  A    between atoms: C16_23  and  O6_24 
REMARK   13  A    between atoms: C23_32  and  O7_33 
REMARK   14  A    between atoms: O7_33  and  C24_34 
REMARK   15  A    between atoms: C28_39  and  O9_40 
ROOT
HETATM    1  C10 UNL     1       8.711  40.883  21.209  1.00  0.00     0.135 C 
HETATM    2  C11 UNL     1       8.715  39.757  20.260  1.00  0.00     0.039 C 
HETATM    3  C13 UNL     1       7.275  39.410  19.807  1.00  0.00     0.016 C 
HETATM    4  C14 UNL     1       6.387  40.493  20.278  1.00  0.00     0.018 C 
HETATM    5  C15 UNL     1       5.135  40.657  19.444  1.00  0.00     0.013 C 
HETATM    6  C16 UNL     1       6.241  40.681  21.741  1.00  0.00     0.075 C 
HETATM    7  C17 UNL     1       7.650  40.871  22.273  1.00  0.00     0.051 C 
HETATM    8  C18 UNL     1       8.114  39.987  23.351  1.00  0.00     0.011 C 
HETATM    9  C19 UNL     1       6.991  39.835  24.409  1.00  0.00     0.006 C 
HETATM   10  C20 UNL     1       5.969  39.054  23.611  1.00  0.00     0.001 C 
HETATM   11  C21 UNL     1       5.143  38.264  24.527  1.00  0.00    -0.002 C 
HETATM   12  C22 UNL     1       4.719  38.895  25.826  1.00  0.00     0.038 C 
HETATM   13  C23 UNL     1       4.284  37.778  26.775  1.00  0.00     0.137 C 
HETATM   14  C26 UNL     1       3.720  36.585  26.092  1.00  0.00     0.026 C 
HETATM   15  C27 UNL     1       2.780  35.887  27.023  1.00  0.00     0.039 C 
HETATM   16  C28 UNL     1       1.363  36.293  26.957  1.00  0.00     0.118 C 
HETATM   17  C29 UNL     1       1.048  37.535  26.195  1.00  0.00     0.032 C 
HETATM   18  C30 UNL     1       1.812  37.748  24.936  1.00  0.00     0.012 C 
HETATM   19  C31 UNL     1       3.028  36.914  24.765  1.00  0.00    -0.034 C 
HETATM   20  C32 UNL     1       2.572  35.576  24.198  1.00  0.00     0.016 C 
HETATM   21  C33 UNL     1       4.070  37.461  23.835  1.00  0.00    -0.001 C 
HETATM   22  C34 UNL     1       3.469  38.129  22.659  1.00  0.00     0.007 C 
HETATM   23  C35 UNL     1       4.356  38.985  21.828  1.00  0.00     0.013 C 
HETATM   24  C36 UNL     1       5.308  39.892  22.555  1.00  0.00    -0.008 C 
HETATM   25  C37 UNL     1       4.341  40.818  23.325  1.00  0.00     0.019 C 
ENDROOT
BRANCH   1  26
HETATM   26  O4  UNL     1       9.959  41.019  21.804  1.00  0.00    -0.378 OA
BRANCH  26  27
HETATM   27  C4  UNL     1      10.475  42.305  21.779  1.00  0.00     0.146 C 
BRANCH  27  28
HETATM   28  C3  UNL     1      11.159  42.575  20.420  1.00  0.00     0.199 C 
BRANCH  28  29
HETATM   29  O1  UNL     1      10.415  43.500  19.694  1.00  0.00    -0.389 OA
BRANCH  29  30
HETATM   30  C2  UNL     1      10.158  42.930  18.450  1.00  0.00     0.163 C 
HETATM   31  C1  UNL     1       8.707  42.864  18.106  1.00  0.00     0.033 C 
ENDBRANCH  29  30
ENDBRANCH  28  29
ENDBRANCH  27  28
BRANCH  27  32
HETATM   32  C5  UNL     1      11.484  42.648  22.797  1.00  0.00     0.043 C 
BRANCH  32  33
HETATM   33  C6  UNL     1      12.551  41.665  23.111  1.00  0.00     0.107 C 
BRANCH  33  34
HETATM   34  C7  UNL     1      13.871  42.331  22.974  1.00  0.00     0.242 C 
HETATM   35  O2  UNL     1      14.253  43.123  23.858  1.00  0.00    -0.271 OA
HETATM   36  N1  UNL     1      14.695  42.078  21.858  1.00  0.00    -0.231 N 
HETATM   37  C8  UNL     1      15.989  42.731  21.728  1.00  0.00     0.188 C 
BRANCH  36  38
HETATM   38  O3  UNL     1      14.351  41.232  20.857  1.00  0.00    -0.281 OA
HETATM   39  C9  UNL     1      15.238  40.158  20.858  1.00  0.00     0.238 C 
ENDBRANCH  36  38
ENDBRANCH  33  34
ENDBRANCH  32  33
ENDBRANCH  27  32
ENDBRANCH  26  27
ENDBRANCH   1  26
BRANCH   2  40
HETATM   40  C12 UNL     1       9.462  38.516  20.546  1.00  0.00     0.171 C 
BRANCH  40  41
HETATM   41  O5  UNL     1      10.802  38.641  20.857  1.00  0.00    -0.400 OA
ATOM     42  H5  UNL     1      11.364  39.048  20.208  1.00  0.00     0.209 HD
ENDBRANCH  40  41
ENDBRANCH   2  40
BRANCH   6  43
HETATM   43  O6  UNL     1       5.709  42.026  21.775  1.00  0.00    -0.388 OA
ATOM     44  H6  UNL     1       5.191  41.982  22.571  1.00  0.00     0.210 HD
ENDBRANCH   6  43
BRANCH  13  45
HETATM   45  O7  UNL     1       5.291  37.596  27.689  1.00  0.00    -0.316 OA
BRANCH  45  46
HETATM   46  C24 UNL     1       6.339  36.708  27.630  1.00  0.00     0.255 C 
HETATM   47  C25 UNL     1       7.054  36.324  26.396  1.00  0.00     0.126 C 
HETATM   48  O8  UNL     1       6.615  36.263  28.749  1.00  0.00    -0.266 OA
ENDBRANCH  45  46
ENDBRANCH  13  45
BRANCH  16  49
HETATM   49  O9  UNL     1       0.826  36.495  28.257  1.00  0.00    -0.396 OA
ATOM     50  H9  UNL     1       1.391  37.054  28.778  1.00  0.00     0.210 HD
ENDBRANCH  16  49
TORSDOF 15
ENDMDL
MODEL 4
REMARK VINA RESULT: -7.754901346      2.740      9.723
REMARK  15 active torsions:
REMARK  status: ('A' for Active; 'I' for Inactive)
REMARK    1  A    between atoms: C2_2  and  O1_3 
REMARK    2  A    between atoms: O1_3  and  C3_4 
REMARK    3  A    between atoms: C3_4  and  C4_5 
REMARK    4  A    between atoms: C4_5  and  C5_6 
REMARK    5  A    between atoms: C4_5  and  O4_14 
REMARK    6  A    between atoms: C5_6  and  C6_7 
REMARK    7  A    between atoms: C6_7  and  C7_8 
REMARK       I    between atoms: C7_8  and  N1_10 
REMARK    8  A    between atoms: N1_10  and  O3_12 
REMARK    9  A    between atoms: O4_14  and  C10_15 
REMARK   10  A    between atoms: C11_16  and  C12_17 
REMARK   11  A    between atoms: C12_17  and  O5_18 
REMARK   12  A    between atoms: C16_23  and  O6_24 
REMARK   13  A    between atoms: C23_32  and  O7_33 
REMARK   14  A    between atoms: O7_33  and  C24_34 
REMARK   15  A    between atoms: C28_39  and  O9_40 
ROOT
HETATM    1  C10 UNL     1       8.745  41.096  21.305  1.00  0.00     0.135 C 
HETATM    2  C11 UNL     1       8.790  39.952  20.379  1.00  0.00     0.039 C 
HETATM    3  C13 UNL     1       7.362  39.524  19.957  1.00  0.00     0.016 C 
HETATM    4  C14 UNL     1       6.429  40.573  20.421  1.00  0.00     0.018 C 
HETATM    5  C15 UNL     1       5.157  40.658  19.606  1.00  0.00     0.013 C 
HETATM    6  C16 UNL     1       6.297  40.785  21.882  1.00  0.00     0.075 C 
HETATM    7  C17 UNL     1       7.704  41.055  22.386  1.00  0.00     0.051 C 
HETATM    8  C18 UNL     1       8.227  40.218  23.474  1.00  0.00     0.011 C 
HETATM    9  C19 UNL     1       7.130  40.034  24.554  1.00  0.00     0.006 C 
HETATM   10  C20 UNL     1       6.136  39.187  23.790  1.00  0.00     0.001 C 
HETATM   11  C21 UNL     1       5.364  38.378  24.736  1.00  0.00    -0.002 C 
HETATM   12  C22 UNL     1       4.931  39.014  26.028  1.00  0.00     0.038 C 
HETATM   13  C23 UNL     1       4.567  37.898  27.007  1.00  0.00     0.137 C 
HETATM   14  C26 UNL     1       4.051  36.664  26.360  1.00  0.00     0.026 C 
HETATM   15  C27 UNL     1       3.161  35.942  27.321  1.00  0.00     0.039 C 
HETATM   16  C28 UNL     1       1.726  36.276  27.270  1.00  0.00     0.118 C 
HETATM   17  C29 UNL     1       1.337  37.485  26.488  1.00  0.00     0.032 C 
HETATM   18  C30 UNL     1       2.070  37.708  25.212  1.00  0.00     0.012 C 
HETATM   19  C31 UNL     1       3.322  36.931  25.038  1.00  0.00    -0.034 C 
HETATM   20  C32 UNL     1       2.924  35.560  24.506  1.00  0.00     0.016 C 
HETATM   21  C33 UNL     1       4.321  37.508  24.079  1.00  0.00    -0.001 C 
HETATM   22  C34 UNL     1       3.670  38.120  22.900  1.00  0.00     0.007 C 
HETATM   23  C35 UNL     1       4.500  39.000  22.036  1.00  0.00     0.013 C 
HETATM   24  C36 UNL     1       5.418  39.968  22.728  1.00  0.00    -0.008 C 
HETATM   25  C37 UNL     1       4.418  40.863  23.495  1.00  0.00     0.019 C 
ENDROOT
BRANCH   1  26
HETATM   26  O4  UNL     1       9.995  41.305  21.875  1.00  0.00    -0.378 OA
BRANCH  26  27
HETATM   27  C4  UNL     1      10.295  42.632  22.140  1.00  0.00     0.146 C 
BRANCH  27  28
HETATM   28  C3  UNL     1      10.437  43.417  20.816  1.00  0.00     0.199 C 
BRANCH  28  29
HETATM   29  O1  UNL     1      11.750  43.852  20.664  1.00  0.00    -0.389 OA
BRANCH  29  30
HETATM   30  C2  UNL     1      12.109  43.611  19.342  1.00  0.00     0.163 C 
HETATM   31  C1  UNL     1      11.593  42.318  18.804  1.00  0.00     0.033 C 
ENDBRANCH  29  30
ENDBRANCH  28  29
ENDBRANCH  27  28
BRANCH  27  32
HETATM   32  C5  UNL     1      11.533  42.908  22.890  1.00  0.00     0.043 C 
BRANCH  32  33
HETATM   33  C6  UNL     1      12.363  41.768  23.352  1.00  0.00     0.107 C 
BRANCH  33  34
HETATM   34  C7  UNL     1      13.505  41.597  22.419  1.00  0.00     0.242 C 
HETATM   35  O2  UNL     1      13.384  40.844  21.433  1.00  0.00    -0.271 OA
HETATM   36  N1  UNL     1      14.721  42.276  22.636  1.00  0.00    -0.231 N 
HETATM   37  C8  UNL     1      15.839  42.108  21.718  1.00  0.00     0.188 C 
BRANCH  36  38
HETATM   38  O3  UNL     1      14.931  43.110  23.683  1.00  0.00    -0.281 OA
HETATM   39  C9  UNL     1      15.113  44.402  23.192  1.00  0.00     0.238 C 
ENDBRANCH  36  38
ENDBRANCH  33  34
ENDBRANCH  32  33
ENDBRANCH  27  32
ENDBRANCH  26  27
ENDBRANCH   1  26
BRANCH   2  40
HETATM   40  C12 UNL     1       9.602  38.755  20.678  1.00  0.00     0.171 C 
BRANCH  40  41
HETATM   41  O5  UNL     1      10.942  38.950  20.945  1.00  0.00    -0.400 OA
ATOM     42  H5  UNL     1      11.527  38.214  20.803  1.00  0.00     0.209 HD
ENDBRANCH  40  41
ENDBRANCH   2  40
BRANCH   6  43
HETATM   43  O6  UNL     1       5.700  42.102  21.898  1.00  0.00    -0.388 OA
ATOM     44  H6  UNL     1       5.981  42.405  22.754  1.00  0.00     0.210 HD
ENDBRANCH   6  43
BRANCH  13  45
HETATM   45  O7  UNL     1       5.595  37.785  27.908  1.00  0.00    -0.316 OA
BRANCH  45  46
HETATM   46  C24 UNL     1       6.646  36.898  27.888  1.00  0.00     0.255 C 
HETATM   47  C25 UNL     1       7.549  36.681  26.739  1.00  0.00     0.126 C 
HETATM   48  O8  UNL     1       6.747  36.295  28.962  1.00  0.00    -0.266 OA
ENDBRANCH  45  46
ENDBRANCH  13  45
BRANCH  16  49
HETATM   49  O9  UNL     1       1.200  36.480  28.574  1.00  0.00    -0.396 OA
ATOM     50  H9  UNL     1       1.311  37.381  28.851  1.00  0.00     0.210 HD
ENDBRANCH  16  49
TORSDOF 15
ENDMDL
MODEL 5
REMARK VINA RESULT: -7.643952983      2.974     10.093
REMARK  15 active torsions:
REMARK  status: ('A' for Active; 'I' for Inactive)
REMARK    1  A    between atoms: C2_2  and  O1_3 
REMARK    2  A    between atoms: O1_3  and  C3_4 
REMARK    3  A    between atoms: C3_4  and  C4_5 
REMARK    4  A    between atoms: C4_5  and  C5_6 
REMARK    5  A    between atoms: C4_5  and  O4_14 
REMARK    6  A    between atoms: C5_6  and  C6_7 
REMARK    7  A    between atoms: C6_7  and  C7_8 
REMARK       I    between atoms: C7_8  and  N1_10 
REMARK    8  A    between atoms: N1_10  and  O3_12 
REMARK    9  A    between atoms: O4_14  and  C10_15 
REMARK   10  A    between atoms: C11_16  and  C12_17 
REMARK   11  A    between atoms: C12_17  and  O5_18 
REMARK   12  A    between atoms: C16_23  and  O6_24 
REMARK   13  A    between atoms: C23_32  and  O7_33 
REMARK   14  A    between atoms: O7_33  and  C24_34 
REMARK   15  A    between atoms: C28_39  and  O9_40 
ROOT
HETATM    1  C10 UNL     1       9.141  40.999  21.226  1.00  0.00     0.135 C 
HETATM    2  C11 UNL     1       9.149  39.850  20.306  1.00  0.00     0.039 C 
HETATM    3  C13 UNL     1       7.715  39.514  19.825  1.00  0.00     0.016 C 
HETATM    4  C14 UNL     1       6.834  40.623  20.247  1.00  0.00     0.018 C 
HETATM    5  C15 UNL     1       5.606  40.786  19.378  1.00  0.00     0.013 C 
HETATM    6  C16 UNL     1       6.655  40.851  21.700  1.00  0.00     0.075 C 
HETATM    7  C17 UNL     1       8.054  41.032  22.262  1.00  0.00     0.051 C 
HETATM    8  C18 UNL     1       8.476  40.168  23.374  1.00  0.00     0.011 C 
HETATM    9  C19 UNL     1       7.325  40.061  24.406  1.00  0.00     0.006 C 
HETATM   10  C20 UNL     1       6.310  39.276  23.603  1.00  0.00     0.001 C 
HETATM   11  C21 UNL     1       5.448  38.523  24.518  1.00  0.00    -0.002 C 
HETATM   12  C22 UNL     1       5.003  39.193  25.789  1.00  0.00     0.038 C 
HETATM   13  C23 UNL     1       4.527  38.108  26.754  1.00  0.00     0.137 C 
HETATM   14  C26 UNL     1       3.959  36.907  26.088  1.00  0.00     0.026 C 
HETATM   15  C27 UNL     1       2.985  36.249  27.012  1.00  0.00     0.039 C 
HETATM   16  C28 UNL     1       1.578  36.675  26.900  1.00  0.00     0.118 C 
HETATM   17  C29 UNL     1       1.302  37.903  26.100  1.00  0.00     0.032 C 
HETATM   18  C30 UNL     1       2.101  38.072  24.855  1.00  0.00     0.012 C 
HETATM   19  C31 UNL     1       3.306  37.214  24.736  1.00  0.00    -0.034 C 
HETATM   20  C32 UNL     1       2.842  35.869  24.191  1.00  0.00     0.016 C 
HETATM   21  C33 UNL     1       4.379  37.720  23.819  1.00  0.00    -0.001 C 
HETATM   22  C34 UNL     1       3.820  38.367  22.612  1.00  0.00     0.007 C 
HETATM   23  C35 UNL     1       4.741  39.188  21.782  1.00  0.00     0.013 C 
HETATM   24  C36 UNL     1       5.690  40.097  22.510  1.00  0.00    -0.008 C 
HETATM   25  C37 UNL     1       4.719  41.059  23.232  1.00  0.00     0.019 C 
ENDROOT
BRANCH   1  26
HETATM   26  O4  UNL     1      10.376  41.130  21.848  1.00  0.00    -0.378 OA
BRANCH  26  27
HETATM   27  C4  UNL     1      11.148  42.183  21.385  1.00  0.00     0.146 C 
BRANCH  27  28
HETATM   28  C3  UNL     1      12.565  42.111  21.999  1.00  0.00     0.199 C 
BRANCH  28  29
HETATM   29  O1  UNL     1      13.129  40.866  21.737  1.00  0.00    -0.389 OA
BRANCH  29  30
HETATM   30  C2  UNL     1      14.311  41.093  21.039  1.00  0.00     0.163 C 
HETATM   31  C1  UNL     1      15.264  41.998  21.746  1.00  0.00     0.033 C 
ENDBRANCH  29  30
ENDBRANCH  28  29
ENDBRANCH  27  28
BRANCH  27  32
HETATM   32  C5  UNL     1      10.670  43.548  21.671  1.00  0.00     0.043 C 
BRANCH  32  33
HETATM   33  C6  UNL     1      10.444  44.482  20.539  1.00  0.00     0.107 C 
BRANCH  33  34
HETATM   34  C7  UNL     1       9.286  43.999  19.744  1.00  0.00     0.242 C 
HETATM   35  O2  UNL     1       8.134  44.114  20.207  1.00  0.00    -0.271 OA
HETATM   36  N1  UNL     1       9.476  43.414  18.475  1.00  0.00    -0.231 N 
HETATM   37  C8  UNL     1       8.339  42.944  17.698  1.00  0.00     0.188 C 
BRANCH  36  38
HETATM   38  O3  UNL     1      10.695  43.254  17.906  1.00  0.00    -0.281 OA
HETATM   39  C9  UNL     1      10.793  44.119  16.818  1.00  0.00     0.238 C 
ENDBRANCH  36  38
ENDBRANCH  33  34
ENDBRANCH  32  33
ENDBRANCH  27  32
ENDBRANCH  26  27
ENDBRANCH   1  26
BRANCH   2  40
HETATM   40  C12 UNL     1       9.868  38.605  20.641  1.00  0.00     0.171 C 
BRANCH  40  41
HETATM   41  O5  UNL     1      11.203  38.714  20.975  1.00  0.00    -0.400 OA
ATOM     42  H5  UNL     1      11.774  37.994  20.734  1.00  0.00     0.209 HD
ENDBRANCH  40  41
ENDBRANCH   2  40
BRANCH   6  43
HETATM   43  O6  UNL     1       6.145  42.204  21.688  1.00  0.00    -0.388 OA
ATOM     44  H6  UNL     1       5.253  42.052  21.978  1.00  0.00     0.210 HD
ENDBRANCH   6  43
BRANCH  13  45
HETATM   45  O7  UNL     1       5.507  37.933  27.697  1.00  0.00    -0.316 OA
BRANCH  45  46
HETATM   46  C24 UNL     1       6.513  36.995  27.711  1.00  0.00     0.255 C 
HETATM   47  C25 UNL     1       7.548  36.850  26.667  1.00  0.00     0.126 C 
HETATM   48  O8  UNL     1       6.447  36.279  28.715  1.00  0.00    -0.266 OA
ENDBRANCH  45  46
ENDBRANCH  13  45
BRANCH  16  49
HETATM   49  O9  UNL     1       1.012  36.919  28.180  1.00  0.00    -0.396 OA
ATOM     50  H9  UNL     1       0.359  37.608  28.141  1.00  0.00     0.210 HD
ENDBRANCH  16  49
TORSDOF 15
ENDMDL
