MODEL 1
REMARK VINA RESULT: -6.588368185      0.000      0.000
REMARK  3 active torsions:
REMARK  status: ('A' for Active; 'I' for Inactive)
REMARK    1  A    between atoms: N3_8  and  C6_9 
REMARK    2  A    between atoms: C6_9  and  C7_10 
REMARK    3  A    between atoms: C7_10  and  N4_11 
ROOT
HETATM    1  C1  UNL     1     -29.075  30.970 -23.953  1.00  0.00     0.154 C 
HETATM    2  N1  UNL     1     -28.561  30.941 -25.330  1.00  0.00    -0.370 N 
HETATM    3  C2  UNL     1     -28.362  32.076 -26.017  1.00  0.00     0.091 A 
HETATM    4  C3  UNL     1     -27.883  32.115 -27.310  1.00  0.00     0.033 A 
HETATM    5  C4  UNL     1     -27.596  30.899 -27.918  1.00  0.00     0.018 A 
HETATM    6  C5  UNL     1     -27.110  30.879 -29.224  1.00  0.00     0.129 A 
HETATM    7  N2  UNL     1     -26.904  32.091 -29.938  1.00  0.00    -0.082 NA
HETATM    8  N3  UNL     1     -26.832  29.706 -29.817  1.00  0.00    -0.343 N 
HETATM    9  C8  UNL     1     -27.037  28.582 -29.113  1.00  0.00     0.093 A 
HETATM   10  C9  UNL     1     -27.513  28.552 -27.830  1.00  0.00     0.031 A 
HETATM   11  C10 UNL     1     -27.809  29.749 -27.192  1.00  0.00    -0.006 A 
HETATM   12  C11 UNL     1     -28.291  29.751 -25.896  1.00  0.00     0.102 A 
ENDROOT
BRANCH   8  13
HETATM   13  C6  UNL     1     -26.325  29.615 -31.165  1.00  0.00     0.156 C 
BRANCH  13  14
HETATM   14  C7  UNL     1     -26.409  28.213 -31.719  1.00  0.00     0.249 C 
BRANCH  14  15
HETATM   15  N4  UNL     1     -26.343  28.344 -33.180  1.00  0.00    -0.078 N 
ATOM     16  H43 UNL     1     -27.213  28.093 -33.649  1.00  0.00     0.274 HD
ATOM     17  H42 UNL     1     -26.304  29.312 -33.499  1.00  0.00     0.274 HD
ATOM     18  H41 UNL     1     -25.545  27.785 -33.481  1.00  0.00     0.274 HD
ENDBRANCH  14  15
ENDBRANCH  13  14
ENDBRANCH   8  13
TORSDOF 3
ENDMDL
MODEL 2
REMARK VINA RESULT: -6.489640569      3.581      5.260
REMARK  3 active torsions:
REMARK  status: ('A' for Active; 'I' for Inactive)
REMARK    1  A    between atoms: N3_8  and  C6_9 
REMARK    2  A    between atoms: C6_9  and  C7_10 
REMARK    3  A    between atoms: C7_10  and  N4_11 
ROOT
HETATM    1  C1  UNL     1     -34.072  33.236 -28.169  1.00  0.00     0.154 C 
HETATM    2  N1  UNL     1     -32.856  32.751 -27.500  1.00  0.00    -0.370 N 
HETATM    3  C2  UNL     1     -32.930  32.015 -26.380  1.00  0.00     0.091 A 
HETATM    4  C3  UNL     1     -31.827  31.531 -25.707  1.00  0.00     0.033 A 
HETATM    5  C4  UNL     1     -30.578  31.834 -26.234  1.00  0.00     0.018 A 
HETATM    6  C5  UNL     1     -29.430  31.371 -25.594  1.00  0.00     0.129 A 
HETATM    7  N2  UNL     1     -29.526  30.592 -24.410  1.00  0.00    -0.082 NA
HETATM    8  N3  UNL     1     -28.219  31.662 -26.099  1.00  0.00    -0.343 N 
HETATM    9  C8  UNL     1     -28.165  32.399 -27.219  1.00  0.00     0.093 A 
HETATM   10  C9  UNL     1     -29.265  32.876 -27.881  1.00  0.00     0.031 A 
HETATM   11  C10 UNL     1     -30.529  32.590 -27.382  1.00  0.00    -0.006 A 
HETATM   12  C11 UNL     1     -31.658  33.058 -28.029  1.00  0.00     0.102 A 
ENDROOT
BRANCH   8  13
HETATM   13  C6  UNL     1     -26.991  31.213 -25.487  1.00  0.00     0.156 C 
BRANCH  13  14
HETATM   14  C7  UNL     1     -26.405  30.009 -26.185  1.00  0.00     0.249 C 
BRANCH  14  15
HETATM   15  N4  UNL     1     -27.079  28.836 -25.613  1.00  0.00    -0.078 N 
ATOM     16  H43 UNL     1     -27.807  29.075 -24.940  1.00  0.00     0.274 HD
ATOM     17  H42 UNL     1     -27.678  28.348 -26.278  1.00  0.00     0.274 HD
ATOM     18  H41 UNL     1     -26.343  28.248 -25.222  1.00  0.00     0.274 HD
ENDBRANCH  14  15
ENDBRANCH  13  14
ENDBRANCH   8  13
TORSDOF 3
ENDMDL
MODEL 3
REMARK VINA RESULT: -6.464479913      2.988      5.239
REMARK  3 active torsions:
REMARK  status: ('A' for Active; 'I' for Inactive)
REMARK    1  A    between atoms: N3_8  and  C6_9 
REMARK    2  A    between atoms: C6_9  and  C7_10 
REMARK    3  A    between atoms: C7_10  and  N4_11 
ROOT
HETATM    1  C1  UNL     1     -24.800  29.136 -26.764  1.00  0.00     0.154 C 
HETATM    2  N1  UNL     1     -26.113  29.790 -26.674  1.00  0.00    -0.370 N 
HETATM    3  C2  UNL     1     -26.899  29.616 -25.600  1.00  0.00     0.091 A 
HETATM    4  C3  UNL     1     -28.140  30.201 -25.457  1.00  0.00     0.033 A 
HETATM    5  C4  UNL     1     -28.584  31.013 -26.494  1.00  0.00     0.018 A 
HETATM    6  C5  UNL     1     -29.830  31.629 -26.402  1.00  0.00     0.129 A 
HETATM    7  N2  UNL     1     -30.650  31.435 -25.257  1.00  0.00    -0.082 NA
HETATM    8  N3  UNL     1     -30.264  32.414 -27.402  1.00  0.00    -0.343 N 
HETATM    9  C8  UNL     1     -29.464  32.575 -28.467  1.00  0.00     0.093 A 
HETATM   10  C9  UNL     1     -28.233  31.990 -28.602  1.00  0.00     0.031 A 
HETATM   11  C10 UNL     1     -27.759  31.174 -27.583  1.00  0.00    -0.006 A 
HETATM   12  C11 UNL     1     -26.520  30.570 -27.691  1.00  0.00     0.102 A 
ENDROOT
BRANCH   8  13
HETATM   13  C6  UNL     1     -31.544  33.082 -27.370  1.00  0.00     0.156 C 
BRANCH  13  14
HETATM   14  C7  UNL     1     -32.684  32.161 -27.730  1.00  0.00     0.249 C 
BRANCH  14  15
HETATM   15  N4  UNL     1     -33.451  31.956 -26.495  1.00  0.00    -0.078 N 
ATOM     16  H43 UNL     1     -32.925  31.475 -25.766  1.00  0.00     0.274 HD
ATOM     17  H42 UNL     1     -33.623  32.817 -25.977  1.00  0.00     0.274 HD
ATOM     18  H41 UNL     1     -34.305  31.469 -26.767  1.00  0.00     0.274 HD
ENDBRANCH  14  15
ENDBRANCH  13  14
ENDBRANCH   8  13
TORSDOF 3
ENDMDL
MODEL 4
REMARK VINA RESULT: -6.348268446      2.904      3.911
REMARK  3 active torsions:
REMARK  status: ('A' for Active; 'I' for Inactive)
REMARK    1  A    between atoms: N3_8  and  C6_9 
REMARK    2  A    between atoms: C6_9  and  C7_10 
REMARK    3  A    between atoms: C7_10  and  N4_11 
ROOT
HETATM    1  C1  UNL     1     -32.946  32.850 -27.291  1.00  0.00     0.154 C 
HETATM    2  N1  UNL     1     -31.529  32.466 -27.222  1.00  0.00    -0.370 N 
HETATM    3  C2  UNL     1     -30.666  32.835 -28.182  1.00  0.00     0.091 A 
HETATM    4  C3  UNL     1     -29.326  32.507 -28.174  1.00  0.00     0.033 A 
HETATM    5  C4  UNL     1     -28.863  31.751 -27.104  1.00  0.00     0.018 A 
HETATM    6  C5  UNL     1     -27.518  31.390 -27.046  1.00  0.00     0.129 A 
HETATM    7  N2  UNL     1     -26.617  31.789 -28.071  1.00  0.00    -0.082 NA
HETATM    8  N3  UNL     1     -27.065  30.659 -26.015  1.00  0.00    -0.343 N 
HETATM    9  C8  UNL     1     -27.943  30.300 -25.065  1.00  0.00     0.093 A 
HETATM   10  C9  UNL     1     -29.271  30.630 -25.080  1.00  0.00     0.031 A 
HETATM   11  C10 UNL     1     -29.767  31.385 -26.134  1.00  0.00    -0.006 A 
HETATM   12  C11 UNL     1     -31.105  31.734 -26.177  1.00  0.00     0.102 A 
ENDROOT
BRANCH   8  13
HETATM   13  C6  UNL     1     -25.685  30.253 -25.892  1.00  0.00     0.156 C 
BRANCH  13  14
HETATM   14  C7  UNL     1     -25.470  28.812 -26.290  1.00  0.00     0.249 C 
BRANCH  14  15
HETATM   15  N4  UNL     1     -25.590  28.767 -27.752  1.00  0.00    -0.078 N 
ATOM     16  H43 UNL     1     -26.461  28.349 -28.075  1.00  0.00     0.274 HD
ATOM     17  H42 UNL     1     -25.727  29.685 -28.176  1.00  0.00     0.274 HD
ATOM     18  H41 UNL     1     -24.758  28.284 -28.091  1.00  0.00     0.274 HD
ENDBRANCH  14  15
ENDBRANCH  13  14
ENDBRANCH   8  13
TORSDOF 3
ENDMDL
MODEL 5
REMARK VINA RESULT: -6.261323581      3.207      4.622
REMARK  3 active torsions:
REMARK  status: ('A' for Active; 'I' for Inactive)
REMARK    1  A    between atoms: N3_8  and  C6_9 
REMARK    2  A    between atoms: C6_9  and  C7_10 
REMARK    3  A    between atoms: C7_10  and  N4_11 
ROOT
HETATM    1  C1  UNL     1     -33.547  32.986 -27.711  1.00  0.00     0.154 C 
HETATM    2  N1  UNL     1     -32.204  32.563 -27.288  1.00  0.00    -0.370 N 
HETATM    3  C2  UNL     1     -32.029  31.820 -26.184  1.00  0.00     0.091 A 
HETATM    4  C3  UNL     1     -30.796  31.392 -25.737  1.00  0.00     0.033 A 
HETATM    5  C4  UNL     1     -29.685  31.761 -26.485  1.00  0.00     0.018 A 
HETATM    6  C5  UNL     1     -28.416  31.357 -26.078  1.00  0.00     0.129 A 
HETATM    7  N2  UNL     1     -28.247  30.570 -24.907  1.00  0.00    -0.082 NA
HETATM    8  N3  UNL     1     -27.337  31.711 -26.797  1.00  0.00    -0.343 N 
HETATM    9  C8  UNL     1     -27.533  32.453 -27.898  1.00  0.00     0.093 A 
HETATM   10  C9  UNL     1     -28.760  32.875 -28.336  1.00  0.00     0.031 A 
HETATM   11  C10 UNL     1     -29.891  32.523 -27.612  1.00  0.00    -0.006 A 
HETATM   12  C11 UNL     1     -31.145  32.933 -28.029  1.00  0.00     0.102 A 
ENDROOT
BRANCH   8  13
HETATM   13  C6  UNL     1     -25.995  31.325 -26.433  1.00  0.00     0.156 C 
BRANCH  13  14
HETATM   14  C7  UNL     1     -25.577  30.021 -27.070  1.00  0.00     0.249 C 
BRANCH  14  15
HETATM   15  N4  UNL     1     -25.615  29.014 -26.003  1.00  0.00    -0.078 N 
ATOM     16  H43 UNL     1     -26.329  28.299 -26.146  1.00  0.00     0.274 HD
ATOM     17  H42 UNL     1     -24.810  28.388 -26.007  1.00  0.00     0.274 HD
ATOM     18  H41 UNL     1     -25.725  29.527 -25.129  1.00  0.00     0.274 HD
ENDBRANCH  14  15
ENDBRANCH  13  14
ENDBRANCH   8  13
TORSDOF 3
ENDMDL
