MODEL 1
REMARK VINA RESULT: -8.367635443      0.000      0.000
REMARK  4 active torsions:
REMARK  status: ('A' for Active; 'I' for Inactive)
REMARK    1  A    between atoms: O1_2  and  C2_3 
REMARK    2  A    between atoms: C5_6  and  C6_7 
REMARK    3  A    between atoms: C10_11  and  C11_12 
REMARK    4  A    between atoms: N1_19  and  C17_20 
ROOT
HETATM    1  C6  UNL     1       4.446 -10.577 -23.799  1.00  0.00     0.136 C 
HETATM    2  C7  UNL     1       5.250  -9.472 -24.436  1.00  0.00     0.031 C 
HETATM    3  C8  UNL     1       6.653  -9.487 -23.951  1.00  0.00     0.005 C 
HETATM    4  C9  UNL     1       7.064 -10.615 -23.071  1.00  0.00     0.031 C 
HETATM    5  C10 UNL     1       6.434 -11.938 -23.394  1.00  0.00     0.136 C 
HETATM    6  N1  UNL     1       5.161 -11.794 -24.061  1.00  0.00    -0.201 N 
ENDROOT
BRANCH   1   7
HETATM    7  C5  UNL     1       3.024 -10.587 -24.177  1.00  0.00    -0.035 A 
HETATM    8  C4  UNL     1       2.512  -9.793 -25.187  1.00  0.00     0.012 A 
HETATM    9  C3  UNL     1       1.159  -9.799 -25.524  1.00  0.00     0.037 A 
HETATM   10  C2  UNL     1       0.267 -10.609 -24.852  1.00  0.00     0.068 A 
HETATM   11  C22 UNL     1       0.781 -11.399 -23.846  1.00  0.00     0.037 A 
HETATM   12  C21 UNL     1       2.121 -11.394 -23.512  1.00  0.00     0.012 A 
BRANCH  10  13
HETATM   13  O1  UNL     1      -1.087 -10.639 -25.163  1.00  0.00    -0.356 OA
HETATM   14  C1  UNL     1      -2.032 -11.027 -24.182  1.00  0.00     0.210 C 
ENDBRANCH  10  13
ENDBRANCH   1   7
BRANCH   6  15
HETATM   15  C17 UNL     1       4.664 -12.773 -24.902  1.00  0.00     0.673 C 
HETATM   16  N2  UNL     1       5.041 -12.903 -26.118  1.00  0.00    -0.226 N 
HETATM   17  C18 UNL     1       4.564 -13.897 -27.038  1.00  0.00     0.139 C 
ATOM     18  H2  UNL     1       5.739 -12.244 -26.463  1.00  0.00     0.177 HD
HETATM   19  C19 UNL     1       4.093 -15.152 -26.340  1.00  0.00     0.040 C 
HETATM   20  C20 UNL     1       3.318 -14.870 -25.098  1.00  0.00     0.139 C 
HETATM   21  N3  UNL     1       3.694 -13.683 -24.402  1.00  0.00    -0.226 N 
ATOM     22  H3  UNL     1       3.247 -13.478 -23.508  1.00  0.00     0.177 HD
ENDBRANCH   6  15
BRANCH   5  23
HETATM   23  C11 UNL     1       7.328 -12.726 -24.266  1.00  0.00    -0.035 A 
HETATM   24  C12 UNL     1       8.299 -12.111 -25.019  1.00  0.00     0.010 A 
HETATM   25  C13 UNL     1       9.126 -12.869 -25.842  1.00  0.00     0.019 A 
HETATM   26  C14 UNL     1       8.991 -14.237 -25.919  1.00  0.00     0.011 A 
HETATM   27 BR1  UNL     1      10.125 -15.273 -27.046  1.00  0.00    -0.051 Br
HETATM   28  C15 UNL     1       8.018 -14.863 -25.166  1.00  0.00     0.019 A 
HETATM   29  C16 UNL     1       7.207 -14.103 -24.356  1.00  0.00     0.010 A 
ENDBRANCH   5  23
TORSDOF 4
ENDMDL
MODEL 2
REMARK VINA RESULT: -7.781852859      4.082      6.900
REMARK  4 active torsions:
REMARK  status: ('A' for Active; 'I' for Inactive)
REMARK    1  A    between atoms: O1_2  and  C2_3 
REMARK    2  A    between atoms: C5_6  and  C6_7 
REMARK    3  A    between atoms: C10_11  and  C11_12 
REMARK    4  A    between atoms: N1_19  and  C17_20 
ROOT
HETATM    1  C6  UNL     1       2.399  -9.649 -24.481  1.00  0.00     0.136 C 
HETATM    2  C7  UNL     1       2.272  -8.959 -25.816  1.00  0.00     0.031 C 
HETATM    3  C8  UNL     1       1.592  -7.647 -25.672  1.00  0.00     0.005 C 
HETATM    4  C9  UNL     1       1.286  -7.177 -24.294  1.00  0.00     0.031 C 
HETATM    5  C10 UNL     1       2.309  -7.538 -23.256  1.00  0.00     0.136 C 
HETATM    6  N1  UNL     1       3.060  -8.720 -23.611  1.00  0.00    -0.201 N 
ENDROOT
BRANCH   1   7
HETATM    7  C5  UNL     1       3.003 -10.990 -24.548  1.00  0.00    -0.035 A 
HETATM    8  C4  UNL     1       4.292 -11.209 -25.002  1.00  0.00     0.012 A 
HETATM    9  C3  UNL     1       4.846 -12.486 -25.077  1.00  0.00     0.037 A 
HETATM   10  C2  UNL     1       4.119 -13.595 -24.696  1.00  0.00     0.068 A 
HETATM   11  C22 UNL     1       2.835 -13.373 -24.245  1.00  0.00     0.037 A 
HETATM   12  C21 UNL     1       2.286 -12.109 -24.170  1.00  0.00     0.012 A 
BRANCH  10  13
HETATM   13  O1  UNL     1       4.642 -14.882 -24.758  1.00  0.00    -0.356 OA
HETATM   14  C1  UNL     1       4.289 -15.740 -25.827  1.00  0.00     0.210 C 
ENDBRANCH  10  13
ENDBRANCH   1   7
BRANCH   6  15
HETATM   15  C17 UNL     1       4.341  -8.938 -23.136  1.00  0.00     0.673 C 
HETATM   16  N2  UNL     1       4.580  -9.427 -21.978  1.00  0.00    -0.226 N 
HETATM   17  C18 UNL     1       5.884  -9.677 -21.431  1.00  0.00     0.139 C 
ATOM     18  H2  UNL     1       3.777  -9.658 -21.393  1.00  0.00     0.177 HD
HETATM   19  C19 UNL     1       6.920  -9.937 -22.500  1.00  0.00     0.040 C 
HETATM   20  C20 UNL     1       6.779  -9.034 -23.678  1.00  0.00     0.139 C 
HETATM   21  N3  UNL     1       5.447  -8.611 -23.966  1.00  0.00    -0.226 N 
ATOM     22  H3  UNL     1       5.282  -8.051 -24.802  1.00  0.00     0.177 HD
ENDBRANCH   6  15
BRANCH   5  23
HETATM   23  C11 UNL     1       3.258  -6.422 -23.071  1.00  0.00    -0.035 A 
HETATM   24  C12 UNL     1       3.566  -5.959 -21.816  1.00  0.00     0.010 A 
HETATM   25  C13 UNL     1       4.456  -4.900 -21.663  1.00  0.00     0.019 A 
HETATM   26  C14 UNL     1       5.040  -4.300 -22.755  1.00  0.00     0.011 A 
HETATM   27 BR1  UNL     1       6.258  -2.850 -22.543  1.00  0.00    -0.051 Br
HETATM   28  C15 UNL     1       4.736  -4.759 -24.020  1.00  0.00     0.019 A 
HETATM   29  C16 UNL     1       3.856  -5.806 -24.159  1.00  0.00     0.010 A 
ENDBRANCH   5  23
TORSDOF 4
ENDMDL
MODEL 3
REMARK VINA RESULT: -7.604348535      3.841      5.360
REMARK  4 active torsions:
REMARK  status: ('A' for Active; 'I' for Inactive)
REMARK    1  A    between atoms: O1_2  and  C2_3 
REMARK    2  A    between atoms: C5_6  and  C6_7 
REMARK    3  A    between atoms: C10_11  and  C11_12 
REMARK    4  A    between atoms: N1_19  and  C17_20 
ROOT
HETATM    1  C6  UNL     1       4.843  -7.488 -23.107  1.00  0.00     0.136 C 
HETATM    2  C7  UNL     1       6.201  -7.701 -23.727  1.00  0.00     0.031 C 
HETATM    3  C8  UNL     1       6.858  -8.908 -23.164  1.00  0.00     0.005 C 
HETATM    4  C9  UNL     1       6.061  -9.754 -22.233  1.00  0.00     0.031 C 
HETATM    5  C10 UNL     1       4.599  -9.855 -22.556  1.00  0.00     0.136 C 
HETATM    6  N1  UNL     1       4.119  -8.711 -23.296  1.00  0.00    -0.201 N 
ENDROOT
BRANCH   1   7
HETATM    7  C5  UNL     1       4.154  -6.269 -23.563  1.00  0.00    -0.035 A 
HETATM    8  C4  UNL     1       4.457  -5.641 -24.758  1.00  0.00     0.012 A 
HETATM    9  C3  UNL     1       3.809  -4.477 -25.170  1.00  0.00     0.037 A 
HETATM   10  C2  UNL     1       2.828  -3.901 -24.391  1.00  0.00     0.068 A 
HETATM   11  C22 UNL     1       2.529  -4.530 -23.201  1.00  0.00     0.037 A 
HETATM   12  C21 UNL     1       3.170  -5.682 -22.792  1.00  0.00     0.012 A 
BRANCH  10  13
HETATM   13  O1  UNL     1       2.163  -2.742 -24.773  1.00  0.00    -0.356 OA
HETATM   14  C1  UNL     1       1.235  -2.133 -23.893  1.00  0.00     0.210 C 
ENDBRANCH  10  13
ENDBRANCH   1   7
BRANCH   6  15
HETATM   15  C17 UNL     1       3.024  -8.796 -24.138  1.00  0.00     0.673 C 
HETATM   16  N2  UNL     1       3.130  -8.893 -25.410  1.00  0.00    -0.226 N 
HETATM   17  C18 UNL     1       2.034  -8.985 -26.334  1.00  0.00     0.139 C 
ATOM     18  H2  UNL     1       4.072  -8.906 -25.800  1.00  0.00     0.177 HD
HETATM   19  C19 UNL     1       0.802  -9.599 -25.711  1.00  0.00     0.040 C 
HETATM   20  C20 UNL     1       0.552  -9.118 -24.322  1.00  0.00     0.139 C 
HETATM   21  N3  UNL     1       1.720  -8.778 -23.575  1.00  0.00    -0.226 N 
ATOM     22  H3  UNL     1       1.614  -8.512 -22.596  1.00  0.00     0.177 HD
ENDBRANCH   6  15
BRANCH   5  23
HETATM   23  C11 UNL     1       4.340 -11.069 -23.356  1.00  0.00    -0.035 A 
HETATM   24  C12 UNL     1       3.091 -11.640 -23.386  1.00  0.00     0.010 A 
HETATM   25  C13 UNL     1       2.869 -12.789 -24.138  1.00  0.00     0.019 A 
HETATM   26  C14 UNL     1       3.884 -13.373 -24.861  1.00  0.00     0.011 A 
HETATM   27 BR1  UNL     1       3.578 -14.946 -25.890  1.00  0.00    -0.051 Br
HETATM   28  C15 UNL     1       5.143 -12.805 -24.836  1.00  0.00     0.019 A 
HETATM   29  C16 UNL     1       5.350 -11.670 -24.089  1.00  0.00     0.010 A 
ENDBRANCH   5  23
TORSDOF 4
ENDMDL
MODEL 4
REMARK VINA RESULT: -7.528923386      3.499      4.956
REMARK  4 active torsions:
REMARK  status: ('A' for Active; 'I' for Inactive)
REMARK    1  A    between atoms: O1_2  and  C2_3 
REMARK    2  A    between atoms: C5_6  and  C6_7 
REMARK    3  A    between atoms: C10_11  and  C11_12 
REMARK    4  A    between atoms: N1_19  and  C17_20 
ROOT
HETATM    1  C6  UNL     1       4.830  -7.975 -23.246  1.00  0.00     0.136 C 
HETATM    2  C7  UNL     1       6.107  -7.966 -24.048  1.00  0.00     0.031 C 
HETATM    3  C8  UNL     1       6.975  -9.111 -23.676  1.00  0.00     0.005 C 
HETATM    4  C9  UNL     1       6.421 -10.116 -22.727  1.00  0.00     0.031 C 
HETATM    5  C10 UNL     1       4.951 -10.385 -22.870  1.00  0.00     0.136 C 
HETATM    6  N1  UNL     1       4.240  -9.267 -23.445  1.00  0.00    -0.201 N 
ENDROOT
BRANCH   1   7
HETATM    7  C5  UNL     1       3.943  -6.829 -23.507  1.00  0.00    -0.035 A 
HETATM    8  C4  UNL     1       4.107  -5.987 -24.592  1.00  0.00     0.012 A 
HETATM    9  C3  UNL     1       3.270  -4.895 -24.819  1.00  0.00     0.037 A 
HETATM   10  C2  UNL     1       2.233  -4.610 -23.957  1.00  0.00     0.068 A 
HETATM   11  C22 UNL     1       2.072  -5.451 -22.876  1.00  0.00     0.037 A 
HETATM   12  C21 UNL     1       2.900  -6.532 -22.651  1.00  0.00     0.012 A 
BRANCH  10  13
HETATM   13  O1  UNL     1       1.380  -3.529 -24.154  1.00  0.00    -0.356 OA
HETATM   14  C1  UNL     1       1.559  -2.340 -23.407  1.00  0.00     0.210 C 
ENDBRANCH  10  13
ENDBRANCH   1   7
BRANCH   6  15
HETATM   15  C17 UNL     1       3.060  -9.438 -24.145  1.00  0.00     0.673 C 
HETATM   16  N2  UNL     1       1.961  -9.780 -23.586  1.00  0.00    -0.226 N 
HETATM   17  C18 UNL     1       0.706  -9.971 -24.257  1.00  0.00     0.139 C 
ATOM     18  H2  UNL     1       1.978  -9.929 -22.577  1.00  0.00     0.177 HD
HETATM   19  C19 UNL     1       0.592  -9.145 -25.517  1.00  0.00     0.040 C 
HETATM   20  C20 UNL     1       1.854  -9.121 -26.312  1.00  0.00     0.139 C 
HETATM   21  N3  UNL     1       3.056  -9.224 -25.550  1.00  0.00    -0.226 N 
ATOM     22  H3  UNL     1       3.950  -9.140 -26.034  1.00  0.00     0.177 HD
ENDBRANCH   6  15
BRANCH   5  23
HETATM   23  C11 UNL     1       4.735 -11.566 -23.731  1.00  0.00    -0.035 A 
HETATM   24  C12 UNL     1       3.537 -12.237 -23.718  1.00  0.00     0.010 A 
HETATM   25  C13 UNL     1       3.355 -13.353 -24.529  1.00  0.00     0.019 A 
HETATM   26  C14 UNL     1       4.362 -13.804 -25.352  1.00  0.00     0.011 A 
HETATM   27 BR1  UNL     1       4.111 -15.332 -26.462  1.00  0.00    -0.051 Br
HETATM   28  C15 UNL     1       5.569 -13.136 -25.371  1.00  0.00     0.019 A 
HETATM   29  C16 UNL     1       5.737 -12.034 -24.565  1.00  0.00     0.010 A 
ENDBRANCH   5  23
TORSDOF 4
ENDMDL
MODEL 5
REMARK VINA RESULT: -7.363617104      3.894      6.711
REMARK  4 active torsions:
REMARK  status: ('A' for Active; 'I' for Inactive)
REMARK    1  A    between atoms: O1_2  and  C2_3 
REMARK    2  A    between atoms: C5_6  and  C6_7 
REMARK    3  A    between atoms: C10_11  and  C11_12 
REMARK    4  A    between atoms: N1_19  and  C17_20 
ROOT
HETATM    1  C6  UNL     1       2.163  -9.869 -24.272  1.00  0.00     0.136 C 
HETATM    2  C7  UNL     1       1.713  -9.232 -25.563  1.00  0.00     0.031 C 
HETATM    3  C8  UNL     1       1.094  -7.906 -25.313  1.00  0.00     0.005 C 
HETATM    4  C9  UNL     1       1.141  -7.375 -23.923  1.00  0.00     0.031 C 
HETATM    5  C10 UNL     1       2.388  -7.709 -23.155  1.00  0.00     0.136 C 
HETATM    6  N1  UNL     1       3.022  -8.914 -23.633  1.00  0.00    -0.201 N 
ENDROOT
BRANCH   1   7
HETATM    7  C5  UNL     1       2.726 -11.220 -24.429  1.00  0.00    -0.035 A 
HETATM    8  C4  UNL     1       3.991 -11.450 -24.940  1.00  0.00     0.012 A 
HETATM    9  C3  UNL     1       4.506 -12.736 -25.099  1.00  0.00     0.037 A 
HETATM   10  C2  UNL     1       3.763 -13.843 -24.747  1.00  0.00     0.068 A 
HETATM   11  C22 UNL     1       2.503 -13.610 -24.238  1.00  0.00     0.037 A 
HETATM   12  C21 UNL     1       1.992 -12.337 -24.080  1.00  0.00     0.012 A 
BRANCH  10  13
HETATM   13  O1  UNL     1       4.246 -15.138 -24.892  1.00  0.00    -0.356 OA
HETATM   14  C1  UNL     1       5.472 -15.366 -25.564  1.00  0.00     0.210 C 
ENDBRANCH  10  13
ENDBRANCH   1   7
BRANCH   6  15
HETATM   15  C17 UNL     1       4.380  -9.132 -23.481  1.00  0.00     0.673 C 
HETATM   16  N2  UNL     1       5.235  -8.863 -24.395  1.00  0.00    -0.226 N 
HETATM   17  C18 UNL     1       6.653  -9.065 -24.297  1.00  0.00     0.139 C 
ATOM     18  H2  UNL     1       4.878  -8.472 -25.267  1.00  0.00     0.177 HD
HETATM   19  C19 UNL     1       7.149  -9.003 -22.871  1.00  0.00     0.040 C 
HETATM   20  C20 UNL     1       6.242  -9.693 -21.910  1.00  0.00     0.139 C 
HETATM   21  N3  UNL     1       4.858  -9.675 -22.258  1.00  0.00    -0.226 N 
ATOM     22  H3  UNL     1       4.183 -10.069 -21.602  1.00  0.00     0.177 HD
ENDBRANCH   6  15
BRANCH   5  23
HETATM   23  C11 UNL     1       3.358  -6.600 -23.260  1.00  0.00    -0.035 A 
HETATM   24  C12 UNL     1       4.005  -6.123 -22.146  1.00  0.00     0.010 A 
HETATM   25  C13 UNL     1       4.909  -5.071 -22.264  1.00  0.00     0.019 A 
HETATM   26  C14 UNL     1       5.170  -4.492 -23.484  1.00  0.00     0.011 A 
HETATM   27 BR1  UNL     1       6.407  -3.052 -23.643  1.00  0.00    -0.051 Br
HETATM   28  C15 UNL     1       4.523  -4.965 -24.608  1.00  0.00     0.019 A 
HETATM   29  C16 UNL     1       3.633  -6.005 -24.480  1.00  0.00     0.010 A 
ENDBRANCH   5  23
TORSDOF 4
ENDMDL
