MODEL 1
REMARK VINA RESULT: -5.622162161      0.000      0.000
REMARK  8 active torsions:
REMARK  status: ('A' for Active; 'I' for Inactive)
REMARK    1  A    between atoms: N1_2  and  C2_5 
REMARK    2  A    between atoms: C2_5  and  C4_7 
REMARK    3  A    between atoms: C4_7  and  C5_8 
REMARK    4  A    between atoms: C4_7  and  O3_23 
REMARK    5  A    between atoms: C5_8  and  O1_9 
REMARK    6  A    between atoms: O1_9  and  C6_10 
REMARK    7  A    between atoms: C9_13  and  C10_14 
REMARK    8  A    between atoms: N3_16  and  O2_18 
ROOT
HETATM    1  C6  UNL     1     -19.392  -5.859 -15.799  1.00  0.00     0.093 A 
HETATM    2  C7  UNL     1     -19.512  -4.811 -14.918  1.00  0.00     0.039 A 
HETATM    3  C8  UNL     1     -20.109  -5.075 -13.680  1.00  0.00     0.018 A 
HETATM    4  C9  UNL     1     -20.576  -6.302 -13.303  1.00  0.00     0.009 A 
HETATM    5  C11 UNL     1     -20.438  -7.352 -14.230  1.00  0.00     0.044 A 
HETATM    6  C12 UNL     1     -19.856  -7.117 -15.448  1.00  0.00     0.080 A 
HETATM    7  N4  UNL     1     -19.732  -8.208 -16.365  1.00  0.00    -0.099 NA
ENDROOT
BRANCH   1   8
HETATM    8  O1  UNL     1     -18.810  -5.670 -17.043  1.00  0.00    -0.347 OA
BRANCH   8   9
HETATM    9  C5  UNL     1     -19.131  -4.590 -17.884  1.00  0.00     0.209 C 
BRANCH   9  10
HETATM   10  C4  UNL     1     -20.496  -4.765 -18.489  1.00  0.00     0.175 C 
BRANCH  10  11
HETATM   11  C2  UNL     1     -20.471  -5.670 -19.697  1.00  0.00     0.212 C 
HETATM   12  C3  UNL     1     -21.655  -5.451 -20.613  1.00  0.00     0.043 C 
BRANCH  11  13
HETATM   13  N1  UNL     1     -20.454  -7.068 -19.304  1.00  0.00    -0.073 N 
HETATM   14  C1  UNL     1     -19.450  -7.814 -20.026  1.00  0.00     0.267 C 
ATOM     15  H12 UNL     1     -21.376  -7.493 -19.402  1.00  0.00     0.277 HD
ATOM     16  H11 UNL     1     -20.338  -7.169 -18.296  1.00  0.00     0.277 HD
ENDBRANCH  11  13
ENDBRANCH  10  11
BRANCH  10  17
HETATM   17  O3  UNL     1     -21.006  -3.542 -18.899  1.00  0.00    -0.386 OA
HETATM   18  C13 UNL     1     -20.871  -2.627 -17.838  1.00  0.00     0.202 C 
ENDBRANCH  10  17
ENDBRANCH   9  10
ENDBRANCH   8   9
ENDBRANCH   1   8
BRANCH   4  19
HETATM   19  C10 UNL     1     -21.187  -6.536 -12.019  1.00  0.00     0.146 C 
HETATM   20  N2  UNL     1     -20.948  -7.817 -11.428  1.00  0.00    -0.080 NA
HETATM   21  N3  UNL     1     -21.888  -5.744 -11.383  1.00  0.00    -0.255 N 
ATOM     22  H3  UNL     1     -22.207  -6.136 -10.497  1.00  0.00     0.195 HD
BRANCH  21  23
HETATM   23  O2  UNL     1     -22.328  -4.506 -11.572  1.00  0.00    -0.288 OA
ATOM     24  H2  UNL     1     -22.726  -4.032 -12.292  1.00  0.00     0.244 HD
ENDBRANCH  21  23
ENDBRANCH   4  19
TORSDOF 8
ENDMDL
MODEL 2
REMARK VINA RESULT: -5.552873548      1.417      2.543
REMARK  8 active torsions:
REMARK  status: ('A' for Active; 'I' for Inactive)
REMARK    1  A    between atoms: N1_2  and  C2_5 
REMARK    2  A    between atoms: C2_5  and  C4_7 
REMARK    3  A    between atoms: C4_7  and  C5_8 
REMARK    4  A    between atoms: C4_7  and  O3_23 
REMARK    5  A    between atoms: C5_8  and  O1_9 
REMARK    6  A    between atoms: O1_9  and  C6_10 
REMARK    7  A    between atoms: C9_13  and  C10_14 
REMARK    8  A    between atoms: N3_16  and  O2_18 
ROOT
HETATM    1  C6  UNL     1     -20.237  -5.828 -16.083  1.00  0.00     0.093 A 
HETATM    2  C7  UNL     1     -20.670  -4.776 -15.313  1.00  0.00     0.039 A 
HETATM    3  C8  UNL     1     -20.986  -5.043 -13.976  1.00  0.00     0.018 A 
HETATM    4  C9  UNL     1     -20.889  -6.277 -13.400  1.00  0.00     0.009 A 
HETATM    5  C11 UNL     1     -20.443  -7.332 -14.218  1.00  0.00     0.044 A 
HETATM    6  C12 UNL     1     -20.128  -7.094 -15.529  1.00  0.00     0.080 A 
HETATM    7  N4  UNL     1     -19.677  -8.190 -16.331  1.00  0.00    -0.099 NA
ENDROOT
BRANCH   1   8
HETATM    8  O1  UNL     1     -19.907  -5.637 -17.416  1.00  0.00    -0.347 OA
BRANCH   8   9
HETATM    9  C5  UNL     1     -20.869  -5.470 -18.428  1.00  0.00     0.209 C 
BRANCH   9  10
HETATM   10  C4  UNL     1     -20.619  -4.209 -19.207  1.00  0.00     0.175 C 
BRANCH  10  11
HETATM   11  C2  UNL     1     -20.924  -2.971 -18.398  1.00  0.00     0.212 C 
HETATM   12  C3  UNL     1     -21.638  -1.909 -19.206  1.00  0.00     0.043 C 
BRANCH  11  13
HETATM   13  N1  UNL     1     -19.709  -2.388 -17.856  1.00  0.00    -0.073 N 
HETATM   14  C1  UNL     1     -19.996  -1.422 -16.822  1.00  0.00     0.267 C 
ATOM     15  H12 UNL     1     -19.130  -1.984 -18.592  1.00  0.00     0.277 HD
ATOM     16  H11 UNL     1     -19.067  -3.107 -17.524  1.00  0.00     0.277 HD
ENDBRANCH  11  13
ENDBRANCH  10  11
BRANCH  10  17
HETATM   17  O3  UNL     1     -21.419  -4.172 -20.339  1.00  0.00    -0.386 OA
HETATM   18  C13 UNL     1     -21.690  -5.495 -20.736  1.00  0.00     0.202 C 
ENDBRANCH  10  17
ENDBRANCH   9  10
ENDBRANCH   8   9
ENDBRANCH   1   8
BRANCH   4  19
HETATM   19  C10 UNL     1     -21.223  -6.514 -12.018  1.00  0.00     0.146 C 
HETATM   20  N2  UNL     1     -20.805  -7.769 -11.471  1.00  0.00    -0.080 NA
HETATM   21  N3  UNL     1     -21.828  -5.745 -11.266  1.00  0.00    -0.255 N 
ATOM     22  H3  UNL     1     -21.946  -6.134 -10.330  1.00  0.00     0.195 HD
BRANCH  21  23
HETATM   23  O2  UNL     1     -22.362  -4.535 -11.379  1.00  0.00    -0.288 OA
ATOM     24  H2  UNL     1     -23.050  -4.145 -11.905  1.00  0.00     0.244 HD
ENDBRANCH  21  23
ENDBRANCH   4  19
TORSDOF 8
ENDMDL
MODEL 3
REMARK VINA RESULT: -5.515320042      3.434      5.012
REMARK  8 active torsions:
REMARK  status: ('A' for Active; 'I' for Inactive)
REMARK    1  A    between atoms: N1_2  and  C2_5 
REMARK    2  A    between atoms: C2_5  and  C4_7 
REMARK    3  A    between atoms: C4_7  and  C5_8 
REMARK    4  A    between atoms: C4_7  and  O3_23 
REMARK    5  A    between atoms: C5_8  and  O1_9 
REMARK    6  A    between atoms: O1_9  and  C6_10 
REMARK    7  A    between atoms: C9_13  and  C10_14 
REMARK    8  A    between atoms: N3_16  and  O2_18 
ROOT
HETATM    1  C6  UNL     1     -18.079  -6.392 -15.113  1.00  0.00     0.093 A 
HETATM    2  C7  UNL     1     -18.004  -5.359 -14.211  1.00  0.00     0.039 A 
HETATM    3  C8  UNL     1     -19.114  -5.140 -13.387  1.00  0.00     0.018 A 
HETATM    4  C9  UNL     1     -20.256  -5.888 -13.429  1.00  0.00     0.009 A 
HETATM    5  C11 UNL     1     -20.300  -6.937 -14.365  1.00  0.00     0.044 A 
HETATM    6  C12 UNL     1     -19.225  -7.171 -15.182  1.00  0.00     0.080 A 
HETATM    7  N4  UNL     1     -19.303  -8.247 -16.121  1.00  0.00    -0.099 NA
ENDROOT
BRANCH   1   8
HETATM    8  O1  UNL     1     -17.017  -6.667 -15.961  1.00  0.00    -0.347 OA
BRANCH   8   9
HETATM    9  C5  UNL     1     -15.679  -6.696 -15.528  1.00  0.00     0.209 C 
BRANCH   9  10
HETATM   10  C4  UNL     1     -15.051  -8.032 -15.808  1.00  0.00     0.175 C 
BRANCH  10  11
HETATM   11  C2  UNL     1     -15.597  -9.117 -14.912  1.00  0.00     0.212 C 
HETATM   12  C3  UNL     1     -14.554 -10.148 -14.544  1.00  0.00     0.043 C 
BRANCH  11  13
HETATM   13  N1  UNL     1     -16.712  -9.803 -15.541  1.00  0.00    -0.073 N 
HETATM   14  C1  UNL     1     -16.357 -10.317 -16.844  1.00  0.00     0.267 C 
ATOM     15  H12 UNL     1     -17.537  -9.206 -15.589  1.00  0.00     0.277 HD
ATOM     16  H11 UNL     1     -17.083 -10.539 -14.940  1.00  0.00     0.277 HD
ENDBRANCH  11  13
ENDBRANCH  10  11
BRANCH  10  17
HETATM   17  O3  UNL     1     -13.680  -7.976 -15.603  1.00  0.00    -0.386 OA
HETATM   18  C13 UNL     1     -13.323  -6.638 -15.352  1.00  0.00     0.202 C 
ENDBRANCH  10  17
ENDBRANCH   9  10
ENDBRANCH   8   9
ENDBRANCH   1   8
BRANCH   4  19
HETATM   19  C10 UNL     1     -21.380  -5.632 -12.564  1.00  0.00     0.146 C 
HETATM   20  N2  UNL     1     -21.988  -4.342 -12.681  1.00  0.00    -0.080 NA
HETATM   21  N3  UNL     1     -21.866  -6.411 -11.739  1.00  0.00    -0.255 N 
ATOM     22  H3  UNL     1     -22.659  -6.004 -11.244  1.00  0.00     0.195 HD
BRANCH  21  23
HETATM   23  O2  UNL     1     -21.607  -7.650 -11.341  1.00  0.00    -0.288 OA
ATOM     24  H2  UNL     1     -22.089  -8.469 -11.318  1.00  0.00     0.244 HD
ENDBRANCH  21  23
ENDBRANCH   4  19
TORSDOF 8
ENDMDL
MODEL 4
REMARK VINA RESULT: -5.493167089      2.469      3.428
REMARK  8 active torsions:
REMARK  status: ('A' for Active; 'I' for Inactive)
REMARK    1  A    between atoms: N1_2  and  C2_5 
REMARK    2  A    between atoms: C2_5  and  C4_7 
REMARK    3  A    between atoms: C4_7  and  C5_8 
REMARK    4  A    between atoms: C4_7  and  O3_23 
REMARK    5  A    between atoms: C5_8  and  O1_9 
REMARK    6  A    between atoms: O1_9  and  C6_10 
REMARK    7  A    between atoms: C9_13  and  C10_14 
REMARK    8  A    between atoms: N3_16  and  O2_18 
ROOT
HETATM    1  C6  UNL     1     -19.411  -3.933 -15.639  1.00  0.00     0.093 A 
HETATM    2  C7  UNL     1     -18.998  -3.754 -14.341  1.00  0.00     0.039 A 
HETATM    3  C8  UNL     1     -19.669  -4.473 -13.346  1.00  0.00     0.018 A 
HETATM    4  C9  UNL     1     -20.702  -5.334 -13.590  1.00  0.00     0.009 A 
HETATM    5  C11 UNL     1     -21.099  -5.493 -14.930  1.00  0.00     0.044 A 
HETATM    6  C12 UNL     1     -20.456  -4.799 -15.921  1.00  0.00     0.080 A 
HETATM    7  N4  UNL     1     -20.886  -4.986 -17.273  1.00  0.00    -0.099 NA
ENDROOT
BRANCH   1   8
HETATM    8  O1  UNL     1     -18.791  -3.253 -16.676  1.00  0.00    -0.347 OA
BRANCH   8   9
HETATM    9  C5  UNL     1     -18.671  -1.852 -16.711  1.00  0.00     0.209 C 
BRANCH   9  10
HETATM   10  C4  UNL     1     -20.003  -1.192 -16.492  1.00  0.00     0.175 C 
BRANCH  10  11
HETATM   11  C2  UNL     1     -20.743  -0.959 -17.787  1.00  0.00     0.212 C 
HETATM   12  C3  UNL     1     -21.896   0.009 -17.633  1.00  0.00     0.043 C 
BRANCH  11  13
HETATM   13  N1  UNL     1     -21.265  -2.205 -18.323  1.00  0.00    -0.073 N 
HETATM   14  C1  UNL     1     -21.685  -2.061 -19.697  1.00  0.00     0.267 C 
ATOM     15  H12 UNL     1     -22.016  -2.574 -17.741  1.00  0.00     0.277 HD
ATOM     16  H11 UNL     1     -20.593  -2.965 -18.217  1.00  0.00     0.277 HD
ENDBRANCH  11  13
ENDBRANCH  10  11
BRANCH  10  17
HETATM   17  O3  UNL     1     -19.838   0.044 -15.882  1.00  0.00    -0.386 OA
HETATM   18  C13 UNL     1     -18.607   0.040 -15.199  1.00  0.00     0.202 C 
ENDBRANCH  10  17
ENDBRANCH   9  10
ENDBRANCH   8   9
ENDBRANCH   1   8
BRANCH   4  19
HETATM   19  C10 UNL     1     -21.370  -6.058 -12.538  1.00  0.00     0.146 C 
HETATM   20  N2  UNL     1     -21.231  -7.482 -12.563  1.00  0.00    -0.080 NA
HETATM   21  N3  UNL     1     -22.042  -5.574 -11.623  1.00  0.00    -0.255 N 
ATOM     22  H3  UNL     1     -22.415  -6.287 -10.998  1.00  0.00     0.195 HD
BRANCH  21  23
HETATM   23  O2  UNL     1     -22.397  -4.348 -11.256  1.00  0.00    -0.288 OA
ATOM     24  H2  UNL     1     -23.215  -3.868 -11.202  1.00  0.00     0.244 HD
ENDBRANCH  21  23
ENDBRANCH   4  19
TORSDOF 8
ENDMDL
MODEL 5
REMARK VINA RESULT: -5.428783864      1.280      2.186
REMARK  8 active torsions:
REMARK  status: ('A' for Active; 'I' for Inactive)
REMARK    1  A    between atoms: N1_2  and  C2_5 
REMARK    2  A    between atoms: C2_5  and  C4_7 
REMARK    3  A    between atoms: C4_7  and  C5_8 
REMARK    4  A    between atoms: C4_7  and  O3_23 
REMARK    5  A    between atoms: C5_8  and  O1_9 
REMARK    6  A    between atoms: O1_9  and  C6_10 
REMARK    7  A    between atoms: C9_13  and  C10_14 
REMARK    8  A    between atoms: N3_16  and  O2_18 
ROOT
HETATM    1  C6  UNL     1     -20.125  -5.868 -16.088  1.00  0.00     0.093 A 
HETATM    2  C7  UNL     1     -20.521  -4.798 -15.323  1.00  0.00     0.039 A 
HETATM    3  C8  UNL     1     -20.876  -5.052 -13.993  1.00  0.00     0.018 A 
HETATM    4  C9  UNL     1     -20.850  -6.292 -13.419  1.00  0.00     0.009 A 
HETATM    5  C11 UNL     1     -20.439  -7.365 -14.232  1.00  0.00     0.044 A 
HETATM    6  C12 UNL     1     -20.088  -7.139 -15.536  1.00  0.00     0.080 A 
HETATM    7  N4  UNL     1     -19.674  -8.254 -16.333  1.00  0.00    -0.099 NA
ENDROOT
BRANCH   1   8
HETATM    8  O1  UNL     1     -19.760  -5.689 -17.414  1.00  0.00    -0.347 OA
BRANCH   8   9
HETATM    9  C5  UNL     1     -20.654  -5.239 -18.401  1.00  0.00     0.209 C 
BRANCH   9  10
HETATM   10  C4  UNL     1     -20.329  -5.844 -19.738  1.00  0.00     0.175 C 
BRANCH  10  11
HETATM   11  C2  UNL     1     -21.149  -5.239 -20.852  1.00  0.00     0.212 C 
HETATM   12  C3  UNL     1     -21.436  -3.770 -20.631  1.00  0.00     0.043 C 
BRANCH  11  13
HETATM   13  N1  UNL     1     -22.416  -5.931 -21.005  1.00  0.00    -0.073 N 
HETATM   14  C1  UNL     1     -23.114  -5.510 -22.197  1.00  0.00     0.267 C 
ATOM     15  H12 UNL     1     -23.000  -5.826 -20.175  1.00  0.00     0.277 HD
ATOM     16  H11 UNL     1     -22.292  -6.943 -20.985  1.00  0.00     0.277 HD
ENDBRANCH  11  13
ENDBRANCH  10  11
BRANCH  10  17
HETATM   17  O3  UNL     1     -20.587  -7.208 -19.728  1.00  0.00    -0.386 OA
HETATM   18  C13 UNL     1     -19.481  -7.874 -20.288  1.00  0.00     0.202 C 
ENDBRANCH  10  17
ENDBRANCH   9  10
ENDBRANCH   8   9
ENDBRANCH   1   8
BRANCH   4  19
HETATM   19  C10 UNL     1     -21.222  -6.515 -12.045  1.00  0.00     0.146 C 
HETATM   20  N2  UNL     1     -20.819  -7.764 -11.475  1.00  0.00    -0.080 NA
HETATM   21  N3  UNL     1     -21.847  -5.739 -11.317  1.00  0.00    -0.255 N 
ATOM     22  H3  UNL     1     -21.991  -6.119 -10.381  1.00  0.00     0.195 HD
BRANCH  21  23
HETATM   23  O2  UNL     1     -22.379  -4.531 -11.456  1.00  0.00    -0.288 OA
ATOM     24  H2  UNL     1     -22.085  -3.698 -11.806  1.00  0.00     0.244 HD
ENDBRANCH  21  23
ENDBRANCH   4  19
TORSDOF 8
ENDMDL
