MODEL 1
REMARK VINA RESULT: -6.307389991      0.000      0.000
REMARK  8 active torsions:
REMARK  status: ('A' for Active; 'I' for Inactive)
REMARK    1  A    between atoms: N1_1  and  C1_5 
REMARK    2  A    between atoms: C1_5  and  C2_6 
REMARK    3  A    between atoms: C2_6  and  N2_7 
REMARK    4  A    between atoms: N2_7  and  C3_10 
REMARK    5  A    between atoms: C3_10  and  C4_11 
REMARK    6  A    between atoms: C3_10  and  C6_15 
REMARK    7  A    between atoms: C4_11  and  C5_12 
REMARK    8  A    between atoms: N3_17  and  C8_18 
ROOT
HETATM    1  C3  UNL     1      -9.086 -58.259  -6.243  1.00  0.00     0.247 C 
ENDROOT
BRANCH   1   2
HETATM    2  N2  UNL     1      -8.520 -56.966  -6.401  1.00  0.00    -0.063 N 
ATOM      3  H22 UNL     1      -9.153 -56.230  -6.087  1.00  0.00     0.278 HD
ATOM      4  H21 UNL     1      -8.451 -56.694  -7.381  1.00  0.00     0.278 HD
BRANCH   2   5
HETATM    5  C2  UNL     1      -7.241 -56.905  -5.730  1.00  0.00     0.260 C 
BRANCH   5   6
HETATM    6  C1  UNL     1      -7.366 -56.285  -4.345  1.00  0.00     0.257 C 
BRANCH   6   7
HETATM    7  N1  UNL     1      -6.596 -55.086  -4.212  1.00  0.00    -0.078 N 
ATOM      8  H13 UNL     1      -6.545 -54.582  -5.097  1.00  0.00     0.274 HD
ATOM      9  H12 UNL     1      -7.092 -54.390  -3.657  1.00  0.00     0.274 HD
ATOM     10  H11 UNL     1      -5.664 -55.262  -3.835  1.00  0.00     0.274 HD
ENDBRANCH   6   7
ENDBRANCH   5   6
ENDBRANCH   2   5
ENDBRANCH   1   2
BRANCH   1  11
HETATM   11  C4  UNL     1     -10.391 -58.188  -5.528  1.00  0.00     0.152 C 
BRANCH  11  12
HETATM   12  C5  UNL     1     -11.174 -56.962  -5.780  1.00  0.00     0.174 C 
HETATM   13  O1  UNL     1     -10.824 -55.943  -5.112  1.00  0.00    -0.648 OA
HETATM   14  O2  UNL     1     -12.219 -56.824  -6.646  1.00  0.00    -0.648 OA
ENDBRANCH  11  12
ENDBRANCH   1  11
BRANCH   1  15
HETATM   15  C6  UNL     1      -9.139 -59.050  -7.488  1.00  0.00     0.072 A 
HETATM   16  C7  UNL     1     -10.011 -58.847  -8.532  1.00  0.00     0.142 A 
HETATM   17  N3  UNL     1      -9.763 -59.772  -9.508  1.00  0.00    -0.249 N 
HETATM   18  N4  UNL     1      -8.764 -60.517  -9.066  1.00  0.00    -0.015 NA
HETATM   19  N5  UNL     1      -8.387 -60.094  -7.865  1.00  0.00    -0.284 N 
ATOM     20  H5  UNL     1      -7.636 -60.503  -7.310  1.00  0.00     0.184 HD
BRANCH  17  21
HETATM   21  C8  UNL     1     -10.467 -59.882 -10.743  1.00  0.00     0.054 A 
HETATM   22  C9  UNL     1      -9.900 -59.635 -11.969  1.00  0.00     0.031 A 
HETATM   23  C10 UNL     1     -10.633 -59.760 -13.138  1.00  0.00     0.002 A 
HETATM   24  C11 UNL     1     -11.972 -60.141 -13.096  1.00  0.00     0.000 A 
HETATM   25  C12 UNL     1     -12.542 -60.388 -11.878  1.00  0.00     0.002 A 
HETATM   26  C13 UNL     1     -11.806 -60.261 -10.738  1.00  0.00     0.031 A 
ENDBRANCH  17  21
ENDBRANCH   1  15
TORSDOF 8
ENDMDL
MODEL 2
REMARK VINA RESULT: -6.277980570      1.964      2.719
REMARK  8 active torsions:
REMARK  status: ('A' for Active; 'I' for Inactive)
REMARK    1  A    between atoms: N1_1  and  C1_5 
REMARK    2  A    between atoms: C1_5  and  C2_6 
REMARK    3  A    between atoms: C2_6  and  N2_7 
REMARK    4  A    between atoms: N2_7  and  C3_10 
REMARK    5  A    between atoms: C3_10  and  C4_11 
REMARK    6  A    between atoms: C3_10  and  C6_15 
REMARK    7  A    between atoms: C4_11  and  C5_12 
REMARK    8  A    between atoms: N3_17  and  C8_18 
ROOT
HETATM    1  C3  UNL     1      -8.673 -57.705  -6.484  1.00  0.00     0.247 C 
ENDROOT
BRANCH   1   2
HETATM    2  N2  UNL     1      -9.149 -58.499  -5.407  1.00  0.00    -0.063 N 
ATOM      3  H22 UNL     1      -8.574 -58.395  -4.570  1.00  0.00     0.278 HD
ATOM      4  H21 UNL     1      -8.996 -59.495  -5.568  1.00  0.00     0.278 HD
BRANCH   2   5
HETATM    5  C2  UNL     1     -10.539 -58.198  -5.151  1.00  0.00     0.260 C 
BRANCH   5   6
HETATM    6  C1  UNL     1     -10.875 -56.760  -5.524  1.00  0.00     0.257 C 
BRANCH   6   7
HETATM    7  N1  UNL     1     -12.286 -56.523  -5.564  1.00  0.00    -0.078 N 
ATOM      8  H13 UNL     1     -12.750 -57.174  -6.198  1.00  0.00     0.274 HD
ATOM      9  H12 UNL     1     -12.731 -56.800  -4.690  1.00  0.00     0.274 HD
ATOM     10  H11 UNL     1     -12.511 -55.556  -5.801  1.00  0.00     0.274 HD
ENDBRANCH   6   7
ENDBRANCH   5   6
ENDBRANCH   2   5
ENDBRANCH   1   2
BRANCH   1  11
HETATM   11  C4  UNL     1      -7.357 -57.090  -6.154  1.00  0.00     0.152 C 
BRANCH  11  12
HETATM   12  C5  UNL     1      -7.271 -56.485  -4.810  1.00  0.00     0.174 C 
HETATM   13  O1  UNL     1      -6.954 -55.257  -4.782  1.00  0.00    -0.648 OA
HETATM   14  O2  UNL     1      -7.496 -57.109  -3.618  1.00  0.00    -0.648 OA
ENDBRANCH  11  12
ENDBRANCH   1  11
BRANCH   1  15
HETATM   15  C6  UNL     1      -8.692 -58.389  -7.792  1.00  0.00     0.072 A 
HETATM   16  C7  UNL     1      -9.804 -58.592  -8.575  1.00  0.00     0.142 A 
HETATM   17  N3  UNL     1      -9.436 -59.260  -9.710  1.00  0.00    -0.249 N 
HETATM   18  N4  UNL     1      -8.131 -59.455  -9.617  1.00  0.00    -0.015 NA
HETATM   19  N5  UNL     1      -7.682 -58.940  -8.478  1.00  0.00    -0.284 N 
ATOM     20  H5  UNL     1      -6.709 -58.960  -8.171  1.00  0.00     0.184 HD
BRANCH  17  21
HETATM   21  C8  UNL     1     -10.314 -59.653 -10.762  1.00  0.00     0.054 A 
HETATM   22  C9  UNL     1      -9.990 -59.584 -12.094  1.00  0.00     0.031 A 
HETATM   23  C10 UNL     1     -10.884 -59.983 -13.074  1.00  0.00     0.002 A 
HETATM   24  C11 UNL     1     -12.143 -60.466 -12.727  1.00  0.00     0.000 A 
HETATM   25  C12 UNL     1     -12.472 -60.537 -11.402  1.00  0.00     0.002 A 
HETATM   26  C13 UNL     1     -11.581 -60.141 -10.451  1.00  0.00     0.031 A 
ENDBRANCH  17  21
ENDBRANCH   1  15
TORSDOF 8
ENDMDL
MODEL 3
REMARK VINA RESULT: -6.134829940      1.046      1.167
REMARK  8 active torsions:
REMARK  status: ('A' for Active; 'I' for Inactive)
REMARK    1  A    between atoms: N1_1  and  C1_5 
REMARK    2  A    between atoms: C1_5  and  C2_6 
REMARK    3  A    between atoms: C2_6  and  N2_7 
REMARK    4  A    between atoms: N2_7  and  C3_10 
REMARK    5  A    between atoms: C3_10  and  C4_11 
REMARK    6  A    between atoms: C3_10  and  C6_15 
REMARK    7  A    between atoms: C4_11  and  C5_12 
REMARK    8  A    between atoms: N3_17  and  C8_18 
ROOT
HETATM    1  C3  UNL     1      -8.336 -58.380  -6.744  1.00  0.00     0.247 C 
ENDROOT
BRANCH   1   2
HETATM    2  N2  UNL     1      -8.176 -56.997  -6.460  1.00  0.00    -0.063 N 
ATOM      3  H22 UNL     1      -8.995 -56.605  -5.994  1.00  0.00     0.278 HD
ATOM      4  H21 UNL     1      -8.199 -56.427  -7.305  1.00  0.00     0.278 HD
BRANCH   2   5
HETATM    5  C2  UNL     1      -6.966 -56.789  -5.698  1.00  0.00     0.260 C 
BRANCH   5   6
HETATM    6  C1  UNL     1      -7.254 -56.097  -4.373  1.00  0.00     0.257 C 
BRANCH   6   7
HETATM    7  N1  UNL     1      -6.429 -54.945  -4.168  1.00  0.00    -0.078 N 
ATOM      8  H13 UNL     1      -5.658 -54.923  -4.834  1.00  0.00     0.274 HD
ATOM      9  H12 UNL     1      -6.913 -54.092  -4.449  1.00  0.00     0.274 HD
ATOM     10  H11 UNL     1      -6.089 -54.876  -3.209  1.00  0.00     0.274 HD
ENDBRANCH   6   7
ENDBRANCH   5   6
ENDBRANCH   2   5
ENDBRANCH   1   2
BRANCH   1  11
HETATM   11  C4  UNL     1      -9.331 -59.003  -5.828  1.00  0.00     0.152 C 
BRANCH  11  12
HETATM   12  C5  UNL     1     -10.209 -58.049  -5.120  1.00  0.00     0.174 C 
HETATM   13  O1  UNL     1      -9.981 -57.915  -3.879  1.00  0.00    -0.648 OA
HETATM   14  O2  UNL     1     -11.222 -57.314  -5.662  1.00  0.00    -0.648 OA
ENDBRANCH  11  12
ENDBRANCH   1  11
BRANCH   1  15
HETATM   15  C6  UNL     1      -8.578 -58.678  -8.169  1.00  0.00     0.072 A 
HETATM   16  C7  UNL     1      -9.769 -59.102  -8.709  1.00  0.00     0.142 A 
HETATM   17  N3  UNL     1      -9.612 -59.277 -10.056  1.00  0.00    -0.249 N 
HETATM   18  N4  UNL     1      -8.356 -58.965 -10.326  1.00  0.00    -0.015 NA
HETATM   19  N5  UNL     1      -7.734 -58.609  -9.207  1.00  0.00    -0.284 N 
ATOM     20  H5  UNL     1      -6.756 -58.323  -9.148  1.00  0.00     0.184 HD
BRANCH  17  21
HETATM   21  C8  UNL     1     -10.626 -59.713 -10.959  1.00  0.00     0.054 A 
HETATM   22  C9  UNL     1     -10.495 -59.688 -12.325  1.00  0.00     0.031 A 
HETATM   23  C10 UNL     1     -11.515 -60.128 -13.154  1.00  0.00     0.002 A 
HETATM   24  C11 UNL     1     -12.706 -60.608 -12.616  1.00  0.00     0.000 A 
HETATM   25  C12 UNL     1     -12.842 -60.635 -11.256  1.00  0.00     0.002 A 
HETATM   26  C13 UNL     1     -11.830 -60.199 -10.455  1.00  0.00     0.031 A 
ENDBRANCH  17  21
ENDBRANCH   1  15
TORSDOF 8
ENDMDL
MODEL 4
REMARK VINA RESULT: -6.096683710      1.054      1.557
REMARK  8 active torsions:
REMARK  status: ('A' for Active; 'I' for Inactive)
REMARK    1  A    between atoms: N1_1  and  C1_5 
REMARK    2  A    between atoms: C1_5  and  C2_6 
REMARK    3  A    between atoms: C2_6  and  N2_7 
REMARK    4  A    between atoms: N2_7  and  C3_10 
REMARK    5  A    between atoms: C3_10  and  C4_11 
REMARK    6  A    between atoms: C3_10  and  C6_15 
REMARK    7  A    between atoms: C4_11  and  C5_12 
REMARK    8  A    between atoms: N3_17  and  C8_18 
ROOT
HETATM    1  C3  UNL     1      -8.364 -58.370  -6.766  1.00  0.00     0.247 C 
ENDROOT
BRANCH   1   2
HETATM    2  N2  UNL     1      -8.188 -56.992  -6.466  1.00  0.00    -0.063 N 
ATOM      3  H22 UNL     1      -8.997 -56.598  -5.985  1.00  0.00     0.278 HD
ATOM      4  H21 UNL     1      -8.216 -56.411  -7.303  1.00  0.00     0.278 HD
BRANCH   2   5
HETATM    5  C2  UNL     1      -6.966 -56.806  -5.716  1.00  0.00     0.260 C 
BRANCH   5   6
HETATM    6  C1  UNL     1      -7.231 -56.137  -4.375  1.00  0.00     0.257 C 
BRANCH   6   7
HETATM    7  N1  UNL     1      -6.467 -54.940  -4.201  1.00  0.00    -0.078 N 
ATOM      8  H13 UNL     1      -7.011 -54.223  -3.722  1.00  0.00     0.274 HD
ATOM      9  H12 UNL     1      -5.728 -55.072  -3.510  1.00  0.00     0.274 HD
ATOM     10  H11 UNL     1      -6.089 -54.588  -5.081  1.00  0.00     0.274 HD
ENDBRANCH   6   7
ENDBRANCH   5   6
ENDBRANCH   2   5
ENDBRANCH   1   2
BRANCH   1  11
HETATM   11  C4  UNL     1      -9.353 -58.996  -5.844  1.00  0.00     0.152 C 
BRANCH  11  12
HETATM   12  C5  UNL     1     -10.212 -58.044  -5.112  1.00  0.00     0.174 C 
HETATM   13  O1  UNL     1      -9.956 -57.916  -3.877  1.00  0.00    -0.648 OA
HETATM   14  O2  UNL     1     -11.235 -57.303  -5.628  1.00  0.00    -0.648 OA
ENDBRANCH  11  12
ENDBRANCH   1  11
BRANCH   1  15
HETATM   15  C6  UNL     1      -8.629 -58.647  -8.191  1.00  0.00     0.072 A 
HETATM   16  C7  UNL     1      -9.809 -59.128  -8.710  1.00  0.00     0.142 A 
HETATM   17  N3  UNL     1      -9.680 -59.260 -10.065  1.00  0.00    -0.249 N 
HETATM   18  N4  UNL     1      -8.453 -58.867 -10.360  1.00  0.00    -0.015 NA
HETATM   19  N5  UNL     1      -7.821 -58.501  -9.250  1.00  0.00    -0.284 N 
ATOM     20  H5  UNL     1      -6.861 -58.160  -9.210  1.00  0.00     0.184 HD
BRANCH  17  21
HETATM   21  C8  UNL     1     -10.693 -59.733 -10.950  1.00  0.00     0.054 A 
HETATM   22  C9  UNL     1     -11.900 -60.233 -10.532  1.00  0.00     0.031 A 
HETATM   23  C10 UNL     1     -12.849 -60.677 -11.440  1.00  0.00     0.002 A 
HETATM   24  C11 UNL     1     -12.596 -60.626 -12.808  1.00  0.00     0.000 A 
HETATM   25  C12 UNL     1     -11.395 -60.128 -13.231  1.00  0.00     0.002 A 
HETATM   26  C13 UNL     1     -10.474 -59.695 -12.325  1.00  0.00     0.031 A 
ENDBRANCH  17  21
ENDBRANCH   1  15
TORSDOF 8
ENDMDL
MODEL 5
REMARK VINA RESULT: -5.842564319      2.084      2.822
REMARK  8 active torsions:
REMARK  status: ('A' for Active; 'I' for Inactive)
REMARK    1  A    between atoms: N1_1  and  C1_5 
REMARK    2  A    between atoms: C1_5  and  C2_6 
REMARK    3  A    between atoms: C2_6  and  N2_7 
REMARK    4  A    between atoms: N2_7  and  C3_10 
REMARK    5  A    between atoms: C3_10  and  C4_11 
REMARK    6  A    between atoms: C3_10  and  C6_15 
REMARK    7  A    between atoms: C4_11  and  C5_12 
REMARK    8  A    between atoms: N3_17  and  C8_18 
ROOT
HETATM    1  C3  UNL     1      -9.697 -57.843  -5.258  1.00  0.00     0.247 C 
ENDROOT
BRANCH   1   2
HETATM    2  N2  UNL     1      -9.091 -56.609  -4.897  1.00  0.00    -0.063 N 
ATOM      3  H22 UNL     1      -9.676 -56.066  -4.261  1.00  0.00     0.278 HD
ATOM      4  H21 UNL     1      -9.068 -55.951  -5.676  1.00  0.00     0.278 HD
BRANCH   2   5
HETATM    5  C2  UNL     1      -7.774 -56.850  -4.352  1.00  0.00     0.260 C 
BRANCH   5   6
HETATM    6  C1  UNL     1      -6.756 -55.855  -4.891  1.00  0.00     0.257 C 
BRANCH   6   7
HETATM    7  N1  UNL     1      -6.449 -54.823  -3.949  1.00  0.00    -0.078 N 
ATOM      8  H13 UNL     1      -6.915 -54.989  -3.057  1.00  0.00     0.274 HD
ATOM      9  H12 UNL     1      -5.479 -54.883  -3.640  1.00  0.00     0.274 HD
ATOM     10  H11 UNL     1      -6.664 -53.892  -4.308  1.00  0.00     0.274 HD
ENDBRANCH   6   7
ENDBRANCH   5   6
ENDBRANCH   2   5
ENDBRANCH   1   2
BRANCH   1  11
HETATM   11  C4  UNL     1     -11.180 -57.762  -5.149  1.00  0.00     0.152 C 
BRANCH  11  12
HETATM   12  C5  UNL     1     -11.805 -56.675  -5.929  1.00  0.00     0.174 C 
HETATM   13  O1  UNL     1     -12.703 -57.037  -6.748  1.00  0.00    -0.648 OA
HETATM   14  O2  UNL     1     -11.513 -55.344  -5.856  1.00  0.00    -0.648 OA
ENDBRANCH  11  12
ENDBRANCH   1  11
BRANCH   1  15
HETATM   15  C6  UNL     1      -9.230 -58.389  -6.547  1.00  0.00     0.072 A 
HETATM   16  C7  UNL     1      -8.937 -57.655  -7.672  1.00  0.00     0.142 A 
HETATM   17  N3  UNL     1      -8.538 -58.502  -8.668  1.00  0.00    -0.249 N 
HETATM   18  N4  UNL     1      -8.586 -59.721  -8.158  1.00  0.00    -0.015 NA
HETATM   19  N5  UNL     1      -8.998 -59.662  -6.896  1.00  0.00    -0.284 N 
ATOM     20  H5  UNL     1      -9.119 -60.468  -6.283  1.00  0.00     0.184 HD
BRANCH  17  21
HETATM   21  C8  UNL     1      -8.154 -58.111  -9.984  1.00  0.00     0.054 A 
HETATM   22  C9  UNL     1      -8.459 -58.830 -11.114  1.00  0.00     0.031 A 
HETATM   23  C10 UNL     1      -8.062 -58.399 -12.369  1.00  0.00     0.002 A 
HETATM   24  C11 UNL     1      -7.339 -57.218 -12.515  1.00  0.00     0.000 A 
HETATM   25  C12 UNL     1      -7.033 -56.498 -11.394  1.00  0.00     0.002 A 
HETATM   26  C13 UNL     1      -7.431 -56.936 -10.167  1.00  0.00     0.031 A 
ENDBRANCH  17  21
ENDBRANCH   1  15
TORSDOF 8
ENDMDL
