MODEL 1
REMARK VINA RESULT: -5.870056415      0.000      0.000
REMARK  9 active torsions:
REMARK  status: ('A' for Active; 'I' for Inactive)
REMARK    1  A    between atoms: C2_2  and  C3_6 
REMARK    2  A    between atoms: C3_6  and  N2_7 
REMARK    3  A    between atoms: C3_6  and  C4_11 
REMARK       I    between atoms: C4_11  and  N3_13 
REMARK    4  A    between atoms: N3_13  and  C5_15 
REMARK    5  A    between atoms: C5_15  and  C7_17 
REMARK    6  A    between atoms: C7_17  and  C8_18 
REMARK    7  A    between atoms: C8_18  and  C9_20 
REMARK    8  A    between atoms: C9_20  and  C10_21 
REMARK    9  A    between atoms: C10_21  and  C11_22 
ROOT
HETATM    1  C4  UNL     1      -9.267 -58.347  -6.124  1.00  0.00     0.254 C 
HETATM    2  O1  UNL     1      -9.628 -59.381  -5.511  1.00  0.00    -0.271 OA
HETATM    3  N3  UNL     1      -8.879 -58.435  -7.482  1.00  0.00    -0.354 N 
ATOM      4  H3  UNL     1      -8.585 -57.601  -7.990  1.00  0.00     0.162 HD
ENDROOT
BRANCH   3   5
HETATM    5  C5  UNL     1      -8.905 -59.718  -8.136  1.00  0.00     0.087 C 
HETATM    6  C6  UNL     1      -7.629 -60.480  -7.856  1.00  0.00     0.032 C 
BRANCH   5   7
HETATM    7  C7  UNL     1      -9.020 -59.573  -9.639  1.00  0.00     0.103 C 
BRANCH   7   8
HETATM    8  C8  UNL     1     -10.015 -60.537 -10.145  1.00  0.00     0.129 C 
HETATM    9  O2  UNL     1      -9.629 -61.620 -10.542  1.00  0.00    -0.298 OA
BRANCH   8  10
HETATM   10  C9  UNL     1     -11.483 -60.215 -10.180  1.00  0.00     0.084 C 
BRANCH  10  11
HETATM   11  C10 UNL     1     -11.913 -60.072 -11.621  1.00  0.00     0.066 C 
BRANCH  11  12
HETATM   12  C11 UNL     1     -13.066 -60.960 -11.926  1.00  0.00     0.025 A 
HETATM   13  C12 UNL     1     -14.338 -60.588 -12.294  1.00  0.00     0.114 A 
HETATM   14  N4  UNL     1     -15.105 -61.676 -12.486  1.00  0.00    -0.360 N 
HETATM   15  C13 UNL     1     -14.306 -62.740 -12.238  1.00  0.00     0.180 A 
ATOM     16  H4  UNL     1     -16.087 -61.696 -12.762  1.00  0.00     0.166 HD
HETATM   17  N5  UNL     1     -13.075 -62.318 -11.900  1.00  0.00    -0.355 N 
ATOM     18  H5  UNL     1     -12.283 -62.915 -11.665  1.00  0.00     0.166 HD
ENDBRANCH  11  12
ENDBRANCH  10  11
ENDBRANCH   8  10
ENDBRANCH   7   8
ENDBRANCH   5   7
ENDBRANCH   3   5
BRANCH   1  19
HETATM   19  C3  UNL     1      -9.233 -57.015  -5.467  1.00  0.00     0.319 C 
BRANCH  19  20
HETATM   20  C2  UNL     1      -8.027 -56.941  -4.609  1.00  0.00     0.015 C 
HETATM   21  C1  UNL     1      -7.076 -55.814  -4.817  1.00  0.00     0.065 C 
HETATM   22  N1  UNL     1      -7.835 -57.836  -3.722  1.00  0.00    -0.404 N 
ATOM     23  H12 UNL     1      -7.005 -57.786  -3.131  1.00  0.00     0.155 HD
ATOM     24  H11 UNL     1      -8.487 -58.608  -3.580  1.00  0.00     0.155 HD
ENDBRANCH  19  20
BRANCH  19  25
HETATM   25  N2  UNL     1     -10.432 -56.788  -4.677  1.00  0.00    -0.061 N 
ATOM     26  H23 UNL     1     -11.255 -56.658  -5.265  1.00  0.00     0.275 HD
ATOM     27  H22 UNL     1     -10.728 -57.631  -4.186  1.00  0.00     0.275 HD
ATOM     28  H21 UNL     1     -10.294 -56.005  -4.038  1.00  0.00     0.275 HD
ENDBRANCH  19  25
ENDBRANCH   1  19
TORSDOF 9
ENDMDL
MODEL 2
REMARK VINA RESULT: -5.711290718      0.989      1.272
REMARK  9 active torsions:
REMARK  status: ('A' for Active; 'I' for Inactive)
REMARK    1  A    between atoms: C2_2  and  C3_6 
REMARK    2  A    between atoms: C3_6  and  N2_7 
REMARK    3  A    between atoms: C3_6  and  C4_11 
REMARK       I    between atoms: C4_11  and  N3_13 
REMARK    4  A    between atoms: N3_13  and  C5_15 
REMARK    5  A    between atoms: C5_15  and  C7_17 
REMARK    6  A    between atoms: C7_17  and  C8_18 
REMARK    7  A    between atoms: C8_18  and  C9_20 
REMARK    8  A    between atoms: C9_20  and  C10_21 
REMARK    9  A    between atoms: C10_21  and  C11_22 
ROOT
HETATM    1  C4  UNL     1      -9.405 -58.366  -6.237  1.00  0.00     0.254 C 
HETATM    2  O1  UNL     1      -9.632 -59.436  -5.623  1.00  0.00    -0.271 OA
HETATM    3  N3  UNL     1      -9.203 -58.389  -7.638  1.00  0.00    -0.354 N 
ATOM      4  H3  UNL     1      -9.018 -57.525  -8.148  1.00  0.00     0.162 HD
ENDROOT
BRANCH   3   5
HETATM    5  C5  UNL     1      -9.260 -59.649  -8.332  1.00  0.00     0.087 C 
HETATM    6  C6  UNL     1      -7.958 -60.402  -8.171  1.00  0.00     0.032 C 
BRANCH   5   7
HETATM    7  C7  UNL     1      -9.485 -59.455  -9.817  1.00  0.00     0.103 C 
BRANCH   7   8
HETATM    8  C8  UNL     1     -10.518 -60.402 -10.279  1.00  0.00     0.129 C 
HETATM    9  O2  UNL     1     -10.166 -61.485 -10.710  1.00  0.00    -0.298 OA
BRANCH   8  10
HETATM   10  C9  UNL     1     -11.982 -60.065 -10.228  1.00  0.00     0.084 C 
BRANCH  10  11
HETATM   11  C10 UNL     1     -12.753 -61.147 -10.946  1.00  0.00     0.066 C 
BRANCH  11  12
HETATM   12  C11 UNL     1     -13.534 -60.587 -12.081  1.00  0.00     0.025 A 
HETATM   13  C12 UNL     1     -13.075 -60.258 -13.334  1.00  0.00     0.114 A 
HETATM   14  N4  UNL     1     -14.080 -59.780 -14.089  1.00  0.00    -0.360 N 
HETATM   15  C13 UNL     1     -15.180 -59.810 -13.301  1.00  0.00     0.180 A 
ATOM     16  H4  UNL     1     -14.025 -59.460 -15.056  1.00  0.00     0.166 HD
HETATM   17  N5  UNL     1     -14.860 -60.296 -12.088  1.00  0.00    -0.355 N 
ATOM     18  H5  UNL     1     -15.504 -60.424 -11.308  1.00  0.00     0.166 HD
ENDBRANCH  11  12
ENDBRANCH  10  11
ENDBRANCH   8  10
ENDBRANCH   7   8
ENDBRANCH   5   7
ENDBRANCH   3   5
BRANCH   1  19
HETATM   19  C3  UNL     1      -9.342 -57.056  -5.539  1.00  0.00     0.319 C 
BRANCH  19  20
HETATM   20  C2  UNL     1      -8.115 -57.022  -4.707  1.00  0.00     0.015 C 
HETATM   21  C1  UNL     1      -7.114 -55.949  -4.959  1.00  0.00     0.065 C 
HETATM   22  N1  UNL     1      -7.950 -57.906  -3.802  1.00  0.00    -0.404 N 
ATOM     23  H12 UNL     1      -7.107 -57.883  -3.229  1.00  0.00     0.155 HD
ATOM     24  H11 UNL     1      -8.636 -58.641  -3.629  1.00  0.00     0.155 HD
ENDBRANCH  19  20
BRANCH  19  25
HETATM   25  N2  UNL     1     -10.519 -56.841  -4.715  1.00  0.00    -0.061 N 
ATOM     26  H23 UNL     1     -10.821 -57.700  -4.254  1.00  0.00     0.275 HD
ATOM     27  H22 UNL     1     -10.307 -56.289  -3.885  1.00  0.00     0.275 HD
ATOM     28  H21 UNL     1     -11.268 -56.424  -5.267  1.00  0.00     0.275 HD
ENDBRANCH  19  25
ENDBRANCH   1  19
TORSDOF 9
ENDMDL
MODEL 3
REMARK VINA RESULT: -5.625106798      1.322      1.775
REMARK  9 active torsions:
REMARK  status: ('A' for Active; 'I' for Inactive)
REMARK    1  A    between atoms: C2_2  and  C3_6 
REMARK    2  A    between atoms: C3_6  and  N2_7 
REMARK    3  A    between atoms: C3_6  and  C4_11 
REMARK       I    between atoms: C4_11  and  N3_13 
REMARK    4  A    between atoms: N3_13  and  C5_15 
REMARK    5  A    between atoms: C5_15  and  C7_17 
REMARK    6  A    between atoms: C7_17  and  C8_18 
REMARK    7  A    between atoms: C8_18  and  C9_20 
REMARK    8  A    between atoms: C9_20  and  C10_21 
REMARK    9  A    between atoms: C10_21  and  C11_22 
ROOT
HETATM    1  C4  UNL     1      -8.945 -58.717  -6.715  1.00  0.00     0.254 C 
HETATM    2  O1  UNL     1      -9.314 -59.587  -5.890  1.00  0.00    -0.271 OA
HETATM    3  N3  UNL     1      -8.342 -59.114  -7.932  1.00  0.00    -0.354 N 
ATOM      4  H3  UNL     1      -8.038 -58.415  -8.611  1.00  0.00     0.162 HD
ENDROOT
BRANCH   3   5
HETATM    5  C5  UNL     1      -8.162 -60.518  -8.200  1.00  0.00     0.087 C 
HETATM    6  C6  UNL     1      -6.739 -60.935  -7.902  1.00  0.00     0.032 C 
BRANCH   5   7
HETATM    7  C7  UNL     1      -8.430 -60.845  -9.653  1.00  0.00     0.103 C 
BRANCH   7   8
HETATM    8  C8  UNL     1      -9.506 -59.970 -10.158  1.00  0.00     0.129 C 
HETATM    9  O2  UNL     1      -9.210 -58.876 -10.599  1.00  0.00    -0.298 OA
BRANCH   8  10
HETATM   10  C9  UNL     1     -10.947 -60.397 -10.141  1.00  0.00     0.084 C 
BRANCH  10  11
HETATM   11  C10 UNL     1     -11.600 -59.949 -11.428  1.00  0.00     0.066 C 
BRANCH  11  12
HETATM   12  C11 UNL     1     -12.782 -60.792 -11.751  1.00  0.00     0.025 A 
HETATM   13  C12 UNL     1     -14.065 -60.373 -12.012  1.00  0.00     0.114 A 
HETATM   14  N4  UNL     1     -14.859 -61.430 -12.263  1.00  0.00    -0.360 N 
HETATM   15  C13 UNL     1     -14.065 -62.521 -12.158  1.00  0.00     0.180 A 
ATOM     16  H4  UNL     1     -15.854 -61.412 -12.486  1.00  0.00     0.166 HD
HETATM   17  N5  UNL     1     -12.811 -62.146 -11.851  1.00  0.00    -0.355 N 
ATOM     18  H5  UNL     1     -12.017 -62.771 -11.715  1.00  0.00     0.166 HD
ENDBRANCH  11  12
ENDBRANCH  10  11
ENDBRANCH   8  10
ENDBRANCH   7   8
ENDBRANCH   5   7
ENDBRANCH   3   5
BRANCH   1  19
HETATM   19  C3  UNL     1      -9.121 -57.264  -6.458  1.00  0.00     0.319 C 
BRANCH  19  20
HETATM   20  C2  UNL     1     -10.307 -57.078  -5.589  1.00  0.00     0.015 C 
HETATM   21  C1  UNL     1     -11.612 -56.757  -6.229  1.00  0.00     0.065 C 
HETATM   22  N1  UNL     1     -10.180 -57.197  -4.326  1.00  0.00    -0.404 N 
ATOM     23  H12 UNL     1     -10.996 -57.069  -3.728  1.00  0.00     0.155 HD
ATOM     24  H11 UNL     1      -9.286 -57.417  -3.888  1.00  0.00     0.155 HD
ENDBRANCH  19  20
BRANCH  19  25
HETATM   25  N2  UNL     1      -9.280 -56.526  -7.699  1.00  0.00    -0.061 N 
ATOM     26  H23 UNL     1     -10.247 -56.234  -7.846  1.00  0.00     0.275 HD
ATOM     27  H22 UNL     1      -8.849 -55.603  -7.651  1.00  0.00     0.275 HD
ATOM     28  H21 UNL     1      -8.925 -57.070  -8.485  1.00  0.00     0.275 HD
ENDBRANCH  19  25
ENDBRANCH   1  19
TORSDOF 9
ENDMDL
MODEL 4
REMARK VINA RESULT: -5.590276804      2.107      6.818
REMARK  9 active torsions:
REMARK  status: ('A' for Active; 'I' for Inactive)
REMARK    1  A    between atoms: C2_2  and  C3_6 
REMARK    2  A    between atoms: C3_6  and  N2_7 
REMARK    3  A    between atoms: C3_6  and  C4_11 
REMARK       I    between atoms: C4_11  and  N3_13 
REMARK    4  A    between atoms: N3_13  and  C5_15 
REMARK    5  A    between atoms: C5_15  and  C7_17 
REMARK    6  A    between atoms: C7_17  and  C8_18 
REMARK    7  A    between atoms: C8_18  and  C9_20 
REMARK    8  A    between atoms: C9_20  and  C10_21 
REMARK    9  A    between atoms: C10_21  and  C11_22 
ROOT
HETATM    1  C4  UNL     1     -10.009 -60.506 -10.343  1.00  0.00     0.254 C 
HETATM    2  O1  UNL     1      -9.508 -61.636 -10.565  1.00  0.00    -0.271 OA
HETATM    3  N3  UNL     1      -9.546 -59.736  -9.250  1.00  0.00    -0.354 N 
ATOM      4  H3  UNL     1      -9.946 -58.816  -9.060  1.00  0.00     0.162 HD
ENDROOT
BRANCH   3   5
HETATM    5  C5  UNL     1      -8.505 -60.268  -8.409  1.00  0.00     0.087 C 
HETATM    6  C6  UNL     1      -8.918 -60.209  -6.955  1.00  0.00     0.032 C 
BRANCH   5   7
HETATM    7  C7  UNL     1      -7.223 -59.474  -8.543  1.00  0.00     0.103 C 
BRANCH   7   8
HETATM    8  C8  UNL     1      -7.552 -58.064  -8.826  1.00  0.00     0.129 C 
HETATM    9  O2  UNL     1      -7.735 -57.728  -9.981  1.00  0.00    -0.298 OA
BRANCH   8  10
HETATM   10  C9  UNL     1      -7.668 -57.042  -7.730  1.00  0.00     0.084 C 
BRANCH  10  11
HETATM   11  C10 UNL     1      -8.946 -56.262  -7.928  1.00  0.00     0.066 C 
BRANCH  11  12
HETATM   12  C11 UNL     1      -9.940 -56.585  -6.869  1.00  0.00     0.025 A 
HETATM   13  C12 UNL     1      -9.698 -57.113  -5.623  1.00  0.00     0.114 A 
HETATM   14  N4  UNL     1     -10.851 -57.264  -4.948  1.00  0.00    -0.360 N 
HETATM   15  C13 UNL     1     -11.826 -56.825  -5.779  1.00  0.00     0.180 A 
ATOM     16  H4  UNL     1     -10.968 -57.633  -4.004  1.00  0.00     0.166 HD
HETATM   17  N5  UNL     1     -11.285 -56.413  -6.939  1.00  0.00    -0.355 N 
ATOM     18  H5  UNL     1     -11.798 -56.036  -7.736  1.00  0.00     0.166 HD
ENDBRANCH  11  12
ENDBRANCH  10  11
ENDBRANCH   8  10
ENDBRANCH   7   8
ENDBRANCH   5   7
ENDBRANCH   3   5
BRANCH   1  19
HETATM   19  C3  UNL     1     -11.084 -59.940 -11.198  1.00  0.00     0.319 C 
BRANCH  19  20
HETATM   20  C2  UNL     1     -12.209 -60.904 -11.244  1.00  0.00     0.015 C 
HETATM   21  C1  UNL     1     -13.425 -60.616 -10.435  1.00  0.00     0.065 C 
HETATM   22  N1  UNL     1     -12.108 -61.947 -11.970  1.00  0.00    -0.404 N 
ATOM     23  H12 UNL     1     -12.882 -62.611 -12.003  1.00  0.00     0.155 HD
ATOM     24  H11 UNL     1     -11.275 -62.145 -12.525  1.00  0.00     0.155 HD
ENDBRANCH  19  20
BRANCH  19  25
HETATM   25  N2  UNL     1     -10.598 -59.664 -12.539  1.00  0.00    -0.061 N 
ATOM     26  H23 UNL     1     -11.351 -59.381 -13.165  1.00  0.00     0.275 HD
ATOM     27  H22 UNL     1     -10.043 -58.809 -12.573  1.00  0.00     0.275 HD
ATOM     28  H21 UNL     1     -10.082 -60.465 -12.903  1.00  0.00     0.275 HD
ENDBRANCH  19  25
ENDBRANCH   1  19
TORSDOF 9
ENDMDL
MODEL 5
REMARK VINA RESULT: -5.569478526      1.655      2.248
REMARK  9 active torsions:
REMARK  status: ('A' for Active; 'I' for Inactive)
REMARK    1  A    between atoms: C2_2  and  C3_6 
REMARK    2  A    between atoms: C3_6  and  N2_7 
REMARK    3  A    between atoms: C3_6  and  C4_11 
REMARK       I    between atoms: C4_11  and  N3_13 
REMARK    4  A    between atoms: N3_13  and  C5_15 
REMARK    5  A    between atoms: C5_15  and  C7_17 
REMARK    6  A    between atoms: C7_17  and  C8_18 
REMARK    7  A    between atoms: C8_18  and  C9_20 
REMARK    8  A    between atoms: C9_20  and  C10_21 
REMARK    9  A    between atoms: C10_21  and  C11_22 
ROOT
HETATM    1  C4  UNL     1      -8.864 -58.700  -6.609  1.00  0.00     0.254 C 
HETATM    2  O1  UNL     1      -9.348 -59.555  -5.828  1.00  0.00    -0.271 OA
HETATM    3  N3  UNL     1      -8.064 -59.117  -7.699  1.00  0.00    -0.354 N 
ATOM      4  H3  UNL     1      -7.666 -58.431  -8.340  1.00  0.00     0.162 HD
ENDROOT
BRANCH   3   5
HETATM    5  C5  UNL     1      -7.820 -60.524  -7.890  1.00  0.00     0.087 C 
HETATM    6  C6  UNL     1      -6.344 -60.827  -7.757  1.00  0.00     0.032 C 
BRANCH   5   7
HETATM    7  C7  UNL     1      -8.249 -60.979  -9.269  1.00  0.00     0.103 C 
BRANCH   7   8
HETATM    8  C8  UNL     1      -8.384 -59.803 -10.149  1.00  0.00     0.129 C 
HETATM    9  O2  UNL     1      -7.387 -59.162 -10.424  1.00  0.00    -0.298 OA
BRANCH   8  10
HETATM   10  C9  UNL     1      -9.714 -59.383 -10.711  1.00  0.00     0.084 C 
BRANCH  10  11
HETATM   11  C10 UNL     1     -10.800 -60.188 -10.037  1.00  0.00     0.066 C 
BRANCH  11  12
HETATM   12  C11 UNL     1     -11.998 -60.307 -10.910  1.00  0.00     0.025 A 
HETATM   13  C12 UNL     1     -13.285 -60.612 -10.533  1.00  0.00     0.114 A 
HETATM   14  N4  UNL     1     -14.094 -60.627 -11.607  1.00  0.00    -0.360 N 
HETATM   15  C13 UNL     1     -13.308 -60.329 -12.667  1.00  0.00     0.180 A 
ATOM     16  H4  UNL     1     -15.095 -60.823 -11.620  1.00  0.00     0.166 HD
HETATM   17  N5  UNL     1     -12.042 -60.134 -12.256  1.00  0.00    -0.355 N 
ATOM     18  H5  UNL     1     -11.251 -59.897 -12.854  1.00  0.00     0.166 HD
ENDBRANCH  11  12
ENDBRANCH  10  11
ENDBRANCH   8  10
ENDBRANCH   7   8
ENDBRANCH   5   7
ENDBRANCH   3   5
BRANCH   1  19
HETATM   19  C3  UNL     1      -9.104 -57.244  -6.428  1.00  0.00     0.319 C 
BRANCH  19  20
HETATM   20  C2  UNL     1     -10.322 -57.065  -5.602  1.00  0.00     0.015 C 
HETATM   21  C1  UNL     1     -11.601 -56.728  -6.287  1.00  0.00     0.065 C 
HETATM   22  N1  UNL     1     -10.245 -57.203  -4.337  1.00  0.00    -0.404 N 
ATOM     23  H12 UNL     1     -11.082 -57.079  -3.769  1.00  0.00     0.155 HD
ATOM     24  H11 UNL     1      -9.368 -57.433  -3.869  1.00  0.00     0.155 HD
ENDBRANCH  19  20
BRANCH  19  25
HETATM   25  N2  UNL     1      -9.255 -56.574  -7.708  1.00  0.00    -0.061 N 
ATOM     26  H23 UNL     1     -10.218 -56.606  -8.042  1.00  0.00     0.275 HD
ATOM     27  H22 UNL     1      -9.158 -55.563  -7.621  1.00  0.00     0.275 HD
ATOM     28  H21 UNL     1      -8.603 -56.960  -8.391  1.00  0.00     0.275 HD
ENDBRANCH  19  25
ENDBRANCH   1  19
TORSDOF 9
ENDMDL
