MODEL 1
REMARK VINA RESULT: -8.848641129      0.000      0.000
REMARK  2 active torsions:
REMARK  status: ('A' for Active; 'I' for Inactive)
REMARK    1  A    between atoms: C6_10  and  S1_11 
REMARK    2  A    between atoms: S1_11  and  C7_12 
ROOT
HETATM    1  C1  UNL     1      -8.567 -25.957 -64.955  1.00  0.00     0.070 C 
HETATM    2  C2  UNL     1      -7.632 -26.017 -66.112  1.00  0.00     0.029 A 
HETATM    3  N1  UNL     1      -6.370 -25.604 -65.978  1.00  0.00    -0.348 N 
ATOM      4  H1  UNL     1      -6.067 -25.250 -65.071  1.00  0.00     0.166 HD
HETATM    5  C3  UNL     1      -5.479 -25.634 -66.985  1.00  0.00     0.126 A 
HETATM    6 CL1  UNL     1      -3.831 -25.069 -66.720  1.00  0.00    -0.063 Cl
HETATM    7  C4  UNL     1      -5.908 -26.109 -68.183  1.00  0.00     0.102 A 
HETATM    8  C5  UNL     1      -4.942 -26.140 -69.270  1.00  0.00     0.104 C 
HETATM    9  N2  UNL     1      -4.167 -26.148 -70.131  1.00  0.00    -0.191 NA
HETATM   10  C6  UNL     1      -7.200 -26.558 -68.409  1.00  0.00     0.053 A 
HETATM   11  C12 UNL     1      -8.065 -26.508 -67.358  1.00  0.00     0.074 A 
HETATM   12 CL2  UNL     1      -9.720 -27.017 -67.457  1.00  0.00    -0.081 Cl
ENDROOT
BRANCH  10  13
HETATM   13  S1  UNL     1      -7.621 -27.136 -69.986  1.00  0.00    -0.080 SA
BRANCH  13  14
HETATM   14  C7  UNL     1      -7.809 -28.855 -70.226  1.00  0.00     0.096 A 
HETATM   15  C8  UNL     1      -8.874 -29.344 -70.945  1.00  0.00     0.032 A 
HETATM   16  C9  UNL     1      -9.865 -28.383 -71.513  1.00  0.00     0.070 C 
HETATM   17  N3  UNL     1      -9.021 -30.663 -71.125  1.00  0.00    -0.311 N 
HETATM   18  C10 UNL     1      -8.162 -31.572 -70.626  1.00  0.00     0.327 A 
ATOM     19  H3  UNL     1      -9.821 -30.994 -71.664  1.00  0.00     0.170 HD
HETATM   20  O1  UNL     1      -8.325 -32.815 -70.810  1.00  0.00    -0.247 OA
HETATM   21  N4  UNL     1      -7.118 -31.103 -69.919  1.00  0.00    -0.274 N 
HETATM   22  C11 UNL     1      -6.921 -29.789 -69.709  1.00  0.00     0.268 A 
ATOM     23  H4  UNL     1      -6.451 -31.769 -69.528  1.00  0.00     0.173 HD
HETATM   24  O2  UNL     1      -5.914 -29.431 -69.033  1.00  0.00    -0.267 OA
ENDBRANCH  13  14
ENDBRANCH  10  13
TORSDOF 2
ENDMDL
MODEL 2
REMARK VINA RESULT: -8.649731918      3.190      4.346
REMARK  2 active torsions:
REMARK  status: ('A' for Active; 'I' for Inactive)
REMARK    1  A    between atoms: C6_10  and  S1_11 
REMARK    2  A    between atoms: S1_11  and  C7_12 
ROOT
HETATM    1  C1  UNL     1      -4.102 -25.006 -67.520  1.00  0.00     0.070 C 
HETATM    2  C2  UNL     1      -4.439 -26.120 -68.447  1.00  0.00     0.029 A 
HETATM    3  N1  UNL     1      -3.560 -26.515 -69.371  1.00  0.00    -0.348 N 
ATOM      4  H1  UNL     1      -2.661 -26.038 -69.423  1.00  0.00     0.166 HD
HETATM    5  C3  UNL     1      -3.806 -27.515 -70.236  1.00  0.00     0.126 A 
HETATM    6 CL1  UNL     1      -2.588 -27.972 -71.425  1.00  0.00    -0.063 Cl
HETATM    7  C4  UNL     1      -5.012 -28.135 -70.146  1.00  0.00     0.102 A 
HETATM    8  C5  UNL     1      -5.275 -29.215 -71.083  1.00  0.00     0.104 C 
HETATM    9  N2  UNL     1      -5.477 -30.066 -71.844  1.00  0.00    -0.191 NA
HETATM   10  C6  UNL     1      -5.982 -27.789 -69.218  1.00  0.00     0.053 A 
HETATM   11  C12 UNL     1      -5.685 -26.770 -68.363  1.00  0.00     0.074 A 
HETATM   12 CL2  UNL     1      -6.778 -26.196 -67.145  1.00  0.00    -0.081 Cl
ENDROOT
BRANCH  10  13
HETATM   13  S1  UNL     1      -7.481 -28.655 -69.211  1.00  0.00    -0.080 SA
BRANCH  13  14
HETATM   14  C7  UNL     1      -8.952 -27.787 -69.575  1.00  0.00     0.096 A 
HETATM   15  C8  UNL     1      -9.876 -27.540 -68.587  1.00  0.00     0.032 A 
HETATM   16  C9  UNL     1      -9.603 -28.030 -67.204  1.00  0.00     0.070 C 
HETATM   17  N3  UNL     1     -11.006 -26.880 -68.868  1.00  0.00    -0.311 N 
HETATM   18  C10 UNL     1     -11.305 -26.427 -70.100  1.00  0.00     0.327 A 
ATOM     19  H3  UNL     1     -11.671 -26.712 -68.112  1.00  0.00     0.170 HD
HETATM   20  O1  UNL     1     -12.383 -25.804 -70.338  1.00  0.00    -0.247 OA
HETATM   21  N4  UNL     1     -10.408 -26.664 -71.073  1.00  0.00    -0.274 N 
HETATM   22  C11 UNL     1      -9.256 -27.322 -70.847  1.00  0.00     0.268 A 
ATOM     23  H4  UNL     1     -10.608 -26.333 -72.017  1.00  0.00     0.173 HD
HETATM   24  O2  UNL     1      -8.466 -27.504 -71.819  1.00  0.00    -0.267 OA
ENDBRANCH  13  14
ENDBRANCH  10  13
TORSDOF 2
ENDMDL
MODEL 3
REMARK VINA RESULT: -8.638475341      1.693      3.041
REMARK  2 active torsions:
REMARK  status: ('A' for Active; 'I' for Inactive)
REMARK    1  A    between atoms: C6_10  and  S1_11 
REMARK    2  A    between atoms: S1_11  and  C7_12 
ROOT
HETATM    1  C1  UNL     1      -4.259 -25.426 -67.767  1.00  0.00     0.070 C 
HETATM    2  C2  UNL     1      -5.628 -26.000 -67.876  1.00  0.00     0.029 A 
HETATM    3  N1  UNL     1      -6.419 -26.059 -66.804  1.00  0.00    -0.348 N 
ATOM      4  H1  UNL     1      -6.064 -25.706 -65.916  1.00  0.00     0.166 HD
HETATM    5  C3  UNL     1      -7.666 -26.566 -66.840  1.00  0.00     0.126 A 
HETATM    6 CL1  UNL     1      -8.643 -26.606 -65.375  1.00  0.00    -0.063 Cl
HETATM    7  C4  UNL     1      -8.115 -27.031 -68.035  1.00  0.00     0.102 A 
HETATM    8  C5  UNL     1      -9.462 -27.577 -68.071  1.00  0.00     0.104 C 
HETATM    9  N2  UNL     1     -10.532 -28.021 -68.084  1.00  0.00    -0.191 NA
HETATM   10  C6  UNL     1      -7.360 -27.006 -69.198  1.00  0.00     0.053 A 
HETATM   11  C12 UNL     1      -6.104 -26.484 -69.109  1.00  0.00     0.074 A 
HETATM   12 CL2  UNL     1      -5.016 -26.381 -70.456  1.00  0.00    -0.081 Cl
ENDROOT
BRANCH  10  13
HETATM   13  S1  UNL     1      -8.048 -27.636 -70.656  1.00  0.00    -0.080 SA
BRANCH  13  14
HETATM   14  C7  UNL     1      -8.131 -29.368 -70.864  1.00  0.00     0.096 A 
HETATM   15  C8  UNL     1      -9.320 -29.971 -71.200  1.00  0.00     0.032 A 
HETATM   16  C9  UNL     1     -10.536 -29.124 -71.379  1.00  0.00     0.070 C 
HETATM   17  N3  UNL     1      -9.384 -31.299 -71.354  1.00  0.00    -0.311 N 
HETATM   18  C10 UNL     1      -8.321 -32.109 -71.194  1.00  0.00     0.327 A 
ATOM     19  H3  UNL     1     -10.281 -31.717 -71.605  1.00  0.00     0.170 HD
HETATM   20  O1  UNL     1      -8.409 -33.365 -71.346  1.00  0.00    -0.247 OA
HETATM   21  N4  UNL     1      -7.154 -31.528 -70.864  1.00  0.00    -0.274 N 
HETATM   22  C11 UNL     1      -7.032 -30.199 -70.698  1.00  0.00     0.268 A 
ATOM     23  H4  UNL     1      -6.330 -32.117 -70.735  1.00  0.00     0.173 HD
HETATM   24  O2  UNL     1      -5.897 -29.732 -70.387  1.00  0.00    -0.267 OA
ENDBRANCH  13  14
ENDBRANCH  10  13
TORSDOF 2
ENDMDL
MODEL 4
REMARK VINA RESULT: -8.630626952      1.251      1.880
REMARK  2 active torsions:
REMARK  status: ('A' for Active; 'I' for Inactive)
REMARK    1  A    between atoms: C6_10  and  S1_11 
REMARK    2  A    between atoms: S1_11  and  C7_12 
ROOT
HETATM    1  C1  UNL     1      -8.798 -26.574 -65.540  1.00  0.00     0.070 C 
HETATM    2  C2  UNL     1      -7.779 -26.531 -66.624  1.00  0.00     0.029 A 
HETATM    3  N1  UNL     1      -6.576 -26.003 -66.394  1.00  0.00    -0.348 N 
ATOM      4  H1  UNL     1      -6.375 -25.633 -65.465  1.00  0.00     0.166 HD
HETATM    5  C3  UNL     1      -5.614 -25.936 -67.332  1.00  0.00     0.126 A 
HETATM    6 CL1  UNL     1      -4.051 -25.221 -66.943  1.00  0.00    -0.063 Cl
HETATM    7  C4  UNL     1      -5.906 -26.435 -68.562  1.00  0.00     0.102 A 
HETATM    8  C5  UNL     1      -4.865 -26.361 -69.573  1.00  0.00     0.104 C 
HETATM    9  N2  UNL     1      -4.031 -26.284 -70.374  1.00  0.00    -0.191 NA
HETATM   10  C6  UNL     1      -7.129 -27.001 -68.886  1.00  0.00     0.053 A 
HETATM   11  C12 UNL     1      -8.071 -27.046 -67.901  1.00  0.00     0.074 A 
HETATM   12 CL2  UNL     1      -9.658 -27.708 -68.126  1.00  0.00    -0.081 Cl
ENDROOT
BRANCH  10  13
HETATM   13  S1  UNL     1      -7.377 -27.597 -70.492  1.00  0.00    -0.080 SA
BRANCH  13  14
HETATM   14  C7  UNL     1      -7.792 -29.279 -70.707  1.00  0.00     0.096 A 
HETATM   15  C8  UNL     1      -6.841 -30.257 -70.537  1.00  0.00     0.032 A 
HETATM   16  C9  UNL     1      -5.450 -29.856 -70.171  1.00  0.00     0.070 C 
HETATM   17  N3  UNL     1      -7.157 -31.546 -70.708  1.00  0.00    -0.311 N 
HETATM   18  C10 UNL     1      -8.393 -31.960 -71.049  1.00  0.00     0.327 A 
ATOM     19  H3  UNL     1      -6.429 -32.248 -70.574  1.00  0.00     0.170 HD
HETATM   20  O1  UNL     1      -8.667 -33.188 -71.204  1.00  0.00    -0.247 OA
HETATM   21  N4  UNL     1      -9.330 -31.010 -71.218  1.00  0.00    -0.274 N 
HETATM   22  C11 UNL     1      -9.067 -29.701 -71.058  1.00  0.00     0.268 A 
ATOM     23  H4  UNL     1     -10.276 -31.294 -71.477  1.00  0.00     0.173 HD
HETATM   24  O2  UNL     1     -10.006 -28.872 -71.237  1.00  0.00    -0.267 OA
ENDBRANCH  13  14
ENDBRANCH  10  13
TORSDOF 2
ENDMDL
MODEL 5
REMARK VINA RESULT: -8.585860298      3.193      4.222
REMARK  2 active torsions:
REMARK  status: ('A' for Active; 'I' for Inactive)
REMARK    1  A    between atoms: C6_10  and  S1_11 
REMARK    2  A    between atoms: S1_11  and  C7_12 
ROOT
HETATM    1  C1  UNL     1      -4.178 -25.048 -67.520  1.00  0.00     0.070 C 
HETATM    2  C2  UNL     1      -4.467 -26.159 -68.468  1.00  0.00     0.029 A 
HETATM    3  N1  UNL     1      -3.560 -26.521 -69.377  1.00  0.00    -0.348 N 
ATOM      4  H1  UNL     1      -2.672 -26.021 -69.404  1.00  0.00     0.166 HD
HETATM    5  C3  UNL     1      -3.763 -27.517 -70.259  1.00  0.00     0.126 A 
HETATM    6 CL1  UNL     1      -2.508 -27.929 -71.426  1.00  0.00    -0.063 Cl
HETATM    7  C4  UNL     1      -4.954 -28.167 -70.202  1.00  0.00     0.102 A 
HETATM    8  C5  UNL     1      -5.170 -29.242 -71.156  1.00  0.00     0.104 C 
HETATM    9  N2  UNL     1      -5.335 -30.088 -71.930  1.00  0.00    -0.191 NA
HETATM   10  C6  UNL     1      -5.951 -27.857 -69.290  1.00  0.00     0.053 A 
HETATM   11  C12 UNL     1      -5.698 -26.840 -68.418  1.00  0.00     0.074 A 
HETATM   12 CL2  UNL     1      -6.830 -26.308 -67.216  1.00  0.00    -0.081 Cl
ENDROOT
BRANCH  10  13
HETATM   13  S1  UNL     1      -7.428 -28.759 -69.325  1.00  0.00    -0.080 SA
BRANCH  13  14
HETATM   14  C7  UNL     1      -8.940 -27.890 -69.421  1.00  0.00     0.096 A 
HETATM   15  C8  UNL     1      -9.341 -27.324 -70.608  1.00  0.00     0.032 A 
HETATM   16  C9  UNL     1      -8.464 -27.461 -71.808  1.00  0.00     0.070 C 
HETATM   17  N3  UNL     1     -10.497 -26.653 -70.680  1.00  0.00    -0.311 N 
HETATM   18  C10 UNL     1     -11.319 -26.490 -69.627  1.00  0.00     0.327 A 
ATOM     19  H3  UNL     1     -10.768 -26.245 -71.576  1.00  0.00     0.170 HD
HETATM   20  O1  UNL     1     -12.409 -25.850 -69.722  1.00  0.00    -0.247 OA
HETATM   21  N4  UNL     1     -10.934 -27.040 -68.461  1.00  0.00    -0.274 N 
HETATM   22  C11 UNL     1      -9.784 -27.726 -68.332  1.00  0.00     0.268 A 
ATOM     23  H4  UNL     1     -11.537 -26.933 -67.644  1.00  0.00     0.173 HD
HETATM   24  O2  UNL     1      -9.495 -28.210 -67.199  1.00  0.00    -0.267 OA
ENDBRANCH  13  14
ENDBRANCH  10  13
TORSDOF 2
ENDMDL
