MODEL 1
REMARK VINA RESULT: -7.887952821      0.000      0.000
REMARK  3 active torsions:
REMARK  status: ('A' for Active; 'I' for Inactive)
REMARK    1  A    between atoms: C2_2  and  C3_3 
REMARK    2  A    between atoms: C2_2  and  C6_7 
REMARK    3  A    between atoms: C14_21  and  N3_22 
ROOT
HETATM    1  C3  UNL     1      -7.977 -30.610 -70.498  1.00  0.00    -0.049 C 
HETATM    2  C4  UNL     1      -8.102 -31.610 -71.136  1.00  0.00     0.018 C 
HETATM    3  C5  UNL     1      -8.277 -32.775 -71.854  1.00  0.00     0.152 C 
HETATM    4  N1  UNL     1      -8.450 -33.741 -72.436  1.00  0.00    -0.182 NA
ENDROOT
BRANCH   1   5
HETATM    5  C2  UNL     1      -7.828 -29.156 -69.528  1.00  0.00     0.044 C 
HETATM    6  C1  UNL     1      -6.770 -29.640 -69.057  1.00  0.00     0.036 C 
BRANCH   5   7
HETATM    7  C6  UNL     1      -8.931 -28.654 -70.019  1.00  0.00     0.113 C 
HETATM    8  C7  UNL     1      -9.071 -27.625 -70.762  1.00  0.00     0.071 C 
HETATM    9  C8  UNL     1      -7.719 -27.281 -70.628  1.00  0.00     0.052 C 
HETATM   10  C14 UNL     1     -10.303 -27.087 -71.424  1.00  0.00     0.189 C 
HETATM   11 CL1  UNL     1      -6.325 -27.464 -71.267  1.00  0.00    -0.083 Cl
HETATM   12  C9  UNL     1      -7.660 -26.423 -69.417  1.00  0.00     0.044 C 
HETATM   13  C10 UNL     1      -8.428 -25.884 -68.414  1.00  0.00     0.019 C 
HETATM   14 CL2  UNL     1      -7.971 -24.866 -67.194  1.00  0.00    -0.089 Cl
HETATM   15  C11 UNL     1     -10.152 -26.028 -68.089  1.00  0.00     0.114 C 
HETATM   16  C12 UNL     1     -10.533 -26.816 -69.140  1.00  0.00     0.092 C 
HETATM   17  C13 UNL     1     -10.331 -27.940 -68.517  1.00  0.00     0.311 C 
HETATM   18  N2  UNL     1     -11.153 -26.609 -70.468  1.00  0.00    -0.335 N 
HETATM   19  O1  UNL     1     -10.023 -28.195 -67.323  1.00  0.00    -0.258 OA
HETATM   20  O2  UNL     1     -10.372 -29.197 -69.572  1.00  0.00    -0.272 OA
ATOM     21  H2  UNL     1     -12.063 -26.182 -70.640  1.00  0.00     0.167 HD
BRANCH  10  22
HETATM   22  N3  UNL     1     -10.595 -27.067 -72.739  1.00  0.00    -0.097 N 
HETATM   23  O3  UNL     1     -11.750 -26.712 -73.123  1.00  0.00    -0.530 OA
HETATM   24  O4  UNL     1      -9.710 -27.421 -73.729  1.00  0.00    -0.530 OA
ENDBRANCH  10  22
ENDBRANCH   5   7
ENDBRANCH   1   5
TORSDOF 3
ENDMDL
MODEL 2
REMARK VINA RESULT: -7.813818854      1.497      1.907
REMARK  3 active torsions:
REMARK  status: ('A' for Active; 'I' for Inactive)
REMARK    1  A    between atoms: C2_2  and  C3_3 
REMARK    2  A    between atoms: C2_2  and  C6_7 
REMARK    3  A    between atoms: C14_21  and  N3_22 
ROOT
HETATM    1  C3  UNL     1      -7.290 -31.062 -70.454  1.00  0.00    -0.049 C 
HETATM    2  C4  UNL     1      -7.713 -31.963 -71.110  1.00  0.00     0.018 C 
HETATM    3  C5  UNL     1      -8.190 -32.991 -71.898  1.00  0.00     0.152 C 
HETATM    4  N1  UNL     1      -8.567 -33.829 -72.573  1.00  0.00    -0.182 NA
ENDROOT
BRANCH   1   5
HETATM    5  C2  UNL     1      -6.657 -29.710 -69.532  1.00  0.00     0.044 C 
HETATM    6  C1  UNL     1      -5.655 -30.420 -69.276  1.00  0.00     0.036 C 
BRANCH   5   7
HETATM    7  C6  UNL     1      -7.703 -28.972 -69.799  1.00  0.00     0.113 C 
HETATM    8  C7  UNL     1      -7.861 -28.139 -70.754  1.00  0.00     0.071 C 
HETATM    9  C8  UNL     1      -6.525 -28.265 -71.155  1.00  0.00     0.052 C 
HETATM   10  C14 UNL     1      -9.080 -27.360 -71.147  1.00  0.00     0.189 C 
HETATM   11 CL1  UNL     1      -5.582 -29.051 -72.092  1.00  0.00    -0.083 Cl
HETATM   12  C9  UNL     1      -5.789 -27.247 -70.363  1.00  0.00     0.044 C 
HETATM   13  C10 UNL     1      -5.947 -26.277 -69.404  1.00  0.00     0.019 C 
HETATM   14 CL2  UNL     1      -4.816 -25.248 -68.775  1.00  0.00    -0.089 Cl
HETATM   15  C11 UNL     1      -7.386 -25.742 -68.543  1.00  0.00     0.114 C 
HETATM   16  C12 UNL     1      -8.328 -26.551 -69.116  1.00  0.00     0.092 C 
HETATM   17  C13 UNL     1      -8.184 -27.517 -68.257  1.00  0.00     0.311 C 
HETATM   18  N2  UNL     1      -9.344 -26.427 -70.185  1.00  0.00    -0.335 N 
HETATM   19  O1  UNL     1      -7.510 -27.606 -67.198  1.00  0.00    -0.258 OA
HETATM   20  O2  UNL     1      -8.942 -28.874 -68.786  1.00  0.00    -0.272 OA
ATOM     21  H2  UNL     1     -10.113 -25.757 -70.201  1.00  0.00     0.167 HD
BRANCH  10  22
HETATM   22  N3  UNL     1      -9.845 -27.517 -72.244  1.00  0.00    -0.097 N 
HETATM   23  O3  UNL     1      -9.597 -28.458 -73.057  1.00  0.00    -0.530 OA
HETATM   24  O4  UNL     1     -10.907 -26.705 -72.564  1.00  0.00    -0.530 OA
ENDBRANCH  10  22
ENDBRANCH   5   7
ENDBRANCH   1   5
TORSDOF 3
ENDMDL
MODEL 3
REMARK VINA RESULT: -7.796986956      2.289      2.832
REMARK  3 active torsions:
REMARK  status: ('A' for Active; 'I' for Inactive)
REMARK    1  A    between atoms: C2_2  and  C3_3 
REMARK    2  A    between atoms: C2_2  and  C6_7 
REMARK    3  A    between atoms: C14_21  and  N3_22 
ROOT
HETATM    1  C3  UNL     1      -5.806 -28.373 -69.760  1.00  0.00    -0.049 C 
HETATM    2  C4  UNL     1      -5.678 -29.172 -70.636  1.00  0.00     0.018 C 
HETATM    3  C5  UNL     1      -5.560 -30.084 -71.665  1.00  0.00     0.152 C 
HETATM    4  N1  UNL     1      -5.482 -30.821 -72.532  1.00  0.00    -0.182 NA
ENDROOT
BRANCH   1   5
HETATM    5  C2  UNL     1      -6.040 -27.185 -68.490  1.00  0.00     0.044 C 
HETATM    6  C1  UNL     1      -4.795 -27.030 -68.476  1.00  0.00     0.036 C 
BRANCH   5   7
HETATM    7  C6  UNL     1      -7.337 -27.348 -68.507  1.00  0.00     0.113 C 
HETATM    8  C7  UNL     1      -8.226 -26.584 -69.014  1.00  0.00     0.071 C 
HETATM    9  C8  UNL     1      -7.281 -25.591 -69.303  1.00  0.00     0.052 C 
HETATM   10  C14 UNL     1      -9.704 -26.794 -69.141  1.00  0.00     0.189 C 
HETATM   11 CL1  UNL     1      -6.318 -25.078 -70.396  1.00  0.00    -0.083 Cl
HETATM   12  C9  UNL     1      -7.225 -24.748 -68.082  1.00  0.00     0.044 C 
HETATM   13  C10 UNL     1      -7.739 -24.613 -66.815  1.00  0.00     0.019 C 
HETATM   14 CL2  UNL     1      -7.446 -23.429 -65.699  1.00  0.00    -0.089 Cl
HETATM   15  C11 UNL     1      -8.914 -25.595 -65.946  1.00  0.00     0.114 C 
HETATM   16  C12 UNL     1      -9.201 -26.532 -66.900  1.00  0.00     0.092 C 
HETATM   17  C13 UNL     1      -8.260 -27.354 -66.538  1.00  0.00     0.311 C 
HETATM   18  N2  UNL     1     -10.270 -26.757 -67.898  1.00  0.00    -0.335 N 
HETATM   19  O1  UNL     1      -7.460 -27.340 -65.564  1.00  0.00    -0.258 OA
HETATM   20  O2  UNL     1      -8.046 -28.521 -67.672  1.00  0.00    -0.272 OA
ATOM     21  H2  UNL     1     -11.263 -26.865 -67.692  1.00  0.00     0.167 HD
BRANCH  10  22
HETATM   22  N3  UNL     1     -10.417 -27.009 -70.263  1.00  0.00    -0.097 N 
HETATM   23  O3  UNL     1     -11.629 -26.640 -70.321  1.00  0.00    -0.530 OA
HETATM   24  O4  UNL     1      -9.918 -27.626 -71.385  1.00  0.00    -0.530 OA
ENDBRANCH  10  22
ENDBRANCH   5   7
ENDBRANCH   1   5
TORSDOF 3
ENDMDL
MODEL 4
REMARK VINA RESULT: -7.671301284      3.725      5.552
REMARK  3 active torsions:
REMARK  status: ('A' for Active; 'I' for Inactive)
REMARK    1  A    between atoms: C2_2  and  C3_3 
REMARK    2  A    between atoms: C2_2  and  C6_7 
REMARK    3  A    between atoms: C14_21  and  N3_22 
ROOT
HETATM    1  C3  UNL     1      -5.735 -25.564 -67.529  1.00  0.00    -0.049 C 
HETATM    2  C4  UNL     1      -4.640 -25.447 -67.074  1.00  0.00     0.018 C 
HETATM    3  C5  UNL     1      -3.358 -25.310 -66.581  1.00  0.00     0.152 C 
HETATM    4  N1  UNL     1      -2.290 -25.188 -66.201  1.00  0.00    -0.182 NA
ENDROOT
BRANCH   1   5
HETATM    5  C2  UNL     1      -7.328 -25.741 -68.245  1.00  0.00     0.044 C 
HETATM    6  C1  UNL     1      -7.444 -24.494 -68.170  1.00  0.00     0.036 C 
BRANCH   5   7
HETATM    7  C6  UNL     1      -7.205 -27.041 -68.322  1.00  0.00     0.113 C 
HETATM    8  C7  UNL     1      -6.867 -27.747 -69.332  1.00  0.00     0.071 C 
HETATM    9  C8  UNL     1      -6.893 -26.634 -70.182  1.00  0.00     0.052 C 
HETATM   10  C14 UNL     1      -6.617 -29.221 -69.423  1.00  0.00     0.189 C 
HETATM   11 CL1  UNL     1      -6.019 -25.504 -70.770  1.00  0.00    -0.083 Cl
HETATM   12  C9  UNL     1      -8.291 -26.561 -70.676  1.00  0.00     0.044 C 
HETATM   13  C10 UNL     1      -9.522 -27.163 -70.584  1.00  0.00     0.019 C 
HETATM   14 CL2  UNL     1     -10.919 -26.793 -71.386  1.00  0.00    -0.089 Cl
HETATM   15  C11 UNL     1     -10.048 -28.554 -69.641  1.00  0.00     0.114 C 
HETATM   16  C12 UNL     1      -8.872 -28.894 -69.033  1.00  0.00     0.092 C 
HETATM   17  C13 UNL     1      -9.056 -28.132 -67.995  1.00  0.00     0.311 C 
HETATM   18  N2  UNL     1      -7.797 -29.888 -69.253  1.00  0.00    -0.335 N 
HETATM   19  O1  UNL     1     -10.039 -27.435 -67.629  1.00  0.00    -0.258 OA
HETATM   20  O2  UNL     1      -7.671 -28.000 -67.124  1.00  0.00    -0.272 OA
ATOM     21  H2  UNL     1      -7.917 -30.900 -69.274  1.00  0.00     0.167 HD
BRANCH  10  22
HETATM   22  N3  UNL     1      -5.443 -29.851 -69.618  1.00  0.00    -0.097 N 
HETATM   23  O3  UNL     1      -4.406 -29.460 -69.000  1.00  0.00    -0.530 OA
HETATM   24  O4  UNL     1      -5.273 -30.916 -70.470  1.00  0.00    -0.530 OA
ENDBRANCH  10  22
ENDBRANCH   5   7
ENDBRANCH   1   5
TORSDOF 3
ENDMDL
MODEL 5
REMARK VINA RESULT: -7.459278103      3.424      5.415
REMARK  3 active torsions:
REMARK  status: ('A' for Active; 'I' for Inactive)
REMARK    1  A    between atoms: C2_2  and  C3_3 
REMARK    2  A    between atoms: C2_2  and  C6_7 
REMARK    3  A    between atoms: C14_21  and  N3_22 
ROOT
HETATM    1  C3  UNL     1     -10.466 -27.727 -69.791  1.00  0.00    -0.049 C 
HETATM    2  C4  UNL     1     -11.229 -26.861 -69.495  1.00  0.00     0.018 C 
HETATM    3  C5  UNL     1     -12.116 -25.849 -69.187  1.00  0.00     0.152 C 
HETATM    4  N1  UNL     1     -12.857 -25.012 -68.962  1.00  0.00    -0.182 NA
ENDROOT
BRANCH   1   5
HETATM    5  C2  UNL     1      -9.342 -28.985 -70.274  1.00  0.00     0.044 C 
HETATM    6  C1  UNL     1     -10.299 -29.543 -70.863  1.00  0.00     0.036 C 
BRANCH   5   7
HETATM    7  C6  UNL     1      -8.346 -28.402 -69.659  1.00  0.00     0.113 C 
HETATM    8  C7  UNL     1      -7.496 -27.575 -70.134  1.00  0.00     0.071 C 
HETATM    9  C8  UNL     1      -7.979 -27.749 -71.437  1.00  0.00     0.052 C 
HETATM   10  C14 UNL     1      -6.413 -26.814 -69.433  1.00  0.00     0.189 C 
HETATM   11 CL1  UNL     1      -8.987 -27.196 -72.469  1.00  0.00    -0.083 Cl
HETATM   12  C9  UNL     1      -7.204 -28.891 -71.985  1.00  0.00     0.044 C 
HETATM   13  C10 UNL     1      -6.232 -29.810 -71.672  1.00  0.00     0.019 C 
HETATM   14 CL2  UNL     1      -5.553 -30.968 -72.637  1.00  0.00    -0.089 Cl
HETATM   15  C11 UNL     1      -5.330 -30.059 -70.181  1.00  0.00     0.114 C 
HETATM   16  C12 UNL     1      -5.850 -29.055 -69.412  1.00  0.00     0.092 C 
HETATM   17  C13 UNL     1      -6.823 -29.773 -68.932  1.00  0.00     0.311 C 
HETATM   18  N2  UNL     1      -5.448 -27.687 -69.017  1.00  0.00    -0.335 N 
HETATM   19  O1  UNL     1      -7.098 -30.997 -69.042  1.00  0.00    -0.258 OA
HETATM   20  O2  UNL     1      -7.920 -28.819 -68.170  1.00  0.00    -0.272 OA
ATOM     21  H2  UNL     1      -4.594 -27.437 -68.518  1.00  0.00     0.167 HD
BRANCH  10  22
HETATM   22  N3  UNL     1      -6.350 -25.489 -69.200  1.00  0.00    -0.097 N 
HETATM   23  O3  UNL     1      -5.401 -24.806 -69.692  1.00  0.00    -0.530 OA
HETATM   24  O4  UNL     1      -7.262 -24.797 -68.438  1.00  0.00    -0.530 OA
ENDBRANCH  10  22
ENDBRANCH   5   7
ENDBRANCH   1   5
TORSDOF 3
ENDMDL
