MODEL 1
REMARK VINA RESULT: -8.404388431      0.000      0.000
REMARK  15 active torsions:
REMARK  status: ('A' for Active; 'I' for Inactive)
REMARK    1  A    between atoms: O1_2  and  C2_3 
REMARK    2  A    between atoms: C3_4  and  O2_5 
REMARK    3  A    between atoms: C4_7  and  C5_8 
REMARK    4  A    between atoms: C5_8  and  O3_9 
REMARK    5  A    between atoms: C6_12  and  C7_13 
REMARK    6  A    between atoms: C8_14  and  C9_15 
REMARK    7  A    between atoms: C9_15  and  C11_17 
REMARK    8  A    between atoms: C11_17  and  O5_18 
REMARK    9  A    between atoms: C11_17  and  C12_20 
REMARK   10  A    between atoms: C12_20  and  C13_21 
REMARK   11  A    between atoms: C19_27  and  O6_28 
REMARK   12  A    between atoms: O6_28  and  C20_29 
REMARK   13  A    between atoms: C21_31  and  C22_32 
REMARK   14  A    between atoms: C22_32  and  O8_33 
REMARK   15  A    between atoms: C28_41  and  O10_42 
ROOT
HETATM    1  C2  UNL     1      -4.000  -2.835   5.846  1.00  0.00     0.184 C 
HETATM    2  C3  UNL     1      -3.005  -3.471   6.828  1.00  0.00     0.180 C 
HETATM    3  C4  UNL     1      -3.711  -3.694   8.124  1.00  0.00     0.177 C 
HETATM    4  O4  UNL     1      -4.982  -3.201   8.088  1.00  0.00    -0.369 OA
HETATM    5  C6  UNL     1      -5.101  -1.845   7.802  1.00  0.00     0.176 C 
HETATM    6  C19 UNL     1      -4.434  -1.548   6.510  1.00  0.00     0.189 C 
ENDROOT
BRANCH   6   7
HETATM    7  O6  UNL     1      -5.122  -0.789   5.616  1.00  0.00    -0.347 OA
BRANCH   7   8
HETATM    8  C20 UNL     1      -4.414  -0.157   4.643  1.00  0.00     0.300 C 
HETATM    9  O7  UNL     1      -4.192   1.153   5.025  1.00  0.00    -0.326 OA
HETATM   10  C21 UNL     1      -5.151   2.049   4.696  1.00  0.00     0.287 C 
HETATM   11  O9  UNL     1      -5.751   1.864   3.461  1.00  0.00    -0.350 OA
HETATM   12  C23 UNL     1      -4.954   1.093   2.617  1.00  0.00     0.167 C 
HETATM   13  C24 UNL     1      -5.693   0.794   1.343  1.00  0.00     0.014 C 
HETATM   14  C28 UNL     1      -4.942  -0.304   3.259  1.00  0.00     0.134 C 
HETATM   15  C25 UNL     1      -6.210   2.049   0.674  1.00  0.00     0.012 C 
HETATM   16  C26 UNL     1      -6.789  -0.118   1.787  1.00  0.00     0.010 C 
HETATM   17  C27 UNL     1      -6.366  -0.696   3.140  1.00  0.00     0.046 C 
BRANCH  10  18
HETATM   18  C22 UNL     1      -6.251   2.195   5.736  1.00  0.00     0.224 C 
BRANCH  18  19
HETATM   19  O8  UNL     1      -6.188   3.516   6.213  1.00  0.00    -0.396 OA
ATOM     20  H8  UNL     1      -6.850   3.597   6.889  1.00  0.00     0.209 HD
ENDBRANCH  18  19
ENDBRANCH  10  18
BRANCH  14  21
HETATM   21  O10 UNL     1      -4.171  -1.099   2.431  1.00  0.00    -0.382 OA
ATOM     22  H10 UNL     1      -4.010  -0.733   1.569  1.00  0.00     0.210 HD
ENDBRANCH  14  21
ENDBRANCH   7   8
ENDBRANCH   6   7
BRANCH   1  23
HETATM   23  O1  UNL     1      -5.062  -3.698   5.769  1.00  0.00    -0.385 OA
HETATM   24  C1  UNL     1      -5.601  -3.851   4.515  1.00  0.00     0.202 C 
ENDBRANCH   1  23
BRANCH   5  25
HETATM   25  C7  UNL     1      -4.460  -1.117   8.930  1.00  0.00     0.004 C 
HETATM   26  C8  UNL     1      -3.806   0.029   8.782  1.00  0.00    -0.021 C 
BRANCH  26  27
HETATM   27  C9  UNL     1      -3.172   0.748   9.894  1.00  0.00     0.033 C 
HETATM   28  C10 UNL     1      -1.748   1.088   9.482  1.00  0.00     0.017 C 
BRANCH  27  29
HETATM   29  C11 UNL     1      -3.091  -0.093  11.147  1.00  0.00     0.129 C 
BRANCH  29  30
HETATM   30  O5  UNL     1      -1.758  -0.397  11.460  1.00  0.00    -0.395 OA
ATOM     31  H5  UNL     1      -1.361   0.303  11.964  1.00  0.00     0.210 HD
ENDBRANCH  29  30
BRANCH  29  32
HETATM   32  C12 UNL     1      -3.672   0.708  12.304  1.00  0.00     0.070 C 
BRANCH  32  33
HETATM   33  C13 UNL     1      -5.012   0.150  12.600  1.00  0.00    -0.056 A 
HETATM   34  C14 UNL     1      -6.017   0.228  11.669  1.00  0.00     0.007 A 
HETATM   35  C15 UNL     1      -7.253  -0.297  11.965  1.00  0.00     0.001 A 
HETATM   36  C16 UNL     1      -7.511  -0.895  13.163  1.00  0.00     0.000 A 
HETATM   37  C17 UNL     1      -6.493  -0.968  14.093  1.00  0.00     0.001 A 
HETATM   38  C18 UNL     1      -5.245  -0.448  13.815  1.00  0.00     0.007 A 
ENDBRANCH  32  33
ENDBRANCH  29  32
ENDBRANCH  27  29
ENDBRANCH  26  27
ENDBRANCH   5  25
BRANCH   2  39
HETATM   39  O2  UNL     1      -2.421  -4.596   6.300  1.00  0.00    -0.390 OA
ATOM     40  H2  UNL     1      -1.676  -4.879   6.816  1.00  0.00     0.210 HD
ENDBRANCH   2  39
BRANCH   3  41
HETATM   41  C5  UNL     1      -3.856  -5.217   8.295  1.00  0.00     0.198 C 
BRANCH  41  42
HETATM   42  O3  UNL     1      -4.998  -5.656   7.632  1.00  0.00    -0.398 OA
ATOM     43  H3  UNL     1      -5.109  -5.164   6.826  1.00  0.00     0.209 HD
ENDBRANCH  41  42
ENDBRANCH   3  41
TORSDOF 15
ENDMDL
MODEL 2
REMARK VINA RESULT: -8.079130788      1.566      5.523
REMARK  15 active torsions:
REMARK  status: ('A' for Active; 'I' for Inactive)
REMARK    1  A    between atoms: O1_2  and  C2_3 
REMARK    2  A    between atoms: C3_4  and  O2_5 
REMARK    3  A    between atoms: C4_7  and  C5_8 
REMARK    4  A    between atoms: C5_8  and  O3_9 
REMARK    5  A    between atoms: C6_12  and  C7_13 
REMARK    6  A    between atoms: C8_14  and  C9_15 
REMARK    7  A    between atoms: C9_15  and  C11_17 
REMARK    8  A    between atoms: C11_17  and  O5_18 
REMARK    9  A    between atoms: C11_17  and  C12_20 
REMARK   10  A    between atoms: C12_20  and  C13_21 
REMARK   11  A    between atoms: C19_27  and  O6_28 
REMARK   12  A    between atoms: O6_28  and  C20_29 
REMARK   13  A    between atoms: C21_31  and  C22_32 
REMARK   14  A    between atoms: C22_32  and  O8_33 
REMARK   15  A    between atoms: C28_41  and  O10_42 
ROOT
HETATM    1  C2  UNL     1      -5.570   1.737   5.232  1.00  0.00     0.184 C 
HETATM    2  C3  UNL     1      -5.189   3.145   5.715  1.00  0.00     0.180 C 
HETATM    3  C4  UNL     1      -3.759   3.385   5.359  1.00  0.00     0.177 C 
HETATM    4  O4  UNL     1      -3.195   2.278   4.798  1.00  0.00    -0.369 OA
HETATM    5  C6  UNL     1      -3.219   1.123   5.571  1.00  0.00     0.176 C 
HETATM    6  C19 UNL     1      -4.619   0.808   5.951  1.00  0.00     0.189 C 
ENDROOT
BRANCH   6   7
HETATM    7  O6  UNL     1      -5.033  -0.477   5.785  1.00  0.00    -0.347 OA
BRANCH   7   8
HETATM    8  C20 UNL     1      -4.095  -1.413   5.488  1.00  0.00     0.300 C 
HETATM    9  O7  UNL     1      -4.458  -2.064   4.324  1.00  0.00    -0.326 OA
HETATM   10  C21 UNL     1      -5.266  -3.141   4.461  1.00  0.00     0.287 C 
HETATM   11  O9  UNL     1      -5.019  -3.945   5.561  1.00  0.00    -0.350 OA
HETATM   12  C23 UNL     1      -3.726  -3.760   6.047  1.00  0.00     0.167 C 
HETATM   13  C24 UNL     1      -3.538  -4.540   7.319  1.00  0.00     0.014 C 
HETATM   14  C28 UNL     1      -3.716  -2.327   6.601  1.00  0.00     0.134 C 
HETATM   15  C25 UNL     1      -3.898  -6.000   7.154  1.00  0.00     0.012 C 
HETATM   16  C26 UNL     1      -4.425  -3.831   8.289  1.00  0.00     0.010 C 
HETATM   17  C27 UNL     1      -4.686  -2.436   7.716  1.00  0.00     0.046 C 
BRANCH  10  18
HETATM   18  C22 UNL     1      -6.750  -2.811   4.444  1.00  0.00     0.224 C 
BRANCH  18  19
HETATM   19  O8  UNL     1      -7.433  -4.018   4.208  1.00  0.00    -0.396 OA
ATOM     20  H8  UNL     1      -7.697  -4.355   5.056  1.00  0.00     0.209 HD
ENDBRANCH  18  19
ENDBRANCH  10  18
BRANCH  14  21
HETATM   21  O10 UNL     1      -2.447  -2.121   7.110  1.00  0.00    -0.382 OA
ATOM     22  H10 UNL     1      -2.416  -1.978   8.049  1.00  0.00     0.210 HD
ENDBRANCH  14  21
ENDBRANCH   7   8
ENDBRANCH   6   7
BRANCH   1  23
HETATM   23  O1  UNL     1      -5.312   1.714   3.886  1.00  0.00    -0.385 OA
HETATM   24  C1  UNL     1      -6.339   1.250   3.101  1.00  0.00     0.202 C 
ENDBRANCH   1  23
BRANCH   5  25
HETATM   25  C7  UNL     1      -2.376   1.396   6.766  1.00  0.00     0.004 C 
HETATM   26  C8  UNL     1      -2.702   1.009   7.994  1.00  0.00    -0.021 C 
BRANCH  26  27
HETATM   27  C9  UNL     1      -1.870   1.278   9.173  1.00  0.00     0.033 C 
HETATM   28  C10 UNL     1      -0.580   0.486   9.030  1.00  0.00     0.017 C 
BRANCH  27  29
HETATM   29  C11 UNL     1      -2.534   0.832  10.455  1.00  0.00     0.129 C 
BRANCH  29  30
HETATM   30  O5  UNL     1      -3.362   1.842  10.967  1.00  0.00    -0.395 OA
ATOM     31  H5  UNL     1      -2.966   2.251  11.728  1.00  0.00     0.210 HD
ENDBRANCH  29  30
BRANCH  29  32
HETATM   32  C12 UNL     1      -3.406  -0.379  10.152  1.00  0.00     0.070 C 
BRANCH  32  33
HETATM   33  C13 UNL     1      -4.487  -0.411  11.163  1.00  0.00    -0.056 A 
HETATM   34  C14 UNL     1      -4.187  -0.545  12.495  1.00  0.00     0.007 A 
HETATM   35  C15 UNL     1      -5.206  -0.573  13.417  1.00  0.00     0.001 A 
HETATM   36  C16 UNL     1      -6.514  -0.470  13.044  1.00  0.00     0.000 A 
HETATM   37  C17 UNL     1      -6.806  -0.336  11.701  1.00  0.00     0.001 A 
HETATM   38  C18 UNL     1      -5.797  -0.306  10.761  1.00  0.00     0.007 A 
ENDBRANCH  32  33
ENDBRANCH  29  32
ENDBRANCH  27  29
ENDBRANCH  26  27
ENDBRANCH   5  25
BRANCH   2  39
HETATM   39  O2  UNL     1      -6.059   4.095   5.241  1.00  0.00    -0.390 OA
ATOM     40  H2  UNL     1      -5.846   4.960   5.571  1.00  0.00     0.210 HD
ENDBRANCH   2  39
BRANCH   3  41
HETATM   41  C5  UNL     1      -3.751   4.464   4.262  1.00  0.00     0.198 C 
BRANCH  41  42
HETATM   42  O3  UNL     1      -3.870   3.863   3.013  1.00  0.00    -0.398 OA
ATOM     43  H3  UNL     1      -4.143   4.509   2.372  1.00  0.00     0.209 HD
ENDBRANCH  41  42
ENDBRANCH   3  41
TORSDOF 15
ENDMDL
MODEL 3
REMARK VINA RESULT: -7.998754811      3.573      4.605
REMARK  15 active torsions:
REMARK  status: ('A' for Active; 'I' for Inactive)
REMARK    1  A    between atoms: O1_2  and  C2_3 
REMARK    2  A    between atoms: C3_4  and  O2_5 
REMARK    3  A    between atoms: C4_7  and  C5_8 
REMARK    4  A    between atoms: C5_8  and  O3_9 
REMARK    5  A    between atoms: C6_12  and  C7_13 
REMARK    6  A    between atoms: C8_14  and  C9_15 
REMARK    7  A    between atoms: C9_15  and  C11_17 
REMARK    8  A    between atoms: C11_17  and  O5_18 
REMARK    9  A    between atoms: C11_17  and  C12_20 
REMARK   10  A    between atoms: C12_20  and  C13_21 
REMARK   11  A    between atoms: C19_27  and  O6_28 
REMARK   12  A    between atoms: O6_28  and  C20_29 
REMARK   13  A    between atoms: C21_31  and  C22_32 
REMARK   14  A    between atoms: C22_32  and  O8_33 
REMARK   15  A    between atoms: C28_41  and  O10_42 
ROOT
HETATM    1  C2  UNL     1      -7.367  -1.575   2.864  1.00  0.00     0.184 C 
HETATM    2  C3  UNL     1      -5.955  -1.902   3.373  1.00  0.00     0.180 C 
HETATM    3  C4  UNL     1      -6.077  -2.440   4.761  1.00  0.00     0.177 C 
HETATM    4  O4  UNL     1      -7.369  -2.407   5.195  1.00  0.00    -0.369 OA
HETATM    5  C6  UNL     1      -7.976  -1.156   5.204  1.00  0.00     0.176 C 
HETATM    6  C19 UNL     1      -7.910  -0.561   3.845  1.00  0.00     0.189 C 
ENDROOT
BRANCH   6   7
HETATM    7  O6  UNL     1      -9.055  -0.021   3.347  1.00  0.00    -0.347 OA
BRANCH   7   8
HETATM    8  C20 UNL     1      -9.258   1.310   3.525  1.00  0.00     0.300 C 
HETATM    9  O7  UNL     1      -9.798   1.522   4.780  1.00  0.00    -0.326 OA
HETATM   10  C21 UNL     1     -11.146   1.461   4.874  1.00  0.00     0.287 C 
HETATM   11  O9  UNL     1     -11.851   1.990   3.807  1.00  0.00    -0.350 OA
HETATM   12  C23 UNL     1     -11.071   2.881   3.072  1.00  0.00     0.167 C 
HETATM   13  C24 UNL     1     -11.816   3.327   1.845  1.00  0.00     0.014 C 
HETATM   14  C28 UNL     1      -9.983   2.007   2.427  1.00  0.00     0.134 C 
HETATM   15  C25 UNL     1     -13.183   3.884   2.177  1.00  0.00     0.012 C 
HETATM   16  C26 UNL     1     -11.883   2.088   1.014  1.00  0.00     0.010 C 
HETATM   17  C27 UNL     1     -10.788   1.149   1.527  1.00  0.00     0.046 C 
BRANCH  10  18
HETATM   18  C22 UNL     1     -11.688   0.067   5.150  1.00  0.00     0.224 C 
BRANCH  18  19
HETATM   19  O8  UNL     1     -13.035   0.066   4.744  1.00  0.00    -0.396 OA
ATOM     20  H8  UNL     1     -13.072  -0.400   3.917  1.00  0.00     0.209 HD
ENDBRANCH  18  19
ENDBRANCH  10  18
BRANCH  14  21
HETATM   21  O10 UNL     1      -9.201   2.863   1.673  1.00  0.00    -0.382 OA
ATOM     22  H10 UNL     1      -8.332   2.533   1.476  1.00  0.00     0.210 HD
ENDBRANCH  14  21
ENDBRANCH   7   8
ENDBRANCH   6   7
BRANCH   1  23
HETATM   23  O1  UNL     1      -8.084  -2.740   2.957  1.00  0.00    -0.385 OA
HETATM   24  C1  UNL     1      -8.357  -3.356   1.760  1.00  0.00     0.202 C 
ENDBRANCH   1  23
BRANCH   5  25
HETATM   25  C7  UNL     1      -7.235  -0.333   6.198  1.00  0.00     0.004 C 
HETATM   26  C8  UNL     1      -6.457  -0.852   7.141  1.00  0.00    -0.021 C 
BRANCH  26  27
HETATM   27  C9  UNL     1      -5.727  -0.041   8.123  1.00  0.00     0.033 C 
HETATM   28  C10 UNL     1      -4.530   0.582   7.420  1.00  0.00     0.017 C 
BRANCH  27  29
HETATM   29  C11 UNL     1      -5.197  -0.869   9.269  1.00  0.00     0.129 C 
BRANCH  29  30
HETATM   30  O5  UNL     1      -4.124  -1.671   8.852  1.00  0.00    -0.395 OA
ATOM     31  H5  UNL     1      -3.885  -2.294   9.528  1.00  0.00     0.210 HD
ENDBRANCH  29  30
BRANCH  29  32
HETATM   32  C12 UNL     1      -4.685   0.073  10.350  1.00  0.00     0.070 C 
BRANCH  32  33
HETATM   33  C13 UNL     1      -5.436  -0.226  11.591  1.00  0.00    -0.056 A 
HETATM   34  C14 UNL     1      -6.807  -0.192  11.597  1.00  0.00     0.007 A 
HETATM   35  C15 UNL     1      -7.484  -0.474  12.760  1.00  0.00     0.001 A 
HETATM   36  C16 UNL     1      -6.828  -0.787  13.914  1.00  0.00     0.000 A 
HETATM   37  C17 UNL     1      -5.448  -0.818  13.898  1.00  0.00     0.001 A 
HETATM   38  C18 UNL     1      -4.750  -0.539  12.740  1.00  0.00     0.007 A 
ENDBRANCH  32  33
ENDBRANCH  29  32
ENDBRANCH  27  29
ENDBRANCH  26  27
ENDBRANCH   5  25
BRANCH   2  39
HETATM   39  O2  UNL     1      -5.281  -2.722   2.504  1.00  0.00    -0.390 OA
ATOM     40  H2  UNL     1      -4.676  -2.233   1.959  1.00  0.00     0.210 HD
ENDBRANCH   2  39
BRANCH   3  41
HETATM   41  C5  UNL     1      -5.695  -3.930   4.694  1.00  0.00     0.198 C 
BRANCH  41  42
HETATM   42  O3  UNL     1      -6.847  -4.706   4.616  1.00  0.00    -0.398 OA
ATOM     43  H3  UNL     1      -7.231  -4.795   5.481  1.00  0.00     0.209 HD
ENDBRANCH  41  42
ENDBRANCH   3  41
TORSDOF 15
ENDMDL
MODEL 4
REMARK VINA RESULT: -7.972928110      1.556      2.749
REMARK  15 active torsions:
REMARK  status: ('A' for Active; 'I' for Inactive)
REMARK    1  A    between atoms: O1_2  and  C2_3 
REMARK    2  A    between atoms: C3_4  and  O2_5 
REMARK    3  A    between atoms: C4_7  and  C5_8 
REMARK    4  A    between atoms: C5_8  and  O3_9 
REMARK    5  A    between atoms: C6_12  and  C7_13 
REMARK    6  A    between atoms: C8_14  and  C9_15 
REMARK    7  A    between atoms: C9_15  and  C11_17 
REMARK    8  A    between atoms: C11_17  and  O5_18 
REMARK    9  A    between atoms: C11_17  and  C12_20 
REMARK   10  A    between atoms: C12_20  and  C13_21 
REMARK   11  A    between atoms: C19_27  and  O6_28 
REMARK   12  A    between atoms: O6_28  and  C20_29 
REMARK   13  A    between atoms: C21_31  and  C22_32 
REMARK   14  A    between atoms: C22_32  and  O8_33 
REMARK   15  A    between atoms: C28_41  and  O10_42 
ROOT
HETATM    1  C2  UNL     1      -3.979  -2.903   6.018  1.00  0.00     0.184 C 
HETATM    2  C3  UNL     1      -2.966  -3.432   7.046  1.00  0.00     0.180 C 
HETATM    3  C4  UNL     1      -3.688  -3.659   8.332  1.00  0.00     0.177 C 
HETATM    4  O4  UNL     1      -4.989  -3.260   8.249  1.00  0.00    -0.369 OA
HETATM    5  C6  UNL     1      -5.197  -1.928   7.912  1.00  0.00     0.176 C 
HETATM    6  C19 UNL     1      -4.520  -1.629   6.625  1.00  0.00     0.189 C 
ENDROOT
BRANCH   6   7
HETATM    7  O6  UNL     1      -5.237  -0.953   5.688  1.00  0.00    -0.347 OA
BRANCH   7   8
HETATM    8  C20 UNL     1      -6.581  -0.861   5.862  1.00  0.00     0.300 C 
HETATM    9  O7  UNL     1      -7.193  -1.926   5.227  1.00  0.00    -0.326 OA
HETATM   10  C21 UNL     1      -7.505  -1.753   3.922  1.00  0.00     0.287 C 
HETATM   11  O9  UNL     1      -7.954  -0.490   3.571  1.00  0.00    -0.350 OA
HETATM   12  C23 UNL     1      -8.430   0.208   4.679  1.00  0.00     0.167 C 
HETATM   13  C24 UNL     1      -8.776   1.618   4.289  1.00  0.00     0.014 C 
HETATM   14  C28 UNL     1      -7.186   0.463   5.545  1.00  0.00     0.134 C 
HETATM   15  C25 UNL     1      -9.727   1.669   3.113  1.00  0.00     0.012 C 
HETATM   16  C26 UNL     1      -7.447   2.226   3.986  1.00  0.00     0.010 C 
HETATM   17  C27 UNL     1      -6.391   1.352   4.666  1.00  0.00     0.046 C 
BRANCH  10  18
HETATM   18  C22 UNL     1      -6.394  -2.141   2.959  1.00  0.00     0.224 C 
BRANCH  18  19
HETATM   19  O8  UNL     1      -6.802  -3.326   2.323  1.00  0.00    -0.396 OA
ATOM     20  H8  UNL     1      -6.826  -4.002   2.990  1.00  0.00     0.209 HD
ENDBRANCH  18  19
ENDBRANCH  10  18
BRANCH  14  21
HETATM   21  O10 UNL     1      -7.625   1.173   6.647  1.00  0.00    -0.382 OA
ATOM     22  H10 UNL     1      -8.393   0.808   7.072  1.00  0.00     0.210 HD
ENDBRANCH  14  21
ENDBRANCH   7   8
ENDBRANCH   6   7
BRANCH   1  23
HETATM   23  O1  UNL     1      -4.975  -3.842   5.949  1.00  0.00    -0.385 OA
HETATM   24  C1  UNL     1      -4.910  -4.685   4.866  1.00  0.00     0.202 C 
ENDBRANCH   1  23
BRANCH   5  25
HETATM   25  C7  UNL     1      -4.637  -1.117   9.026  1.00  0.00     0.004 C 
HETATM   26  C8  UNL     1      -3.824  -0.083   8.841  1.00  0.00    -0.021 C 
BRANCH  26  27
HETATM   27  C9  UNL     1      -3.271   0.718   9.940  1.00  0.00     0.033 C 
HETATM   28  C10 UNL     1      -1.891   1.201   9.521  1.00  0.00     0.017 C 
BRANCH  27  29
HETATM   29  C11 UNL     1      -3.101  -0.089  11.206  1.00  0.00     0.129 C 
BRANCH  29  30
HETATM   30  O5  UNL     1      -1.745  -0.332  11.466  1.00  0.00    -0.395 OA
ATOM     31  H5  UNL     1      -1.193   0.172  10.880  1.00  0.00     0.210 HD
ENDBRANCH  29  30
BRANCH  29  32
HETATM   32  C12 UNL     1      -3.663   0.716  12.370  1.00  0.00     0.070 C 
BRANCH  32  33
HETATM   33  C13 UNL     1      -4.988   0.144  12.705  1.00  0.00    -0.056 A 
HETATM   34  C14 UNL     1      -5.190  -0.478  13.911  1.00  0.00     0.007 A 
HETATM   35  C15 UNL     1      -6.427  -1.002  14.201  1.00  0.00     0.001 A 
HETATM   36  C16 UNL     1      -7.465  -0.922  13.321  1.00  0.00     0.000 A 
HETATM   37  C17 UNL     1      -7.252  -0.294  12.109  1.00  0.00     0.001 A 
HETATM   38  C18 UNL     1      -6.017   0.239  11.800  1.00  0.00     0.007 A 
ENDBRANCH  32  33
ENDBRANCH  29  32
ENDBRANCH  27  29
ENDBRANCH  26  27
ENDBRANCH   5  25
BRANCH   2  39
HETATM   39  O2  UNL     1      -2.292  -4.530   6.572  1.00  0.00    -0.390 OA
ATOM     40  H2  UNL     1      -1.692  -4.298   5.873  1.00  0.00     0.210 HD
ENDBRANCH   2  39
BRANCH   3  41
HETATM   41  C5  UNL     1      -3.730  -5.182   8.555  1.00  0.00     0.198 C 
BRANCH  41  42
HETATM   42  O3  UNL     1      -4.918  -5.697   8.048  1.00  0.00    -0.398 OA
ATOM     43  H3  UNL     1      -5.464  -6.005   8.763  1.00  0.00     0.209 HD
ENDBRANCH  41  42
ENDBRANCH   3  41
TORSDOF 15
ENDMDL
MODEL 5
REMARK VINA RESULT: -7.939303407      2.651      5.410
REMARK  15 active torsions:
REMARK  status: ('A' for Active; 'I' for Inactive)
REMARK    1  A    between atoms: O1_2  and  C2_3 
REMARK    2  A    between atoms: C3_4  and  O2_5 
REMARK    3  A    between atoms: C4_7  and  C5_8 
REMARK    4  A    between atoms: C5_8  and  O3_9 
REMARK    5  A    between atoms: C6_12  and  C7_13 
REMARK    6  A    between atoms: C8_14  and  C9_15 
REMARK    7  A    between atoms: C9_15  and  C11_17 
REMARK    8  A    between atoms: C11_17  and  O5_18 
REMARK    9  A    between atoms: C11_17  and  C12_20 
REMARK   10  A    between atoms: C12_20  and  C13_21 
REMARK   11  A    between atoms: C19_27  and  O6_28 
REMARK   12  A    between atoms: O6_28  and  C20_29 
REMARK   13  A    between atoms: C21_31  and  C22_32 
REMARK   14  A    between atoms: C22_32  and  O8_33 
REMARK   15  A    between atoms: C28_41  and  O10_42 
ROOT
HETATM    1  C2  UNL     1      -4.887   1.499   1.717  1.00  0.00     0.184 C 
HETATM    2  C3  UNL     1      -3.533   2.202   1.903  1.00  0.00     0.180 C 
HETATM    3  C4  UNL     1      -2.529   1.173   2.306  1.00  0.00     0.177 C 
HETATM    4  O4  UNL     1      -3.109  -0.049   2.471  1.00  0.00    -0.369 OA
HETATM    5  C6  UNL     1      -4.136  -0.114   3.406  1.00  0.00     0.176 C 
HETATM    6  C19 UNL     1      -5.188   0.874   3.060  1.00  0.00     0.189 C 
ENDROOT
BRANCH   6   7
HETATM    7  O6  UNL     1      -6.477   0.440   3.075  1.00  0.00    -0.347 OA
BRANCH   7   8
HETATM    8  C20 UNL     1      -6.988   0.011   4.259  1.00  0.00     0.300 C 
HETATM    9  O7  UNL     1      -7.130  -1.363   4.219  1.00  0.00    -0.326 OA
HETATM   10  C21 UNL     1      -8.296  -1.835   3.721  1.00  0.00     0.287 C 
HETATM   11  O9  UNL     1      -9.430  -1.111   4.049  1.00  0.00    -0.350 OA
HETATM   12  C23 UNL     1      -9.223  -0.325   5.181  1.00  0.00     0.167 C 
HETATM   13  C24 UNL     1     -10.421   0.549   5.426  1.00  0.00     0.014 C 
HETATM   14  C28 UNL     1      -8.198   0.733   4.741  1.00  0.00     0.134 C 
HETATM   15  C25 UNL     1     -11.706  -0.246   5.494  1.00  0.00     0.012 C 
HETATM   16  C26 UNL     1     -10.390   1.503   4.278  1.00  0.00     0.010 C 
HETATM   17  C27 UNL     1      -8.966   1.479   3.717  1.00  0.00     0.046 C 
BRANCH  10  18
HETATM   18  C22 UNL     1      -8.291  -2.042   2.214  1.00  0.00     0.224 C 
BRANCH  18  19
HETATM   19  O8  UNL     1      -9.030  -0.984   1.655  1.00  0.00    -0.396 OA
ATOM     20  H8  UNL     1      -9.652  -1.372   1.051  1.00  0.00     0.209 HD
ENDBRANCH  18  19
ENDBRANCH  10  18
BRANCH  14  21
HETATM   21  O10 UNL     1      -7.986   1.542   5.842  1.00  0.00    -0.382 OA
ATOM     22  H10 UNL     1      -8.635   2.226   5.960  1.00  0.00     0.210 HD
ENDBRANCH  14  21
ENDBRANCH   7   8
ENDBRANCH   6   7
BRANCH   1  23
HETATM   23  O1  UNL     1      -4.679   0.516   0.784  1.00  0.00    -0.385 OA
HETATM   24  C1  UNL     1      -5.696   0.349  -0.124  1.00  0.00     0.202 C 
ENDBRANCH   1  23
BRANCH   5  25
HETATM   25  C7  UNL     1      -3.522   0.180   4.729  1.00  0.00     0.004 C 
HETATM   26  C8  UNL     1      -3.947  -0.358   5.867  1.00  0.00    -0.021 C 
BRANCH  26  27
HETATM   27  C9  UNL     1      -3.343  -0.067   7.173  1.00  0.00     0.033 C 
HETATM   28  C10 UNL     1      -2.649  -1.330   7.661  1.00  0.00     0.017 C 
BRANCH  27  29
HETATM   29  C11 UNL     1      -4.375   0.310   8.210  1.00  0.00     0.129 C 
BRANCH  29  30
HETATM   30  O5  UNL     1      -5.392   1.090   7.641  1.00  0.00    -0.395 OA
ATOM     31  H5  UNL     1      -5.208   2.016   7.746  1.00  0.00     0.210 HD
ENDBRANCH  29  30
BRANCH  29  32
HETATM   32  C12 UNL     1      -5.008  -0.966   8.748  1.00  0.00     0.070 C 
BRANCH  32  33
HETATM   33  C13 UNL     1      -5.498  -0.674  10.115  1.00  0.00    -0.056 A 
HETATM   34  C14 UNL     1      -4.612  -0.408  11.128  1.00  0.00     0.007 A 
HETATM   35  C15 UNL     1      -5.090  -0.140  12.389  1.00  0.00     0.001 A 
HETATM   36  C16 UNL     1      -6.425  -0.132  12.664  1.00  0.00     0.000 A 
HETATM   37  C17 UNL     1      -7.309  -0.401  11.638  1.00  0.00     0.001 A 
HETATM   38  C18 UNL     1      -6.850  -0.672  10.365  1.00  0.00     0.007 A 
ENDBRANCH  32  33
ENDBRANCH  29  32
ENDBRANCH  27  29
ENDBRANCH  26  27
ENDBRANCH   5  25
BRANCH   2  39
HETATM   39  O2  UNL     1      -3.185   2.931   0.793  1.00  0.00    -0.390 OA
ATOM     40  H2  UNL     1      -2.727   2.398   0.154  1.00  0.00     0.210 HD
ENDBRANCH   2  39
BRANCH   3  41
HETATM   41  C5  UNL     1      -1.553   1.019   1.125  1.00  0.00     0.198 C 
BRANCH  41  42
HETATM   42  O3  UNL     1      -2.028   0.048   0.249  1.00  0.00    -0.398 OA
ATOM     43  H3  UNL     1      -1.310  -0.507  -0.034  1.00  0.00     0.209 HD
ENDBRANCH  41  42
ENDBRANCH   3  41
TORSDOF 15
ENDMDL
