MODEL 1
REMARK VINA RESULT: -7.376422347      0.000      0.000
REMARK  15 active torsions:
REMARK  status: ('A' for Active; 'I' for Inactive)
REMARK    1  A    between atoms: C2_2  and  C3_3 
REMARK    2  A    between atoms: C5_5  and  O1_7 
REMARK    3  A    between atoms: O1_7  and  C7_8 
REMARK    4  A    between atoms: C9_10  and  O2_11 
REMARK    5  A    between atoms: O2_11  and  C10_12 
REMARK    6  A    between atoms: C10_12  and  C11_13 
REMARK    7  A    between atoms: C11_13  and  C13_15 
REMARK    8  A    between atoms: C16_20  and  O4_21 
REMARK    9  A    between atoms: C17_23  and  O5_24 
REMARK   10  A    between atoms: O5_24  and  C18_25 
REMARK   11  A    between atoms: C20_29  and  O8_30 
REMARK   12  A    between atoms: C21_32  and  O9_33 
REMARK   13  A    between atoms: C22_35  and  O10_36 
REMARK   14  A    between atoms: C23_38  and  O11_40 
REMARK   15  A    between atoms: C25_42  and  O12_43 
ROOT
HETATM    1  C3  UNL     1      -8.935   0.011   5.632  1.00  0.00     0.042 C 
HETATM    2  C4  UNL     1      -7.954  -1.067   5.300  1.00  0.00     0.051 C 
HETATM    3  C5  UNL     1      -6.651  -0.750   4.659  1.00  0.00     0.087 C 
HETATM    4  C6  UNL     1      -6.320  -1.910   3.717  1.00  0.00     0.049 C 
HETATM    5  C17 UNL     1      -6.593   0.501   3.839  1.00  0.00     0.195 C 
HETATM    6  C23 UNL     1      -7.944   1.174   3.660  1.00  0.00     0.109 C 
HETATM    7  C24 UNL     1      -8.779   0.545   2.568  1.00  0.00     0.051 C 
HETATM    8  C25 UNL     1      -8.687   1.291   4.959  1.00  0.00     0.162 C 
ENDROOT
BRANCH   3   9
HETATM    9  O1  UNL     1      -5.774  -0.647   5.681  1.00  0.00    -0.370 OA
BRANCH   9  10
HETATM   10  C7  UNL     1      -5.426  -1.538   6.578  1.00  0.00     0.158 C 
HETATM   11  C8  UNL     1      -5.629  -1.167   8.029  1.00  0.00     0.095 C 
HETATM   12  C9  UNL     1      -4.424  -0.303   8.437  1.00  0.00     0.262 C 
HETATM   13  O3  UNL     1      -3.413  -1.237   8.665  1.00  0.00    -0.354 OA
HETATM   14  C14 UNL     1      -3.248  -2.176   7.689  1.00  0.00     0.151 C 
HETATM   15  C15 UNL     1      -3.456  -3.606   8.170  1.00  0.00     0.042 C 
HETATM   16  C16 UNL     1      -3.966  -1.879   6.404  1.00  0.00     0.176 C 
BRANCH  12  17
HETATM   17  O2  UNL     1      -4.674   0.358   9.596  1.00  0.00    -0.361 OA
BRANCH  17  18
HETATM   18  C10 UNL     1      -4.458  -0.194  10.793  1.00  0.00     0.176 C 
BRANCH  18  19
HETATM   19  C11 UNL     1      -5.399   0.012  11.923  1.00  0.00     0.019 C 
HETATM   20  C12 UNL     1      -6.846  -0.327  11.497  1.00  0.00     0.013 C 
BRANCH  19  21
HETATM   21  C13 UNL     1      -5.106  -0.619  13.225  1.00  0.00     0.121 C 
HETATM   22 CL1  UNL     1      -6.681  -0.735  14.105  1.00  0.00    -0.130 Cl
ENDBRANCH  19  21
ENDBRANCH  18  19
ENDBRANCH  17  18
ENDBRANCH  12  17
BRANCH  16  23
HETATM   23  O4  UNL     1      -3.233  -0.825   5.810  1.00  0.00    -0.390 OA
ATOM     24  H4  UNL     1      -3.796  -0.179   5.400  1.00  0.00     0.210 HD
ENDBRANCH  16  23
ENDBRANCH   9  10
ENDBRANCH   3   9
BRANCH   5  25
HETATM   25  O5  UNL     1      -6.214   0.222   2.542  1.00  0.00    -0.347 OA
BRANCH  25  26
HETATM   26  C18 UNL     1      -4.884   0.466   2.224  1.00  0.00     0.301 C 
HETATM   27  O6  UNL     1      -4.871   0.828   0.859  1.00  0.00    -0.285 OA
HETATM   28  C19 UNL     1      -5.247   2.100   0.503  1.00  0.00     0.292 C 
HETATM   29  O7  UNL     1      -5.977   2.382  -0.494  1.00  0.00    -0.262 OA
HETATM   30  C20 UNL     1      -4.761   3.208   1.348  1.00  0.00     0.249 C 
HETATM   31  C21 UNL     1      -3.736   2.695   2.316  1.00  0.00     0.190 C 
HETATM   32  C22 UNL     1      -4.208   1.480   3.086  1.00  0.00     0.205 C 
BRANCH  30  33
HETATM   33  O8  UNL     1      -5.781   3.911   1.976  1.00  0.00    -0.383 OA
ATOM     34  H8  UNL     1      -5.583   4.832   2.102  1.00  0.00     0.210 HD
ENDBRANCH  30  33
BRANCH  31  35
HETATM   35  O9  UNL     1      -3.481   3.699   3.249  1.00  0.00    -0.390 OA
ATOM     36  H9  UNL     1      -3.612   4.538   2.824  1.00  0.00     0.210 HD
ENDBRANCH  31  35
BRANCH  32  37
HETATM   37  O10 UNL     1      -3.031   0.919   3.605  1.00  0.00    -0.388 OA
ATOM     38  H10 UNL     1      -3.173   0.702   4.520  1.00  0.00     0.210 HD
ENDBRANCH  32  37
ENDBRANCH  25  26
ENDBRANCH   5  25
BRANCH   1  39
HETATM   39  C2  UNL     1     -10.325  -0.500   5.622  1.00  0.00    -0.030 C 
HETATM   40  C1  UNL     1     -11.370   0.263   5.690  1.00  0.00     0.007 C 
ENDBRANCH   1  39
BRANCH   6  41
HETATM   41  O11 UNL     1      -7.704   2.474   3.240  1.00  0.00    -0.385 OA
ATOM     42  H11 UNL     1      -7.739   3.030   4.009  1.00  0.00     0.210 HD
ENDBRANCH   6  41
BRANCH   8  43
HETATM   43  O12 UNL     1      -7.839   2.079   5.789  1.00  0.00    -0.392 OA
ATOM     44  H12 UNL     1      -6.981   2.125   5.384  1.00  0.00     0.210 HD
ENDBRANCH   8  43
TORSDOF 15
ENDMDL
MODEL 2
REMARK VINA RESULT: -7.160190911      1.648      2.130
REMARK  15 active torsions:
REMARK  status: ('A' for Active; 'I' for Inactive)
REMARK    1  A    between atoms: C2_2  and  C3_3 
REMARK    2  A    between atoms: C5_5  and  O1_7 
REMARK    3  A    between atoms: O1_7  and  C7_8 
REMARK    4  A    between atoms: C9_10  and  O2_11 
REMARK    5  A    between atoms: O2_11  and  C10_12 
REMARK    6  A    between atoms: C10_12  and  C11_13 
REMARK    7  A    between atoms: C11_13  and  C13_15 
REMARK    8  A    between atoms: C16_20  and  O4_21 
REMARK    9  A    between atoms: C17_23  and  O5_24 
REMARK   10  A    between atoms: O5_24  and  C18_25 
REMARK   11  A    between atoms: C20_29  and  O8_30 
REMARK   12  A    between atoms: C21_32  and  O9_33 
REMARK   13  A    between atoms: C22_35  and  O10_36 
REMARK   14  A    between atoms: C23_38  and  O11_40 
REMARK   15  A    between atoms: C25_42  and  O12_43 
ROOT
HETATM    1  C3  UNL     1      -8.417  -0.280   5.661  1.00  0.00     0.042 C 
HETATM    2  C4  UNL     1      -7.177  -0.910   5.113  1.00  0.00     0.051 C 
HETATM    3  C5  UNL     1      -5.918  -0.133   4.971  1.00  0.00     0.087 C 
HETATM    4  C6  UNL     1      -5.212  -0.648   3.715  1.00  0.00     0.049 C 
HETATM    5  C17 UNL     1      -6.057   1.349   4.810  1.00  0.00     0.195 C 
HETATM    6  C23 UNL     1      -7.497   1.810   4.655  1.00  0.00     0.109 C 
HETATM    7  C24 UNL     1      -8.023   1.647   3.247  1.00  0.00     0.051 C 
HETATM    8  C25 UNL     1      -8.398   1.187   5.682  1.00  0.00     0.162 C 
ENDROOT
BRANCH   3   9
HETATM    9  O1  UNL     1      -5.219  -0.390   6.099  1.00  0.00    -0.370 OA
BRANCH   9  10
HETATM   10  C7  UNL     1      -5.131  -1.497   6.795  1.00  0.00     0.158 C 
HETATM   11  C8  UNL     1      -5.474  -1.413   8.265  1.00  0.00     0.095 C 
HETATM   12  C9  UNL     1      -4.223  -0.877   8.980  1.00  0.00     0.262 C 
HETATM   13  O3  UNL     1      -3.399  -1.999   9.086  1.00  0.00    -0.354 OA
HETATM   14  C14 UNL     1      -3.242  -2.723   7.941  1.00  0.00     0.151 C 
HETATM   15  C15 UNL     1      -3.720  -4.165   8.055  1.00  0.00     0.042 C 
HETATM   16  C16 UNL     1      -3.727  -2.041   6.694  1.00  0.00     0.176 C 
BRANCH  12  17
HETATM   17  O2  UNL     1      -4.529  -0.444  10.230  1.00  0.00    -0.361 OA
BRANCH  17  18
HETATM   18  C10 UNL     1      -5.789  -0.276  10.639  1.00  0.00     0.176 C 
BRANCH  18  19
HETATM   19  C11 UNL     1      -6.113  -0.010  12.063  1.00  0.00     0.019 C 
HETATM   20  C12 UNL     1      -7.569  -0.426  12.378  1.00  0.00     0.013 C 
BRANCH  19  21
HETATM   21  C13 UNL     1      -5.213  -0.526  13.112  1.00  0.00     0.121 C 
HETATM   22 CL1  UNL     1      -6.255  -0.913  14.538  1.00  0.00    -0.130 Cl
ENDBRANCH  19  21
ENDBRANCH  18  19
ENDBRANCH  17  18
ENDBRANCH  12  17
BRANCH  16  23
HETATM   23  O4  UNL     1      -2.773  -1.027   6.437  1.00  0.00    -0.390 OA
ATOM     24  H4  UNL     1      -2.008  -1.357   5.981  1.00  0.00     0.210 HD
ENDBRANCH  16  23
ENDBRANCH   9  10
ENDBRANCH   3   9
BRANCH   5  25
HETATM   25  O5  UNL     1      -5.471   1.773   3.636  1.00  0.00    -0.347 OA
BRANCH  25  26
HETATM   26  C18 UNL     1      -4.209   2.343   3.751  1.00  0.00     0.301 C 
HETATM   27  O6  UNL     1      -4.333   3.663   3.265  1.00  0.00    -0.285 OA
HETATM   28  C19 UNL     1      -4.900   4.620   4.070  1.00  0.00     0.292 C 
HETATM   29  O7  UNL     1      -5.725   5.498   3.674  1.00  0.00    -0.262 OA
HETATM   30  C20 UNL     1      -4.514   4.617   5.495  1.00  0.00     0.249 C 
HETATM   31  C21 UNL     1      -3.369   3.671   5.707  1.00  0.00     0.190 C 
HETATM   32  C22 UNL     1      -3.622   2.298   5.123  1.00  0.00     0.205 C 
BRANCH  30  33
HETATM   33  O8  UNL     1      -5.577   4.366   6.353  1.00  0.00    -0.383 OA
ATOM     34  H8  UNL     1      -6.322   4.939   6.209  1.00  0.00     0.210 HD
ENDBRANCH  30  33
BRANCH  31  35
HETATM   35  O9  UNL     1      -3.192   3.507   7.080  1.00  0.00    -0.390 OA
ATOM     36  H9  UNL     1      -2.405   2.992   7.217  1.00  0.00     0.210 HD
ENDBRANCH  31  35
BRANCH  32  37
HETATM   37  O10 UNL     1      -2.349   1.712   5.050  1.00  0.00    -0.388 OA
ATOM     38  H10 UNL     1      -1.694   2.384   5.202  1.00  0.00     0.210 HD
ENDBRANCH  32  37
ENDBRANCH  25  26
ENDBRANCH   5  25
BRANCH   1  39
HETATM   39  C2  UNL     1      -9.635  -0.934   5.131  1.00  0.00    -0.030 C 
HETATM   40  C1  UNL     1     -10.836  -0.611   5.493  1.00  0.00     0.007 C 
ENDBRANCH   1  39
BRANCH   6  41
HETATM   41  O11 UNL     1      -7.522   3.174   4.904  1.00  0.00    -0.385 OA
ATOM     42  H11 UNL     1      -8.391   3.486   4.681  1.00  0.00     0.210 HD
ENDBRANCH   6  41
BRANCH   8  43
HETATM   43  O12 UNL     1      -7.866   1.612   6.932  1.00  0.00    -0.392 OA
ATOM     44  H12 UNL     1      -7.776   2.558   6.915  1.00  0.00     0.210 HD
ENDBRANCH   8  43
TORSDOF 15
ENDMDL
MODEL 3
REMARK VINA RESULT: -7.047894462      1.790      4.174
REMARK  15 active torsions:
REMARK  status: ('A' for Active; 'I' for Inactive)
REMARK    1  A    between atoms: C2_2  and  C3_3 
REMARK    2  A    between atoms: C5_5  and  O1_7 
REMARK    3  A    between atoms: O1_7  and  C7_8 
REMARK    4  A    between atoms: C9_10  and  O2_11 
REMARK    5  A    between atoms: O2_11  and  C10_12 
REMARK    6  A    between atoms: C10_12  and  C11_13 
REMARK    7  A    between atoms: C11_13  and  C13_15 
REMARK    8  A    between atoms: C16_20  and  O4_21 
REMARK    9  A    between atoms: C17_23  and  O5_24 
REMARK   10  A    between atoms: O5_24  and  C18_25 
REMARK   11  A    between atoms: C20_29  and  O8_30 
REMARK   12  A    between atoms: C21_32  and  O9_33 
REMARK   13  A    between atoms: C22_35  and  O10_36 
REMARK   14  A    between atoms: C23_38  and  O11_40 
REMARK   15  A    between atoms: C25_42  and  O12_43 
ROOT
HETATM    1  C3  UNL     1      -3.341   2.962   4.422  1.00  0.00     0.042 C 
HETATM    2  C4  UNL     1      -4.410   2.985   5.467  1.00  0.00     0.051 C 
HETATM    3  C5  UNL     1      -5.329   1.832   5.654  1.00  0.00     0.087 C 
HETATM    4  C6  UNL     1      -6.690   2.403   6.055  1.00  0.00     0.049 C 
HETATM    5  C17 UNL     1      -5.563   0.960   4.460  1.00  0.00     0.195 C 
HETATM    6  C23 UNL     1      -4.936   1.496   3.183  1.00  0.00     0.109 C 
HETATM    7  C24 UNL     1      -5.772   2.565   2.517  1.00  0.00     0.051 C 
HETATM    8  C25 UNL     1      -3.513   1.927   3.396  1.00  0.00     0.162 C 
ENDROOT
BRANCH   3   9
HETATM    9  O1  UNL     1      -4.768   1.093   6.636  1.00  0.00    -0.370 OA
BRANCH   9  10
HETATM   10  C7  UNL     1      -4.852  -0.195   6.865  1.00  0.00     0.158 C 
HETATM   11  C8  UNL     1      -5.341  -0.619   8.232  1.00  0.00     0.095 C 
HETATM   12  C9  UNL     1      -4.130  -0.541   9.177  1.00  0.00     0.262 C 
HETATM   13  O3  UNL     1      -3.425  -1.714   8.904  1.00  0.00    -0.354 OA
HETATM   14  C14 UNL     1      -3.211  -1.978   7.583  1.00  0.00     0.151 C 
HETATM   15  C15 UNL     1      -3.825  -3.290   7.111  1.00  0.00     0.042 C 
HETATM   16  C16 UNL     1      -3.499  -0.830   6.658  1.00  0.00     0.176 C 
BRANCH  12  17
HETATM   17  O2  UNL     1      -4.529  -0.567  10.475  1.00  0.00    -0.361 OA
BRANCH  17  18
HETATM   18  C10 UNL     1      -5.739  -0.154  10.858  1.00  0.00     0.176 C 
BRANCH  18  19
HETATM   19  C11 UNL     1      -6.089  -0.008  12.294  1.00  0.00     0.019 C 
HETATM   20  C12 UNL     1      -7.542  -0.472  12.551  1.00  0.00     0.013 C 
BRANCH  19  21
HETATM   21  C13 UNL     1      -5.196  -0.592  13.313  1.00  0.00     0.121 C 
HETATM   22 CL1  UNL     1      -6.229  -0.964  14.749  1.00  0.00    -0.130 Cl
ENDBRANCH  19  21
ENDBRANCH  18  19
ENDBRANCH  17  18
ENDBRANCH  12  17
BRANCH  16  23
HETATM   23  O4  UNL     1      -2.438   0.083   6.867  1.00  0.00    -0.390 OA
ATOM     24  H4  UNL     1      -1.809  -0.232   7.505  1.00  0.00     0.210 HD
ENDBRANCH  16  23
ENDBRANCH   9  10
ENDBRANCH   3   9
BRANCH   5  25
HETATM   25  O5  UNL     1      -6.904   0.906   4.145  1.00  0.00    -0.347 OA
BRANCH  25  26
HETATM   26  C18 UNL     1      -7.536  -0.313   4.354  1.00  0.00     0.301 C 
HETATM   27  O6  UNL     1      -8.715  -0.278   3.577  1.00  0.00    -0.285 OA
HETATM   28  C19 UNL     1      -8.628  -0.492   2.224  1.00  0.00     0.292 C 
HETATM   29  O7  UNL     1      -9.264   0.168   1.348  1.00  0.00    -0.262 OA
HETATM   30  C20 UNL     1      -7.727  -1.570   1.769  1.00  0.00     0.249 C 
HETATM   31  C21 UNL     1      -7.261  -2.372   2.947  1.00  0.00     0.190 C 
HETATM   32  C22 UNL     1      -6.699  -1.513   4.060  1.00  0.00     0.205 C 
BRANCH  30  33
HETATM   33  O8  UNL     1      -6.675  -1.114   0.985  1.00  0.00    -0.383 OA
ATOM     34  H8  UNL     1      -6.013  -1.777   0.820  1.00  0.00     0.210 HD
ENDBRANCH  30  33
BRANCH  31  35
HETATM   35  O9  UNL     1      -6.236  -3.214   2.520  1.00  0.00    -0.390 OA
ATOM     36  H9  UNL     1      -6.626  -4.025   2.218  1.00  0.00     0.210 HD
ENDBRANCH  31  35
BRANCH  32  37
HETATM   37  O10 UNL     1      -6.705  -2.354   5.184  1.00  0.00    -0.388 OA
ATOM     38  H10 UNL     1      -5.819  -2.417   5.523  1.00  0.00     0.210 HD
ENDBRANCH  32  37
ENDBRANCH  25  26
ENDBRANCH   5  25
BRANCH   1  39
HETATM   39  C2  UNL     1      -3.010   4.328   3.956  1.00  0.00    -0.030 C 
HETATM   40  C1  UNL     1      -3.802   5.344   4.093  1.00  0.00     0.007 C 
ENDBRANCH   1  39
BRANCH   6  41
HETATM   41  O11 UNL     1      -4.884   0.448   2.277  1.00  0.00    -0.385 OA
ATOM     42  H11 UNL     1      -5.157   0.789   1.434  1.00  0.00     0.210 HD
ENDBRANCH   6  41
BRANCH   8  43
HETATM   43  O12 UNL     1      -2.842   0.749   3.829  1.00  0.00    -0.392 OA
ATOM     44  H12 UNL     1      -3.475   0.042   3.876  1.00  0.00     0.210 HD
ENDBRANCH   8  43
TORSDOF 15
ENDMDL
MODEL 4
REMARK VINA RESULT: -7.008173418      2.526      5.427
REMARK  15 active torsions:
REMARK  status: ('A' for Active; 'I' for Inactive)
REMARK    1  A    between atoms: C2_2  and  C3_3 
REMARK    2  A    between atoms: C5_5  and  O1_7 
REMARK    3  A    between atoms: O1_7  and  C7_8 
REMARK    4  A    between atoms: C9_10  and  O2_11 
REMARK    5  A    between atoms: O2_11  and  C10_12 
REMARK    6  A    between atoms: C10_12  and  C11_13 
REMARK    7  A    between atoms: C11_13  and  C13_15 
REMARK    8  A    between atoms: C16_20  and  O4_21 
REMARK    9  A    between atoms: C17_23  and  O5_24 
REMARK   10  A    between atoms: O5_24  and  C18_25 
REMARK   11  A    between atoms: C20_29  and  O8_30 
REMARK   12  A    between atoms: C21_32  and  O9_33 
REMARK   13  A    between atoms: C22_35  and  O10_36 
REMARK   14  A    between atoms: C23_38  and  O11_40 
REMARK   15  A    between atoms: C25_42  and  O12_43 
ROOT
HETATM    1  C3  UNL     1      -6.482   0.977   5.001  1.00  0.00     0.042 C 
HETATM    2  C4  UNL     1      -6.424   0.956   6.494  1.00  0.00     0.051 C 
HETATM    3  C5  UNL     1      -5.454   0.090   7.215  1.00  0.00     0.087 C 
HETATM    4  C6  UNL     1      -6.140  -0.381   8.499  1.00  0.00     0.049 C 
HETATM    5  C17 UNL     1      -4.990  -1.139   6.498  1.00  0.00     0.195 C 
HETATM    6  C23 UNL     1      -5.721  -1.392   5.190  1.00  0.00     0.109 C 
HETATM    7  C24 UNL     1      -7.064  -2.059   5.380  1.00  0.00     0.051 C 
HETATM    8  C25 UNL     1      -5.808  -0.152   4.348  1.00  0.00     0.162 C 
ENDROOT
BRANCH   3   9
HETATM    9  O1  UNL     1      -4.390   0.886   7.459  1.00  0.00    -0.370 OA
BRANCH   9  10
HETATM   10  C7  UNL     1      -3.177   0.566   7.841  1.00  0.00     0.158 C 
HETATM   11  C8  UNL     1      -2.997   0.159   9.285  1.00  0.00     0.095 C 
HETATM   12  C9  UNL     1      -2.899   1.459  10.101  1.00  0.00     0.262 C 
HETATM   13  O3  UNL     1      -1.581   1.874   9.901  1.00  0.00    -0.354 OA
HETATM   14  C14 UNL     1      -1.156   1.878   8.604  1.00  0.00     0.151 C 
HETATM   15  C15 UNL     1       0.030   0.960   8.343  1.00  0.00     0.042 C 
HETATM   16  C16 UNL     1      -2.249   1.729   7.585  1.00  0.00     0.176 C 
BRANCH  12  17
HETATM   17  O2  UNL     1      -3.079   1.214  11.424  1.00  0.00    -0.361 OA
BRANCH  17  18
HETATM   18  C10 UNL     1      -3.674   0.105  11.870  1.00  0.00     0.176 C 
BRANCH  18  19
HETATM   19  C11 UNL     1      -4.923   0.162  12.670  1.00  0.00     0.019 C 
HETATM   20  C12 UNL     1      -6.161  -0.031  11.763  1.00  0.00     0.013 C 
BRANCH  19  21
HETATM   21  C13 UNL     1      -5.049  -0.692  13.867  1.00  0.00     0.121 C 
HETATM   22 CL1  UNL     1      -6.817  -0.827  14.218  1.00  0.00    -0.130 Cl
ENDBRANCH  19  21
ENDBRANCH  18  19
ENDBRANCH  17  18
ENDBRANCH  12  17
BRANCH  16  23
HETATM   23  O4  UNL     1      -2.928   2.971   7.590  1.00  0.00    -0.390 OA
ATOM     24  H4  UNL     1      -2.991   3.352   6.722  1.00  0.00     0.210 HD
ENDBRANCH  16  23
ENDBRANCH   9  10
ENDBRANCH   3   9
BRANCH   5  25
HETATM   25  O5  UNL     1      -5.272  -2.272   7.231  1.00  0.00    -0.347 OA
BRANCH  25  26
HETATM   26  C18 UNL     1      -4.191  -2.892   7.845  1.00  0.00     0.301 C 
HETATM   27  O6  UNL     1      -4.671  -4.134   8.317  1.00  0.00    -0.285 OA
HETATM   28  C19 UNL     1      -4.831  -5.168   7.429  1.00  0.00     0.292 C 
HETATM   29  O7  UNL     1      -5.821  -5.961   7.418  1.00  0.00    -0.262 OA
HETATM   30  C20 UNL     1      -3.770  -5.361   6.421  1.00  0.00     0.249 C 
HETATM   31  C21 UNL     1      -2.595  -4.488   6.749  1.00  0.00     0.190 C 
HETATM   32  C22 UNL     1      -2.981  -3.044   6.983  1.00  0.00     0.205 C 
BRANCH  30  33
HETATM   33  O8  UNL     1      -4.212  -5.191   5.115  1.00  0.00    -0.383 OA
ATOM     34  H8  UNL     1      -3.975  -4.349   4.744  1.00  0.00     0.210 HD
ENDBRANCH  30  33
BRANCH  31  35
HETATM   35  O9  UNL     1      -1.724  -4.509   5.661  1.00  0.00    -0.390 OA
ATOM     36  H9  UNL     1      -2.230  -4.344   4.874  1.00  0.00     0.210 HD
ENDBRANCH  31  35
BRANCH  32  37
HETATM   37  O10 UNL     1      -1.878  -2.494   7.653  1.00  0.00    -0.388 OA
ATOM     38  H10 UNL     1      -1.114  -2.562   7.092  1.00  0.00     0.210 HD
ENDBRANCH  32  37
ENDBRANCH  25  26
ENDBRANCH   5  25
BRANCH   1  39
HETATM   39  C2  UNL     1      -7.837   1.327   4.516  1.00  0.00    -0.030 C 
HETATM   40  C1  UNL     1      -8.923   1.054   5.165  1.00  0.00     0.007 C 
ENDBRANCH   1  39
BRANCH   6  41
HETATM   41  O11 UNL     1      -4.960  -2.294   4.460  1.00  0.00    -0.385 OA
ATOM     42  H11 UNL     1      -5.216  -2.208   3.549  1.00  0.00     0.210 HD
ENDBRANCH   6  41
BRANCH   8  43
HETATM   43  O12 UNL     1      -4.453   0.214   4.104  1.00  0.00    -0.392 OA
ATOM     44  H12 UNL     1      -4.322   0.272   3.166  1.00  0.00     0.210 HD
ENDBRANCH   8  43
TORSDOF 15
ENDMDL
MODEL 5
REMARK VINA RESULT: -6.978636483      2.248      4.764
REMARK  15 active torsions:
REMARK  status: ('A' for Active; 'I' for Inactive)
REMARK    1  A    between atoms: C2_2  and  C3_3 
REMARK    2  A    between atoms: C5_5  and  O1_7 
REMARK    3  A    between atoms: O1_7  and  C7_8 
REMARK    4  A    between atoms: C9_10  and  O2_11 
REMARK    5  A    between atoms: O2_11  and  C10_12 
REMARK    6  A    between atoms: C10_12  and  C11_13 
REMARK    7  A    between atoms: C11_13  and  C13_15 
REMARK    8  A    between atoms: C16_20  and  O4_21 
REMARK    9  A    between atoms: C17_23  and  O5_24 
REMARK   10  A    between atoms: O5_24  and  C18_25 
REMARK   11  A    between atoms: C20_29  and  O8_30 
REMARK   12  A    between atoms: C21_32  and  O9_33 
REMARK   13  A    between atoms: C22_35  and  O10_36 
REMARK   14  A    between atoms: C23_38  and  O11_40 
REMARK   15  A    between atoms: C25_42  and  O12_43 
ROOT
HETATM    1  C3  UNL     1      -3.336  -2.377   7.520  1.00  0.00     0.042 C 
HETATM    2  C4  UNL     1      -2.605  -1.111   7.210  1.00  0.00     0.051 C 
HETATM    3  C5  UNL     1      -3.314   0.195   7.160  1.00  0.00     0.087 C 
HETATM    4  C6  UNL     1      -2.641   1.029   6.068  1.00  0.00     0.049 C 
HETATM    5  C17 UNL     1      -4.774   0.154   6.833  1.00  0.00     0.195 C 
HETATM    6  C23 UNL     1      -5.270  -1.228   6.441  1.00  0.00     0.109 C 
HETATM    7  C24 UNL     1      -4.979  -1.576   4.999  1.00  0.00     0.051 C 
HETATM    8  C25 UNL     1      -4.796  -2.285   7.396  1.00  0.00     0.162 C 
ENDROOT
BRANCH   3   9
HETATM    9  O1  UNL     1      -3.153   0.728   8.391  1.00  0.00    -0.370 OA
BRANCH   9  10
HETATM   10  C7  UNL     1      -2.307   0.405   9.339  1.00  0.00     0.158 C 
HETATM   11  C8  UNL     1      -2.889  -0.157  10.616  1.00  0.00     0.095 C 
HETATM   12  C9  UNL     1      -3.352   1.046  11.456  1.00  0.00     0.262 C 
HETATM   13  O3  UNL     1      -2.172   1.521  12.029  1.00  0.00    -0.354 OA
HETATM   14  C14 UNL     1      -1.125   1.684  11.170  1.00  0.00     0.151 C 
HETATM   15  C15 UNL     1       0.093   0.837  11.517  1.00  0.00     0.042 C 
HETATM   16  C16 UNL     1      -1.490   1.616   9.715  1.00  0.00     0.176 C 
BRANCH  12  17
HETATM   17  O2  UNL     1      -4.187   0.648  12.450  1.00  0.00    -0.361 OA
BRANCH  17  18
HETATM   18  C10 UNL     1      -5.120  -0.289  12.266  1.00  0.00     0.176 C 
BRANCH  18  19
HETATM   19  C11 UNL     1      -6.567   0.041  12.292  1.00  0.00     0.019 C 
HETATM   20  C12 UNL     1      -7.204  -0.190  10.902  1.00  0.00     0.013 C 
BRANCH  19  21
HETATM   21  C13 UNL     1      -7.422  -0.560  13.334  1.00  0.00     0.121 C 
HETATM   22 CL1  UNL     1      -6.335  -0.966  14.720  1.00  0.00    -0.130 Cl
ENDBRANCH  19  21
ENDBRANCH  18  19
ENDBRANCH  17  18
ENDBRANCH  12  17
BRANCH  16  23
HETATM   23  O4  UNL     1      -2.171   2.829   9.451  1.00  0.00    -0.390 OA
ATOM     24  H4  UNL     1      -1.634   3.592   9.629  1.00  0.00     0.210 HD
ENDBRANCH  16  23
ENDBRANCH   9  10
ENDBRANCH   3   9
BRANCH   5  25
HETATM   25  O5  UNL     1      -5.048   0.909   5.711  1.00  0.00    -0.347 OA
BRANCH  25  26
HETATM   26  C18 UNL     1      -6.115   1.793   5.812  1.00  0.00     0.301 C 
HETATM   27  O6  UNL     1      -5.543   3.078   5.942  1.00  0.00    -0.285 OA
HETATM   28  C19 UNL     1      -5.054   3.707   4.823  1.00  0.00     0.292 C 
HETATM   29  O7  UNL     1      -3.967   4.359   4.781  1.00  0.00    -0.262 OA
HETATM   30  C20 UNL     1      -5.859   3.609   3.589  1.00  0.00     0.249 C 
HETATM   31  C21 UNL     1      -7.198   3.011   3.904  1.00  0.00     0.190 C 
HETATM   32  C22 UNL     1      -7.098   1.722   4.690  1.00  0.00     0.205 C 
BRANCH  30  33
HETATM   33  O8  UNL     1      -5.208   2.944   2.558  1.00  0.00    -0.383 OA
ATOM     34  H8  UNL     1      -5.699   2.940   1.744  1.00  0.00     0.210 HD
ENDBRANCH  30  33
BRANCH  31  35
HETATM   35  O9  UNL     1      -7.832   2.710   2.700  1.00  0.00    -0.390 OA
ATOM     36  H9  UNL     1      -8.762   2.867   2.808  1.00  0.00     0.210 HD
ENDBRANCH  31  35
BRANCH  32  37
HETATM   37  O10 UNL     1      -8.382   1.542   5.227  1.00  0.00    -0.388 OA
ATOM     38  H10 UNL     1      -9.019   1.600   4.524  1.00  0.00     0.210 HD
ENDBRANCH  32  37
ENDBRANCH  25  26
ENDBRANCH   5  25
BRANCH   1  39
HETATM   39  C2  UNL     1      -2.677  -3.549   6.901  1.00  0.00    -0.030 C 
HETATM   40  C1  UNL     1      -3.323  -4.562   6.417  1.00  0.00     0.007 C 
ENDBRANCH   1  39
BRANCH   6  41
HETATM   41  O11 UNL     1      -6.654  -1.214   6.546  1.00  0.00    -0.385 OA
ATOM     42  H11 UNL     1      -6.936  -2.111   6.681  1.00  0.00     0.210 HD
ENDBRANCH   6  41
BRANCH   8  43
HETATM   43  O12 UNL     1      -5.332  -1.897   8.657  1.00  0.00    -0.392 OA
ATOM     44  H12 UNL     1      -6.274  -2.010   8.630  1.00  0.00     0.210 HD
ENDBRANCH   8  43
TORSDOF 15
ENDMDL
