MODEL 1
REMARK VINA RESULT: -6.897466623      0.000      0.000
REMARK  7 active torsions:
REMARK  status: ('A' for Active; 'I' for Inactive)
REMARK    1  A    between atoms: N1_2  and  C1_4 
REMARK    2  A    between atoms: C2_7  and  C3_8 
REMARK    3  A    between atoms: C9_15  and  S1_16 
REMARK    4  A    between atoms: S1_16  and  C10_17 
REMARK    5  A    between atoms: C10_17  and  C11_18 
REMARK    6  A    between atoms: C11_18  and  N4_23 
REMARK    7  A    between atoms: N3_19  and  O4_21 
ROOT
HETATM    1  C1  UNL     1      69.762  39.298   1.198  1.00  0.00     0.216 A 
HETATM    2  N2  UNL     1      69.066  39.617   0.093  1.00  0.00    -0.318 N 
ATOM      3  H2  UNL     1      69.185  40.458  -0.472  1.00  0.00     0.169 HD
HETATM    4  C2  UNL     1      68.181  38.623  -0.135  1.00  0.00     0.131 A 
HETATM    5  O3  UNL     1      68.348  37.748   0.800  1.00  0.00    -0.286 OA
HETATM    6  C9  UNL     1      69.289  38.082   1.651  1.00  0.00     0.164 A 
ENDROOT
BRANCH   6   7
HETATM    7  S1  UNL     1      69.854  37.179   3.089  1.00  0.00    -0.093 SA
BRANCH   7   8
HETATM    8  C10 UNL     1      71.294  36.219   2.629  1.00  0.00     0.159 C 
BRANCH   8   9
HETATM    9  C11 UNL     1      71.136  35.475   1.360  1.00  0.00     0.109 C 
HETATM   10  N3  UNL     1      70.435  34.420   1.215  1.00  0.00    -0.256 N 
ATOM     11  H3  UNL     1      70.412  34.003   0.284  1.00  0.00     0.195 HD
BRANCH  10  12
HETATM   12  O4  UNL     1      69.715  33.796   2.191  1.00  0.00    -0.288 OA
ATOM     13  H4  UNL     1      69.610  32.857   2.294  1.00  0.00     0.244 HD
ENDBRANCH  10  12
BRANCH   9  14
HETATM   14  N4  UNL     1      71.825  35.985   0.220  1.00  0.00    -0.369 N 
HETATM   15  C12 UNL     1      73.255  36.091  -0.004  1.00  0.00     0.124 C 
HETATM   16  C13 UNL     1      73.358  37.541  -0.478  1.00  0.00     0.021 C 
HETATM   17  C14 UNL     1      72.081  37.720  -1.271  1.00  0.00     0.021 C 
HETATM   18  C15 UNL     1      71.216  36.520  -0.982  1.00  0.00     0.124 C 
ENDBRANCH   9  14
ENDBRANCH   8   9
ENDBRANCH   7   8
ENDBRANCH   6   7
BRANCH   1  19
HETATM   19  N1  UNL     1      70.804  40.068   1.804  1.00  0.00    -0.094 N 
HETATM   20  O1  UNL     1      71.673  40.581   1.074  1.00  0.00    -0.530 OA
HETATM   21  O2  UNL     1      70.852  40.245   3.160  1.00  0.00    -0.530 OA
ENDBRANCH   1  19
BRANCH   4  22
HETATM   22  C3  UNL     1      67.226  38.618  -1.278  1.00  0.00     0.061 C 
HETATM   23  C4  UNL     1      66.626  39.972  -1.466  1.00  0.00     0.013 C 
HETATM   24  C5  UNL     1      65.632  40.377  -0.426  1.00  0.00     0.001 C 
HETATM   25  C6  UNL     1      64.662  39.268  -0.147  1.00  0.00     0.000 C 
HETATM   26  C7  UNL     1      64.786  38.194  -1.192  1.00  0.00     0.001 C 
HETATM   27  C8  UNL     1      66.167  37.580  -1.141  1.00  0.00     0.013 C 
ENDBRANCH   4  22
TORSDOF 7
ENDMDL
MODEL 2
REMARK VINA RESULT: -6.687101378      2.396      3.164
REMARK  7 active torsions:
REMARK  status: ('A' for Active; 'I' for Inactive)
REMARK    1  A    between atoms: N1_2  and  C1_4 
REMARK    2  A    between atoms: C2_7  and  C3_8 
REMARK    3  A    between atoms: C9_15  and  S1_16 
REMARK    4  A    between atoms: S1_16  and  C10_17 
REMARK    5  A    between atoms: C10_17  and  C11_18 
REMARK    6  A    between atoms: C11_18  and  N4_23 
REMARK    7  A    between atoms: N3_19  and  O4_21 
ROOT
HETATM    1  C1  UNL     1      67.672  39.911  -0.665  1.00  0.00     0.216 A 
HETATM    2  N2  UNL     1      66.542  39.341  -1.117  1.00  0.00    -0.318 N 
ATOM      3  H2  UNL     1      65.841  39.782  -1.713  1.00  0.00     0.169 HD
HETATM    4  C2  UNL     1      66.501  38.078  -0.642  1.00  0.00     0.131 A 
HETATM    5  O3  UNL     1      67.569  37.907   0.065  1.00  0.00    -0.286 OA
HETATM    6  C9  UNL     1      68.334  38.973   0.103  1.00  0.00     0.164 A 
ENDROOT
BRANCH   6   7
HETATM    7  S1  UNL     1      69.894  39.188   0.952  1.00  0.00    -0.093 SA
BRANCH   7   8
HETATM    8  C10 UNL     1      69.811  38.328   2.521  1.00  0.00     0.159 C 
BRANCH   8   9
HETATM    9  C11 UNL     1      69.952  36.859   2.404  1.00  0.00     0.109 C 
HETATM   10  N3  UNL     1      68.984  36.031   2.415  1.00  0.00    -0.256 N 
ATOM     11  H3  UNL     1      69.219  35.042   2.327  1.00  0.00     0.195 HD
BRANCH  10  12
HETATM   12  O4  UNL     1      67.662  36.344   2.532  1.00  0.00    -0.288 OA
ATOM     13  H4  UNL     1      66.947  35.725   2.625  1.00  0.00     0.244 HD
ENDBRANCH  10  12
BRANCH   9  14
HETATM   14  N4  UNL     1      71.276  36.345   2.273  1.00  0.00    -0.369 N 
HETATM   15  C12 UNL     1      71.784  35.380   1.315  1.00  0.00     0.124 C 
HETATM   16  C13 UNL     1      72.525  34.422   2.248  1.00  0.00     0.021 C 
HETATM   17  C14 UNL     1      73.079  35.353   3.305  1.00  0.00     0.021 C 
HETATM   18  C15 UNL     1      72.416  36.691   3.098  1.00  0.00     0.124 C 
ENDBRANCH   9  14
ENDBRANCH   8   9
ENDBRANCH   7   8
ENDBRANCH   6   7
BRANCH   1  19
HETATM   19  N1  UNL     1      68.119  41.245  -0.924  1.00  0.00    -0.094 N 
HETATM   20  O1  UNL     1      67.359  42.195  -0.657  1.00  0.00    -0.530 OA
HETATM   21  O2  UNL     1      69.359  41.483  -1.453  1.00  0.00    -0.530 OA
ENDBRANCH   1  19
BRANCH   4  22
HETATM   22  C3  UNL     1      65.393  37.126  -0.930  1.00  0.00     0.061 C 
HETATM   23  C4  UNL     1      64.206  37.852  -1.471  1.00  0.00     0.013 C 
HETATM   24  C5  UNL     1      63.456  38.677  -0.476  1.00  0.00     0.001 C 
HETATM   25  C6  UNL     1      63.229  37.914   0.795  1.00  0.00     0.000 C 
HETATM   26  C7  UNL     1      63.555  36.461   0.594  1.00  0.00     0.001 C 
HETATM   27  C8  UNL     1      65.019  36.300   0.253  1.00  0.00     0.013 C 
ENDBRANCH   4  22
TORSDOF 7
ENDMDL
MODEL 3
REMARK VINA RESULT: -6.632878376      2.143      2.839
REMARK  7 active torsions:
REMARK  status: ('A' for Active; 'I' for Inactive)
REMARK    1  A    between atoms: N1_2  and  C1_4 
REMARK    2  A    between atoms: C2_7  and  C3_8 
REMARK    3  A    between atoms: C9_15  and  S1_16 
REMARK    4  A    between atoms: S1_16  and  C10_17 
REMARK    5  A    between atoms: C10_17  and  C11_18 
REMARK    6  A    between atoms: C11_18  and  N4_23 
REMARK    7  A    between atoms: N3_19  and  O4_21 
ROOT
HETATM    1  C1  UNL     1      67.594  39.991  -0.769  1.00  0.00     0.216 A 
HETATM    2  N2  UNL     1      66.490  39.350  -1.194  1.00  0.00    -0.318 N 
ATOM      3  H2  UNL     1      65.782  39.725  -1.824  1.00  0.00     0.169 HD
HETATM    4  C2  UNL     1      66.490  38.121  -0.636  1.00  0.00     0.131 A 
HETATM    5  O3  UNL     1      67.555  38.037   0.092  1.00  0.00    -0.286 OA
HETATM    6  C9  UNL     1      68.280  39.131   0.065  1.00  0.00     0.164 A 
ENDROOT
BRANCH   6   7
HETATM    7  S1  UNL     1      69.820  39.459   0.914  1.00  0.00    -0.093 SA
BRANCH   7   8
HETATM    8  C10 UNL     1      69.909  38.407   2.360  1.00  0.00     0.159 C 
BRANCH   8   9
HETATM    9  C11 UNL     1      70.042  36.968   2.043  1.00  0.00     0.109 C 
HETATM   10  N3  UNL     1      69.110  36.106   2.157  1.00  0.00    -0.256 N 
ATOM     11  H3  UNL     1      69.336  35.144   1.906  1.00  0.00     0.195 HD
BRANCH  10  12
HETATM   12  O4  UNL     1      67.839  36.353   2.584  1.00  0.00    -0.288 OA
ATOM     13  H4  UNL     1      67.195  36.892   2.138  1.00  0.00     0.244 HD
ENDBRANCH  10  12
BRANCH   9  14
HETATM   14  N4  UNL     1      71.316  36.523   1.580  1.00  0.00    -0.369 N 
HETATM   15  C12 UNL     1      72.608  36.631   2.231  1.00  0.00     0.124 C 
HETATM   16  C13 UNL     1      73.452  37.197   1.088  1.00  0.00     0.021 C 
HETATM   17  C14 UNL     1      72.861  36.516  -0.127  1.00  0.00     0.021 C 
HETATM   18  C15 UNL     1      71.584  35.852   0.323  1.00  0.00     0.124 C 
ENDBRANCH   9  14
ENDBRANCH   8   9
ENDBRANCH   7   8
ENDBRANCH   6   7
BRANCH   1  19
HETATM   19  N1  UNL     1      67.995  41.321  -1.112  1.00  0.00    -0.094 N 
HETATM   20  O1  UNL     1      67.170  42.247  -0.991  1.00  0.00    -0.530 OA
HETATM   21  O2  UNL     1      69.260  41.580  -1.564  1.00  0.00    -0.530 OA
ENDBRANCH   1  19
BRANCH   4  22
HETATM   22  C3  UNL     1      65.421  37.112  -0.871  1.00  0.00     0.061 C 
HETATM   23  C4  UNL     1      64.202  37.761  -1.439  1.00  0.00     0.013 C 
HETATM   24  C5  UNL     1      63.424  38.602  -0.480  1.00  0.00     0.001 C 
HETATM   25  C6  UNL     1      63.233  37.893   0.827  1.00  0.00     0.000 C 
HETATM   26  C7  UNL     1      63.618  36.446   0.695  1.00  0.00     0.001 C 
HETATM   27  C8  UNL     1      65.086  36.330   0.353  1.00  0.00     0.013 C 
ENDBRANCH   4  22
TORSDOF 7
ENDMDL
MODEL 4
REMARK VINA RESULT: -6.454934628      1.916      2.757
REMARK  7 active torsions:
REMARK  status: ('A' for Active; 'I' for Inactive)
REMARK    1  A    between atoms: N1_2  and  C1_4 
REMARK    2  A    between atoms: C2_7  and  C3_8 
REMARK    3  A    between atoms: C9_15  and  S1_16 
REMARK    4  A    between atoms: S1_16  and  C10_17 
REMARK    5  A    between atoms: C10_17  and  C11_18 
REMARK    6  A    between atoms: C11_18  and  N4_23 
REMARK    7  A    between atoms: N3_19  and  O4_21 
ROOT
HETATM    1  C1  UNL     1      70.178  37.402  -0.219  1.00  0.00     0.216 A 
HETATM    2  N2  UNL     1      69.233  37.619  -1.150  1.00  0.00    -0.318 N 
ATOM      3  H2  UNL     1      69.289  37.367  -2.136  1.00  0.00     0.169 HD
HETATM    4  C2  UNL     1      68.194  38.232  -0.543  1.00  0.00     0.131 A 
HETATM    5  O3  UNL     1      68.513  38.371   0.701  1.00  0.00    -0.286 OA
HETATM    6  C9  UNL     1      69.703  37.893   0.981  1.00  0.00     0.164 A 
ENDROOT
BRANCH   6   7
HETATM    7  S1  UNL     1      70.544  37.870   2.559  1.00  0.00    -0.093 SA
BRANCH   7   8
HETATM    8  C10 UNL     1      70.296  36.266   3.315  1.00  0.00     0.159 C 
BRANCH   8   9
HETATM    9  C11 UNL     1      71.193  35.213   2.789  1.00  0.00     0.109 C 
HETATM   10  N3  UNL     1      70.807  34.167   2.172  1.00  0.00    -0.256 N 
ATOM     11  H3  UNL     1      71.531  33.519   1.862  1.00  0.00     0.195 HD
BRANCH  10  12
HETATM   12  O4  UNL     1      69.516  33.836   1.886  1.00  0.00    -0.288 OA
ATOM     13  H4  UNL     1      69.037  33.096   2.243  1.00  0.00     0.244 HD
ENDBRANCH  10  12
BRANCH   9  14
HETATM   14  N4  UNL     1      72.593  35.393   2.998  1.00  0.00    -0.369 N 
HETATM   15  C12 UNL     1      73.273  35.968   4.144  1.00  0.00     0.124 C 
HETATM   16  C13 UNL     1      74.218  36.947   3.446  1.00  0.00     0.021 C 
HETATM   17  C14 UNL     1      74.584  36.205   2.179  1.00  0.00     0.021 C 
HETATM   18  C15 UNL     1      73.651  35.026   2.078  1.00  0.00     0.124 C 
ENDBRANCH   9  14
ENDBRANCH   8   9
ENDBRANCH   7   8
ENDBRANCH   6   7
BRANCH   1  19
HETATM   19  N1  UNL     1      71.449  36.777  -0.422  1.00  0.00    -0.094 N 
HETATM   20  O1  UNL     1      71.491  35.544  -0.593  1.00  0.00    -0.530 OA
HETATM   21  O2  UNL     1      72.603  37.513  -0.431  1.00  0.00    -0.530 OA
ENDBRANCH   1  19
BRANCH   4  22
HETATM   22  C3  UNL     1      66.949  38.637  -1.253  1.00  0.00     0.061 C 
HETATM   23  C4  UNL     1      67.137  39.953  -1.932  1.00  0.00     0.013 C 
HETATM   24  C5  UNL     1      67.196  41.136  -1.022  1.00  0.00     0.001 C 
HETATM   25  C6  UNL     1      66.102  41.083   0.003  1.00  0.00     0.000 C 
HETATM   26  C7  UNL     1      65.099  40.025  -0.363  1.00  0.00     0.001 C 
HETATM   27  C8  UNL     1      65.757  38.664  -0.359  1.00  0.00     0.013 C 
ENDBRANCH   4  22
TORSDOF 7
ENDMDL
MODEL 5
REMARK VINA RESULT: -6.431415137      2.430      3.576
REMARK  7 active torsions:
REMARK  status: ('A' for Active; 'I' for Inactive)
REMARK    1  A    between atoms: N1_2  and  C1_4 
REMARK    2  A    between atoms: C2_7  and  C3_8 
REMARK    3  A    between atoms: C9_15  and  S1_16 
REMARK    4  A    between atoms: S1_16  and  C10_17 
REMARK    5  A    between atoms: C10_17  and  C11_18 
REMARK    6  A    between atoms: C11_18  and  N4_23 
REMARK    7  A    between atoms: N3_19  and  O4_21 
ROOT
HETATM    1  C1  UNL     1      70.087  37.376  -0.132  1.00  0.00     0.216 A 
HETATM    2  N2  UNL     1      69.003  37.535  -0.911  1.00  0.00    -0.318 N 
ATOM      3  H2  UNL     1      68.598  36.833  -1.530  1.00  0.00     0.169 HD
HETATM    4  C2  UNL     1      68.547  38.793  -0.727  1.00  0.00     0.131 A 
HETATM    5  O3  UNL     1      69.332  39.357   0.131  1.00  0.00    -0.286 OA
HETATM    6  C9  UNL     1      70.294  38.564   0.542  1.00  0.00     0.164 A 
ENDROOT
BRANCH   6   7
HETATM    7  S1  UNL     1      71.597  38.920   1.715  1.00  0.00    -0.093 SA
BRANCH   7   8
HETATM    8  C10 UNL     1      71.010  38.519   3.358  1.00  0.00     0.159 C 
BRANCH   8   9
HETATM    9  C11 UNL     1      71.064  37.075   3.676  1.00  0.00     0.109 C 
HETATM   10  N3  UNL     1      70.106  36.253   3.498  1.00  0.00    -0.256 N 
ATOM     11  H3  UNL     1      70.275  35.281   3.761  1.00  0.00     0.195 HD
BRANCH  10  12
HETATM   12  O4  UNL     1      68.876  36.552   2.990  1.00  0.00    -0.288 OA
ATOM     13  H4  UNL     1      68.408  36.053   2.331  1.00  0.00     0.244 HD
ENDBRANCH  10  12
BRANCH   9  14
HETATM   14  N4  UNL     1      72.283  36.578   4.223  1.00  0.00    -0.369 N 
HETATM   15  C12 UNL     1      72.876  36.853   5.519  1.00  0.00     0.124 C 
HETATM   16  C13 UNL     1      74.308  37.193   5.106  1.00  0.00     0.021 C 
HETATM   17  C14 UNL     1      74.546  36.259   3.938  1.00  0.00     0.021 C 
HETATM   18  C15 UNL     1      73.208  35.669   3.573  1.00  0.00     0.124 C 
ENDBRANCH   9  14
ENDBRANCH   8   9
ENDBRANCH   7   8
ENDBRANCH   6   7
BRANCH   1  19
HETATM   19  N1  UNL     1      70.888  36.197  -0.013  1.00  0.00    -0.094 N 
HETATM   20  O1  UNL     1      70.614  35.372   0.879  1.00  0.00    -0.530 OA
HETATM   21  O2  UNL     1      71.938  35.970  -0.861  1.00  0.00    -0.530 OA
ENDBRANCH   1  19
BRANCH   4  22
HETATM   22  C3  UNL     1      67.353  39.345  -1.424  1.00  0.00     0.061 C 
HETATM   23  C4  UNL     1      67.596  40.757  -1.843  1.00  0.00     0.013 C 
HETATM   24  C5  UNL     1      67.612  41.757  -0.733  1.00  0.00     0.001 C 
HETATM   25  C6  UNL     1      66.457  41.545   0.200  1.00  0.00     0.000 C 
HETATM   26  C7  UNL     1      65.467  40.591  -0.408  1.00  0.00     0.001 C 
HETATM   27  C8  UNL     1      66.109  39.237  -0.611  1.00  0.00     0.013 C 
ENDBRANCH   4  22
TORSDOF 7
ENDMDL
