MODEL 1
REMARK VINA RESULT: -5.357884571      0.000      0.000
REMARK  2 active torsions:
REMARK  status: ('A' for Active; 'I' for Inactive)
REMARK    1  A    between atoms: N1_1  and  C1_4 
REMARK    2  A    between atoms: N3_9  and  C4_11 
ROOT
HETATM    1  C1  UNL     1       4.086  14.491  19.362  1.00  0.00     0.690 A 
HETATM    2  N2  UNL     1       4.166  13.377  18.614  1.00  0.00    -0.197 N 
ATOM      3  H2  UNL     1       3.734  13.358  17.690  1.00  0.00     0.183 HD
HETATM    4  C2  UNL     1       4.820  12.271  19.075  1.00  0.00     0.156 A 
HETATM    5  C3  UNL     1       5.409  12.277  20.321  1.00  0.00     0.138 A 
HETATM    6  N3  UNL     1       6.031  11.237  20.770  1.00  0.00    -0.325 N 
ATOM      7  H3  UNL     1       6.453  11.290  21.698  1.00  0.00     0.169 HD
HETATM    8  N6  UNL     1       5.309  13.408  21.041  1.00  0.00    -0.270 N 
ATOM      9  H6  UNL     1       5.735  13.446  21.967  1.00  0.00     0.189 HD
HETATM   10  N7  UNL     1       4.667  14.480  20.577  1.00  0.00    -0.131 N 
ATOM     11  H7  UNL     1       4.616  15.316  21.158  1.00  0.00     0.205 HD
ENDROOT
BRANCH   6  12
HETATM   12  C4  UNL     1       6.158  10.035  20.048  1.00  0.00     0.122 A 
HETATM   13  C5  UNL     1       5.397   8.900  20.232  1.00  0.00     0.068 A 
HETATM   14  C6  UNL     1       5.865   7.988  19.318  1.00  0.00     0.111 A 
HETATM   15  N4  UNL     1       6.862   8.564  18.623  1.00  0.00    -0.310 N 
HETATM   16  N5  UNL     1       7.036   9.790  19.062  1.00  0.00    -0.286 N 
ATOM     17  H4  UNL     1       7.397   8.120  17.876  1.00  0.00     0.186 HD
ATOM     18  H5  UNL     1       7.729  10.451  18.710  1.00  0.00     0.188 HD
ENDBRANCH   6  12
BRANCH   1  19
HETATM   19  N1  UNL     1       3.473  15.554  18.949  1.00  0.00    -0.233 N 
ATOM     20  H12 UNL     1       3.897  16.137  18.227  1.00  0.00     0.174 HD
ATOM     21  H11 UNL     1       2.568  15.839  19.323  1.00  0.00     0.174 HD
ENDBRANCH   1  19
TORSDOF 2
ENDMDL
MODEL 2
REMARK VINA RESULT: -5.288393726      0.914      1.019
REMARK  2 active torsions:
REMARK  status: ('A' for Active; 'I' for Inactive)
REMARK    1  A    between atoms: N1_1  and  C1_4 
REMARK    2  A    between atoms: N3_9  and  C4_11 
ROOT
HETATM    1  C1  UNL     1       4.135  14.467  19.340  1.00  0.00     0.690 A 
HETATM    2  N2  UNL     1       4.177  13.345  18.602  1.00  0.00    -0.197 N 
ATOM      3  H2  UNL     1       3.753  13.336  17.674  1.00  0.00     0.183 HD
HETATM    4  C2  UNL     1       4.782  12.218  19.078  1.00  0.00     0.156 A 
HETATM    5  C3  UNL     1       5.360  12.211  20.330  1.00  0.00     0.138 A 
HETATM    6  N3  UNL     1       5.935  11.150  20.793  1.00  0.00    -0.325 N 
ATOM      7  H3  UNL     1       6.350  11.194  21.724  1.00  0.00     0.169 HD
HETATM    8  N6  UNL     1       5.298  13.351  21.039  1.00  0.00    -0.270 N 
ATOM      9  H6  UNL     1       5.717  13.380  21.968  1.00  0.00     0.189 HD
HETATM   10  N7  UNL     1       4.705  14.444  20.560  1.00  0.00    -0.131 N 
ATOM     11  H7  UNL     1       4.681  15.286  21.135  1.00  0.00     0.205 HD
ENDROOT
BRANCH   6  12
HETATM   12  C4  UNL     1       6.020   9.938  20.082  1.00  0.00     0.122 A 
HETATM   13  C5  UNL     1       7.015   9.595  19.192  1.00  0.00     0.068 A 
HETATM   14  C6  UNL     1       6.694   8.337  18.744  1.00  0.00     0.111 A 
HETATM   15  N4  UNL     1       5.554   7.955  19.346  1.00  0.00    -0.310 N 
HETATM   16  N5  UNL     1       5.152   8.916  20.148  1.00  0.00    -0.286 N 
ATOM     17  H4  UNL     1       5.078   7.064  19.205  1.00  0.00     0.186 HD
ATOM     18  H5  UNL     1       4.312   8.890  20.728  1.00  0.00     0.188 HD
ENDBRANCH   6  12
BRANCH   1  19
HETATM   19  N1  UNL     1       3.569  15.551  18.913  1.00  0.00    -0.233 N 
ATOM     20  H12 UNL     1       3.997  16.082  18.155  1.00  0.00     0.174 HD
ATOM     21  H11 UNL     1       2.698  15.902  19.311  1.00  0.00     0.174 HD
ENDBRANCH   1  19
TORSDOF 2
ENDMDL
MODEL 3
REMARK VINA RESULT: -4.955105974      6.240      8.038
REMARK  2 active torsions:
REMARK  status: ('A' for Active; 'I' for Inactive)
REMARK    1  A    between atoms: N1_1  and  C1_4 
REMARK    2  A    between atoms: N3_9  and  C4_11 
ROOT
HETATM    1  C1  UNL     1       1.124  15.681  12.787  1.00  0.00     0.690 A 
HETATM    2  N2  UNL     1       1.170  16.605  13.762  1.00  0.00    -0.197 N 
ATOM      3  H2  UNL     1       1.198  17.595  13.517  1.00  0.00     0.183 HD
HETATM    4  C2  UNL     1       1.180  16.235  15.076  1.00  0.00     0.156 A 
HETATM    5  C3  UNL     1       1.144  14.902  15.426  1.00  0.00     0.138 A 
HETATM    6  N3  UNL     1       1.154  14.537  16.666  1.00  0.00    -0.325 N 
ATOM      7  H3  UNL     1       1.124  13.540  16.876  1.00  0.00     0.169 HD
HETATM    8  N6  UNL     1       1.098  14.007  14.425  1.00  0.00    -0.270 N 
ATOM      9  H6  UNL     1       1.069  13.012  14.649  1.00  0.00     0.189 HD
HETATM   10  N7  UNL     1       1.089  14.384  13.146  1.00  0.00    -0.131 N 
ATOM     11  H7  UNL     1       1.054  13.669  12.420  1.00  0.00     0.205 HD
ENDROOT
BRANCH   6  12
HETATM   12  C4  UNL     1       1.202  15.444  17.742  1.00  0.00     0.122 A 
HETATM   13  C5  UNL     1       2.327  15.779  18.464  1.00  0.00     0.068 A 
HETATM   14  C6  UNL     1       1.908  16.687  19.405  1.00  0.00     0.111 A 
HETATM   15  N4  UNL     1       0.587  16.878  19.244  1.00  0.00    -0.310 N 
HETATM   16  N5  UNL     1       0.165  16.133  18.247  1.00  0.00    -0.286 N 
ATOM     17  H4  UNL     1       0.006  17.502  19.804  1.00  0.00     0.186 HD
ATOM     18  H5  UNL     1      -0.797  16.085  17.910  1.00  0.00     0.188 HD
ENDBRANCH   6  12
BRANCH   1  19
HETATM   19  N1  UNL     1       1.112  16.004  11.533  1.00  0.00    -0.233 N 
ATOM     20  H12 UNL     1       0.223  16.111  11.044  1.00  0.00     0.174 HD
ATOM     21  H11 UNL     1       1.970  16.159  11.004  1.00  0.00     0.174 HD
ENDBRANCH   1  19
TORSDOF 2
ENDMDL
MODEL 4
REMARK VINA RESULT: -4.927252116      1.393      5.299
REMARK  2 active torsions:
REMARK  status: ('A' for Active; 'I' for Inactive)
REMARK    1  A    between atoms: N1_1  and  C1_4 
REMARK    2  A    between atoms: N3_9  and  C4_11 
ROOT
HETATM    1  C1  UNL     1       5.668   9.650  20.624  1.00  0.00     0.690 A 
HETATM    2  N2  UNL     1       4.472  10.251  20.504  1.00  0.00    -0.197 N 
ATOM      3  H2  UNL     1       3.619   9.703  20.620  1.00  0.00     0.183 HD
HETATM    4  C2  UNL     1       4.384  11.585  20.228  1.00  0.00     0.156 A 
HETATM    5  C3  UNL     1       5.526  12.341  20.067  1.00  0.00     0.138 A 
HETATM    6  N3  UNL     1       5.457  13.605  19.806  1.00  0.00    -0.325 N 
ATOM      7  H3  UNL     1       6.329  14.123  19.696  1.00  0.00     0.169 HD
HETATM    8  N6  UNL     1       6.704  11.707  20.195  1.00  0.00    -0.270 N 
ATOM      9  H6  UNL     1       7.568  12.237  20.083  1.00  0.00     0.189 HD
HETATM   10  N7  UNL     1       6.773  10.403  20.464  1.00  0.00    -0.131 N 
ATOM     11  H7  UNL     1       7.689   9.964  20.552  1.00  0.00     0.205 HD
ENDROOT
BRANCH   6  12
HETATM   12  C4  UNL     1       4.244  14.305  19.664  1.00  0.00     0.122 A 
HETATM   13  C5  UNL     1       3.573  14.965  20.671  1.00  0.00     0.068 A 
HETATM   14  C6  UNL     1       2.452  15.497  20.082  1.00  0.00     0.111 A 
HETATM   15  N4  UNL     1       2.463  15.162  18.780  1.00  0.00    -0.310 N 
HETATM   16  N5  UNL     1       3.538  14.448  18.531  1.00  0.00    -0.286 N 
ATOM     17  H4  UNL     1       1.752  15.421  18.096  1.00  0.00     0.186 HD
ATOM     18  H5  UNL     1       3.794  14.063  17.621  1.00  0.00     0.188 HD
ENDBRANCH   6  12
BRANCH   1  19
HETATM   19  N1  UNL     1       5.781   8.387  20.886  1.00  0.00    -0.233 N 
ATOM     20  H12 UNL     1       4.963   7.781  20.826  1.00  0.00     0.174 HD
ATOM     21  H11 UNL     1       6.670   7.965  21.155  1.00  0.00     0.174 HD
ENDBRANCH   1  19
TORSDOF 2
ENDMDL
MODEL 5
REMARK VINA RESULT: -4.926916718      6.838      7.877
REMARK  2 active torsions:
REMARK  status: ('A' for Active; 'I' for Inactive)
REMARK    1  A    between atoms: N1_1  and  C1_4 
REMARK    2  A    between atoms: N3_9  and  C4_11 
ROOT
HETATM    1  C1  UNL     1       1.256  16.652  18.165  1.00  0.00     0.690 A 
HETATM    2  N2  UNL     1       1.727  17.074  16.979  1.00  0.00    -0.197 N 
ATOM      3  H2  UNL     1       2.212  17.969  16.920  1.00  0.00     0.183 HD
HETATM    4  C2  UNL     1       1.567  16.319  15.854  1.00  0.00     0.156 A 
HETATM    5  C3  UNL     1       0.914  15.106  15.914  1.00  0.00     0.138 A 
HETATM    6  N3  UNL     1       0.754  14.380  14.856  1.00  0.00    -0.325 N 
ATOM      7  H3  UNL     1       0.266  13.490  14.951  1.00  0.00     0.169 HD
HETATM    8  N6  UNL     1       0.456  14.715  17.116  1.00  0.00    -0.270 N 
ATOM      9  H6  UNL     1      -0.030  13.823  17.196  1.00  0.00     0.189 HD
HETATM   10  N7  UNL     1       0.621  15.464  18.206  1.00  0.00    -0.131 N 
ATOM     11  H7  UNL     1       0.256  15.128  19.097  1.00  0.00     0.205 HD
ENDROOT
BRANCH   6  12
HETATM   12  C4  UNL     1       1.219  14.754  13.581  1.00  0.00     0.122 A 
HETATM   13  C5  UNL     1       2.260  14.163  12.898  1.00  0.00     0.068 A 
HETATM   14  C6  UNL     1       2.358  14.845  11.709  1.00  0.00     0.111 A 
HETATM   15  N4  UNL     1       1.411  15.799  11.694  1.00  0.00    -0.310 N 
HETATM   16  N5  UNL     1       0.729  15.743  12.816  1.00  0.00    -0.286 N 
ATOM     17  H4  UNL     1       1.248  16.459  10.934  1.00  0.00     0.186 HD
ATOM     18  H5  UNL     1      -0.048  16.355  13.066  1.00  0.00     0.188 HD
ENDBRANCH   6  12
BRANCH   1  19
HETATM   19  N1  UNL     1       1.395  17.347  19.248  1.00  0.00    -0.233 N 
ATOM     20  H12 UNL     1       1.455  16.875  20.150  1.00  0.00     0.174 HD
ATOM     21  H11 UNL     1       1.450  18.365  19.237  1.00  0.00     0.174 HD
ENDBRANCH   1  19
TORSDOF 2
ENDMDL
