MODEL 1
REMARK VINA RESULT: -6.493880025      0.000      0.000
REMARK  15 active torsions:
REMARK  status: ('A' for Active; 'I' for Inactive)
REMARK    1  A    between atoms: O1_2  and  C2_3 
REMARK    2  A    between atoms: C2_3  and  O2_4 
REMARK    3  A    between atoms: C2_3  and  C3_6 
REMARK    4  A    between atoms: C5_8  and  C6_9 
REMARK    5  A    between atoms: C9_17  and  O5_18 
REMARK    6  A    between atoms: N2_20  and  C10_21 
REMARK    7  A    between atoms: C10_21  and  C11_22 
REMARK    8  A    between atoms: C11_22  and  C12_23 
REMARK    9  A    between atoms: C12_23  and  O7_25 
REMARK   10  A    between atoms: O7_25  and  C13_26 
REMARK   11  A    between atoms: C16_29  and  O8_30 
REMARK   12  A    between atoms: C17_32  and  C18_33 
REMARK   13  A    between atoms: C19_35  and  O10_36 
REMARK   14  A    between atoms: C19_35  and  C20_38 
REMARK   15  A    between atoms: C24_45  and  C25_46 
ROOT
HETATM    1  C3  UNL     1      25.219  -9.796 -11.924  1.00  0.00     0.101 C 
HETATM    2  C4  UNL     1      26.220  -8.994 -11.725  1.00  0.00     0.020 C 
HETATM    3  C5  UNL     1      26.150  -7.581 -12.242  1.00  0.00     0.019 C 
HETATM    4  C17 UNL     1      26.584  -6.755 -11.298  1.00  0.00     0.066 C 
HETATM    5  C19 UNL     1      26.991  -7.260  -9.923  1.00  0.00     0.288 C 
HETATM    6  O13 UNL     1      27.171  -8.554  -9.720  1.00  0.00    -0.328 OA
HETATM    7  C21 UNL     1      27.429  -9.303 -10.870  1.00  0.00     0.193 C 
HETATM    8  C22 UNL     1      27.571 -10.721 -10.569  1.00  0.00    -0.022 C 
HETATM    9  C23 UNL     1      28.893 -11.180 -10.025  1.00  0.00     0.049 C 
HETATM   10  C24 UNL     1      26.588 -11.556 -10.779  1.00  0.00     0.079 C 
HETATM   11  N3  UNL     1      25.392 -11.168 -11.434  1.00  0.00    -0.350 N 
ATOM     12  H3  UNL     1      24.644 -11.849 -11.567  1.00  0.00     0.166 HD
ENDROOT
BRANCH   3  13
HETATM   13  C6  UNL     1      25.943  -7.358 -13.646  1.00  0.00     0.070 C 
HETATM   14  N1  UNL     1      26.563  -8.204 -14.455  1.00  0.00    -0.279 N 
HETATM   15  S1  UNL     1      26.266  -7.845 -16.064  1.00  0.00     0.268 S 
ATOM     16  H1  UNL     1      27.147  -8.977 -14.137  1.00  0.00     0.179 HD
HETATM   17  O3  UNL     1      25.692  -8.989 -16.847  1.00  0.00    -0.200 OA
HETATM   18  O4  UNL     1      27.425  -7.220 -16.786  1.00  0.00    -0.200 OA
HETATM   19  C7  UNL     1      25.024  -6.635 -15.743  1.00  0.00     0.147 A 
HETATM   20  C8  UNL     1      25.052  -6.471 -14.373  1.00  0.00     0.071 A 
HETATM   21  C16 UNL     1      24.070  -5.893 -16.371  1.00  0.00     0.169 A 
HETATM   22  C9  UNL     1      23.994  -5.544 -14.215  1.00  0.00     0.158 A 
HETATM   23  N2  UNL     1      23.447  -5.226 -15.410  1.00  0.00    -0.306 N 
BRANCH  22  24
HETATM   24  O5  UNL     1      23.476  -4.974 -13.073  1.00  0.00    -0.345 OA
ATOM     25  H5  UNL     1      23.007  -4.156 -12.955  1.00  0.00     0.219 HD
ENDBRANCH  22  24
BRANCH  23  26
HETATM   26  C10 UNL     1      22.328  -4.283 -15.601  1.00  0.00     0.143 C 
BRANCH  26  27
HETATM   27  C11 UNL     1      22.878  -2.979 -16.140  1.00  0.00     0.131 C 
BRANCH  27  28
HETATM   28  C12 UNL     1      22.283  -2.633 -17.446  1.00  0.00     0.260 C 
HETATM   29  O6  UNL     1      22.506  -3.375 -18.430  1.00  0.00    -0.265 OA
BRANCH  28  30
HETATM   30  O7  UNL     1      21.491  -1.518 -17.615  1.00  0.00    -0.317 OA
BRANCH  30  31
HETATM   31  C13 UNL     1      20.395  -1.519 -18.522  1.00  0.00     0.123 C 
HETATM   32  C14 UNL     1      20.762  -0.630 -19.683  1.00  0.00     0.040 C 
HETATM   33  C15 UNL     1      19.134  -0.986 -17.898  1.00  0.00     0.040 C 
ENDBRANCH  30  31
ENDBRANCH  28  30
ENDBRANCH  27  28
ENDBRANCH  26  27
ENDBRANCH  23  26
BRANCH  21  34
HETATM   34  O8  UNL     1      23.831  -5.868 -17.746  1.00  0.00    -0.345 OA
ATOM     35  H8  UNL     1      22.981  -5.946 -18.163  1.00  0.00     0.219 HD
ENDBRANCH  21  34
ENDBRANCH   3  13
BRANCH   4  36
HETATM   36  C18 UNL     1      26.699  -5.338 -11.460  1.00  0.00     0.272 C 
HETATM   37  O9  UNL     1      25.696  -4.571 -11.337  1.00  0.00    -0.302 OA
ENDBRANCH   4  36
BRANCH   1  38
HETATM   38  C2  UNL     1      23.997  -9.468 -12.566  1.00  0.00     0.206 C 
BRANCH  38  39
HETATM   39  O1  UNL     1      22.851  -8.885 -12.215  1.00  0.00    -0.334 OA
HETATM   40  C1  UNL     1      22.703  -7.836 -11.261  1.00  0.00     0.212 C 
ENDBRANCH  38  39
BRANCH  38  41
HETATM   41  O2  UNL     1      23.940  -9.841 -13.824  1.00  0.00    -0.339 OA
ATOM     42  H2  UNL     1      24.723 -10.329 -14.052  1.00  0.00     0.220 HD
ENDBRANCH  38  41
ENDBRANCH   1  38
BRANCH   5  43
HETATM   43  O10 UNL     1      28.144  -6.492  -9.616  1.00  0.00    -0.353 OA
ATOM     44  H10 UNL     1      28.312  -6.700  -8.705  1.00  0.00     0.214 HD
ENDBRANCH   5  43
BRANCH   5  45
HETATM   45  C20 UNL     1      25.946  -6.794  -8.936  1.00  0.00     0.244 C 
HETATM   46  O11 UNL     1      24.905  -7.453  -8.719  1.00  0.00    -0.644 OA
HETATM   47  O12 UNL     1      26.147  -5.620  -8.262  1.00  0.00    -0.644 OA
ENDBRANCH   5  45
BRANCH  10  48
HETATM   48  C25 UNL     1      26.688 -13.023 -10.470  1.00  0.00     0.403 C 
HETATM   49  F1  UNL     1      26.523 -13.854 -11.521  1.00  0.00    -0.207 F 
HETATM   50  F2  UNL     1      25.648 -13.297  -9.570  1.00  0.00    -0.207 F 
ENDBRANCH  10  48
TORSDOF 15
ENDMDL
MODEL 2
REMARK VINA RESULT: -6.339090981      6.171      8.953
REMARK  15 active torsions:
REMARK  status: ('A' for Active; 'I' for Inactive)
REMARK    1  A    between atoms: O1_2  and  C2_3 
REMARK    2  A    between atoms: C2_3  and  O2_4 
REMARK    3  A    between atoms: C2_3  and  C3_6 
REMARK    4  A    between atoms: C5_8  and  C6_9 
REMARK    5  A    between atoms: C9_17  and  O5_18 
REMARK    6  A    between atoms: N2_20  and  C10_21 
REMARK    7  A    between atoms: C10_21  and  C11_22 
REMARK    8  A    between atoms: C11_22  and  C12_23 
REMARK    9  A    between atoms: C12_23  and  O7_25 
REMARK   10  A    between atoms: O7_25  and  C13_26 
REMARK   11  A    between atoms: C16_29  and  O8_30 
REMARK   12  A    between atoms: C17_32  and  C18_33 
REMARK   13  A    between atoms: C19_35  and  O10_36 
REMARK   14  A    between atoms: C19_35  and  C20_38 
REMARK   15  A    between atoms: C24_45  and  C25_46 
ROOT
HETATM    1  C3  UNL     1      22.947 -10.275 -20.756  1.00  0.00     0.101 C 
HETATM    2  C4  UNL     1      22.767 -11.378 -20.096  1.00  0.00     0.020 C 
HETATM    3  C5  UNL     1      22.459 -11.316 -18.622  1.00  0.00     0.019 C 
HETATM    4  C17 UNL     1      21.468 -12.157 -18.353  1.00  0.00     0.066 C 
HETATM    5  C19 UNL     1      20.778 -12.952 -19.450  1.00  0.00     0.288 C 
HETATM    6  O13 UNL     1      21.317 -13.021 -20.656  1.00  0.00    -0.328 OA
HETATM    7  C21 UNL     1      22.687 -12.758 -20.708  1.00  0.00     0.193 C 
HETATM    8  C22 UNL     1      23.194 -12.810 -22.072  1.00  0.00    -0.022 C 
HETATM    9  C23 UNL     1      23.475 -14.167 -22.650  1.00  0.00     0.049 C 
HETATM   10  C24 UNL     1      23.407 -11.716 -22.754  1.00  0.00     0.079 C 
HETATM   11  N3  UNL     1      23.294 -10.428 -22.173  1.00  0.00    -0.350 N 
ATOM     12  H3  UNL     1      23.456  -9.599 -22.745  1.00  0.00     0.166 HD
ENDROOT
BRANCH   3  13
HETATM   13  C6  UNL     1      23.383 -10.660 -17.740  1.00  0.00     0.070 C 
HETATM   14  N1  UNL     1      24.626 -11.117 -17.775  1.00  0.00    -0.279 N 
HETATM   15  S1  UNL     1      25.615 -10.295 -16.701  1.00  0.00     0.268 S 
ATOM     16  H1  UNL     1      24.941 -11.874 -18.381  1.00  0.00     0.179 HD
HETATM   17  O3  UNL     1      26.825  -9.679 -17.337  1.00  0.00    -0.200 OA
HETATM   18  O4  UNL     1      25.984 -11.076 -15.473  1.00  0.00    -0.200 OA
HETATM   19  C7  UNL     1      24.431  -9.051 -16.298  1.00  0.00     0.147 A 
HETATM   20  C8  UNL     1      23.269  -9.472 -16.912  1.00  0.00     0.071 A 
HETATM   21  C16 UNL     1      24.317  -7.855 -15.657  1.00  0.00     0.169 A 
HETATM   22  C9  UNL     1      22.414  -8.392 -16.587  1.00  0.00     0.158 A 
HETATM   23  N2  UNL     1      23.063  -7.467 -15.846  1.00  0.00    -0.306 N 
BRANCH  22  24
HETATM   24  O5  UNL     1      21.096  -8.172 -16.920  1.00  0.00    -0.345 OA
ATOM     25  H5  UNL     1      20.463  -8.751 -17.330  1.00  0.00     0.219 HD
ENDBRANCH  22  24
BRANCH  23  26
HETATM   26  C10 UNL     1      22.461  -6.220 -15.335  1.00  0.00     0.143 C 
BRANCH  26  27
HETATM   27  C11 UNL     1      22.591  -5.147 -16.396  1.00  0.00     0.131 C 
BRANCH  27  28
HETATM   28  C12 UNL     1      22.213  -3.818 -15.879  1.00  0.00     0.260 C 
HETATM   29  O6  UNL     1      22.785  -3.379 -14.856  1.00  0.00    -0.265 OA
BRANCH  28  30
HETATM   30  O7  UNL     1      21.249  -3.044 -16.489  1.00  0.00    -0.317 OA
BRANCH  30  31
HETATM   31  C13 UNL     1      21.298  -2.761 -17.881  1.00  0.00     0.123 C 
HETATM   32  C14 UNL     1      22.535  -1.939 -18.138  1.00  0.00     0.040 C 
HETATM   33  C15 UNL     1      20.103  -1.975 -18.349  1.00  0.00     0.040 C 
ENDBRANCH  30  31
ENDBRANCH  28  30
ENDBRANCH  27  28
ENDBRANCH  26  27
ENDBRANCH  23  26
BRANCH  21  34
HETATM   34  O8  UNL     1      25.334  -7.206 -14.954  1.00  0.00    -0.345 OA
ATOM     35  H8  UNL     1      25.210  -6.561 -14.269  1.00  0.00     0.219 HD
ENDBRANCH  21  34
ENDBRANCH   3  13
BRANCH   4  36
HETATM   36  C18 UNL     1      20.946 -12.392 -17.042  1.00  0.00     0.272 C 
HETATM   37  O9  UNL     1      20.541 -11.441 -16.308  1.00  0.00    -0.302 OA
ENDBRANCH   4  36
BRANCH   1  38
HETATM   38  C2  UNL     1      22.845  -8.959 -20.234  1.00  0.00     0.206 C 
BRANCH  38  39
HETATM   39  O1  UNL     1      23.694  -7.992 -19.888  1.00  0.00    -0.334 OA
HETATM   40  C1  UNL     1      25.116  -8.080 -19.906  1.00  0.00     0.212 C 
ENDBRANCH  38  39
BRANCH  38  41
HETATM   41  O2  UNL     1      21.611  -8.575 -19.999  1.00  0.00    -0.339 OA
ATOM     42  H2  UNL     1      21.604  -7.908 -19.322  1.00  0.00     0.220 HD
ENDBRANCH  38  41
ENDBRANCH   1  38
BRANCH   5  43
HETATM   43  O10 UNL     1      20.585 -14.229 -18.863  1.00  0.00    -0.353 OA
ATOM     44  H10 UNL     1      19.962 -14.648 -19.445  1.00  0.00     0.214 HD
ENDBRANCH   5  43
BRANCH   5  45
HETATM   45  C20 UNL     1      19.385 -12.390 -19.615  1.00  0.00     0.244 C 
HETATM   46  O11 UNL     1      18.380 -12.976 -19.155  1.00  0.00    -0.644 OA
HETATM   47  O12 UNL     1      19.222 -11.208 -20.284  1.00  0.00    -0.644 OA
ENDBRANCH   5  45
BRANCH  10  48
HETATM   48  C25 UNL     1      23.916 -11.725 -24.168  1.00  0.00     0.403 C 
HETATM   49  F1  UNL     1      25.241 -11.509 -24.312  1.00  0.00    -0.207 F 
HETATM   50  F2  UNL     1      23.259 -10.671 -24.819  1.00  0.00    -0.207 F 
ENDBRANCH  10  48
TORSDOF 15
ENDMDL
MODEL 3
REMARK VINA RESULT: -6.295807801      3.653      6.067
REMARK  15 active torsions:
REMARK  status: ('A' for Active; 'I' for Inactive)
REMARK    1  A    between atoms: O1_2  and  C2_3 
REMARK    2  A    between atoms: C2_3  and  O2_4 
REMARK    3  A    between atoms: C2_3  and  C3_6 
REMARK    4  A    between atoms: C5_8  and  C6_9 
REMARK    5  A    between atoms: C9_17  and  O5_18 
REMARK    6  A    between atoms: N2_20  and  C10_21 
REMARK    7  A    between atoms: C10_21  and  C11_22 
REMARK    8  A    between atoms: C11_22  and  C12_23 
REMARK    9  A    between atoms: C12_23  and  O7_25 
REMARK   10  A    between atoms: O7_25  and  C13_26 
REMARK   11  A    between atoms: C16_29  and  O8_30 
REMARK   12  A    between atoms: C17_32  and  C18_33 
REMARK   13  A    between atoms: C19_35  and  O10_36 
REMARK   14  A    between atoms: C19_35  and  C20_38 
REMARK   15  A    between atoms: C24_45  and  C25_46 
ROOT
HETATM    1  C3  UNL     1      25.361  -8.525 -16.115  1.00  0.00     0.101 C 
HETATM    2  C4  UNL     1      24.075  -8.354 -16.103  1.00  0.00     0.020 C 
HETATM    3  C5  UNL     1      23.353  -8.081 -17.397  1.00  0.00     0.019 C 
HETATM    4  C17 UNL     1      22.256  -8.826 -17.445  1.00  0.00     0.066 C 
HETATM    5  C19 UNL     1      21.920  -9.820 -16.344  1.00  0.00     0.288 C 
HETATM    6  O13 UNL     1      22.571  -9.778 -15.194  1.00  0.00    -0.328 OA
HETATM    7  C21 UNL     1      23.178  -8.556 -14.902  1.00  0.00     0.193 C 
HETATM    8  C22 UNL     1      23.911  -8.605 -13.643  1.00  0.00    -0.022 C 
HETATM    9  C23 UNL     1      23.114  -8.463 -12.379  1.00  0.00     0.049 C 
HETATM   10  C24 UNL     1      25.208  -8.754 -13.624  1.00  0.00     0.079 C 
HETATM   11  N3  UNL     1      25.991  -8.734 -14.807  1.00  0.00    -0.350 N 
ATOM     12  H3  UNL     1      27.000  -8.866 -14.747  1.00  0.00     0.166 HD
ENDROOT
BRANCH   3  13
HETATM   13  C6  UNL     1      23.735  -6.943 -18.186  1.00  0.00     0.070 C 
HETATM   14  N1  UNL     1      24.394  -7.217 -19.301  1.00  0.00    -0.279 N 
HETATM   15  S1  UNL     1      24.802  -5.822 -20.134  1.00  0.00     0.268 S 
ATOM     16  H1  UNL     1      24.624  -8.160 -19.613  1.00  0.00     0.179 HD
HETATM   17  O3  UNL     1      24.307  -5.792 -21.550  1.00  0.00    -0.200 OA
HETATM   18  O4  UNL     1      26.255  -5.455 -20.058  1.00  0.00    -0.200 OA
HETATM   19  C7  UNL     1      23.845  -4.736 -19.126  1.00  0.00     0.147 A 
HETATM   20  C8  UNL     1      23.404  -5.531 -18.088  1.00  0.00     0.071 A 
HETATM   21  C16 UNL     1      23.388  -3.454 -19.074  1.00  0.00     0.169 A 
HETATM   22  C9  UNL     1      22.608  -4.597 -17.383  1.00  0.00     0.158 A 
HETATM   23  N2  UNL     1      22.629  -3.390 -17.990  1.00  0.00    -0.306 N 
BRANCH  22  24
HETATM   24  O5  UNL     1      21.854  -4.756 -16.242  1.00  0.00    -0.345 OA
ATOM     25  H5  UNL     1      21.279  -4.144 -15.797  1.00  0.00     0.219 HD
ENDBRANCH  22  24
BRANCH  23  26
HETATM   26  C10 UNL     1      21.909  -2.193 -17.511  1.00  0.00     0.143 C 
BRANCH  26  27
HETATM   27  C11 UNL     1      20.521  -2.186 -18.116  1.00  0.00     0.131 C 
BRANCH  27  28
HETATM   28  C12 UNL     1      20.343  -1.070 -19.065  1.00  0.00     0.260 C 
HETATM   29  O6  UNL     1      19.316  -0.358 -18.979  1.00  0.00    -0.265 OA
BRANCH  28  30
HETATM   30  O7  UNL     1      21.272  -0.787 -20.042  1.00  0.00    -0.317 OA
BRANCH  30  31
HETATM   31  C13 UNL     1      21.670   0.549 -20.322  1.00  0.00     0.123 C 
HETATM   32  C14 UNL     1      22.288   0.565 -21.697  1.00  0.00     0.040 C 
HETATM   33  C15 UNL     1      22.687   1.062 -19.340  1.00  0.00     0.040 C 
ENDBRANCH  30  31
ENDBRANCH  28  30
ENDBRANCH  27  28
ENDBRANCH  26  27
ENDBRANCH  23  26
BRANCH  21  34
HETATM   34  O8  UNL     1      23.685  -2.445 -19.993  1.00  0.00    -0.345 OA
ATOM     35  H8  UNL     1      24.077  -1.606 -19.786  1.00  0.00     0.219 HD
ENDBRANCH  21  34
ENDBRANCH   3  13
BRANCH   4  36
HETATM   36  C18 UNL     1      21.304  -8.790 -18.511  1.00  0.00     0.272 C 
HETATM   37  O9  UNL     1      20.198  -8.180 -18.395  1.00  0.00    -0.302 OA
ENDBRANCH   4  36
BRANCH   1  38
HETATM   38  C2  UNL     1      26.197  -8.521 -17.262  1.00  0.00     0.206 C 
BRANCH  38  39
HETATM   39  O1  UNL     1      26.511  -9.385 -18.227  1.00  0.00    -0.334 OA
HETATM   40  C1  UNL     1      26.579 -10.802 -18.093  1.00  0.00     0.212 C 
ENDBRANCH  38  39
BRANCH  38  41
HETATM   41  O2  UNL     1      26.863  -7.402 -17.431  1.00  0.00    -0.339 OA
ATOM     42  H2  UNL     1      26.372  -6.675 -17.066  1.00  0.00     0.220 HD
ENDBRANCH  38  41
ENDBRANCH   1  38
BRANCH   5  43
HETATM   43  O10 UNL     1      20.517  -9.677 -16.185  1.00  0.00    -0.353 OA
ATOM     44  H10 UNL     1      20.253  -9.202 -16.964  1.00  0.00     0.214 HD
ENDBRANCH   5  43
BRANCH   5  45
HETATM   45  C20 UNL     1      22.101 -11.209 -16.910  1.00  0.00     0.244 C 
HETATM   46  O11 UNL     1      23.217 -11.622 -17.298  1.00  0.00    -0.644 OA
HETATM   47  O12 UNL     1      21.014 -12.036 -16.999  1.00  0.00    -0.644 OA
ENDBRANCH   5  45
BRANCH  10  48
HETATM   48  C25 UNL     1      25.999  -8.823 -12.349  1.00  0.00     0.403 C 
HETATM   49  F1  UNL     1      26.324  -7.633 -11.798  1.00  0.00    -0.207 F 
HETATM   50  F2  UNL     1      27.205  -9.460 -12.679  1.00  0.00    -0.207 F 
ENDBRANCH  10  48
TORSDOF 15
ENDMDL
MODEL 4
REMARK VINA RESULT: -6.268185201      3.620      5.730
REMARK  15 active torsions:
REMARK  status: ('A' for Active; 'I' for Inactive)
REMARK    1  A    between atoms: O1_2  and  C2_3 
REMARK    2  A    between atoms: C2_3  and  O2_4 
REMARK    3  A    between atoms: C2_3  and  C3_6 
REMARK    4  A    between atoms: C5_8  and  C6_9 
REMARK    5  A    between atoms: C9_17  and  O5_18 
REMARK    6  A    between atoms: N2_20  and  C10_21 
REMARK    7  A    between atoms: C10_21  and  C11_22 
REMARK    8  A    between atoms: C11_22  and  C12_23 
REMARK    9  A    between atoms: C12_23  and  O7_25 
REMARK   10  A    between atoms: O7_25  and  C13_26 
REMARK   11  A    between atoms: C16_29  and  O8_30 
REMARK   12  A    between atoms: C17_32  and  C18_33 
REMARK   13  A    between atoms: C19_35  and  O10_36 
REMARK   14  A    between atoms: C19_35  and  C20_38 
REMARK   15  A    between atoms: C24_45  and  C25_46 
ROOT
HETATM    1  C3  UNL     1      25.507  -8.986 -14.432  1.00  0.00     0.101 C 
HETATM    2  C4  UNL     1      25.357  -7.739 -14.103  1.00  0.00     0.020 C 
HETATM    3  C5  UNL     1      24.288  -6.920 -14.779  1.00  0.00     0.019 C 
HETATM    4  C17 UNL     1      23.645  -6.209 -13.860  1.00  0.00     0.066 C 
HETATM    5  C19 UNL     1      23.971  -6.338 -12.381  1.00  0.00     0.288 C 
HETATM    6  O13 UNL     1      25.073  -6.961 -11.998  1.00  0.00    -0.328 OA
HETATM    7  C21 UNL     1      26.074  -7.043 -12.968  1.00  0.00     0.193 C 
HETATM    8  C22 UNL     1      27.234  -7.781 -12.485  1.00  0.00    -0.022 C 
HETATM    9  C23 UNL     1      28.202  -7.042 -11.609  1.00  0.00     0.049 C 
HETATM   10  C24 UNL     1      27.423  -9.031 -12.816  1.00  0.00     0.079 C 
HETATM   11  N3  UNL     1      26.604  -9.695 -13.765  1.00  0.00    -0.350 N 
ATOM     12  H3  UNL     1      26.779 -10.675 -13.985  1.00  0.00     0.166 HD
ENDROOT
BRANCH   3  13
HETATM   13  C6  UNL     1      24.305  -6.788 -16.209  1.00  0.00     0.070 C 
HETATM   14  N1  UNL     1      25.426  -6.306 -16.723  1.00  0.00    -0.279 N 
HETATM   15  S1  UNL     1      25.334  -6.180 -18.391  1.00  0.00     0.268 S 
ATOM     16  H1  UNL     1      26.244  -6.045 -16.172  1.00  0.00     0.179 HD
HETATM   17  O3  UNL     1      26.424  -6.910 -19.118  1.00  0.00    -0.200 OA
HETATM   18  O4  UNL     1      25.185  -4.776 -18.901  1.00  0.00    -0.200 OA
HETATM   19  C7  UNL     1      23.806  -7.047 -18.543  1.00  0.00     0.147 A 
HETATM   20  C8  UNL     1      23.383  -7.228 -17.242  1.00  0.00     0.071 A 
HETATM   21  C16 UNL     1      22.985  -7.607 -19.474  1.00  0.00     0.169 A 
HETATM   22  C9  UNL     1      22.203  -7.976 -17.468  1.00  0.00     0.158 A 
HETATM   23  N2  UNL     1      22.001  -8.173 -18.790  1.00  0.00    -0.306 N 
BRANCH  22  24
HETATM   24  O5  UNL     1      21.302  -8.505 -16.570  1.00  0.00    -0.345 OA
ATOM     25  H5  UNL     1      20.404  -8.787 -16.698  1.00  0.00     0.219 HD
ENDBRANCH  22  24
BRANCH  23  26
HETATM   26  C10 UNL     1      20.860  -8.909 -19.368  1.00  0.00     0.143 C 
BRANCH  26  27
HETATM   27  C11 UNL     1      21.339 -10.274 -19.817  1.00  0.00     0.131 C 
BRANCH  27  28
HETATM   28  C12 UNL     1      20.523 -11.358 -19.237  1.00  0.00     0.260 C 
HETATM   29  O6  UNL     1      19.584 -11.838 -19.912  1.00  0.00    -0.265 OA
BRANCH  28  30
HETATM   30  O7  UNL     1      20.763 -11.858 -17.976  1.00  0.00    -0.317 OA
BRANCH  30  31
HETATM   31  C13 UNL     1      20.542 -13.229 -17.668  1.00  0.00     0.123 C 
HETATM   32  C14 UNL     1      20.157 -13.316 -16.213  1.00  0.00     0.040 C 
HETATM   33  C15 UNL     1      21.771 -14.070 -17.883  1.00  0.00     0.040 C 
ENDBRANCH  30  31
ENDBRANCH  28  30
ENDBRANCH  27  28
ENDBRANCH  26  27
ENDBRANCH  23  26
BRANCH  21  34
HETATM   34  O8  UNL     1      23.175  -7.568 -20.857  1.00  0.00    -0.345 OA
ATOM     35  H8  UNL     1      22.962  -6.838 -21.425  1.00  0.00     0.219 HD
ENDBRANCH  21  34
ENDBRANCH   3  13
BRANCH   4  36
HETATM   36  C18 UNL     1      22.596  -5.282 -14.150  1.00  0.00     0.272 C 
HETATM   37  O9  UNL     1      22.835  -4.057 -14.378  1.00  0.00    -0.302 OA
ENDBRANCH   4  36
BRANCH   1  38
HETATM   38  C2  UNL     1      24.720  -9.707 -15.366  1.00  0.00     0.206 C 
BRANCH  38  39
HETATM   39  O1  UNL     1      24.872 -10.151 -16.614  1.00  0.00    -0.334 OA
HETATM   40  C1  UNL     1      24.050 -11.115 -17.267  1.00  0.00     0.212 C 
ENDBRANCH  38  39
BRANCH  38  41
HETATM   41  O2  UNL     1      23.519 -10.010 -14.929  1.00  0.00    -0.339 OA
ATOM     42  H2  UNL     1      23.576 -10.365 -14.049  1.00  0.00     0.220 HD
ENDBRANCH  38  41
ENDBRANCH   1  38
BRANCH   5  43
HETATM   43  O10 UNL     1      23.907  -5.001 -11.910  1.00  0.00    -0.353 OA
ATOM     44  H10 UNL     1      24.601  -4.961 -11.263  1.00  0.00     0.214 HD
ENDBRANCH   5  43
BRANCH   5  45
HETATM   45  C20 UNL     1      22.809  -7.036 -11.715  1.00  0.00     0.244 C 
HETATM   46  O11 UNL     1      22.051  -6.439 -10.918  1.00  0.00    -0.644 OA
HETATM   47  O12 UNL     1      22.580  -8.356 -11.993  1.00  0.00    -0.644 OA
ENDBRANCH   5  45
BRANCH  10  48
HETATM   48  C25 UNL     1      28.597  -9.831 -12.330  1.00  0.00     0.403 C 
HETATM   49  F1  UNL     1      29.083 -10.743 -13.199  1.00  0.00    -0.207 F 
HETATM   50  F2  UNL     1      28.140 -10.542 -11.210  1.00  0.00    -0.207 F 
ENDBRANCH  10  48
TORSDOF 15
ENDMDL
MODEL 5
REMARK VINA RESULT: -6.209529298      6.111      9.767
REMARK  15 active torsions:
REMARK  status: ('A' for Active; 'I' for Inactive)
REMARK    1  A    between atoms: O1_2  and  C2_3 
REMARK    2  A    between atoms: C2_3  and  O2_4 
REMARK    3  A    between atoms: C2_3  and  C3_6 
REMARK    4  A    between atoms: C5_8  and  C6_9 
REMARK    5  A    between atoms: C9_17  and  O5_18 
REMARK    6  A    between atoms: N2_20  and  C10_21 
REMARK    7  A    between atoms: C10_21  and  C11_22 
REMARK    8  A    between atoms: C11_22  and  C12_23 
REMARK    9  A    between atoms: C12_23  and  O7_25 
REMARK   10  A    between atoms: O7_25  and  C13_26 
REMARK   11  A    between atoms: C16_29  and  O8_30 
REMARK   12  A    between atoms: C17_32  and  C18_33 
REMARK   13  A    between atoms: C19_35  and  O10_36 
REMARK   14  A    between atoms: C19_35  and  C20_38 
REMARK   15  A    between atoms: C24_45  and  C25_46 
ROOT
HETATM    1  C3  UNL     1      23.176  -9.984 -20.312  1.00  0.00     0.101 C 
HETATM    2  C4  UNL     1      22.911 -11.216 -20.000  1.00  0.00     0.020 C 
HETATM    3  C5  UNL     1      22.606 -11.568 -18.567  1.00  0.00     0.019 C 
HETATM    4  C17 UNL     1      21.553 -12.376 -18.537  1.00  0.00     0.066 C 
HETATM    5  C19 UNL     1      20.805 -12.759 -19.804  1.00  0.00     0.288 C 
HETATM    6  O13 UNL     1      21.340 -12.510 -20.988  1.00  0.00    -0.328 OA
HETATM    7  C21 UNL     1      22.726 -12.346 -20.989  1.00  0.00     0.193 C 
HETATM    8  C22 UNL     1      23.230 -12.031 -22.319  1.00  0.00    -0.022 C 
HETATM    9  C23 UNL     1      23.407 -13.175 -23.275  1.00  0.00     0.049 C 
HETATM   10  C24 UNL     1      23.527 -10.804 -22.654  1.00  0.00     0.079 C 
HETATM   11  N3  UNL     1      23.513  -9.739 -21.718  1.00  0.00    -0.350 N 
ATOM     12  H3  UNL     1      23.740  -8.793 -22.025  1.00  0.00     0.166 HD
ENDROOT
BRANCH   3  13
HETATM   13  C6  UNL     1      23.576 -11.271 -17.551  1.00  0.00     0.070 C 
HETATM   14  N1  UNL     1      24.806 -11.698 -17.796  1.00  0.00    -0.279 N 
HETATM   15  S1  UNL     1      25.851 -11.313 -16.544  1.00  0.00     0.268 S 
ATOM     16  H1  UNL     1      25.082 -12.198 -18.641  1.00  0.00     0.179 HD
HETATM   17  O3  UNL     1      27.052 -10.524 -16.975  1.00  0.00    -0.200 OA
HETATM   18  O4  UNL     1      26.247 -12.478 -15.684  1.00  0.00    -0.200 OA
HETATM   19  C7  UNL     1      24.712 -10.278 -15.683  1.00  0.00     0.147 A 
HETATM   20  C8  UNL     1      23.519 -10.447 -16.356  1.00  0.00     0.071 A 
HETATM   21  C16 UNL     1      24.648  -9.381 -14.660  1.00  0.00     0.169 A 
HETATM   22  C9  UNL     1      22.701  -9.542 -15.639  1.00  0.00     0.158 A 
HETATM   23  N2  UNL     1      23.398  -8.941 -14.649  1.00  0.00    -0.306 N 
BRANCH  22  24
HETATM   24  O5  UNL     1      21.377  -9.207 -15.819  1.00  0.00    -0.345 OA
ATOM     25  H5  UNL     1      20.613  -9.433 -15.302  1.00  0.00     0.219 HD
ENDBRANCH  22  24
BRANCH  23  26
HETATM   26  C10 UNL     1      22.843  -7.946 -13.710  1.00  0.00     0.143 C 
BRANCH  26  27
HETATM   27  C11 UNL     1      22.817  -8.550 -12.321  1.00  0.00     0.131 C 
BRANCH  27  28
HETATM   28  C12 UNL     1      22.940  -7.518 -11.274  1.00  0.00     0.260 C 
HETATM   29  O6  UNL     1      22.013  -6.690 -11.126  1.00  0.00    -0.265 OA
BRANCH  28  30
HETATM   30  O7  UNL     1      24.045  -7.439 -10.453  1.00  0.00    -0.317 OA
BRANCH  30  31
HETATM   31  C13 UNL     1      25.340  -7.178 -10.978  1.00  0.00     0.123 C 
HETATM   32  C14 UNL     1      26.288  -7.044  -9.813  1.00  0.00     0.040 C 
HETATM   33  C15 UNL     1      25.389  -5.902 -11.775  1.00  0.00     0.040 C 
ENDBRANCH  30  31
ENDBRANCH  28  30
ENDBRANCH  27  28
ENDBRANCH  26  27
ENDBRANCH  23  26
BRANCH  21  34
HETATM   34  O8  UNL     1      25.705  -9.029 -13.818  1.00  0.00    -0.345 OA
ATOM     35  H8  UNL     1      25.688  -9.048 -12.869  1.00  0.00     0.219 HD
ENDBRANCH  21  34
ENDBRANCH   3  13
BRANCH   4  36
HETATM   36  C18 UNL     1      21.012 -12.947 -17.342  1.00  0.00     0.272 C 
HETATM   37  O9  UNL     1      20.445 -12.232 -16.461  1.00  0.00    -0.302 OA
ENDBRANCH   4  36
BRANCH   1  38
HETATM   38  C2  UNL     1      23.174  -8.877 -19.425  1.00  0.00     0.206 C 
BRANCH  38  39
HETATM   39  O1  UNL     1      22.252  -8.163 -18.779  1.00  0.00    -0.334 OA
HETATM   40  C1  UNL     1      22.464  -6.908 -18.136  1.00  0.00     0.212 C 
ENDBRANCH  38  39
BRANCH  38  41
HETATM   41  O2  UNL     1      24.369  -8.393 -19.174  1.00  0.00    -0.339 OA
ATOM     42  H2  UNL     1      24.955  -8.590 -19.896  1.00  0.00     0.220 HD
ENDBRANCH  38  41
ENDBRANCH   1  38
BRANCH   5  43
HETATM   43  O10 UNL     1      20.514 -14.134 -19.613  1.00  0.00    -0.353 OA
ATOM     44  H10 UNL     1      20.585 -14.499 -20.487  1.00  0.00     0.214 HD
ENDBRANCH   5  43
BRANCH   5  45
HETATM   45  C20 UNL     1      19.460 -12.073 -19.767  1.00  0.00     0.244 C 
HETATM   46  O11 UNL     1      18.414 -12.689 -19.468  1.00  0.00    -0.644 OA
HETATM   47  O12 UNL     1      19.388 -10.740 -20.069  1.00  0.00    -0.644 OA
ENDBRANCH   5  45
BRANCH  10  48
HETATM   48  C25 UNL     1      24.037 -10.435 -24.018  1.00  0.00     0.403 C 
HETATM   49  F1  UNL     1      24.892  -9.391 -24.060  1.00  0.00    -0.207 F 
HETATM   50  F2  UNL     1      22.907 -10.065 -24.763  1.00  0.00    -0.207 F 
ENDBRANCH  10  48
TORSDOF 15
ENDMDL
