MODEL 1
REMARK VINA RESULT: -5.158535529      0.000      0.000
REMARK  4 active torsions:
REMARK  status: ('A' for Active; 'I' for Inactive)
REMARK    1  A    between atoms: N1_1  and  S1_4 
REMARK    2  A    between atoms: S1_4  and  N2_7 
REMARK    3  A    between atoms: N2_7  and  C1_9 
REMARK    4  A    between atoms: C1_9  and  C2_10 
ROOT
HETATM    1  N2  UNL     1       0.027   3.678  10.280  1.00  0.00    -0.301 N 
ATOM      2  H2  UNL     1       0.707   3.084  10.756  1.00  0.00     0.173 HD
ENDROOT
BRANCH   1   3
HETATM    3  S1  UNL     1       0.450   5.145   9.507  1.00  0.00     0.312 S 
HETATM    4  O1  UNL     1      -0.019   6.260  10.418  1.00  0.00    -0.183 OA
HETATM    5  O2  UNL     1      -0.234   5.186   8.177  1.00  0.00    -0.183 OA
BRANCH   3   6
HETATM    6  N1  UNL     1       2.170   5.221   9.353  1.00  0.00    -0.312 N 
ATOM      7  H12 UNL     1       2.687   6.042   9.037  1.00  0.00     0.170 HD
ATOM      8  H11 UNL     1       2.572   4.325   9.626  1.00  0.00     0.170 HD
ENDBRANCH   3   6
ENDBRANCH   1   3
BRANCH   1   9
HETATM    9  C1  UNL     1      -1.372   3.356  10.199  1.00  0.00     0.165 C 
BRANCH   9  10
HETATM   10  C2  UNL     1      -1.871   2.630  11.444  1.00  0.00     0.142 C 
HETATM   11  C3  UNL     1      -2.179   1.180  11.122  1.00  0.00     0.060 C 
HETATM   12  C4  UNL     1      -3.552   1.792  10.986  1.00  0.00     0.170 C 
HETATM   13  O3  UNL     1      -3.202   2.889  11.755  1.00  0.00    -0.384 OA
ENDBRANCH   9  10
ENDBRANCH   1   9
TORSDOF 4
ENDMDL
MODEL 2
REMARK VINA RESULT: -4.922653879      1.074      1.213
REMARK  4 active torsions:
REMARK  status: ('A' for Active; 'I' for Inactive)
REMARK    1  A    between atoms: N1_1  and  S1_4 
REMARK    2  A    between atoms: S1_4  and  N2_7 
REMARK    3  A    between atoms: N2_7  and  C1_9 
REMARK    4  A    between atoms: C1_9  and  C2_10 
ROOT
HETATM    1  N2  UNL     1       0.217   3.303   9.703  1.00  0.00    -0.301 N 
ATOM      2  H2  UNL     1       0.638   2.539   9.173  1.00  0.00     0.173 HD
ENDROOT
BRANCH   1   3
HETATM    3  S1  UNL     1       0.541   4.952   9.378  1.00  0.00     0.312 S 
HETATM    4  O1  UNL     1       0.011   5.735  10.562  1.00  0.00    -0.183 OA
HETATM    5  O2  UNL     1      -0.154   5.323   8.107  1.00  0.00    -0.183 OA
BRANCH   3   6
HETATM    6  N1  UNL     1       2.251   5.176   9.269  1.00  0.00    -0.312 N 
ATOM      7  H12 UNL     1       2.848   5.465  10.045  1.00  0.00     0.170 HD
ATOM      8  H11 UNL     1       2.557   4.976   8.317  1.00  0.00     0.170 HD
ENDBRANCH   3   6
ENDBRANCH   1   3
BRANCH   1   9
HETATM    9  C1  UNL     1      -0.700   3.090  10.790  1.00  0.00     0.165 C 
BRANCH   9  10
HETATM   10  C2  UNL     1      -2.052   2.571  10.311  1.00  0.00     0.142 C 
HETATM   11  C3  UNL     1      -2.947   2.258  11.495  1.00  0.00     0.060 C 
HETATM   12  C4  UNL     1      -2.374   0.891  11.211  1.00  0.00     0.170 C 
HETATM   13  O3  UNL     1      -2.038   1.239   9.913  1.00  0.00    -0.384 OA
ENDBRANCH   9  10
ENDBRANCH   1   9
TORSDOF 4
ENDMDL
MODEL 3
REMARK VINA RESULT: -4.823627907      1.173      1.241
REMARK  4 active torsions:
REMARK  status: ('A' for Active; 'I' for Inactive)
REMARK    1  A    between atoms: N1_1  and  S1_4 
REMARK    2  A    between atoms: S1_4  and  N2_7 
REMARK    3  A    between atoms: N2_7  and  C1_9 
REMARK    4  A    between atoms: C1_9  and  C2_10 
ROOT
HETATM    1  N2  UNL     1      -0.696   4.536   9.111  1.00  0.00    -0.301 N 
ATOM      2  H2  UNL     1      -1.282   4.400   8.286  1.00  0.00     0.173 HD
ENDROOT
BRANCH   1   3
HETATM    3  S1  UNL     1       0.416   5.829   9.261  1.00  0.00     0.312 S 
HETATM    4  O1  UNL     1       0.118   6.499  10.586  1.00  0.00    -0.183 OA
HETATM    5  O2  UNL     1       0.209   6.759   8.106  1.00  0.00    -0.183 OA
BRANCH   3   6
HETATM    6  N1  UNL     1       2.020   5.187   9.295  1.00  0.00    -0.312 N 
ATOM      7  H12 UNL     1       2.683   5.326  10.059  1.00  0.00     0.170 HD
ATOM      8  H11 UNL     1       2.188   4.656   8.441  1.00  0.00     0.170 HD
ENDBRANCH   3   6
ENDBRANCH   1   3
BRANCH   1   9
HETATM    9  C1  UNL     1      -0.732   3.660  10.250  1.00  0.00     0.165 C 
BRANCH   9  10
HETATM   10  C2  UNL     1      -2.156   3.284  10.645  1.00  0.00     0.142 C 
HETATM   11  C3  UNL     1      -2.141   2.186  11.693  1.00  0.00     0.060 C 
HETATM   12  C4  UNL     1      -2.323   1.369  10.437  1.00  0.00     0.170 C 
HETATM   13  O3  UNL     1      -2.799   2.460   9.728  1.00  0.00    -0.384 OA
ENDBRANCH   9  10
ENDBRANCH   1   9
TORSDOF 4
ENDMDL
MODEL 4
REMARK VINA RESULT: -4.814669686      1.903      1.954
REMARK  4 active torsions:
REMARK  status: ('A' for Active; 'I' for Inactive)
REMARK    1  A    between atoms: N1_1  and  S1_4 
REMARK    2  A    between atoms: S1_4  and  N2_7 
REMARK    3  A    between atoms: N2_7  and  C1_9 
REMARK    4  A    between atoms: C1_9  and  C2_10 
ROOT
HETATM    1  N2  UNL     1      -2.315   3.941   8.837  1.00  0.00    -0.301 N 
ATOM      2  H2  UNL     1      -3.041   3.421   8.343  1.00  0.00     0.173 HD
ENDROOT
BRANCH   1   3
HETATM    3  S1  UNL     1      -1.680   5.425   8.267  1.00  0.00     0.312 S 
HETATM    4  O1  UNL     1      -2.116   6.486   9.256  1.00  0.00    -0.183 OA
HETATM    5  O2  UNL     1      -2.234   5.675   6.899  1.00  0.00    -0.183 OA
BRANCH   3   6
HETATM    6  N1  UNL     1       0.045   5.330   8.258  1.00  0.00    -0.312 N 
ATOM      7  H12 UNL     1       0.669   6.093   8.521  1.00  0.00     0.170 HD
ATOM      8  H11 UNL     1       0.329   4.399   7.951  1.00  0.00     0.170 HD
ENDBRANCH   3   6
ENDBRANCH   1   3
BRANCH   1   9
HETATM    9  C1  UNL     1      -1.735   3.493  10.074  1.00  0.00     0.165 C 
BRANCH   9  10
HETATM   10  C2  UNL     1      -2.778   2.918  11.026  1.00  0.00     0.142 C 
HETATM   11  C3  UNL     1      -2.123   1.982  12.025  1.00  0.00     0.060 C 
HETATM   12  C4  UNL     1      -2.593   0.994  10.986  1.00  0.00     0.170 C 
HETATM   13  O3  UNL     1      -3.530   1.882  10.483  1.00  0.00    -0.384 OA
ENDBRANCH   9  10
ENDBRANCH   1   9
TORSDOF 4
ENDMDL
MODEL 5
REMARK VINA RESULT: -4.795308223      1.913      2.251
REMARK  4 active torsions:
REMARK  status: ('A' for Active; 'I' for Inactive)
REMARK    1  A    between atoms: N1_1  and  S1_4 
REMARK    2  A    between atoms: S1_4  and  N2_7 
REMARK    3  A    between atoms: N2_7  and  C1_9 
REMARK    4  A    between atoms: C1_9  and  C2_10 
ROOT
HETATM    1  N2  UNL     1      -1.355   3.900   9.540  1.00  0.00    -0.301 N 
ATOM      2  H2  UNL     1      -0.485   3.586   9.971  1.00  0.00     0.173 HD
ENDROOT
BRANCH   1   3
HETATM    3  S1  UNL     1      -1.487   5.366   8.666  1.00  0.00     0.312 S 
HETATM    4  O1  UNL     1      -0.077   5.889   8.490  1.00  0.00    -0.183 OA
HETATM    5  O2  UNL     1      -2.336   6.308   9.461  1.00  0.00    -0.183 OA
BRANCH   3   6
HETATM    6  N1  UNL     1      -2.169   5.033   7.114  1.00  0.00    -0.312 N 
ATOM      7  H12 UNL     1      -2.390   4.100   6.767  1.00  0.00     0.170 HD
ATOM      8  H11 UNL     1      -2.310   5.911   6.613  1.00  0.00     0.170 HD
ENDBRANCH   3   6
ENDBRANCH   1   3
BRANCH   1   9
HETATM    9  C1  UNL     1      -2.579   3.149   9.612  1.00  0.00     0.165 C 
BRANCH   9  10
HETATM   10  C2  UNL     1      -2.957   2.797  11.047  1.00  0.00     0.142 C 
HETATM   11  C3  UNL     1      -1.795   2.119  11.748  1.00  0.00     0.060 C 
HETATM   12  C4  UNL     1      -2.585   0.916  11.294  1.00  0.00     0.170 C 
HETATM   13  O3  UNL     1      -3.747   1.658  11.161  1.00  0.00    -0.384 OA
ENDBRANCH   9  10
ENDBRANCH   1   9
TORSDOF 4
ENDMDL
