MODEL 1
REMARK VINA RESULT: -4.873965928      0.000      0.000
REMARK  3 active torsions:
REMARK  status: ('A' for Active; 'I' for Inactive)
REMARK    1  A    between atoms: O1_2  and  C2_3 
REMARK    2  A    between atoms: C2_3  and  C3_4 
REMARK    3  A    between atoms: C3_4  and  N1_5 
ROOT
HETATM    1  N1  UNL     1      -2.711   1.539   9.603  1.00  0.00     0.043 N 
HETATM    2  N2  UNL     1      -3.715   2.489   9.910  1.00  0.00    -0.214 N 
ATOM      3  H2  UNL     1      -4.672   2.706  10.189  1.00  0.00     0.190 HD
HETATM    4  C4  UNL     1      -2.467   2.900   9.559  1.00  0.00     0.365 A 
HETATM    5  C5  UNL     1      -1.378   3.216  10.594  1.00  0.00     0.242 C 
HETATM    6  C6  UNL     1      -1.749   2.179  11.662  1.00  0.00     0.075 C 
HETATM    7  C7  UNL     1      -1.851   1.045  10.630  1.00  0.00     0.245 C 
HETATM    8  C8  UNL     1      -0.426   1.190  10.068  1.00  0.00     0.268 C 
HETATM    9  N3  UNL     1      -0.167   2.637  10.103  1.00  0.00    -0.065 N 
ATOM     10  H31 UNL     1       0.662   2.896  10.640  1.00  0.00     0.277 HD
ATOM     11  H32 UNL     1       0.146   3.024   9.213  1.00  0.00     0.277 HD
ENDROOT
BRANCH   1  12
HETATM   12  C3  UNL     1      -3.090   0.677   8.550  1.00  0.00     0.294 C 
BRANCH  12  13
HETATM   13  C2  UNL     1      -3.853  -0.546   8.916  1.00  0.00     0.197 C 
BRANCH  13  14
HETATM   14  O1  UNL     1      -4.992  -0.328   9.649  1.00  0.00    -0.394 OA
HETATM   15  C1  UNL     1      -4.848  -1.048  10.855  1.00  0.00     0.201 C 
ENDBRANCH  13  14
ENDBRANCH  12  13
ENDBRANCH   1  12
TORSDOF 3
ENDMDL
MODEL 2
REMARK VINA RESULT: -4.798637251      2.748      4.305
REMARK  3 active torsions:
REMARK  status: ('A' for Active; 'I' for Inactive)
REMARK    1  A    between atoms: O1_2  and  C2_3 
REMARK    2  A    between atoms: C2_3  and  C3_4 
REMARK    3  A    between atoms: C3_4  and  N1_5 
ROOT
HETATM    1  N1  UNL     1      -2.688   2.922  10.448  1.00  0.00     0.043 N 
HETATM    2  N2  UNL     1      -3.404   3.186  11.641  1.00  0.00    -0.214 N 
ATOM      3  H2  UNL     1      -4.072   3.751  12.165  1.00  0.00     0.190 HD
HETATM    4  C4  UNL     1      -2.546   2.132  11.574  1.00  0.00     0.365 A 
HETATM    5  C5  UNL     1      -3.005   0.712  11.214  1.00  0.00     0.242 C 
HETATM    6  C6  UNL     1      -4.126   1.063  10.226  1.00  0.00     0.075 C 
HETATM    7  C7  UNL     1      -3.237   2.053   9.457  1.00  0.00     0.245 C 
HETATM    8  C8  UNL     1      -2.112   1.058   9.123  1.00  0.00     0.268 C 
HETATM    9  N3  UNL     1      -2.036   0.186  10.306  1.00  0.00    -0.065 N 
ATOM     10  H31 UNL     1      -2.159  -0.805  10.097  1.00  0.00     0.277 HD
ATOM     11  H32 UNL     1      -1.099   0.106  10.701  1.00  0.00     0.277 HD
ENDROOT
BRANCH   1  12
HETATM   12  C3  UNL     1      -1.902   4.022  10.038  1.00  0.00     0.294 C 
BRANCH  12  13
HETATM   13  C2  UNL     1      -2.470   4.907   8.986  1.00  0.00     0.197 C 
BRANCH  13  14
HETATM   14  O1  UNL     1      -2.461   6.247   9.281  1.00  0.00    -0.394 OA
HETATM   15  C1  UNL     1      -1.778   6.895   8.229  1.00  0.00     0.201 C 
ENDBRANCH  13  14
ENDBRANCH  12  13
ENDBRANCH   1  12
TORSDOF 3
ENDMDL
MODEL 3
REMARK VINA RESULT: -4.721776280      2.611      4.414
REMARK  3 active torsions:
REMARK  status: ('A' for Active; 'I' for Inactive)
REMARK    1  A    between atoms: O1_2  and  C2_3 
REMARK    2  A    between atoms: C2_3  and  C3_4 
REMARK    3  A    between atoms: C3_4  and  N1_5 
ROOT
HETATM    1  N1  UNL     1      -1.463   1.678  10.372  1.00  0.00     0.043 N 
HETATM    2  N2  UNL     1      -0.939   0.736   9.455  1.00  0.00    -0.214 N 
ATOM      3  H2  UNL     1      -0.192   0.104   9.166  1.00  0.00     0.190 HD
HETATM    4  C4  UNL     1      -2.162   1.291   9.243  1.00  0.00     0.365 A 
HETATM    5  C5  UNL     1      -3.465   0.623   9.702  1.00  0.00     0.242 C 
HETATM    6  C6  UNL     1      -2.957  -0.043  10.988  1.00  0.00     0.075 C 
HETATM    7  C7  UNL     1      -2.268   1.243  11.469  1.00  0.00     0.245 C 
HETATM    8  C8  UNL     1      -3.519   2.138  11.431  1.00  0.00     0.268 C 
HETATM    9  N3  UNL     1      -4.277   1.655  10.268  1.00  0.00    -0.065 N 
ATOM     10  H31 UNL     1      -5.228   1.358  10.488  1.00  0.00     0.277 HD
ATOM     11  H32 UNL     1      -4.534   2.388   9.607  1.00  0.00     0.277 HD
ENDROOT
BRANCH   1  12
HETATM   12  C3  UNL     1      -0.613   2.793  10.543  1.00  0.00     0.294 C 
BRANCH  12  13
HETATM   13  C2  UNL     1      -1.068   4.088   9.969  1.00  0.00     0.197 C 
BRANCH  13  14
HETATM   14  O1  UNL     1      -0.158   5.113  10.044  1.00  0.00    -0.394 OA
HETATM   15  C1  UNL     1       0.894   4.792   9.158  1.00  0.00     0.201 C 
ENDBRANCH  13  14
ENDBRANCH  12  13
ENDBRANCH   1  12
TORSDOF 3
ENDMDL
MODEL 4
REMARK VINA RESULT: -4.694730657      2.795      4.560
REMARK  3 active torsions:
REMARK  status: ('A' for Active; 'I' for Inactive)
REMARK    1  A    between atoms: O1_2  and  C2_3 
REMARK    2  A    between atoms: C2_3  and  C3_4 
REMARK    3  A    between atoms: C3_4  and  N1_5 
ROOT
HETATM    1  N1  UNL     1      -1.292   3.332  10.155  1.00  0.00     0.043 N 
HETATM    2  N2  UNL     1      -0.095   3.188  10.897  1.00  0.00    -0.214 N 
ATOM      3  H2  UNL     1       0.592   3.566  11.550  1.00  0.00     0.190 HD
HETATM    4  C4  UNL     1      -0.532   2.177  10.099  1.00  0.00     0.365 A 
HETATM    5  C5  UNL     1      -1.394   1.021  10.625  1.00  0.00     0.242 C 
HETATM    6  C6  UNL     1      -2.199   1.782  11.687  1.00  0.00     0.075 C 
HETATM    7  C7  UNL     1      -2.539   2.923  10.717  1.00  0.00     0.245 C 
HETATM    8  C8  UNL     1      -3.200   2.047   9.639  1.00  0.00     0.268 C 
HETATM    9  N3  UNL     1      -2.420   0.800   9.655  1.00  0.00    -0.065 N 
ATOM     10  H31 UNL     1      -2.979  -0.035   9.827  1.00  0.00     0.277 HD
ATOM     11  H32 UNL     1      -2.069   0.519   8.739  1.00  0.00     0.277 HD
ENDROOT
BRANCH   1  12
HETATM   12  C3  UNL     1      -1.259   4.450   9.293  1.00  0.00     0.294 C 
BRANCH  12  13
HETATM   13  C2  UNL     1      -2.341   5.459   9.450  1.00  0.00     0.197 C 
BRANCH  13  14
HETATM   14  O1  UNL     1      -2.037   6.718   8.998  1.00  0.00    -0.394 OA
HETATM   15  C1  UNL     1      -0.637   6.762   8.815  1.00  0.00     0.201 C 
ENDBRANCH  13  14
ENDBRANCH  12  13
ENDBRANCH   1  12
TORSDOF 3
ENDMDL
MODEL 5
REMARK VINA RESULT: -4.623369302      2.198      4.277
REMARK  3 active torsions:
REMARK  status: ('A' for Active; 'I' for Inactive)
REMARK    1  A    between atoms: O1_2  and  C2_3 
REMARK    2  A    between atoms: C2_3  and  C3_4 
REMARK    3  A    between atoms: C3_4  and  N1_5 
ROOT
HETATM    1  N1  UNL     1      -3.147   1.257   9.552  1.00  0.00     0.043 N 
HETATM    2  N2  UNL     1      -2.117   0.536   8.900  1.00  0.00    -0.214 N 
ATOM      3  H2  UNL     1      -1.126   0.340   8.761  1.00  0.00     0.190 HD
HETATM    4  C4  UNL     1      -3.421   0.296   8.595  1.00  0.00     0.365 A 
HETATM    5  C5  UNL     1      -4.236  -0.817   9.267  1.00  0.00     0.242 C 
HETATM    6  C6  UNL     1      -3.601  -0.777  10.663  1.00  0.00     0.075 C 
HETATM    7  C7  UNL     1      -3.727   0.752  10.755  1.00  0.00     0.245 C 
HETATM    8  C8  UNL     1      -5.247   0.818  10.529  1.00  0.00     0.268 C 
HETATM    9  N3  UNL     1      -5.519  -0.262   9.567  1.00  0.00    -0.065 N 
ATOM     10  H31 UNL     1      -6.199  -0.947   9.896  1.00  0.00     0.277 HD
ATOM     11  H32 UNL     1      -6.042   0.039   8.745  1.00  0.00     0.277 HD
ENDROOT
BRANCH   1  12
HETATM   12  C3  UNL     1      -3.014   2.653   9.386  1.00  0.00     0.294 C 
BRANCH  12  13
HETATM   13  C2  UNL     1      -2.387   3.412  10.502  1.00  0.00     0.197 C 
BRANCH  13  14
HETATM   14  O1  UNL     1      -1.093   3.063  10.792  1.00  0.00    -0.394 OA
HETATM   15  C1  UNL     1      -0.258   3.912  10.032  1.00  0.00     0.201 C 
ENDBRANCH  13  14
ENDBRANCH  12  13
ENDBRANCH   1  12
TORSDOF 3
ENDMDL
