MODEL 1
REMARK VINA RESULT: -5.352446306      0.000      0.000
REMARK  3 active torsions:
REMARK  status: ('A' for Active; 'I' for Inactive)
REMARK    1  A    between atoms: C2_2  and  C3_3 
REMARK    2  A    between atoms: C3_3  and  C4_4 
REMARK    3  A    between atoms: C4_4  and  O1_5 
ROOT
HETATM    1  C3  UNL     1      10.760 -14.316  -5.101  1.00  0.00     0.119 C 
HETATM    2  O2  UNL     1      11.718 -14.151  -6.155  1.00  0.00    -0.369 OA
HETATM    3  C5  UNL     1      12.921 -14.583  -5.661  1.00  0.00     0.126 C 
HETATM    4  C6  UNL     1      13.664 -15.260  -6.785  1.00  0.00     0.040 C 
HETATM    5  C7  UNL     1      12.669 -15.388  -4.461  1.00  0.00     0.066 C 
HETATM    6  C8  UNL     1      13.500 -16.540  -4.158  1.00  0.00    -0.038 C 
HETATM    7  C9  UNL     1      13.577 -17.681  -5.063  1.00  0.00     0.015 C 
HETATM    8  C10 UNL     1      14.928 -16.041  -3.893  1.00  0.00     0.015 C 
HETATM    9  C11 UNL     1      13.008 -17.049  -2.787  1.00  0.00     0.012 C 
HETATM   10  C12 UNL     1      11.581 -17.433  -2.984  1.00  0.00     0.045 C 
HETATM   11  C13 UNL     1      10.693 -16.240  -3.349  1.00  0.00     0.130 C 
HETATM   12  C14 UNL     1      10.251 -15.550  -2.132  1.00  0.00     0.052 C 
HETATM   13  O3  UNL     1       9.729 -16.730  -4.229  1.00  0.00    -0.226 OA
HETATM   14  O4  UNL     1      10.682 -16.670  -5.166  1.00  0.00    -0.222 OA
HETATM   15  C15 UNL     1      11.179 -15.568  -4.516  1.00  0.00     0.169 C 
ENDROOT
BRANCH   1  16
HETATM   16  C2  UNL     1       9.448 -14.256  -5.839  1.00  0.00     0.039 C 
HETATM   17  C1  UNL     1       9.552 -14.071  -7.315  1.00  0.00     0.008 C 
ENDBRANCH   1  16
BRANCH   1  18
HETATM   18  C4  UNL     1      10.908 -13.058  -4.285  1.00  0.00     0.205 C 
BRANCH  18  19
HETATM   19  O1  UNL     1       9.605 -12.613  -3.982  1.00  0.00    -0.398 OA
ATOM     20  H1  UNL     1       9.448 -11.842  -4.515  1.00  0.00     0.209 HD
ENDBRANCH  18  19
ENDBRANCH   1  18
TORSDOF 3
ENDMDL
MODEL 2
REMARK VINA RESULT: -5.209594933      2.496      4.432
REMARK  3 active torsions:
REMARK  status: ('A' for Active; 'I' for Inactive)
REMARK    1  A    between atoms: C2_2  and  C3_3 
REMARK    2  A    between atoms: C3_3  and  C4_4 
REMARK    3  A    between atoms: C4_4  and  O1_5 
ROOT
HETATM    1  C3  UNL     1       9.176 -13.642  -8.067  1.00  0.00     0.119 C 
HETATM    2  O2  UNL     1       9.690 -14.980  -8.019  1.00  0.00    -0.369 OA
HETATM    3  C5  UNL     1      10.844 -14.929  -7.283  1.00  0.00     0.126 C 
HETATM    4  C6  UNL     1      10.932 -16.201  -6.477  1.00  0.00     0.040 C 
HETATM    5  C7  UNL     1      10.860 -13.671  -6.529  1.00  0.00     0.066 C 
HETATM    6  C8  UNL     1      11.434 -13.617  -5.196  1.00  0.00    -0.038 C 
HETATM    7  C9  UNL     1      10.891 -14.415  -4.102  1.00  0.00     0.015 C 
HETATM    8  C10 UNL     1      12.935 -13.921  -5.310  1.00  0.00     0.015 C 
HETATM    9  C11 UNL     1      11.371 -12.132  -4.783  1.00  0.00     0.012 C 
HETATM   10  C12 UNL     1       9.923 -11.773  -4.778  1.00  0.00     0.045 C 
HETATM   11  C13 UNL     1       9.286 -11.867  -6.166  1.00  0.00     0.130 C 
HETATM   12  C14 UNL     1       9.506 -10.618  -6.905  1.00  0.00     0.052 C 
HETATM   13  O3  UNL     1       7.977 -12.304  -5.963  1.00  0.00    -0.226 OA
HETATM   14  O4  UNL     1       8.504 -13.524  -5.812  1.00  0.00    -0.222 OA
HETATM   15  C15 UNL     1       9.459 -13.170  -6.732  1.00  0.00     0.169 C 
ENDROOT
BRANCH   1  16
HETATM   16  C2  UNL     1       7.743 -13.856  -8.479  1.00  0.00     0.039 C 
HETATM   17  C1  UNL     1       7.270 -15.270  -8.438  1.00  0.00     0.008 C 
ENDBRANCH   1  16
BRANCH   1  18
HETATM   18  C4  UNL     1       9.917 -13.017  -9.220  1.00  0.00     0.205 C 
BRANCH  18  19
HETATM   19  O1  UNL     1       9.056 -13.069 -10.335  1.00  0.00    -0.398 OA
ATOM     20  H1  UNL     1       9.054 -13.969 -10.639  1.00  0.00     0.209 HD
ENDBRANCH  18  19
ENDBRANCH   1  18
TORSDOF 3
ENDMDL
MODEL 3
REMARK VINA RESULT: -5.153934368      1.505      3.188
REMARK  3 active torsions:
REMARK  status: ('A' for Active; 'I' for Inactive)
REMARK    1  A    between atoms: C2_2  and  C3_3 
REMARK    2  A    between atoms: C3_3  and  C4_4 
REMARK    3  A    between atoms: C4_4  and  O1_5 
ROOT
HETATM    1  C3  UNL     1      10.402 -16.733  -3.948  1.00  0.00     0.119 C 
HETATM    2  O2  UNL     1       9.718 -15.765  -4.756  1.00  0.00    -0.369 OA
HETATM    3  C5  UNL     1      10.595 -14.730  -4.951  1.00  0.00     0.126 C 
HETATM    4  C6  UNL     1      10.380 -14.203  -6.348  1.00  0.00     0.040 C 
HETATM    5  C7  UNL     1      11.947 -15.197  -4.626  1.00  0.00     0.066 C 
HETATM    6  C8  UNL     1      13.093 -14.719  -5.378  1.00  0.00    -0.038 C 
HETATM    7  C9  UNL     1      13.216 -14.960  -6.811  1.00  0.00     0.015 C 
HETATM    8  C10 UNL     1      13.228 -13.209  -5.133  1.00  0.00     0.015 C 
HETATM    9  C11 UNL     1      14.324 -15.334  -4.681  1.00  0.00     0.012 C 
HETATM   10  C12 UNL     1      14.162 -16.812  -4.799  1.00  0.00     0.045 C 
HETATM   11  C13 UNL     1      12.933 -17.334  -4.051  1.00  0.00     0.130 C 
HETATM   12  C14 UNL     1      13.264 -17.568  -2.641  1.00  0.00     0.052 C 
HETATM   13  O3  UNL     1      12.439 -18.395  -4.809  1.00  0.00    -0.226 OA
HETATM   14  O4  UNL     1      11.909 -17.460  -5.607  1.00  0.00    -0.222 OA
HETATM   15  C15 UNL     1      11.738 -16.679  -4.492  1.00  0.00     0.169 C 
ENDROOT
BRANCH   1  16
HETATM   16  C2  UNL     1       9.577 -17.976  -4.158  1.00  0.00     0.039 C 
HETATM   17  C1  UNL     1       8.516 -17.871  -5.201  1.00  0.00     0.008 C 
ENDBRANCH   1  16
BRANCH   1  18
HETATM   18  C4  UNL     1      10.180 -16.242  -2.541  1.00  0.00     0.205 C 
BRANCH  18  19
HETATM   19  O1  UNL     1       9.726 -17.347  -1.791  1.00  0.00    -0.398 OA
ATOM     20  H1  UNL     1      10.330 -17.454  -1.066  1.00  0.00     0.209 HD
ENDBRANCH  18  19
ENDBRANCH   1  18
TORSDOF 3
ENDMDL
MODEL 4
REMARK VINA RESULT: -4.954967513      2.475      4.725
REMARK  3 active torsions:
REMARK  status: ('A' for Active; 'I' for Inactive)
REMARK    1  A    between atoms: C2_2  and  C3_3 
REMARK    2  A    between atoms: C3_3  and  C4_4 
REMARK    3  A    between atoms: C4_4  and  O1_5 
ROOT
HETATM    1  C3  UNL     1       9.640 -11.937  -6.563  1.00  0.00     0.119 C 
HETATM    2  O2  UNL     1       9.519 -12.292  -5.178  1.00  0.00    -0.369 OA
HETATM    3  C5  UNL     1      10.141 -13.504  -5.030  1.00  0.00     0.126 C 
HETATM    4  C6  UNL     1      10.819 -13.511  -3.683  1.00  0.00     0.040 C 
HETATM    5  C7  UNL     1      10.998 -13.733  -6.198  1.00  0.00     0.066 C 
HETATM    6  C8  UNL     1      12.268 -14.422  -6.057  1.00  0.00    -0.038 C 
HETATM    7  C9  UNL     1      13.335 -13.886  -5.219  1.00  0.00     0.015 C 
HETATM    8  C10 UNL     1      11.982 -15.862  -5.605  1.00  0.00     0.015 C 
HETATM    9  C11 UNL     1      12.815 -14.570  -7.492  1.00  0.00     0.012 C 
HETATM   10  C12 UNL     1      12.993 -13.181  -8.004  1.00  0.00     0.045 C 
HETATM   11  C13 UNL     1      11.670 -12.419  -8.118  1.00  0.00     0.130 C 
HETATM   12  C14 UNL     1      11.026 -12.719  -9.402  1.00  0.00     0.052 C 
HETATM   13  O3  UNL     1      11.960 -11.091  -7.808  1.00  0.00    -0.226 OA
HETATM   14  O4  UNL     1      11.951 -11.482  -6.529  1.00  0.00    -0.222 OA
HETATM   15  C15 UNL     1      10.977 -12.388  -6.866  1.00  0.00     0.169 C 
ENDROOT
BRANCH   1  16
HETATM   16  C2  UNL     1       9.352 -10.459  -6.548  1.00  0.00     0.039 C 
HETATM   17  C1  UNL     1       9.407  -9.809  -5.206  1.00  0.00     0.008 C 
ENDBRANCH   1  16
BRANCH   1  18
HETATM   18  C4  UNL     1       8.480 -12.644  -7.214  1.00  0.00     0.205 C 
BRANCH  18  19
HETATM   19  O1  UNL     1       7.407 -12.594  -6.301  1.00  0.00    -0.398 OA
ATOM     20  H1  UNL     1       7.772 -12.755  -5.438  1.00  0.00     0.209 HD
ENDBRANCH  18  19
ENDBRANCH   1  18
TORSDOF 3
ENDMDL
MODEL 5
REMARK VINA RESULT: -4.929467042      2.055      4.222
REMARK  3 active torsions:
REMARK  status: ('A' for Active; 'I' for Inactive)
REMARK    1  A    between atoms: C2_2  and  C3_3 
REMARK    2  A    between atoms: C3_3  and  C4_4 
REMARK    3  A    between atoms: C4_4  and  O1_5 
ROOT
HETATM    1  C3  UNL     1       9.796 -12.696  -5.676  1.00  0.00     0.119 C 
HETATM    2  O2  UNL     1       9.643 -13.651  -4.617  1.00  0.00    -0.369 OA
HETATM    3  C5  UNL     1      10.307 -14.782  -5.012  1.00  0.00     0.126 C 
HETATM    4  C6  UNL     1      10.939 -15.395  -3.788  1.00  0.00     0.040 C 
HETATM    5  C7  UNL     1      11.211 -14.431  -6.113  1.00  0.00     0.066 C 
HETATM    6  C8  UNL     1      12.502 -15.083  -6.243  1.00  0.00    -0.038 C 
HETATM    7  C9  UNL     1      13.518 -14.972  -5.203  1.00  0.00     0.015 C 
HETATM    8  C10 UNL     1      12.257 -16.574  -6.517  1.00  0.00     0.015 C 
HETATM    9  C11 UNL     1      13.101 -14.542  -7.558  1.00  0.00     0.012 C 
HETATM   10  C12 UNL     1      13.242 -13.071  -7.366  1.00  0.00     0.045 C 
HETATM   11  C13 UNL     1      11.895 -12.367  -7.180  1.00  0.00     0.130 C 
HETATM   12  C14 UNL     1      11.306 -12.055  -8.488  1.00  0.00     0.052 C 
HETATM   13  O3  UNL     1      12.122 -11.326  -6.282  1.00  0.00    -0.226 OA
HETATM   14  O4  UNL     1      12.085 -12.262  -5.327  1.00  0.00    -0.222 OA
HETATM   15  C15 UNL     1      11.159 -12.930  -6.089  1.00  0.00     0.169 C 
ENDROOT
BRANCH   1  16
HETATM   16  C2  UNL     1       9.450 -11.396  -4.998  1.00  0.00     0.039 C 
HETATM   17  C1  UNL     1       9.174 -10.250  -5.912  1.00  0.00     0.008 C 
ENDBRANCH   1  16
BRANCH   1  18
HETATM   18  C4  UNL     1       8.687 -13.046  -6.634  1.00  0.00     0.205 C 
BRANCH  18  19
HETATM   19  O1  UNL     1       7.490 -13.051  -5.889  1.00  0.00    -0.398 OA
ATOM     20  H1  UNL     1       7.600 -13.692  -5.196  1.00  0.00     0.209 HD
ENDBRANCH  18  19
ENDBRANCH   1  18
TORSDOF 3
ENDMDL
