MODEL 1
REMARK VINA RESULT: -7.889589069      0.000      0.000
REMARK  16 active torsions:
REMARK  status: ('A' for Active; 'I' for Inactive)
REMARK    1  A    between atoms: C2_2  and  C3_3 
REMARK    2  A    between atoms: C3_3  and  C4_4 
REMARK    3  A    between atoms: C3_3  and  O8_39 
REMARK    4  A    between atoms: C4_4  and  C5_5 
REMARK    5  A    between atoms: C5_5  and  C6_6 
REMARK    6  A    between atoms: C6_6  and  C7_7 
REMARK    7  A    between atoms: C7_7  and  O1_8 
REMARK    8  A    between atoms: O1_8  and  C8_9 
REMARK    9  A    between atoms: C10_12  and  O3_13 
REMARK   10  A    between atoms: C15_19  and  C16_20 
REMARK   11  A    between atoms: C16_20  and  C18_22 
REMARK   12  A    between atoms: C19_23  and  C21_25 
REMARK   13  A    between atoms: C21_25  and  O4_26 
REMARK   14  A    between atoms: C24_30  and  O5_31 
REMARK   15  A    between atoms: C27_36  and  O7_37 
REMARK   16  A    between atoms: O8_39  and  C28_40 
ROOT
HETATM    1  C6  UNL     1      54.989  57.185 113.324  1.00  0.00     0.035 C 
HETATM    2  C10 UNL     1      55.357  56.418 112.076  1.00  0.00     0.135 C 
HETATM    3  C11 UNL     1      56.561  55.560 112.184  1.00  0.00     0.016 C 
HETATM    4  C12 UNL     1      56.992  55.276 110.737  1.00  0.00     0.013 C 
HETATM    5  C13 UNL     1      57.678  56.367 112.838  1.00  0.00     0.011 C 
HETATM    6  C14 UNL     1      58.929  55.580 112.669  1.00  0.00     0.011 C 
HETATM    7  C15 UNL     1      60.201  56.386 112.591  1.00  0.00    -0.007 C 
HETATM    8  C22 UNL     1      60.041  57.788 113.094  1.00  0.00     0.010 C 
HETATM    9  C23 UNL     1      59.615  57.873 114.523  1.00  0.00     0.069 C 
HETATM   10  C24 UNL     1      58.150  57.896 114.759  1.00  0.00     0.174 C 
HETATM   11  O6  UNL     1      57.932  57.348 116.049  1.00  0.00    -0.353 OA
HETATM   12  C25 UNL     1      57.936  56.093 115.393  1.00  0.00     0.189 C 
HETATM   13  C26 UNL     1      57.337  56.800 114.219  1.00  0.00     0.068 C 
HETATM   14  C27 UNL     1      55.849  56.880 114.478  1.00  0.00     0.147 C 
ENDROOT
BRANCH   1  15
HETATM   15  C5  UNL     1      53.534  56.867 113.619  1.00  0.00     0.020 C 
BRANCH  15  16
HETATM   16  C4  UNL     1      53.285  55.618 114.363  1.00  0.00     0.037 C 
BRANCH  16  17
HETATM   17  C3  UNL     1      52.032  55.876 115.217  1.00  0.00     0.154 C 
BRANCH  17  18
HETATM   18  C2  UNL     1      52.169  55.286 116.558  1.00  0.00    -0.005 C 
HETATM   19  C1  UNL     1      53.360  55.155 117.097  1.00  0.00     0.009 C 
ENDBRANCH  17  18
BRANCH  17  20
HETATM   20  O8  UNL     1      51.694  57.238 115.240  1.00  0.00    -0.312 OA
BRANCH  20  21
HETATM   21  C28 UNL     1      50.489  57.689 115.758  1.00  0.00     0.255 C 
HETATM   22  C29 UNL     1      49.159  57.335 115.202  1.00  0.00     0.126 C 
HETATM   23  O9  UNL     1      50.521  58.445 116.761  1.00  0.00    -0.266 OA
ENDBRANCH  20  21
ENDBRANCH  17  20
ENDBRANCH  16  17
ENDBRANCH  15  16
ENDBRANCH   1  15
BRANCH   1  24
HETATM   24  C7  UNL     1      54.923  58.645 112.902  1.00  0.00     0.193 C 
BRANCH  24  25
HETATM   25  O1  UNL     1      53.610  59.059 112.585  1.00  0.00    -0.321 OA
BRANCH  25  26
HETATM   26  C8  UNL     1      53.375  59.801 111.456  1.00  0.00     0.254 C 
HETATM   27  C9  UNL     1      52.517  61.038 111.479  1.00  0.00     0.126 C 
HETATM   28  O2  UNL     1      53.906  59.410 110.386  1.00  0.00    -0.266 OA
ENDBRANCH  25  26
ENDBRANCH  24  25
ENDBRANCH   1  24
BRANCH   2  29
HETATM   29  O3  UNL     1      55.485  57.235 110.955  1.00  0.00    -0.394 OA
ATOM     30  H3  UNL     1      54.890  56.998 110.254  1.00  0.00     0.210 HD
ENDBRANCH   2  29
BRANCH  14  31
HETATM   31  O7  UNL     1      55.595  57.523 115.659  1.00  0.00    -0.394 OA
ATOM     32  H7  UNL     1      56.331  57.885 116.137  1.00  0.00     0.210 HD
ENDBRANCH  14  31
BRANCH  10  33
HETATM   33  O5  UNL     1      57.693  59.209 114.612  1.00  0.00    -0.364 OA
ATOM     34  H5  UNL     1      57.669  59.420 113.686  1.00  0.00     0.213 HD
ENDBRANCH  10  33
BRANCH   7  35
HETATM   35  C16 UNL     1      61.357  55.640 113.259  1.00  0.00     0.008 C 
HETATM   36  C17 UNL     1      60.998  54.228 113.518  1.00  0.00     0.014 C 
BRANCH  35  37
HETATM   37  C18 UNL     1      62.654  55.820 112.616  1.00  0.00    -0.018 C 
HETATM   38  C19 UNL     1      63.619  56.665 112.676  1.00  0.00    -0.064 C 
HETATM   39  C20 UNL     1      64.819  56.384 111.743  1.00  0.00     0.045 C 
BRANCH  38  40
HETATM   40  C21 UNL     1      63.797  57.876 113.466  1.00  0.00     0.197 C 
BRANCH  40  41
HETATM   41  O4  UNL     1      65.004  57.840 114.208  1.00  0.00    -0.397 OA
ATOM     42  H4  UNL     1      65.487  58.654 114.129  1.00  0.00     0.209 HD
ENDBRANCH  40  41
ENDBRANCH  38  40
ENDBRANCH  35  37
ENDBRANCH   7  35
TORSDOF 16
ENDMDL
MODEL 2
REMARK VINA RESULT: -7.865027737      3.133      6.192
REMARK  16 active torsions:
REMARK  status: ('A' for Active; 'I' for Inactive)
REMARK    1  A    between atoms: C2_2  and  C3_3 
REMARK    2  A    between atoms: C3_3  and  C4_4 
REMARK    3  A    between atoms: C3_3  and  O8_39 
REMARK    4  A    between atoms: C4_4  and  C5_5 
REMARK    5  A    between atoms: C5_5  and  C6_6 
REMARK    6  A    between atoms: C6_6  and  C7_7 
REMARK    7  A    between atoms: C7_7  and  O1_8 
REMARK    8  A    between atoms: O1_8  and  C8_9 
REMARK    9  A    between atoms: C10_12  and  O3_13 
REMARK   10  A    between atoms: C15_19  and  C16_20 
REMARK   11  A    between atoms: C16_20  and  C18_22 
REMARK   12  A    between atoms: C19_23  and  C21_25 
REMARK   13  A    between atoms: C21_25  and  O4_26 
REMARK   14  A    between atoms: C24_30  and  O5_31 
REMARK   15  A    between atoms: C27_36  and  O7_37 
REMARK   16  A    between atoms: O8_39  and  C28_40 
ROOT
HETATM    1  C6  UNL     1      59.523  57.256 113.619  1.00  0.00     0.035 C 
HETATM    2  C10 UNL     1      59.629  58.565 112.874  1.00  0.00     0.135 C 
HETATM    3  C11 UNL     1      60.723  58.647 111.877  1.00  0.00     0.016 C 
HETATM    4  C12 UNL     1      60.926  60.148 111.613  1.00  0.00     0.013 C 
HETATM    5  C13 UNL     1      62.006  58.124 112.517  1.00  0.00     0.011 C 
HETATM    6  C14 UNL     1      63.120  58.484 111.599  1.00  0.00     0.011 C 
HETATM    7  C15 UNL     1      64.460  58.707 112.254  1.00  0.00    -0.007 C 
HETATM    8  C22 UNL     1      64.538  58.144 113.639  1.00  0.00     0.010 C 
HETATM    9  C23 UNL     1      64.315  56.669 113.706  1.00  0.00     0.069 C 
HETATM   10  C24 UNL     1      62.905  56.238 113.888  1.00  0.00     0.174 C 
HETATM   11  O6  UNL     1      62.792  54.947 113.309  1.00  0.00    -0.353 OA
HETATM   12  C25 UNL     1      62.558  55.638 112.094  1.00  0.00     0.189 C 
HETATM   13  C26 UNL     1      61.902  56.698 112.921  1.00  0.00     0.068 C 
HETATM   14  C27 UNL     1      60.482  56.239 113.161  1.00  0.00     0.147 C 
ENDROOT
BRANCH   1  15
HETATM   15  C5  UNL     1      58.090  56.778 113.458  1.00  0.00     0.020 C 
BRANCH  15  16
HETATM   16  C4  UNL     1      57.675  56.434 112.086  1.00  0.00     0.037 C 
BRANCH  16  17
HETATM   17  C3  UNL     1      56.142  56.555 112.064  1.00  0.00     0.154 C 
BRANCH  17  18
HETATM   18  C2  UNL     1      55.670  57.556 113.033  1.00  0.00    -0.005 C 
HETATM   19  C1  UNL     1      54.749  58.424 112.681  1.00  0.00     0.009 C 
ENDBRANCH  17  18
BRANCH  17  20
HETATM   20  O8  UNL     1      55.659  56.769 110.763  1.00  0.00    -0.312 OA
BRANCH  20  21
HETATM   21  C28 UNL     1      55.319  55.720 109.922  1.00  0.00     0.255 C 
HETATM   22  C29 UNL     1      55.175  55.847 108.450  1.00  0.00     0.126 C 
HETATM   23  O9  UNL     1      55.121  54.590 110.434  1.00  0.00    -0.266 OA
ENDBRANCH  20  21
ENDBRANCH  17  20
ENDBRANCH  16  17
ENDBRANCH  15  16
ENDBRANCH   1  15
BRANCH   1  24
HETATM   24  C7  UNL     1      59.581  57.620 115.094  1.00  0.00     0.193 C 
BRANCH  24  25
HETATM   25  O1  UNL     1      59.653  56.483 115.931  1.00  0.00    -0.321 OA
BRANCH  25  26
HETATM   26  C8  UNL     1      59.888  56.630 117.274  1.00  0.00     0.254 C 
HETATM   27  C9  UNL     1      59.065  55.912 118.311  1.00  0.00     0.126 C 
HETATM   28  O2  UNL     1      60.827  57.393 117.616  1.00  0.00    -0.266 OA
ENDBRANCH  25  26
ENDBRANCH  24  25
ENDBRANCH   1  24
BRANCH   2  29
HETATM   29  O3  UNL     1      59.710  59.668 113.722  1.00  0.00    -0.394 OA
ATOM     30  H3  UNL     1      59.048  59.659 114.403  1.00  0.00     0.210 HD
ENDBRANCH   2  29
BRANCH  14  31
HETATM   31  O7  UNL     1      60.463  55.015 113.774  1.00  0.00    -0.394 OA
ATOM     32  H7  UNL     1      61.250  54.726 114.220  1.00  0.00     0.210 HD
ENDBRANCH  14  31
BRANCH  10  33
HETATM   33  O5  UNL     1      62.597  56.281 115.251  1.00  0.00    -0.364 OA
ATOM     34  H5  UNL     1      61.831  55.741 115.407  1.00  0.00     0.213 HD
ENDBRANCH  10  33
BRANCH   7  35
HETATM   35  C16 UNL     1      65.593  58.225 111.347  1.00  0.00     0.008 C 
HETATM   36  C17 UNL     1      65.990  59.279 110.387  1.00  0.00     0.014 C 
BRANCH  35  37
HETATM   37  C18 UNL     1      66.710  57.599 112.046  1.00  0.00    -0.018 C 
HETATM   38  C19 UNL     1      67.989  57.709 112.053  1.00  0.00    -0.064 C 
HETATM   39  C20 UNL     1      68.741  56.769 113.023  1.00  0.00     0.045 C 
BRANCH  38  40
HETATM   40  C21 UNL     1      68.890  58.564 111.291  1.00  0.00     0.197 C 
BRANCH  40  41
HETATM   41  O4  UNL     1      69.981  59.006 112.083  1.00  0.00    -0.397 OA
ATOM     42  H4  UNL     1      70.260  59.880 111.836  1.00  0.00     0.209 HD
ENDBRANCH  40  41
ENDBRANCH  38  40
ENDBRANCH  35  37
ENDBRANCH   7  35
TORSDOF 16
ENDMDL
MODEL 3
REMARK VINA RESULT: -7.747859330      1.144      1.827
REMARK  16 active torsions:
REMARK  status: ('A' for Active; 'I' for Inactive)
REMARK    1  A    between atoms: C2_2  and  C3_3 
REMARK    2  A    between atoms: C3_3  and  C4_4 
REMARK    3  A    between atoms: C3_3  and  O8_39 
REMARK    4  A    between atoms: C4_4  and  C5_5 
REMARK    5  A    between atoms: C5_5  and  C6_6 
REMARK    6  A    between atoms: C6_6  and  C7_7 
REMARK    7  A    between atoms: C7_7  and  O1_8 
REMARK    8  A    between atoms: O1_8  and  C8_9 
REMARK    9  A    between atoms: C10_12  and  O3_13 
REMARK   10  A    between atoms: C15_19  and  C16_20 
REMARK   11  A    between atoms: C16_20  and  C18_22 
REMARK   12  A    between atoms: C19_23  and  C21_25 
REMARK   13  A    between atoms: C21_25  and  O4_26 
REMARK   14  A    between atoms: C24_30  and  O5_31 
REMARK   15  A    between atoms: C27_36  and  O7_37 
REMARK   16  A    between atoms: O8_39  and  C28_40 
ROOT
HETATM    1  C6  UNL     1      55.084  57.350 113.209  1.00  0.00     0.035 C 
HETATM    2  C10 UNL     1      55.407  56.475 112.022  1.00  0.00     0.135 C 
HETATM    3  C11 UNL     1      56.595  55.602 112.175  1.00  0.00     0.016 C 
HETATM    4  C12 UNL     1      56.988  55.190 110.748  1.00  0.00     0.013 C 
HETATM    5  C13 UNL     1      57.744  56.435 112.738  1.00  0.00     0.011 C 
HETATM    6  C14 UNL     1      58.974  55.610 112.609  1.00  0.00     0.011 C 
HETATM    7  C15 UNL     1      60.260  56.378 112.438  1.00  0.00    -0.007 C 
HETATM    8  C22 UNL     1      60.140  57.819 112.825  1.00  0.00     0.010 C 
HETATM    9  C23 UNL     1      59.749  58.032 114.251  1.00  0.00     0.069 C 
HETATM   10  C24 UNL     1      58.289  58.106 114.515  1.00  0.00     0.174 C 
HETATM   11  O6  UNL     1      58.089  57.671 115.850  1.00  0.00    -0.353 OA
HETATM   12  C25 UNL     1      58.053  56.367 115.300  1.00  0.00     0.189 C 
HETATM   13  C26 UNL     1      57.442  56.988 114.084  1.00  0.00     0.068 C 
HETATM   14  C27 UNL     1      55.963  57.122 114.366  1.00  0.00     0.147 C 
ENDROOT
BRANCH   1  15
HETATM   15  C5  UNL     1      53.629  57.089 113.560  1.00  0.00     0.020 C 
BRANCH  15  16
HETATM   16  C4  UNL     1      53.312  55.727 114.024  1.00  0.00     0.037 C 
BRANCH  16  17
HETATM   17  C3  UNL     1      52.888  55.867 115.496  1.00  0.00     0.154 C 
BRANCH  17  18
HETATM   18  C2  UNL     1      51.434  55.706 115.651  1.00  0.00    -0.005 C 
HETATM   19  C1  UNL     1      50.662  56.766 115.733  1.00  0.00     0.009 C 
ENDBRANCH  17  18
BRANCH  17  20
HETATM   20  O8  UNL     1      53.634  55.022 116.332  1.00  0.00    -0.312 OA
BRANCH  20  21
HETATM   21  C28 UNL     1      54.046  55.413 117.596  1.00  0.00     0.255 C 
HETATM   22  C29 UNL     1      53.347  55.043 118.852  1.00  0.00     0.126 C 
HETATM   23  O9  UNL     1      55.077  56.125 117.689  1.00  0.00    -0.266 OA
ENDBRANCH  20  21
ENDBRANCH  17  20
ENDBRANCH  16  17
ENDBRANCH  15  16
ENDBRANCH   1  15
BRANCH   1  24
HETATM   24  C7  UNL     1      55.038  58.771 112.669  1.00  0.00     0.193 C 
BRANCH  24  25
HETATM   25  O1  UNL     1      54.068  59.568 113.319  1.00  0.00    -0.321 OA
BRANCH  25  26
HETATM   26  C8  UNL     1      53.413  60.555 112.629  1.00  0.00     0.254 C 
HETATM   27  C9  UNL     1      52.821  60.318 111.265  1.00  0.00     0.126 C 
HETATM   28  O2  UNL     1      53.320  61.681 113.181  1.00  0.00    -0.266 OA
ENDBRANCH  25  26
ENDBRANCH  24  25
ENDBRANCH   1  24
BRANCH   2  29
HETATM   29  O3  UNL     1      55.527  57.193 110.834  1.00  0.00    -0.394 OA
ATOM     30  H3  UNL     1      55.015  57.993 110.833  1.00  0.00     0.210 HD
ENDBRANCH   2  29
BRANCH  14  31
HETATM   31  O7  UNL     1      55.748  57.866 115.495  1.00  0.00    -0.394 OA
ATOM     32  H7  UNL     1      56.376  58.546 115.707  1.00  0.00     0.210 HD
ENDBRANCH  14  31
BRANCH  10  33
HETATM   33  O5  UNL     1      57.857  59.413 114.269  1.00  0.00    -0.364 OA
ATOM     34  H5  UNL     1      57.719  59.848 115.101  1.00  0.00     0.213 HD
ENDBRANCH  10  33
BRANCH   7  35
HETATM   35  C16 UNL     1      61.415  55.664 113.141  1.00  0.00     0.008 C 
HETATM   36  C17 UNL     1      61.081  54.247 113.406  1.00  0.00     0.014 C 
BRANCH  35  37
HETATM   37  C18 UNL     1      62.723  55.865 112.527  1.00  0.00    -0.018 C 
HETATM   38  C19 UNL     1      63.687  56.707 112.631  1.00  0.00    -0.064 C 
HETATM   39  C20 UNL     1      64.903  56.456 111.711  1.00  0.00     0.045 C 
BRANCH  38  40
HETATM   40  C21 UNL     1      63.850  57.891 113.464  1.00  0.00     0.197 C 
BRANCH  40  41
HETATM   41  O4  UNL     1      65.070  57.855 114.186  1.00  0.00    -0.397 OA
ATOM     42  H4  UNL     1      65.697  58.482 113.844  1.00  0.00     0.209 HD
ENDBRANCH  40  41
ENDBRANCH  38  40
ENDBRANCH  35  37
ENDBRANCH   7  35
TORSDOF 16
ENDMDL
MODEL 4
REMARK VINA RESULT: -7.578893305      2.266      8.470
REMARK  16 active torsions:
REMARK  status: ('A' for Active; 'I' for Inactive)
REMARK    1  A    between atoms: C2_2  and  C3_3 
REMARK    2  A    between atoms: C3_3  and  C4_4 
REMARK    3  A    between atoms: C3_3  and  O8_39 
REMARK    4  A    between atoms: C4_4  and  C5_5 
REMARK    5  A    between atoms: C5_5  and  C6_6 
REMARK    6  A    between atoms: C6_6  and  C7_7 
REMARK    7  A    between atoms: C7_7  and  O1_8 
REMARK    8  A    between atoms: O1_8  and  C8_9 
REMARK    9  A    between atoms: C10_12  and  O3_13 
REMARK   10  A    between atoms: C15_19  and  C16_20 
REMARK   11  A    between atoms: C16_20  and  C18_22 
REMARK   12  A    between atoms: C19_23  and  C21_25 
REMARK   13  A    between atoms: C21_25  and  O4_26 
REMARK   14  A    between atoms: C24_30  and  O5_31 
REMARK   15  A    between atoms: C27_36  and  O7_37 
REMARK   16  A    between atoms: O8_39  and  C28_40 
ROOT
HETATM    1  C6  UNL     1      60.962  56.219 114.105  1.00  0.00     0.035 C 
HETATM    2  C10 UNL     1      60.689  55.323 112.921  1.00  0.00     0.135 C 
HETATM    3  C11 UNL     1      59.567  55.740 112.047  1.00  0.00     0.016 C 
HETATM    4  C12 UNL     1      59.190  54.489 111.238  1.00  0.00     0.013 C 
HETATM    5  C13 UNL     1      58.368  56.089 112.926  1.00  0.00     0.011 C 
HETATM    6  C14 UNL     1      57.198  56.223 112.018  1.00  0.00     0.011 C 
HETATM    7  C15 UNL     1      55.859  55.888 112.625  1.00  0.00    -0.007 C 
HETATM    8  C22 UNL     1      55.881  55.868 114.122  1.00  0.00     0.010 C 
HETATM    9  C23 UNL     1      56.271  57.172 114.739  1.00  0.00     0.069 C 
HETATM   10  C24 UNL     1      57.724  57.363 114.977  1.00  0.00     0.174 C 
HETATM   11  O6  UNL     1      57.967  58.760 114.935  1.00  0.00    -0.353 OA
HETATM   12  C25 UNL     1      58.089  58.582 113.535  1.00  0.00     0.189 C 
HETATM   13  C26 UNL     1      58.643  57.227 113.841  1.00  0.00     0.068 C 
HETATM   14  C27 UNL     1      60.112  57.420 114.143  1.00  0.00     0.147 C 
ENDROOT
BRANCH   1  15
HETATM   15  C5  UNL     1      62.435  56.586 114.045  1.00  0.00     0.020 C 
BRANCH  15  16
HETATM   16  C4  UNL     1      62.987  56.814 112.697  1.00  0.00     0.037 C 
BRANCH  16  17
HETATM   17  C3  UNL     1      63.070  58.340 112.526  1.00  0.00     0.154 C 
BRANCH  17  18
HETATM   18  C2  UNL     1      64.452  58.775 112.270  1.00  0.00    -0.005 C 
HETATM   19  C1  UNL     1      65.301  57.954 111.693  1.00  0.00     0.009 C 
ENDBRANCH  17  18
BRANCH  17  20
HETATM   20  O8  UNL     1      62.155  58.803 111.567  1.00  0.00    -0.312 OA
BRANCH  20  21
HETATM   21  C28 UNL     1      61.391  59.942 111.768  1.00  0.00     0.255 C 
HETATM   22  C29 UNL     1      60.856  60.789 110.673  1.00  0.00     0.126 C 
HETATM   23  O9  UNL     1      61.134  60.282 112.950  1.00  0.00    -0.266 OA
ENDBRANCH  20  21
ENDBRANCH  17  20
ENDBRANCH  16  17
ENDBRANCH  15  16
ENDBRANCH   1  15
BRANCH   1  24
HETATM   24  C7  UNL     1      60.902  55.314 115.326  1.00  0.00     0.193 C 
BRANCH  24  25
HETATM   25  O1  UNL     1      61.654  55.816 116.411  1.00  0.00    -0.321 OA
BRANCH  25  26
HETATM   26  C8  UNL     1      61.030  56.154 117.585  1.00  0.00     0.254 C 
HETATM   27  C9  UNL     1      60.712  55.131 118.643  1.00  0.00     0.126 C 
HETATM   28  O2  UNL     1      60.727  57.363 117.751  1.00  0.00    -0.266 OA
ENDBRANCH  25  26
ENDBRANCH  24  25
ENDBRANCH   1  24
BRANCH   2  29
HETATM   29  O3  UNL     1      60.507  53.988 113.281  1.00  0.00    -0.394 OA
ATOM     30  H3  UNL     1      60.010  53.497 112.638  1.00  0.00     0.210 HD
ENDBRANCH   2  29
BRANCH  14  31
HETATM   31  O7  UNL     1      60.285  58.298 115.178  1.00  0.00    -0.394 OA
ATOM     32  H7  UNL     1      60.274  57.954 116.063  1.00  0.00     0.210 HD
ENDBRANCH  14  31
BRANCH  10  33
HETATM   33  O5  UNL     1      58.061  56.761 116.193  1.00  0.00    -0.364 OA
ATOM     34  H5  UNL     1      57.442  56.061 116.367  1.00  0.00     0.213 HD
ENDBRANCH  10  33
BRANCH   7  35
HETATM   35  C16 UNL     1      54.764  56.790 112.055  1.00  0.00     0.008 C 
HETATM   36  C17 UNL     1      54.422  56.400 110.669  1.00  0.00     0.014 C 
BRANCH  35  37
HETATM   37  C18 UNL     1      53.610  56.976 112.927  1.00  0.00    -0.018 C 
HETATM   38  C19 UNL     1      52.938  57.967 113.393  1.00  0.00    -0.064 C 
HETATM   39  C20 UNL     1      51.751  57.602 114.313  1.00  0.00     0.045 C 
BRANCH  38  40
HETATM   40  C21 UNL     1      53.096  59.405 113.226  1.00  0.00     0.197 C 
BRANCH  40  41
HETATM   41  O4  UNL     1      53.697  59.998 114.365  1.00  0.00    -0.397 OA
ATOM     42  H4  UNL     1      54.191  60.776 114.134  1.00  0.00     0.209 HD
ENDBRANCH  40  41
ENDBRANCH  38  40
ENDBRANCH  35  37
ENDBRANCH   7  35
TORSDOF 16
ENDMDL
MODEL 5
REMARK VINA RESULT: -7.568587759      3.056      6.159
REMARK  16 active torsions:
REMARK  status: ('A' for Active; 'I' for Inactive)
REMARK    1  A    between atoms: C2_2  and  C3_3 
REMARK    2  A    between atoms: C3_3  and  C4_4 
REMARK    3  A    between atoms: C3_3  and  O8_39 
REMARK    4  A    between atoms: C4_4  and  C5_5 
REMARK    5  A    between atoms: C5_5  and  C6_6 
REMARK    6  A    between atoms: C6_6  and  C7_7 
REMARK    7  A    between atoms: C7_7  and  O1_8 
REMARK    8  A    between atoms: O1_8  and  C8_9 
REMARK    9  A    between atoms: C10_12  and  O3_13 
REMARK   10  A    between atoms: C15_19  and  C16_20 
REMARK   11  A    between atoms: C16_20  and  C18_22 
REMARK   12  A    between atoms: C19_23  and  C21_25 
REMARK   13  A    between atoms: C21_25  and  O4_26 
REMARK   14  A    between atoms: C24_30  and  O5_31 
REMARK   15  A    between atoms: C27_36  and  O7_37 
REMARK   16  A    between atoms: O8_39  and  C28_40 
ROOT
HETATM    1  C6  UNL     1      59.553  57.198 113.735  1.00  0.00     0.035 C 
HETATM    2  C10 UNL     1      59.629  58.501 112.975  1.00  0.00     0.135 C 
HETATM    3  C11 UNL     1      60.694  58.582 111.948  1.00  0.00     0.016 C 
HETATM    4  C12 UNL     1      60.877  60.081 111.664  1.00  0.00     0.013 C 
HETATM    5  C13 UNL     1      61.998  58.074 112.557  1.00  0.00     0.011 C 
HETATM    6  C14 UNL     1      63.083  58.434 111.605  1.00  0.00     0.011 C 
HETATM    7  C15 UNL     1      64.439  58.674 112.221  1.00  0.00    -0.007 C 
HETATM    8  C22 UNL     1      64.559  58.125 113.609  1.00  0.00     0.010 C 
HETATM    9  C23 UNL     1      64.350  56.648 113.696  1.00  0.00     0.069 C 
HETATM   10  C24 UNL     1      62.950  56.208 113.921  1.00  0.00     0.174 C 
HETATM   11  O6  UNL     1      62.830  54.911 113.357  1.00  0.00    -0.353 OA
HETATM   12  C25 UNL     1      62.558  55.588 112.143  1.00  0.00     0.189 C 
HETATM   13  C26 UNL     1      61.917  56.651 112.977  1.00  0.00     0.068 C 
HETATM   14  C27 UNL     1      60.507  56.184 113.261  1.00  0.00     0.147 C 
ENDROOT
BRANCH   1  15
HETATM   15  C5  UNL     1      58.120  56.707 113.619  1.00  0.00     0.020 C 
BRANCH  15  16
HETATM   16  C4  UNL     1      57.307  57.337 112.563  1.00  0.00     0.037 C 
BRANCH  16  17
HETATM   17  C3  UNL     1      56.745  56.182 111.716  1.00  0.00     0.154 C 
BRANCH  17  18
HETATM   18  C2  UNL     1      57.769  55.631 110.815  1.00  0.00    -0.005 C 
HETATM   19  C1  UNL     1      57.504  55.477 109.538  1.00  0.00     0.009 C 
ENDBRANCH  17  18
BRANCH  17  20
HETATM   20  O8  UNL     1      56.125  55.209 112.515  1.00  0.00    -0.312 OA
BRANCH  20  21
HETATM   21  C28 UNL     1      54.747  55.071 112.573  1.00  0.00     0.255 C 
HETATM   22  C29 UNL     1      53.920  55.458 113.743  1.00  0.00     0.126 C 
HETATM   23  O9  UNL     1      54.157  54.589 111.573  1.00  0.00    -0.266 OA
ENDBRANCH  20  21
ENDBRANCH  17  20
ENDBRANCH  16  17
ENDBRANCH  15  16
ENDBRANCH   1  15
BRANCH   1  24
HETATM   24  C7  UNL     1      59.648  57.576 115.205  1.00  0.00     0.193 C 
BRANCH  24  25
HETATM   25  O1  UNL     1      59.785  56.450 116.048  1.00  0.00    -0.321 OA
BRANCH  25  26
HETATM   26  C8  UNL     1      59.988  56.616 117.394  1.00  0.00     0.254 C 
HETATM   27  C9  UNL     1      59.111  55.952 118.421  1.00  0.00     0.126 C 
HETATM   28  O2  UNL     1      60.945  57.352 117.747  1.00  0.00    -0.266 OA
ENDBRANCH  25  26
ENDBRANCH  24  25
ENDBRANCH   1  24
BRANCH   2  29
HETATM   29  O3  UNL     1      59.723  59.612 113.811  1.00  0.00    -0.394 OA
ATOM     30  H3  UNL     1      59.124  60.308 113.570  1.00  0.00     0.210 HD
ENDBRANCH   2  29
BRANCH  14  31
HETATM   31  O7  UNL     1      60.515  54.965 113.885  1.00  0.00    -0.394 OA
ATOM     32  H7  UNL     1      61.287  54.723 114.382  1.00  0.00     0.210 HD
ENDBRANCH  14  31
BRANCH  10  33
HETATM   33  O5  UNL     1      62.679  56.262 115.291  1.00  0.00    -0.364 OA
ATOM     34  H5  UNL     1      62.089  55.551 115.512  1.00  0.00     0.213 HD
ENDBRANCH  10  33
BRANCH   7  35
HETATM   35  C16 UNL     1      65.550  58.191 111.288  1.00  0.00     0.008 C 
HETATM   36  C17 UNL     1      65.918  59.242 110.313  1.00  0.00     0.014 C 
BRANCH  35  37
HETATM   37  C18 UNL     1      66.688  57.574 111.961  1.00  0.00    -0.018 C 
HETATM   38  C19 UNL     1      67.962  57.733 111.981  1.00  0.00    -0.064 C 
HETATM   39  C20 UNL     1      68.745  56.774 112.907  1.00  0.00     0.045 C 
BRANCH  38  40
HETATM   40  C21 UNL     1      68.832  58.659 111.271  1.00  0.00     0.197 C 
BRANCH  40  41
HETATM   41  O4  UNL     1      69.988  58.973 112.030  1.00  0.00    -0.397 OA
ATOM     42  H4  UNL     1      69.765  59.430 112.832  1.00  0.00     0.209 HD
ENDBRANCH  40  41
ENDBRANCH  38  40
ENDBRANCH  35  37
ENDBRANCH   7  35
TORSDOF 16
ENDMDL
