MODEL 1
REMARK VINA RESULT: -6.629631309      0.000      0.000
REMARK  11 active torsions:
REMARK  status: ('A' for Active; 'I' for Inactive)
REMARK    1  A    between atoms: O1_2  and  C2_3 
REMARK    2  A    between atoms: C2_3  and  C3_5 
REMARK    3  A    between atoms: C3_5  and  N1_6 
REMARK    4  A    between atoms: C3_5  and  C21_35 
REMARK       I    between atoms: N1_6  and  C4_8 
REMARK    5  A    between atoms: C4_8  and  C5_10 
REMARK    6  A    between atoms: C5_10  and  N2_12 
REMARK       I    between atoms: N2_12  and  C7_14 
REMARK    7  A    between atoms: C7_14  and  C8_16 
REMARK    8  A    between atoms: C8_16  and  N3_18 
REMARK       I    between atoms: N3_18  and  C10_20 
REMARK       I    between atoms: C10_20  and  N4_22 
REMARK    9  A    between atoms: N4_22  and  C11_24 
REMARK   10  A    between atoms: C14_27  and  O6_28 
REMARK   11  A    between atoms: O6_28  and  C15_29 
ROOT
HETATM    1  C8  UNL     1      -2.882  18.643   8.657  1.00  0.00     0.174 C 
HETATM    2  C9  UNL     1      -2.947  17.686   7.494  1.00  0.00     0.042 C 
ENDROOT
BRANCH   1   3
HETATM    3  C7  UNL     1      -4.260  19.024   9.031  1.00  0.00     0.240 C 
HETATM    4  N2  UNL     1      -4.601  20.383   9.111  1.00  0.00    -0.346 N 
ATOM      5  H2  UNL     1      -3.875  21.072   8.913  1.00  0.00     0.163 HD
HETATM    6  O4  UNL     1      -5.119  18.157   9.272  1.00  0.00    -0.271 OA
BRANCH   4   7
HETATM    7  C5  UNL     1      -5.939  20.875   9.464  1.00  0.00     0.172 C 
HETATM    8  C6  UNL     1      -5.724  22.017  10.457  1.00  0.00     0.042 C 
BRANCH   7   9
HETATM    9  C4  UNL     1      -6.574  21.359   8.231  1.00  0.00     0.240 C 
HETATM   10  N1  UNL     1      -7.434  22.466   8.261  1.00  0.00    -0.345 N 
ATOM     11  H1  UNL     1      -7.600  22.911   9.165  1.00  0.00     0.163 HD
HETATM   12  O3  UNL     1      -6.342  20.779   7.152  1.00  0.00    -0.271 OA
BRANCH  10  13
HETATM   13  C3  UNL     1      -8.102  23.022   7.109  1.00  0.00     0.187 C 
BRANCH  13  14
HETATM   14  C2  UNL     1      -9.319  22.258   6.730  1.00  0.00     0.281 C 
HETATM   15  O2  UNL     1      -9.725  21.294   7.427  1.00  0.00    -0.263 OA
BRANCH  14  16
HETATM   16  O1  UNL     1     -10.066  22.562   5.602  1.00  0.00    -0.325 OA
HETATM   17  C1  UNL     1     -10.814  21.633   4.861  1.00  0.00     0.213 C 
ENDBRANCH  14  16
ENDBRANCH  13  14
BRANCH  13  18
HETATM   18  C21 UNL     1      -8.274  24.498   7.116  1.00  0.00     0.010 C 
HETATM   19  C22 UNL     1      -7.018  25.290   7.223  1.00  0.00     0.012 C 
HETATM   20  C23 UNL     1      -9.227  24.859   8.251  1.00  0.00     0.012 C 
ENDBRANCH  13  18
ENDBRANCH  10  13
ENDBRANCH   7   9
ENDBRANCH   4   7
ENDBRANCH   1   3
BRANCH   1  21
HETATM   21  N3  UNL     1      -2.030  19.782   8.388  1.00  0.00    -0.330 N 
HETATM   22  C10 UNL     1      -0.803  19.877   9.125  1.00  0.00     0.317 C 
HETATM   23  O5  UNL     1      -0.488  18.999   9.985  1.00  0.00    -0.247 OA
HETATM   24  N4  UNL     1       0.071  20.970   8.888  1.00  0.00    -0.339 N 
ATOM     25  H4  UNL     1      -0.174  21.674   8.192  1.00  0.00     0.164 HD
ATOM     26  H3  UNL     1      -2.292  20.489   7.702  1.00  0.00     0.165 HD
BRANCH  24  27
HETATM   27  C11 UNL     1       1.296  21.088   9.621  1.00  0.00     0.086 C 
HETATM   28  C12 UNL     1       1.676  22.525   9.859  1.00  0.00     0.028 C 
HETATM   29  C13 UNL     1       2.335  23.068   8.606  1.00  0.00     0.034 C 
HETATM   30  C14 UNL     1       3.656  22.397   8.327  1.00  0.00     0.122 C 
HETATM   31  C19 UNL     1       3.718  21.045   8.994  1.00  0.00     0.034 C 
HETATM   32  C20 UNL     1       2.395  20.318   8.921  1.00  0.00     0.028 C 
BRANCH  30  33
HETATM   33  O6  UNL     1       3.755  22.176   6.969  1.00  0.00    -0.376 OA
BRANCH  33  34
HETATM   34  C15 UNL     1       4.913  22.618   6.386  1.00  0.00     0.050 C 
HETATM   35  C16 UNL     1       5.753  23.506   7.273  1.00  0.00     0.045 C 
HETATM   36  C17 UNL     1       4.519  23.448   5.167  1.00  0.00     0.045 C 
HETATM   37  C18 UNL     1       5.767  21.477   5.846  1.00  0.00     0.045 C 
ENDBRANCH  33  34
ENDBRANCH  30  33
ENDBRANCH  24  27
ENDBRANCH   1  21
TORSDOF 11
ENDMDL
MODEL 2
REMARK VINA RESULT: -6.597728892      0.931      1.174
REMARK  11 active torsions:
REMARK  status: ('A' for Active; 'I' for Inactive)
REMARK    1  A    between atoms: O1_2  and  C2_3 
REMARK    2  A    between atoms: C2_3  and  C3_5 
REMARK    3  A    between atoms: C3_5  and  N1_6 
REMARK    4  A    between atoms: C3_5  and  C21_35 
REMARK       I    between atoms: N1_6  and  C4_8 
REMARK    5  A    between atoms: C4_8  and  C5_10 
REMARK    6  A    between atoms: C5_10  and  N2_12 
REMARK       I    between atoms: N2_12  and  C7_14 
REMARK    7  A    between atoms: C7_14  and  C8_16 
REMARK    8  A    between atoms: C8_16  and  N3_18 
REMARK       I    between atoms: N3_18  and  C10_20 
REMARK       I    between atoms: C10_20  and  N4_22 
REMARK    9  A    between atoms: N4_22  and  C11_24 
REMARK   10  A    between atoms: C14_27  and  O6_28 
REMARK   11  A    between atoms: O6_28  and  C15_29 
ROOT
HETATM    1  C8  UNL     1      -2.868  18.513   8.538  1.00  0.00     0.174 C 
HETATM    2  C9  UNL     1      -2.997  17.750   7.243  1.00  0.00     0.042 C 
ENDROOT
BRANCH   1   3
HETATM    3  C7  UNL     1      -4.216  18.938   8.970  1.00  0.00     0.240 C 
HETATM    4  N2  UNL     1      -4.529  20.306   9.002  1.00  0.00    -0.346 N 
ATOM      5  H2  UNL     1      -3.805  20.970   8.727  1.00  0.00     0.163 HD
HETATM    6  O4  UNL     1      -5.074  18.101   9.303  1.00  0.00    -0.271 OA
BRANCH   4   7
HETATM    7  C5  UNL     1      -5.836  20.840   9.405  1.00  0.00     0.172 C 
HETATM    8  C6  UNL     1      -5.546  21.984  10.376  1.00  0.00     0.042 C 
BRANCH   7   9
HETATM    9  C4  UNL     1      -6.508  21.332   8.195  1.00  0.00     0.240 C 
HETATM   10  N1  UNL     1      -7.355  22.447   8.255  1.00  0.00    -0.345 N 
ATOM     11  H1  UNL     1      -7.486  22.893   9.164  1.00  0.00     0.163 HD
HETATM   12  O3  UNL     1      -6.319  20.751   7.108  1.00  0.00    -0.271 OA
BRANCH  10  13
HETATM   13  C3  UNL     1      -8.057  23.012   7.126  1.00  0.00     0.187 C 
BRANCH  13  14
HETATM   14  C2  UNL     1      -9.288  22.254   6.783  1.00  0.00     0.281 C 
HETATM   15  O2  UNL     1      -9.689  21.303   7.501  1.00  0.00    -0.263 OA
BRANCH  14  16
HETATM   16  O1  UNL     1     -10.056  22.551   5.667  1.00  0.00    -0.325 OA
HETATM   17  C1  UNL     1     -10.760  21.606   4.903  1.00  0.00     0.213 C 
ENDBRANCH  14  16
ENDBRANCH  13  14
BRANCH  13  18
HETATM   18  C21 UNL     1      -8.222  24.488   7.145  1.00  0.00     0.010 C 
HETATM   19  C22 UNL     1      -6.969  25.271   7.327  1.00  0.00     0.012 C 
HETATM   20  C23 UNL     1      -9.230  24.839   8.235  1.00  0.00     0.012 C 
ENDBRANCH  13  18
ENDBRANCH  10  13
ENDBRANCH   7   9
ENDBRANCH   4   7
ENDBRANCH   1   3
BRANCH   1  21
HETATM   21  N3  UNL     1      -1.929  19.609   8.441  1.00  0.00    -0.330 N 
HETATM   22  C10 UNL     1      -0.734  19.527   9.231  1.00  0.00     0.317 C 
HETATM   23  O5  UNL     1      -0.520  18.533   9.990  1.00  0.00    -0.247 OA
HETATM   24  N4  UNL     1       0.222  20.573   9.162  1.00  0.00    -0.339 N 
ATOM     25  H4  UNL     1       0.059  21.371   8.547  1.00  0.00     0.164 HD
ATOM     26  H3  UNL     1      -2.109  20.410   7.836  1.00  0.00     0.165 HD
BRANCH  24  27
HETATM   27  C11 UNL     1       1.417  20.514   9.951  1.00  0.00     0.086 C 
HETATM   28  C12 UNL     1       1.489  21.635  10.952  1.00  0.00     0.028 C 
HETATM   29  C13 UNL     1       1.976  22.886  10.248  1.00  0.00     0.034 C 
HETATM   30  C14 UNL     1       3.400  22.749   9.773  1.00  0.00     0.122 C 
HETATM   31  C19 UNL     1       3.771  21.294   9.616  1.00  0.00     0.034 C 
HETATM   32  C20 UNL     1       2.632  20.479   9.048  1.00  0.00     0.028 C 
BRANCH  30  33
HETATM   33  O6  UNL     1       3.499  23.323   8.522  1.00  0.00    -0.376 OA
BRANCH  33  34
HETATM   34  C15 UNL     1       4.517  24.227   8.371  1.00  0.00     0.050 C 
HETATM   35  C16 UNL     1       5.136  24.684   9.671  1.00  0.00     0.045 C 
HETATM   36  C17 UNL     1       3.928  25.464   7.697  1.00  0.00     0.045 C 
HETATM   37  C18 UNL     1       5.607  23.729   7.431  1.00  0.00     0.045 C 
ENDBRANCH  33  34
ENDBRANCH  30  33
ENDBRANCH  24  27
ENDBRANCH   1  21
TORSDOF 11
ENDMDL
MODEL 3
REMARK VINA RESULT: -6.428984598      1.612      2.106
REMARK  11 active torsions:
REMARK  status: ('A' for Active; 'I' for Inactive)
REMARK    1  A    between atoms: O1_2  and  C2_3 
REMARK    2  A    between atoms: C2_3  and  C3_5 
REMARK    3  A    between atoms: C3_5  and  N1_6 
REMARK    4  A    between atoms: C3_5  and  C21_35 
REMARK       I    between atoms: N1_6  and  C4_8 
REMARK    5  A    between atoms: C4_8  and  C5_10 
REMARK    6  A    between atoms: C5_10  and  N2_12 
REMARK       I    between atoms: N2_12  and  C7_14 
REMARK    7  A    between atoms: C7_14  and  C8_16 
REMARK    8  A    between atoms: C8_16  and  N3_18 
REMARK       I    between atoms: N3_18  and  C10_20 
REMARK       I    between atoms: C10_20  and  N4_22 
REMARK    9  A    between atoms: N4_22  and  C11_24 
REMARK   10  A    between atoms: C14_27  and  O6_28 
REMARK   11  A    between atoms: O6_28  and  C15_29 
ROOT
HETATM    1  C8  UNL     1      -2.959  18.317   8.377  1.00  0.00     0.174 C 
HETATM    2  C9  UNL     1      -3.205  17.587   7.081  1.00  0.00     0.042 C 
ENDROOT
BRANCH   1   3
HETATM    3  C7  UNL     1      -4.250  18.831   8.881  1.00  0.00     0.240 C 
HETATM    4  N2  UNL     1      -4.490  20.213   8.878  1.00  0.00    -0.346 N 
ATOM      5  H2  UNL     1      -3.753  20.826   8.530  1.00  0.00     0.163 HD
HETATM    6  O4  UNL     1      -5.125  18.054   9.304  1.00  0.00    -0.271 OA
BRANCH   4   7
HETATM    7  C5  UNL     1      -5.737  20.832   9.346  1.00  0.00     0.172 C 
HETATM    8  C6  UNL     1      -5.322  22.009  10.228  1.00  0.00     0.042 C 
BRANCH   7   9
HETATM    9  C4  UNL     1      -6.476  21.292   8.164  1.00  0.00     0.240 C 
HETATM   10  N1  UNL     1      -7.310  22.416   8.239  1.00  0.00    -0.345 N 
ATOM     11  H1  UNL     1      -7.383  22.892   9.139  1.00  0.00     0.163 HD
HETATM   12  O3  UNL     1      -6.357  20.676   7.086  1.00  0.00    -0.271 OA
BRANCH  10  13
HETATM   13  C3  UNL     1      -8.074  22.952   7.137  1.00  0.00     0.187 C 
BRANCH  13  14
HETATM   14  C2  UNL     1      -9.252  22.113   6.798  1.00  0.00     0.281 C 
HETATM   15  O2  UNL     1      -9.769  21.342   7.647  1.00  0.00    -0.263 OA
BRANCH  14  16
HETATM   16  O1  UNL     1      -9.842  22.132   5.543  1.00  0.00    -0.325 OA
HETATM   17  C1  UNL     1     -11.178  22.482   5.290  1.00  0.00     0.213 C 
ENDBRANCH  14  16
ENDBRANCH  13  14
BRANCH  13  18
HETATM   18  C21 UNL     1      -8.347  24.411   7.194  1.00  0.00     0.010 C 
HETATM   19  C22 UNL     1      -7.155  25.280   7.390  1.00  0.00     0.012 C 
HETATM   20  C23 UNL     1      -9.372  24.659   8.296  1.00  0.00     0.012 C 
ENDBRANCH  13  18
ENDBRANCH  10  13
ENDBRANCH   7   9
ENDBRANCH   4   7
ENDBRANCH   1   3
BRANCH   1  21
HETATM   21  N3  UNL     1      -1.949  19.346   8.248  1.00  0.00    -0.330 N 
HETATM   22  C10 UNL     1      -0.827  19.285   9.139  1.00  0.00     0.317 C 
HETATM   23  O5  UNL     1      -0.735  18.369  10.012  1.00  0.00    -0.247 OA
HETATM   24  N4  UNL     1       0.194  20.266   9.044  1.00  0.00    -0.339 N 
ATOM     25  H4  UNL     1       0.129  21.000   8.339  1.00  0.00     0.164 HD
ATOM     26  H3  UNL     1      -2.032  20.085   7.550  1.00  0.00     0.165 HD
BRANCH  24  27
HETATM   27  C11 UNL     1       1.318  20.229   9.932  1.00  0.00     0.086 C 
HETATM   28  C12 UNL     1       1.080  21.038  11.179  1.00  0.00     0.028 C 
HETATM   29  C13 UNL     1       1.332  22.500  10.867  1.00  0.00     0.034 C 
HETATM   30  C14 UNL     1       2.781  22.766  10.548  1.00  0.00     0.122 C 
HETATM   31  C19 UNL     1       3.466  21.504  10.085  1.00  0.00     0.034 C 
HETATM   32  C20 UNL     1       2.570  20.666   9.202  1.00  0.00     0.028 C 
BRANCH  30  33
HETATM   33  O6  UNL     1       2.839  23.659   9.497  1.00  0.00    -0.376 OA
BRANCH  33  34
HETATM   34  C15 UNL     1       3.367  24.886   9.798  1.00  0.00     0.050 C 
HETATM   35  C16 UNL     1       4.347  25.407   8.773  1.00  0.00     0.045 C 
HETATM   36  C17 UNL     1       4.129  24.741  11.113  1.00  0.00     0.045 C 
HETATM   37  C18 UNL     1       2.294  25.935  10.060  1.00  0.00     0.045 C 
ENDBRANCH  33  34
ENDBRANCH  30  33
ENDBRANCH  24  27
ENDBRANCH   1  21
TORSDOF 11
ENDMDL
MODEL 4
REMARK VINA RESULT: -6.242512958      2.973     10.109
REMARK  11 active torsions:
REMARK  status: ('A' for Active; 'I' for Inactive)
REMARK    1  A    between atoms: O1_2  and  C2_3 
REMARK    2  A    between atoms: C2_3  and  C3_5 
REMARK    3  A    between atoms: C3_5  and  N1_6 
REMARK    4  A    between atoms: C3_5  and  C21_35 
REMARK       I    between atoms: N1_6  and  C4_8 
REMARK    5  A    between atoms: C4_8  and  C5_10 
REMARK    6  A    between atoms: C5_10  and  N2_12 
REMARK       I    between atoms: N2_12  and  C7_14 
REMARK    7  A    between atoms: C7_14  and  C8_16 
REMARK    8  A    between atoms: C8_16  and  N3_18 
REMARK       I    between atoms: N3_18  and  C10_20 
REMARK       I    between atoms: C10_20  and  N4_22 
REMARK    9  A    between atoms: N4_22  and  C11_24 
REMARK   10  A    between atoms: C14_27  and  O6_28 
REMARK   11  A    between atoms: O6_28  and  C15_29 
ROOT
HETATM    1  C8  UNL     1      -3.615  18.704   7.676  1.00  0.00     0.174 C 
HETATM    2  C9  UNL     1      -3.790  17.563   6.707  1.00  0.00     0.042 C 
ENDROOT
BRANCH   1   3
HETATM    3  C7  UNL     1      -2.479  18.395   8.569  1.00  0.00     0.240 C 
HETATM    4  N2  UNL     1      -1.572  19.411   8.907  1.00  0.00    -0.346 N 
ATOM      5  H2  UNL     1      -1.725  20.340   8.514  1.00  0.00     0.163 HD
HETATM    6  O4  UNL     1      -2.319  17.248   9.026  1.00  0.00    -0.271 OA
BRANCH   4   7
HETATM    7  C5  UNL     1      -0.415  19.219   9.791  1.00  0.00     0.172 C 
HETATM    8  C6  UNL     1       0.794  19.034   8.875  1.00  0.00     0.042 C 
BRANCH   7   9
HETATM    9  C4  UNL     1      -0.277  20.429  10.611  1.00  0.00     0.240 C 
HETATM   10  N1  UNL     1       0.705  20.503  11.610  1.00  0.00    -0.345 N 
ATOM     11  H1  UNL     1       1.307  19.690  11.743  1.00  0.00     0.163 HD
HETATM   12  O3  UNL     1      -1.038  21.397  10.413  1.00  0.00    -0.271 OA
BRANCH  10  13
HETATM   13  C3  UNL     1       0.927  21.646  12.465  1.00  0.00     0.187 C 
BRANCH  13  14
HETATM   14  C2  UNL     1       0.489  21.405  13.864  1.00  0.00     0.281 C 
HETATM   15  O2  UNL     1       1.097  20.592  14.606  1.00  0.00    -0.263 OA
BRANCH  14  16
HETATM   16  O1  UNL     1      -0.600  22.056  14.424  1.00  0.00    -0.325 OA
HETATM   17  C1  UNL     1      -0.558  23.331  15.011  1.00  0.00     0.213 C 
ENDBRANCH  14  16
ENDBRANCH  13  14
BRANCH  13  18
HETATM   18  C21 UNL     1       2.255  22.298  12.334  1.00  0.00     0.010 C 
HETATM   19  C22 UNL     1       2.287  23.756  12.631  1.00  0.00     0.012 C 
HETATM   20  C23 UNL     1       2.778  22.031  10.926  1.00  0.00     0.012 C 
ENDBRANCH  13  18
ENDBRANCH  10  13
ENDBRANCH   7   9
ENDBRANCH   4   7
ENDBRANCH   1   3
BRANCH   1  21
HETATM   21  N3  UNL     1      -4.835  19.012   8.393  1.00  0.00    -0.330 N 
HETATM   22  C10 UNL     1      -4.914  20.287   9.044  1.00  0.00     0.317 C 
HETATM   23  O5  UNL     1      -3.946  21.106   8.998  1.00  0.00    -0.247 OA
HETATM   24  N4  UNL     1      -6.094  20.639   9.749  1.00  0.00    -0.339 N 
ATOM     25  H4  UNL     1      -6.879  19.987   9.783  1.00  0.00     0.164 HD
ATOM     26  H3  UNL     1      -5.607  18.347   8.433  1.00  0.00     0.165 HD
BRANCH  24  27
HETATM   27  C11 UNL     1      -6.189  21.904  10.415  1.00  0.00     0.086 C 
HETATM   28  C12 UNL     1      -7.440  22.014  11.244  1.00  0.00     0.028 C 
HETATM   29  C13 UNL     1      -8.599  22.369  10.334  1.00  0.00     0.034 C 
HETATM   30  C14 UNL     1      -8.449  23.748   9.741  1.00  0.00     0.122 C 
HETATM   31  C19 UNL     1      -7.001  24.174   9.744  1.00  0.00     0.034 C 
HETATM   32  C20 UNL     1      -6.074  23.028   9.409  1.00  0.00     0.028 C 
BRANCH  30  33
HETATM   33  O6  UNL     1      -8.847  23.699   8.421  1.00  0.00    -0.376 OA
BRANCH  33  34
HETATM   34  C15 UNL     1      -9.924  24.484   8.105  1.00  0.00     0.050 C 
HETATM   35  C16 UNL     1     -10.478  25.273   9.268  1.00  0.00     0.045 C 
HETATM   36  C17 UNL     1     -11.036  23.555   7.624  1.00  0.00     0.045 C 
HETATM   37  C18 UNL     1      -9.641  25.422   6.938  1.00  0.00     0.045 C 
ENDBRANCH  33  34
ENDBRANCH  30  33
ENDBRANCH  24  27
ENDBRANCH   1  21
TORSDOF 11
ENDMDL
MODEL 5
REMARK VINA RESULT: -6.206026612      6.913      9.633
REMARK  11 active torsions:
REMARK  status: ('A' for Active; 'I' for Inactive)
REMARK    1  A    between atoms: O1_2  and  C2_3 
REMARK    2  A    between atoms: C2_3  and  C3_5 
REMARK    3  A    between atoms: C3_5  and  N1_6 
REMARK    4  A    between atoms: C3_5  and  C21_35 
REMARK       I    between atoms: N1_6  and  C4_8 
REMARK    5  A    between atoms: C4_8  and  C5_10 
REMARK    6  A    between atoms: C5_10  and  N2_12 
REMARK       I    between atoms: N2_12  and  C7_14 
REMARK    7  A    between atoms: C7_14  and  C8_16 
REMARK    8  A    between atoms: C8_16  and  N3_18 
REMARK       I    between atoms: N3_18  and  C10_20 
REMARK       I    between atoms: C10_20  and  N4_22 
REMARK    9  A    between atoms: N4_22  and  C11_24 
REMARK   10  A    between atoms: C14_27  and  O6_28 
REMARK   11  A    between atoms: O6_28  and  C15_29 
ROOT
HETATM    1  C8  UNL     1       0.056  21.665  13.569  1.00  0.00     0.174 C 
HETATM    2  C9  UNL     1       0.522  20.361  14.166  1.00  0.00     0.042 C 
ENDROOT
BRANCH   1   3
HETATM    3  C7  UNL     1       0.491  21.719  12.157  1.00  0.00     0.240 C 
HETATM    4  N2  UNL     1       0.065  20.721  11.267  1.00  0.00    -0.346 N 
ATOM      5  H2  UNL     1      -0.533  19.978  11.630  1.00  0.00     0.163 HD
HETATM    6  O4  UNL     1       1.225  22.636  11.749  1.00  0.00    -0.271 OA
BRANCH   4   7
HETATM    7  C5  UNL     1       0.427  20.680   9.844  1.00  0.00     0.172 C 
HETATM    8  C6  UNL     1       1.234  19.397   9.648  1.00  0.00     0.042 C 
BRANCH   7   9
HETATM    9  C4  UNL     1      -0.820  20.644   9.069  1.00  0.00     0.240 C 
HETATM   10  N1  UNL     1      -1.766  19.633   9.290  1.00  0.00    -0.345 N 
ATOM     11  H1  UNL     1      -1.551  18.931   9.999  1.00  0.00     0.163 HD
HETATM   12  O3  UNL     1      -1.037  21.522   8.211  1.00  0.00    -0.271 OA
BRANCH  10  13
HETATM   13  C3  UNL     1      -3.022  19.511   8.588  1.00  0.00     0.187 C 
BRANCH  13  14
HETATM   14  C2  UNL     1      -3.158  18.210   7.883  1.00  0.00     0.281 C 
HETATM   15  O2  UNL     1      -2.680  17.153   8.369  1.00  0.00    -0.263 OA
BRANCH  14  16
HETATM   16  O1  UNL     1      -3.811  18.090   6.666  1.00  0.00    -0.325 OA
HETATM   17  C1  UNL     1      -3.841  16.925   5.883  1.00  0.00     0.213 C 
ENDBRANCH  14  16
ENDBRANCH  13  14
BRANCH  13  18
HETATM   18  C21 UNL     1      -4.226  19.933   9.349  1.00  0.00     0.010 C 
HETATM   19  C22 UNL     1      -5.526  19.749   8.647  1.00  0.00     0.012 C 
HETATM   20  C23 UNL     1      -4.044  21.392   9.755  1.00  0.00     0.012 C 
ENDBRANCH  13  18
ENDBRANCH  10  13
ENDBRANCH   7   9
ENDBRANCH   4   7
ENDBRANCH   1   3
BRANCH   1  21
HETATM   21  N3  UNL     1       0.488  22.811  14.341  1.00  0.00    -0.330 N 
HETATM   22  C10 UNL     1      -0.475  23.419  15.212  1.00  0.00     0.317 C 
HETATM   23  O5  UNL     1      -1.660  22.972  15.292  1.00  0.00    -0.247 OA
HETATM   24  N4  UNL     1      -0.096  24.539  15.998  1.00  0.00    -0.339 N 
ATOM     25  H4  UNL     1       0.858  24.898  15.944  1.00  0.00     0.164 HD
ATOM     26  H3  UNL     1       1.438  23.172  14.267  1.00  0.00     0.165 HD
BRANCH  24  27
HETATM   27  C11 UNL     1      -1.046  25.168  16.868  1.00  0.00     0.086 C 
HETATM   28  C12 UNL     1      -0.533  26.471  17.417  1.00  0.00     0.028 C 
HETATM   29  C13 UNL     1       0.390  26.178  18.584  1.00  0.00     0.034 C 
HETATM   30  C14 UNL     1      -0.349  25.572  19.750  1.00  0.00     0.122 C 
HETATM   31  C19 UNL     1      -1.628  24.919  19.288  1.00  0.00     0.034 C 
HETATM   32  C20 UNL     1      -1.455  24.210  17.966  1.00  0.00     0.028 C 
BRANCH  30  33
HETATM   33  O6  UNL     1       0.435  24.573  20.291  1.00  0.00    -0.376 OA
BRANCH  33  34
HETATM   34  C15 UNL     1       0.529  24.577  21.657  1.00  0.00     0.050 C 
HETATM   35  C16 UNL     1       0.327  25.935  22.288  1.00  0.00     0.045 C 
HETATM   36  C17 UNL     1       1.941  24.123  22.016  1.00  0.00     0.045 C 
HETATM   37  C18 UNL     1      -0.405  23.565  22.309  1.00  0.00     0.045 C 
ENDBRANCH  33  34
ENDBRANCH  30  33
ENDBRANCH  24  27
ENDBRANCH   1  21
TORSDOF 11
ENDMDL
