MODEL 1
REMARK VINA RESULT: -5.899673876      0.000      0.000
REMARK  2 active torsions:
REMARK  status: ('A' for Active; 'I' for Inactive)
REMARK    1  A    between atoms: N1_1  and  C1_5 
REMARK    2  A    between atoms: C11_15  and  O1_16 
ROOT
HETATM    1  C1  UNL     1     -32.689   2.598 -39.477  1.00  0.00     0.152 C 
HETATM    2  C2  UNL     1     -33.267   3.873 -40.012  1.00  0.00     0.042 C 
HETATM    3  C3  UNL     1     -33.773   4.810 -38.977  1.00  0.00     0.002 C 
HETATM    4  C4  UNL     1     -32.676   5.730 -38.501  1.00  0.00     0.000 C 
HETATM    5  C5  UNL     1     -31.467   4.844 -38.204  1.00  0.00     0.000 C 
HETATM    6  C6  UNL     1     -31.817   3.665 -37.357  1.00  0.00     0.007 C 
HETATM    7  C7  UNL     1     -32.538   2.573 -37.997  1.00  0.00     0.024 C 
HETATM    8  C8  UNL     1     -31.872   1.245 -37.629  1.00  0.00     0.007 C 
HETATM    9  C9  UNL     1     -32.755   0.078 -37.957  1.00  0.00     0.003 C 
HETATM   10  C10 UNL     1     -33.135   0.147 -39.405  1.00  0.00     0.034 C 
HETATM   11  C11 UNL     1     -33.713   1.492 -39.794  1.00  0.00     0.154 C 
ENDROOT
BRANCH   1  12
HETATM   12  N1  UNL     1     -31.520   2.264 -40.219  1.00  0.00    -0.068 N 
ATOM     13  H13 UNL     1     -30.902   3.066 -40.348  1.00  0.00     0.275 HD
ATOM     14  H12 UNL     1     -30.881   1.673 -39.687  1.00  0.00     0.275 HD
ATOM     15  H11 UNL     1     -31.793   1.839 -41.105  1.00  0.00     0.275 HD
ENDBRANCH   1  12
BRANCH  11  16
HETATM   16  O1  UNL     1     -34.898   1.697 -39.113  1.00  0.00    -0.393 OA
ATOM     17  H1  UNL     1     -34.747   1.788 -38.180  1.00  0.00     0.210 HD
ENDBRANCH  11  16
TORSDOF 2
ENDMDL
MODEL 2
REMARK VINA RESULT: -5.275061887      1.441      4.122
REMARK  2 active torsions:
REMARK  status: ('A' for Active; 'I' for Inactive)
REMARK    1  A    between atoms: N1_1  and  C1_5 
REMARK    2  A    between atoms: C11_15  and  O1_16 
ROOT
HETATM    1  C1  UNL     1     -32.097   2.151 -39.096  1.00  0.00     0.152 C 
HETATM    2  C2  UNL     1     -31.356   1.004 -38.481  1.00  0.00     0.042 C 
HETATM    3  C3  UNL     1     -32.165   0.158 -37.566  1.00  0.00     0.002 C 
HETATM    4  C4  UNL     1     -32.860  -0.945 -38.326  1.00  0.00     0.000 C 
HETATM    5  C5  UNL     1     -33.516  -0.287 -39.539  1.00  0.00     0.000 C 
HETATM    6  C6  UNL     1     -34.307   0.925 -39.174  1.00  0.00     0.007 C 
HETATM    7  C7  UNL     1     -33.564   2.133 -38.844  1.00  0.00     0.024 C 
HETATM    8  C8  UNL     1     -34.171   3.320 -39.596  1.00  0.00     0.007 C 
HETATM    9  C9  UNL     1     -33.689   4.627 -39.040  1.00  0.00     0.003 C 
HETATM   10  C10 UNL     1     -32.191   4.641 -39.059  1.00  0.00     0.034 C 
HETATM   11  C11 UNL     1     -31.587   3.423 -38.394  1.00  0.00     0.154 C 
ENDROOT
BRANCH   1  12
HETATM   12  N1  UNL     1     -31.711   2.284 -40.460  1.00  0.00    -0.068 N 
ATOM     13  H13 UNL     1     -30.710   2.454 -40.564  1.00  0.00     0.275 HD
ATOM     14  H12 UNL     1     -31.760   1.398 -40.964  1.00  0.00     0.275 HD
ATOM     15  H11 UNL     1     -32.275   3.012 -40.900  1.00  0.00     0.275 HD
ENDBRANCH   1  12
BRANCH  11  16
HETATM   16  O1  UNL     1     -31.917   3.421 -37.051  1.00  0.00    -0.393 OA
ATOM     17  H1  UNL     1     -31.582   4.194 -36.613  1.00  0.00     0.210 HD
ENDBRANCH  11  16
TORSDOF 2
ENDMDL
MODEL 3
REMARK VINA RESULT: -4.741674550      1.605      3.854
REMARK  2 active torsions:
REMARK  status: ('A' for Active; 'I' for Inactive)
REMARK    1  A    between atoms: N1_1  and  C1_5 
REMARK    2  A    between atoms: C11_15  and  O1_16 
ROOT
HETATM    1  C1  UNL     1     -33.593   1.992 -39.302  1.00  0.00     0.152 C 
HETATM    2  C2  UNL     1     -33.732   0.716 -40.072  1.00  0.00     0.042 C 
HETATM    3  C3  UNL     1     -32.494  -0.101 -40.155  1.00  0.00     0.002 C 
HETATM    4  C4  UNL     1     -32.391  -1.044 -38.981  1.00  0.00     0.000 C 
HETATM    5  C5  UNL     1     -32.676  -0.211 -37.732  1.00  0.00     0.000 C 
HETATM    6  C6  UNL     1     -31.881   1.053 -37.694  1.00  0.00     0.007 C 
HETATM    7  C7  UNL     1     -32.298   2.130 -38.582  1.00  0.00     0.024 C 
HETATM    8  C8  UNL     1     -32.350   3.441 -37.794  1.00  0.00     0.007 C 
HETATM    9  C9  UNL     1     -32.425   4.629 -38.707  1.00  0.00     0.003 C 
HETATM   10  C10 UNL     1     -33.598   4.463 -39.625  1.00  0.00     0.034 C 
HETATM   11  C11 UNL     1     -33.596   3.129 -40.341  1.00  0.00     0.154 C 
ENDROOT
BRANCH   1  12
HETATM   12  N1  UNL     1     -34.758   2.193 -38.509  1.00  0.00    -0.068 N 
ATOM     13  H13 UNL     1     -35.590   2.352 -39.078  1.00  0.00     0.275 HD
ATOM     14  H12 UNL     1     -35.062   1.337 -38.044  1.00  0.00     0.275 HD
ATOM     15  H11 UNL     1     -34.591   2.953 -37.849  1.00  0.00     0.275 HD
ENDBRANCH   1  12
BRANCH  11  16
HETATM   16  O1  UNL     1     -32.492   3.053 -41.169  1.00  0.00    -0.393 OA
ATOM     17  H1  UNL     1     -32.749   3.026 -42.083  1.00  0.00     0.210 HD
ENDBRANCH  11  16
TORSDOF 2
ENDMDL
MODEL 4
REMARK VINA RESULT: -4.672306107      2.300      3.392
REMARK  2 active torsions:
REMARK  status: ('A' for Active; 'I' for Inactive)
REMARK    1  A    between atoms: N1_1  and  C1_5 
REMARK    2  A    between atoms: C11_15  and  O1_16 
ROOT
HETATM    1  C1  UNL     1     -33.151   0.372 -39.610  1.00  0.00     0.152 C 
HETATM    2  C2  UNL     1     -32.065   1.387 -39.791  1.00  0.00     0.042 C 
HETATM    3  C3  UNL     1     -31.471   1.897 -38.529  1.00  0.00     0.002 C 
HETATM    4  C4  UNL     1     -30.321   1.025 -38.085  1.00  0.00     0.000 C 
HETATM    5  C5  UNL     1     -30.815  -0.418 -38.170  1.00  0.00     0.000 C 
HETATM    6  C6  UNL     1     -32.140  -0.609 -37.510  1.00  0.00     0.007 C 
HETATM    7  C7  UNL     1     -33.314  -0.102 -38.209  1.00  0.00     0.024 C 
HETATM    8  C8  UNL     1     -34.402  -1.178 -38.213  1.00  0.00     0.007 C 
HETATM    9  C9  UNL     1     -35.736  -0.609 -38.596  1.00  0.00     0.003 C 
HETATM   10  C10 UNL     1     -35.607   0.084 -39.919  1.00  0.00     0.034 C 
HETATM   11  C11 UNL     1     -34.474   1.086 -39.946  1.00  0.00     0.154 C 
ENDROOT
BRANCH   1  12
HETATM   12  N1  UNL     1     -33.008  -0.651 -40.590  1.00  0.00    -0.068 N 
ATOM     13  H13 UNL     1     -33.544  -1.488 -40.357  1.00  0.00     0.275 HD
ATOM     14  H12 UNL     1     -33.477  -0.417 -41.465  1.00  0.00     0.275 HD
ATOM     15  H11 UNL     1     -32.016  -0.853 -40.724  1.00  0.00     0.275 HD
ENDBRANCH   1  12
BRANCH  11  16
HETATM   16  O1  UNL     1     -34.736   2.102 -39.046  1.00  0.00    -0.393 OA
ATOM     17  H1  UNL     1     -34.970   2.907 -39.494  1.00  0.00     0.210 HD
ENDBRANCH  11  16
TORSDOF 2
ENDMDL
MODEL 5
REMARK VINA RESULT: -4.574281482      1.894      2.799
REMARK  2 active torsions:
REMARK  status: ('A' for Active; 'I' for Inactive)
REMARK    1  A    between atoms: N1_1  and  C1_5 
REMARK    2  A    between atoms: C11_15  and  O1_16 
ROOT
HETATM    1  C1  UNL     1     -32.204   3.026 -38.200  1.00  0.00     0.152 C 
HETATM    2  C2  UNL     1     -31.742   4.176 -37.359  1.00  0.00     0.042 C 
HETATM    3  C3  UNL     1     -31.270   5.358 -38.123  1.00  0.00     0.002 C 
HETATM    4  C4  UNL     1     -32.416   6.292 -38.432  1.00  0.00     0.000 C 
HETATM    5  C5  UNL     1     -33.543   5.423 -38.986  1.00  0.00     0.000 C 
HETATM    6  C6  UNL     1     -33.077   4.498 -40.062  1.00  0.00     0.007 C 
HETATM    7  C7  UNL     1     -32.301   3.335 -39.652  1.00  0.00     0.024 C 
HETATM    8  C8  UNL     1     -32.852   2.090 -40.349  1.00  0.00     0.007 C 
HETATM    9  C9  UNL     1     -31.897   0.937 -40.252  1.00  0.00     0.003 C 
HETATM   10  C10 UNL     1     -31.575   0.693 -38.809  1.00  0.00     0.034 C 
HETATM   11  C11 UNL     1     -31.113   1.944 -38.094  1.00  0.00     0.154 C 
ENDROOT
BRANCH   1  12
HETATM   12  N1  UNL     1     -33.371   2.455 -37.617  1.00  0.00    -0.068 N 
ATOM     13  H13 UNL     1     -33.834   3.095 -36.972  1.00  0.00     0.275 HD
ATOM     14  H12 UNL     1     -34.130   2.353 -38.290  1.00  0.00     0.275 HD
ATOM     15  H11 UNL     1     -33.126   1.569 -37.173  1.00  0.00     0.275 HD
ENDBRANCH   1  12
BRANCH  11  16
HETATM   16  O1  UNL     1     -29.923   2.378 -38.647  1.00  0.00    -0.393 OA
ATOM     17  H1  UNL     1     -29.521   3.053 -38.112  1.00  0.00     0.210 HD
ENDBRANCH  11  16
TORSDOF 2
ENDMDL
