MODEL 1
REMARK VINA RESULT: -6.731700048      0.000      0.000
REMARK  7 active torsions:
REMARK  status: ('A' for Active; 'I' for Inactive)
REMARK    1  A    between atoms: C2_2  and  N1_5 
REMARK       I    between atoms: N1_5  and  C5_7 
REMARK    2  A    between atoms: C5_7  and  C6_9 
REMARK    3  A    between atoms: C11_15  and  N3_16 
REMARK    4  A    between atoms: N3_16  and  C12_18 
REMARK    5  A    between atoms: C12_18  and  C13_19 
REMARK    6  A    between atoms: C13_19  and  C14_20 
REMARK    7  A    between atoms: C14_20  and  N4_21 
ROOT
HETATM    1  C6  UNL     1       3.428  37.920 -12.942  1.00  0.00     0.133 C 
HETATM    2  C7  UNL     1       4.748  37.825 -13.739  1.00  0.00     0.253 C 
HETATM    3  N2  UNL     1       5.138  39.197 -14.000  1.00  0.00    -0.068 N 
HETATM    4  C8  UNL     1       6.536  39.425 -13.984  1.00  0.00     0.272 C 
HETATM    5  C9  UNL     1       4.459  39.635 -15.186  1.00  0.00     0.239 C 
HETATM    6  C10 UNL     1       2.998  39.580 -14.759  1.00  0.00     0.061 C 
HETATM    7  C11 UNL     1       3.042  39.319 -13.266  1.00  0.00     0.065 C 
HETATM    8  C15 UNL     1       4.418  39.977 -12.975  1.00  0.00     0.268 C 
ENDROOT
BRANCH   7   9
HETATM    9  N3  UNL     1       2.004  39.919 -12.534  1.00  0.00    -0.410 N 
ATOM     10  H3  UNL     1       1.709  39.547 -11.632  1.00  0.00     0.154 HD
BRANCH   9  11
HETATM   11  C12 UNL     1       1.380  41.064 -13.097  1.00  0.00     0.116 C 
BRANCH  11  12
HETATM   12  C13 UNL     1      -0.001  41.212 -12.494  1.00  0.00     0.046 C 
BRANCH  12  13
HETATM   13  C14 UNL     1      -0.924  40.144 -12.997  1.00  0.00     0.231 C 
BRANCH  13  14
HETATM   14  N4  UNL     1      -1.932  39.813 -12.036  1.00  0.00    -0.079 N 
ATOM     15  H43 UNL     1      -2.137  40.605 -11.426  1.00  0.00     0.274 HD
ATOM     16  H42 UNL     1      -2.845  39.709 -12.477  1.00  0.00     0.274 HD
ATOM     17  H41 UNL     1      -1.685  38.984 -11.496  1.00  0.00     0.274 HD
ENDBRANCH  13  14
ENDBRANCH  12  13
ENDBRANCH  11  12
ENDBRANCH   9  11
ENDBRANCH   7   9
BRANCH   1  18
HETATM   18  C5  UNL     1       2.482  36.891 -13.392  1.00  0.00     0.226 C 
HETATM   19  N1  UNL     1       1.135  36.943 -12.976  1.00  0.00    -0.353 N 
ATOM     20  H1  UNL     1       0.839  37.703 -12.363  1.00  0.00     0.163 HD
HETATM   21  O1  UNL     1       2.828  35.951 -14.143  1.00  0.00    -0.273 OA
BRANCH  19  22
HETATM   22  C2  UNL     1       0.152  35.958 -13.386  1.00  0.00     0.022 C 
HETATM   23  C1  UNL     1      -1.200  36.372 -12.883  1.00  0.00     0.037 C 
HETATM   24  C3  UNL     1       0.460  34.578 -12.834  1.00  0.00     0.037 C 
HETATM   25  C4  UNL     1       0.095  35.839 -14.893  1.00  0.00     0.037 C 
ENDBRANCH  19  22
ENDBRANCH   1  18
TORSDOF 7
ENDMDL
MODEL 2
REMARK VINA RESULT: -6.649402485      1.144      1.479
REMARK  7 active torsions:
REMARK  status: ('A' for Active; 'I' for Inactive)
REMARK    1  A    between atoms: C2_2  and  N1_5 
REMARK       I    between atoms: N1_5  and  C5_7 
REMARK    2  A    between atoms: C5_7  and  C6_9 
REMARK    3  A    between atoms: C11_15  and  N3_16 
REMARK    4  A    between atoms: N3_16  and  C12_18 
REMARK    5  A    between atoms: C12_18  and  C13_19 
REMARK    6  A    between atoms: C13_19  and  C14_20 
REMARK    7  A    between atoms: C14_20  and  N4_21 
ROOT
HETATM    1  C6  UNL     1       2.944  38.234 -13.146  1.00  0.00     0.133 C 
HETATM    2  C7  UNL     1       4.248  38.008 -13.942  1.00  0.00     0.253 C 
HETATM    3  N2  UNL     1       4.916  39.294 -13.958  1.00  0.00    -0.068 N 
HETATM    4  C8  UNL     1       6.330  39.224 -13.899  1.00  0.00     0.272 C 
HETATM    5  C9  UNL     1       4.387  40.058 -15.052  1.00  0.00     0.239 C 
HETATM    6  C10 UNL     1       2.929  40.232 -14.646  1.00  0.00     0.061 C 
HETATM    7  C11 UNL     1       2.861  39.717 -13.222  1.00  0.00     0.065 C 
HETATM    8  C15 UNL     1       4.329  40.018 -12.815  1.00  0.00     0.268 C 
ENDROOT
BRANCH   7   9
HETATM    9  N3  UNL     1       1.938  40.384 -12.399  1.00  0.00    -0.410 N 
ATOM     10  H3  UNL     1       1.905  40.213 -11.394  1.00  0.00     0.154 HD
BRANCH   9  11
HETATM   11  C12 UNL     1       1.053  41.305 -13.018  1.00  0.00     0.116 C 
BRANCH  11  12
HETATM   12  C13 UNL     1      -0.211  41.398 -12.189  1.00  0.00     0.046 C 
BRANCH  12  13
HETATM   13  C14 UNL     1      -1.296  40.538 -12.765  1.00  0.00     0.231 C 
BRANCH  13  14
HETATM   14  N4  UNL     1      -1.498  39.348 -11.998  1.00  0.00    -0.079 N 
ATOM     15  H43 UNL     1      -1.131  38.528 -12.482  1.00  0.00     0.274 HD
ATOM     16  H42 UNL     1      -0.897  39.330 -11.174  1.00  0.00     0.274 HD
ATOM     17  H41 UNL     1      -2.478  39.220 -11.745  1.00  0.00     0.274 HD
ENDBRANCH  13  14
ENDBRANCH  12  13
ENDBRANCH  11  12
ENDBRANCH   9  11
ENDBRANCH   7   9
BRANCH   1  18
HETATM   18  C5  UNL     1       1.828  37.514 -13.771  1.00  0.00     0.226 C 
HETATM   19  N1  UNL     1       2.086  36.407 -14.607  1.00  0.00    -0.353 N 
ATOM     20  H1  UNL     1       3.053  36.125 -14.764  1.00  0.00     0.163 HD
HETATM   21  O1  UNL     1       0.635  37.847 -13.590  1.00  0.00    -0.273 OA
BRANCH  19  22
HETATM   22  C2  UNL     1       1.027  35.653 -15.253  1.00  0.00     0.022 C 
HETATM   23  C1  UNL     1       0.430  36.484 -16.351  1.00  0.00     0.037 C 
HETATM   24  C3  UNL     1      -0.082  35.279 -14.286  1.00  0.00     0.037 C 
HETATM   25  C4  UNL     1       1.558  34.367 -15.849  1.00  0.00     0.037 C 
ENDBRANCH  19  22
ENDBRANCH   1  18
TORSDOF 7
ENDMDL
MODEL 3
REMARK VINA RESULT: -6.454364537      2.608      4.707
REMARK  7 active torsions:
REMARK  status: ('A' for Active; 'I' for Inactive)
REMARK    1  A    between atoms: C2_2  and  N1_5 
REMARK       I    between atoms: N1_5  and  C5_7 
REMARK    2  A    between atoms: C5_7  and  C6_9 
REMARK    3  A    between atoms: C11_15  and  N3_16 
REMARK    4  A    between atoms: N3_16  and  C12_18 
REMARK    5  A    between atoms: C12_18  and  C13_19 
REMARK    6  A    between atoms: C13_19  and  C14_20 
REMARK    7  A    between atoms: C14_20  and  N4_21 
ROOT
HETATM    1  C6  UNL     1       2.551  38.651 -15.176  1.00  0.00     0.133 C 
HETATM    2  C7  UNL     1       3.935  39.331 -15.269  1.00  0.00     0.253 C 
HETATM    3  N2  UNL     1       4.532  39.167 -13.958  1.00  0.00    -0.068 N 
HETATM    4  C8  UNL     1       5.935  38.974 -13.969  1.00  0.00     0.272 C 
HETATM    5  C9  UNL     1       4.067  40.236 -13.120  1.00  0.00     0.239 C 
HETATM    6  C10 UNL     1       2.570  39.962 -13.050  1.00  0.00     0.061 C 
HETATM    7  C11 UNL     1       2.396  38.603 -13.698  1.00  0.00     0.065 C 
HETATM    8  C15 UNL     1       3.801  38.028 -13.370  1.00  0.00     0.268 C 
ENDROOT
BRANCH   7   9
HETATM    9  N3  UNL     1       1.365  37.820 -13.153  1.00  0.00    -0.410 N 
ATOM     10  H3  UNL     1       0.688  38.217 -12.501  1.00  0.00     0.154 HD
BRANCH   9  11
HETATM   11  C12 UNL     1       1.300  36.457 -13.542  1.00  0.00     0.116 C 
BRANCH  11  12
HETATM   12  C13 UNL     1       0.027  35.852 -12.986  1.00  0.00     0.046 C 
BRANCH  12  13
HETATM   13  C14 UNL     1       0.047  34.358 -13.102  1.00  0.00     0.231 C 
BRANCH  13  14
HETATM   14  N4  UNL     1       0.655  33.741 -11.963  1.00  0.00    -0.079 N 
ATOM     15  H43 UNL     1       0.490  34.284 -11.115  1.00  0.00     0.274 HD
ATOM     16  H42 UNL     1       0.170  32.883 -11.702  1.00  0.00     0.274 HD
ATOM     17  H41 UNL     1       1.651  33.575 -12.108  1.00  0.00     0.274 HD
ENDBRANCH  13  14
ENDBRANCH  12  13
ENDBRANCH  11  12
ENDBRANCH   9  11
ENDBRANCH   7   9
BRANCH   1  18
HETATM   18  C5  UNL     1       1.540  39.445 -15.885  1.00  0.00     0.226 C 
HETATM   19  N1  UNL     1       1.940  40.397 -16.847  1.00  0.00    -0.353 N 
ATOM     20  H1  UNL     1       2.935  40.518 -17.033  1.00  0.00     0.163 HD
HETATM   21  O1  UNL     1       0.315  39.309 -15.667  1.00  0.00    -0.273 OA
BRANCH  19  22
HETATM   22  C2  UNL     1       0.989  41.211 -17.581  1.00  0.00     0.022 C 
HETATM   23  C1  UNL     1       1.738  42.159 -18.471  1.00  0.00     0.037 C 
HETATM   24  C3  UNL     1       0.102  42.028 -16.659  1.00  0.00     0.037 C 
HETATM   25  C4  UNL     1       0.082  40.354 -18.436  1.00  0.00     0.037 C 
ENDBRANCH  19  22
ENDBRANCH   1  18
TORSDOF 7
ENDMDL
MODEL 4
REMARK VINA RESULT: -6.427506625      1.276      1.344
REMARK  7 active torsions:
REMARK  status: ('A' for Active; 'I' for Inactive)
REMARK    1  A    between atoms: C2_2  and  N1_5 
REMARK       I    between atoms: N1_5  and  C5_7 
REMARK    2  A    between atoms: C5_7  and  C6_9 
REMARK    3  A    between atoms: C11_15  and  N3_16 
REMARK    4  A    between atoms: N3_16  and  C12_18 
REMARK    5  A    between atoms: C12_18  and  C13_19 
REMARK    6  A    between atoms: C13_19  and  C14_20 
REMARK    7  A    between atoms: C14_20  and  N4_21 
ROOT
HETATM    1  C6  UNL     1       2.014  38.806 -13.288  1.00  0.00     0.133 C 
HETATM    2  C7  UNL     1       3.442  38.277 -13.545  1.00  0.00     0.253 C 
HETATM    3  N2  UNL     1       4.150  39.373 -14.175  1.00  0.00    -0.068 N 
HETATM    4  C8  UNL     1       5.518  39.471 -13.821  1.00  0.00     0.272 C 
HETATM    5  C9  UNL     1       3.884  39.325 -15.584  1.00  0.00     0.239 C 
HETATM    6  C10 UNL     1       2.382  39.575 -15.636  1.00  0.00     0.061 C 
HETATM    7  C11 UNL     1       2.007  39.965 -14.220  1.00  0.00     0.065 C 
HETATM    8  C15 UNL     1       3.373  40.569 -13.795  1.00  0.00     0.268 C 
ENDROOT
BRANCH   7   9
HETATM    9  N3  UNL     1       0.964  40.901 -14.125  1.00  0.00    -0.410 N 
ATOM     10  H3  UNL     1       0.219  40.936 -14.822  1.00  0.00     0.154 HD
BRANCH   9  11
HETATM   11  C12 UNL     1       0.983  41.797 -13.024  1.00  0.00     0.116 C 
BRANCH  11  12
HETATM   12  C13 UNL     1      -0.140  41.429 -12.077  1.00  0.00     0.046 C 
BRANCH  12  13
HETATM   13  C14 UNL     1      -1.236  40.705 -12.799  1.00  0.00     0.231 C 
BRANCH  13  14
HETATM   14  N4  UNL     1      -1.700  39.568 -12.063  1.00  0.00    -0.079 N 
ATOM     15  H43 UNL     1      -1.381  38.697 -12.488  1.00  0.00     0.274 HD
ATOM     16  H42 UNL     1      -1.227  39.491 -11.163  1.00  0.00     0.274 HD
ATOM     17  H41 UNL     1      -2.714  39.577 -11.950  1.00  0.00     0.274 HD
ENDBRANCH  13  14
ENDBRANCH  12  13
ENDBRANCH  11  12
ENDBRANCH   9  11
ENDBRANCH   7   9
BRANCH   1  18
HETATM   18  C5  UNL     1       1.020  37.765 -13.579  1.00  0.00     0.226 C 
HETATM   19  N1  UNL     1       1.181  36.469 -13.044  1.00  0.00    -0.353 N 
ATOM     20  H1  UNL     1       1.995  36.277 -12.460  1.00  0.00     0.163 HD
HETATM   21  O1  UNL     1       0.016  37.984 -14.294  1.00  0.00    -0.273 OA
BRANCH  19  22
HETATM   22  C2  UNL     1       0.234  35.398 -13.293  1.00  0.00     0.022 C 
HETATM   23  C1  UNL     1      -1.141  35.859 -12.910  1.00  0.00     0.037 C 
HETATM   24  C3  UNL     1       0.557  34.151 -12.491  1.00  0.00     0.037 C 
HETATM   25  C4  UNL     1       0.227  35.005 -14.754  1.00  0.00     0.037 C 
ENDBRANCH  19  22
ENDBRANCH   1  18
TORSDOF 7
ENDMDL
MODEL 5
REMARK VINA RESULT: -6.399077600      1.779      4.124
REMARK  7 active torsions:
REMARK  status: ('A' for Active; 'I' for Inactive)
REMARK    1  A    between atoms: C2_2  and  N1_5 
REMARK       I    between atoms: N1_5  and  C5_7 
REMARK    2  A    between atoms: C5_7  and  C6_9 
REMARK    3  A    between atoms: C11_15  and  N3_16 
REMARK    4  A    between atoms: N3_16  and  C12_18 
REMARK    5  A    between atoms: C12_18  and  C13_19 
REMARK    6  A    between atoms: C13_19  and  C14_20 
REMARK    7  A    between atoms: C14_20  and  N4_21 
ROOT
HETATM    1  C6  UNL     1       1.482  39.473 -15.544  1.00  0.00     0.133 C 
HETATM    2  C7  UNL     1       0.183  40.234 -15.202  1.00  0.00     0.253 C 
HETATM    3  N2  UNL     1       0.602  41.583 -14.877  1.00  0.00    -0.068 N 
HETATM    4  C8  UNL     1      -0.305  42.595 -15.278  1.00  0.00     0.272 C 
HETATM    5  C9  UNL     1       0.977  41.612 -13.492  1.00  0.00     0.239 C 
HETATM    6  C10 UNL     1       2.176  40.672 -13.465  1.00  0.00     0.061 C 
HETATM    7  C11 UNL     1       2.477  40.388 -14.924  1.00  0.00     0.065 C 
HETATM    8  C15 UNL     1       1.925  41.713 -15.518  1.00  0.00     0.268 C 
ENDROOT
BRANCH   7   9
HETATM    9  N3  UNL     1       3.838  40.205 -15.218  1.00  0.00    -0.410 N 
ATOM     10  H3  UNL     1       4.141  39.867 -16.131  1.00  0.00     0.154 HD
BRANCH   9  11
HETATM   11  C12 UNL     1       4.777  40.508 -14.197  1.00  0.00     0.116 C 
BRANCH  11  12
HETATM   12  C13 UNL     1       5.658  39.296 -13.971  1.00  0.00     0.046 C 
BRANCH  12  13
HETATM   13  C14 UNL     1       5.015  38.333 -13.020  1.00  0.00     0.231 C 
BRANCH  13  14
HETATM   14  N4  UNL     1       4.828  37.043 -13.610  1.00  0.00    -0.079 N 
ATOM     15  H43 UNL     1       3.960  37.003 -14.147  1.00  0.00     0.274 HD
ATOM     16  H42 UNL     1       5.492  36.882 -14.367  1.00  0.00     0.274 HD
ATOM     17  H41 UNL     1       4.869  36.297 -12.916  1.00  0.00     0.274 HD
ENDBRANCH  13  14
ENDBRANCH  12  13
ENDBRANCH  11  12
ENDBRANCH   9  11
ENDBRANCH   7   9
BRANCH   1  18
HETATM   18  C5  UNL     1       1.447  38.117 -14.983  1.00  0.00     0.226 C 
HETATM   19  N1  UNL     1       0.304  37.675 -14.282  1.00  0.00    -0.353 N 
ATOM     20  H1  UNL     1      -0.484  38.314 -14.176  1.00  0.00     0.163 HD
HETATM   21  O1  UNL     1       2.406  37.322 -15.103  1.00  0.00    -0.273 OA
BRANCH  19  22
HETATM   22  C2  UNL     1       0.207  36.347 -13.706  1.00  0.00     0.022 C 
HETATM   23  C1  UNL     1      -1.016  36.274 -12.840  1.00  0.00     0.037 C 
HETATM   24  C3  UNL     1       1.413  36.005 -12.849  1.00  0.00     0.037 C 
HETATM   25  C4  UNL     1       0.105  35.290 -14.784  1.00  0.00     0.037 C 
ENDBRANCH  19  22
ENDBRANCH   1  18
TORSDOF 7
ENDMDL
