MODEL 1
REMARK VINA RESULT: -8.284725195      0.000      0.000
REMARK  4 active torsions:
REMARK  status: ('A' for Active; 'I' for Inactive)
REMARK       I    between atoms: C2_2  and  N1_4 
REMARK    1  A    between atoms: N1_4  and  N2_6 
REMARK    2  A    between atoms: N2_6  and  S1_8 
REMARK    3  A    between atoms: S1_8  and  C3_11 
REMARK    4  A    between atoms: C6_14  and  N3_15 
REMARK       I    between atoms: N3_15  and  C7_17 
REMARK       I    between atoms: C7_17  and  N4_19 
ROOT
HETATM    1  N3  UNL     1     -25.082  -0.937 -28.772  1.00  0.00    -0.296 N 
ATOM      2  H3  UNL     1     -24.358  -1.102 -29.471  1.00  0.00     0.172 HD
HETATM    3  C7  UNL     1     -26.336  -0.560 -29.207  1.00  0.00     0.408 C 
HETATM    4  O4  UNL     1     -27.326  -0.358 -28.600  1.00  0.00    -0.229 OA
HETATM    5  N4  UNL     1     -26.356  -0.408 -30.771  1.00  0.00    -0.272 NA
HETATM    6  C8  UNL     1     -26.370  -0.304 -31.843  1.00  0.00     0.273 C 
HETATM    7  N5  UNL     1     -26.350  -0.196 -33.038  1.00  0.00    -0.156 NA
ENDROOT
BRANCH   1   8
HETATM    8  C6  UNL     1     -24.743  -1.106 -27.390  1.00  0.00     0.037 A 
HETATM    9  C5  UNL     1     -24.108  -0.154 -26.653  1.00  0.00     0.031 A 
HETATM   10  C4  UNL     1     -23.761  -0.329 -25.315  1.00  0.00     0.027 A 
HETATM   11  C3  UNL     1     -24.086  -1.522 -24.739  1.00  0.00     0.081 A 
HETATM   12  C10 UNL     1     -24.731  -2.502 -25.450  1.00  0.00     0.027 A 
HETATM   13  C9  UNL     1     -25.064  -2.306 -26.782  1.00  0.00     0.031 A 
BRANCH  11  14
HETATM   14  S1  UNL     1     -23.524  -1.843 -23.088  1.00  0.00     0.276 S 
HETATM   15  O2  UNL     1     -22.751  -3.157 -23.144  1.00  0.00    -0.199 OA
HETATM   16  O3  UNL     1     -24.721  -2.105 -22.212  1.00  0.00    -0.199 OA
BRANCH  14  17
HETATM   17  N2  UNL     1     -22.506  -0.610 -22.545  1.00  0.00    -0.220 N 
ATOM     18  H2  UNL     1     -21.493  -0.696 -22.476  1.00  0.00     0.200 HD
BRANCH  17  19
HETATM   19  N1  UNL     1     -23.220   0.541 -22.203  1.00  0.00    -0.261 N 
HETATM   20  C2  UNL     1     -22.701   1.805 -22.469  1.00  0.00     0.232 C 
HETATM   21  C1  UNL     1     -23.460   3.014 -22.101  1.00  0.00     0.119 C 
HETATM   22  O1  UNL     1     -21.590   1.941 -23.015  1.00  0.00    -0.272 OA
ATOM     23  H1  UNL     1     -24.131   0.456 -21.753  1.00  0.00     0.190 HD
ENDBRANCH  17  19
ENDBRANCH  14  17
ENDBRANCH  11  14
ENDBRANCH   1   8
TORSDOF 4
ENDMDL
MODEL 2
REMARK VINA RESULT: -8.156548054      1.382      1.506
REMARK  4 active torsions:
REMARK  status: ('A' for Active; 'I' for Inactive)
REMARK       I    between atoms: C2_2  and  N1_4 
REMARK    1  A    between atoms: N1_4  and  N2_6 
REMARK    2  A    between atoms: N2_6  and  S1_8 
REMARK    3  A    between atoms: S1_8  and  C3_11 
REMARK    4  A    between atoms: C6_14  and  N3_15 
REMARK       I    between atoms: N3_15  and  C7_17 
REMARK       I    between atoms: C7_17  and  N4_19 
ROOT
HETATM    1  N3  UNL     1     -25.245  -1.597 -28.794  1.00  0.00    -0.296 N 
ATOM      2  H3  UNL     1     -24.672  -2.298 -29.263  1.00  0.00     0.172 HD
HETATM    3  C7  UNL     1     -26.210  -0.943 -29.530  1.00  0.00     0.408 C 
HETATM    4  O4  UNL     1     -27.007  -0.138 -29.203  1.00  0.00    -0.229 OA
HETATM    5  N4  UNL     1     -26.174  -1.412 -31.030  1.00  0.00    -0.272 NA
HETATM    6  C8  UNL     1     -26.149  -1.733 -32.058  1.00  0.00     0.273 C 
HETATM    7  N5  UNL     1     -26.092  -2.113 -33.195  1.00  0.00    -0.156 NA
ENDROOT
BRANCH   1   8
HETATM    8  C6  UNL     1     -25.004  -1.342 -27.404  1.00  0.00     0.037 A 
HETATM    9  C5  UNL     1     -24.281  -0.281 -26.952  1.00  0.00     0.031 A 
HETATM   10  C4  UNL     1     -24.031  -0.047 -25.602  1.00  0.00     0.027 A 
HETATM   11  C3  UNL     1     -24.548  -0.939 -24.710  1.00  0.00     0.081 A 
HETATM   12  C10 UNL     1     -25.286  -2.017 -25.129  1.00  0.00     0.027 A 
HETATM   13  C9  UNL     1     -25.521  -2.231 -26.479  1.00  0.00     0.031 A 
BRANCH  11  14
HETATM   14  S1  UNL     1     -24.122  -0.764 -22.998  1.00  0.00     0.276 S 
HETATM   15  O2  UNL     1     -22.600  -0.839 -22.923  1.00  0.00    -0.199 OA
HETATM   16  O3  UNL     1     -24.632  -1.965 -22.245  1.00  0.00    -0.199 OA
BRANCH  14  17
HETATM   17  N2  UNL     1     -24.645   0.723 -22.393  1.00  0.00    -0.220 N 
ATOM     18  H2  UNL     1     -25.574   0.888 -22.006  1.00  0.00     0.200 HD
BRANCH  17  19
HETATM   19  N1  UNL     1     -23.652   1.702 -22.487  1.00  0.00    -0.261 N 
HETATM   20  C2  UNL     1     -23.912   3.017 -22.114  1.00  0.00     0.232 C 
HETATM   21  C1  UNL     1     -22.858   4.043 -22.219  1.00  0.00     0.119 C 
HETATM   22  O1  UNL     1     -25.033   3.355 -21.690  1.00  0.00    -0.272 OA
ATOM     23  H1  UNL     1     -22.726   1.450 -22.832  1.00  0.00     0.190 HD
ENDBRANCH  17  19
ENDBRANCH  14  17
ENDBRANCH  11  14
ENDBRANCH   1   8
TORSDOF 4
ENDMDL
MODEL 3
REMARK VINA RESULT: -8.136938312      1.267      1.742
REMARK  4 active torsions:
REMARK  status: ('A' for Active; 'I' for Inactive)
REMARK       I    between atoms: C2_2  and  N1_4 
REMARK    1  A    between atoms: N1_4  and  N2_6 
REMARK    2  A    between atoms: N2_6  and  S1_8 
REMARK    3  A    between atoms: S1_8  and  C3_11 
REMARK    4  A    between atoms: C6_14  and  N3_15 
REMARK       I    between atoms: N3_15  and  C7_17 
REMARK       I    between atoms: C7_17  and  N4_19 
ROOT
HETATM    1  N3  UNL     1     -25.243  -1.418 -28.751  1.00  0.00    -0.296 N 
ATOM      2  H3  UNL     1     -24.631  -1.981 -29.343  1.00  0.00     0.172 HD
HETATM    3  C7  UNL     1     -26.313  -0.778 -29.339  1.00  0.00     0.408 C 
HETATM    4  O4  UNL     1     -27.166  -0.119 -28.862  1.00  0.00    -0.229 OA
HETATM    5  N4  UNL     1     -26.322  -1.027 -30.891  1.00  0.00    -0.272 NA
HETATM    6  C8  UNL     1     -26.328  -1.198 -31.955  1.00  0.00     0.273 C 
HETATM    7  N5  UNL     1     -26.304  -1.407 -33.136  1.00  0.00    -0.156 NA
ENDROOT
BRANCH   1   8
HETATM    8  C6  UNL     1     -24.944  -1.334 -27.352  1.00  0.00     0.037 A 
HETATM    9  C5  UNL     1     -25.359  -2.257 -26.441  1.00  0.00     0.031 A 
HETATM   10  C4  UNL     1     -25.084  -2.162 -25.079  1.00  0.00     0.027 A 
HETATM   11  C3  UNL     1     -24.362  -1.082 -24.664  1.00  0.00     0.081 A 
HETATM   12  C10 UNL     1     -23.922  -0.136 -25.554  1.00  0.00     0.027 A 
HETATM   13  C9  UNL     1     -24.209  -0.250 -26.906  1.00  0.00     0.031 A 
BRANCH  11  14
HETATM   14  S1  UNL     1     -24.125  -0.845 -22.922  1.00  0.00     0.276 S 
HETATM   15  O2  UNL     1     -22.621  -0.923 -22.678  1.00  0.00    -0.199 OA
HETATM   16  O3  UNL     1     -24.725  -2.015 -22.187  1.00  0.00    -0.199 OA
BRANCH  14  17
HETATM   17  N2  UNL     1     -24.700   0.666 -22.435  1.00  0.00    -0.220 N 
ATOM     18  H2  UNL     1     -25.661   0.845 -22.144  1.00  0.00     0.200 HD
BRANCH  17  19
HETATM   19  N1  UNL     1     -23.700   1.642 -22.477  1.00  0.00    -0.261 N 
HETATM   20  C2  UNL     1     -23.967   2.950 -22.086  1.00  0.00     0.232 C 
HETATM   21  C1  UNL     1     -22.906   3.973 -22.136  1.00  0.00     0.119 C 
HETATM   22  O1  UNL     1     -25.100   3.285 -21.692  1.00  0.00    -0.272 OA
ATOM     23  H1  UNL     1     -22.764   1.392 -22.797  1.00  0.00     0.190 HD
ENDBRANCH  17  19
ENDBRANCH  14  17
ENDBRANCH  11  14
ENDBRANCH   1   8
TORSDOF 4
ENDMDL
MODEL 4
REMARK VINA RESULT: -7.632640995      1.571      1.735
REMARK  4 active torsions:
REMARK  status: ('A' for Active; 'I' for Inactive)
REMARK       I    between atoms: C2_2  and  N1_4 
REMARK    1  A    between atoms: N1_4  and  N2_6 
REMARK    2  A    between atoms: N2_6  and  S1_8 
REMARK    3  A    between atoms: S1_8  and  C3_11 
REMARK    4  A    between atoms: C6_14  and  N3_15 
REMARK       I    between atoms: N3_15  and  C7_17 
REMARK       I    between atoms: C7_17  and  N4_19 
ROOT
HETATM    1  N3  UNL     1     -25.676  -0.240 -29.935  1.00  0.00    -0.296 N 
ATOM      2  H3  UNL     1     -26.548   0.262 -30.104  1.00  0.00     0.172 HD
HETATM    3  C7  UNL     1     -24.921  -0.623 -31.024  1.00  0.00     0.408 C 
HETATM    4  O4  UNL     1     -23.876  -1.166 -31.077  1.00  0.00    -0.229 OA
HETATM    5  N4  UNL     1     -25.641  -0.224 -32.363  1.00  0.00    -0.272 NA
HETATM    6  C8  UNL     1     -26.134   0.049 -33.281  1.00  0.00     0.273 C 
HETATM    7  N5  UNL     1     -26.711   0.366 -34.284  1.00  0.00    -0.156 NA
ENDROOT
BRANCH   1   8
HETATM    8  C6  UNL     1     -25.301  -0.513 -28.579  1.00  0.00     0.037 A 
HETATM    9  C5  UNL     1     -24.532   0.326 -27.832  1.00  0.00     0.031 A 
HETATM   10  C4  UNL     1     -24.151   0.050 -26.521  1.00  0.00     0.027 A 
HETATM   11  C3  UNL     1     -24.585  -1.126 -25.982  1.00  0.00     0.081 A 
HETATM   12  C10 UNL     1     -25.366  -1.993 -26.704  1.00  0.00     0.027 A 
HETATM   13  C9  UNL     1     -25.731  -1.697 -28.009  1.00  0.00     0.031 A 
BRANCH  11  14
HETATM   14  S1  UNL     1     -23.995  -1.585 -24.375  1.00  0.00     0.276 S 
HETATM   15  O2  UNL     1     -22.974  -2.698 -24.593  1.00  0.00    -0.199 OA
HETATM   16  O3  UNL     1     -25.127  -2.210 -23.603  1.00  0.00    -0.199 OA
BRANCH  14  17
HETATM   17  N2  UNL     1     -23.251  -0.279 -23.606  1.00  0.00    -0.220 N 
ATOM     18  H2  UNL     1     -22.244  -0.123 -23.591  1.00  0.00     0.200 HD
BRANCH  17  19
HETATM   19  N1  UNL     1     -24.183   0.564 -22.994  1.00  0.00    -0.261 N 
HETATM   20  C2  UNL     1     -23.770   1.704 -22.312  1.00  0.00     0.232 C 
HETATM   21  C1  UNL     1     -24.761   2.586 -21.668  1.00  0.00     0.119 C 
HETATM   22  O1  UNL     1     -22.563   2.001 -22.228  1.00  0.00    -0.272 OA
ATOM     23  H1  UNL     1     -25.177   0.341 -23.048  1.00  0.00     0.190 HD
ENDBRANCH  17  19
ENDBRANCH  14  17
ENDBRANCH  11  14
ENDBRANCH   1   8
TORSDOF 4
ENDMDL
MODEL 5
REMARK VINA RESULT: -7.050077149      1.262      1.327
REMARK  4 active torsions:
REMARK  status: ('A' for Active; 'I' for Inactive)
REMARK       I    between atoms: C2_2  and  N1_4 
REMARK    1  A    between atoms: N1_4  and  N2_6 
REMARK    2  A    between atoms: N2_6  and  S1_8 
REMARK    3  A    between atoms: S1_8  and  C3_11 
REMARK    4  A    between atoms: C6_14  and  N3_15 
REMARK       I    between atoms: N3_15  and  C7_17 
REMARK       I    between atoms: C7_17  and  N4_19 
ROOT
HETATM    1  N3  UNL     1     -25.198  -1.151 -29.059  1.00  0.00    -0.296 N 
ATOM      2  H3  UNL     1     -24.477  -1.559 -29.654  1.00  0.00     0.172 HD
HETATM    3  C7  UNL     1     -26.303  -0.588 -29.662  1.00  0.00     0.408 C 
HETATM    4  O4  UNL     1     -27.268  -0.103 -29.189  1.00  0.00    -0.229 OA
HETATM    5  N4  UNL     1     -26.172  -0.654 -31.227  1.00  0.00    -0.272 NA
HETATM    6  C8  UNL     1     -26.083  -0.700 -32.300  1.00  0.00     0.273 C 
HETATM    7  N5  UNL     1     -25.951  -0.766 -33.490  1.00  0.00    -0.156 NA
ENDROOT
BRANCH   1   8
HETATM    8  C6  UNL     1     -25.009  -1.193 -27.639  1.00  0.00     0.037 A 
HETATM    9  C5  UNL     1     -24.520  -0.147 -26.918  1.00  0.00     0.031 A 
HETATM   10  C4  UNL     1     -24.317  -0.197 -25.540  1.00  0.00     0.027 A 
HETATM   11  C3  UNL     1     -24.633  -1.363 -24.908  1.00  0.00     0.081 A 
HETATM   12  C10 UNL     1     -25.133  -2.436 -25.602  1.00  0.00     0.027 A 
HETATM   13  C9  UNL     1     -25.324  -2.364 -26.973  1.00  0.00     0.031 A 
BRANCH  11  14
HETATM   14  S1  UNL     1     -24.244  -1.520 -23.185  1.00  0.00     0.276 S 
HETATM   15  O2  UNL     1     -24.946  -2.785 -22.699  1.00  0.00    -0.199 OA
HETATM   16  O3  UNL     1     -24.885  -0.379 -22.437  1.00  0.00    -0.199 OA
BRANCH  14  17
HETATM   17  N2  UNL     1     -22.579  -1.671 -22.951  1.00  0.00    -0.220 N 
ATOM     18  H2  UNL     1     -22.145  -2.403 -22.390  1.00  0.00     0.200 HD
BRANCH  17  19
HETATM   19  N1  UNL     1     -21.867  -0.672 -23.620  1.00  0.00    -0.261 N 
HETATM   20  C2  UNL     1     -21.744   0.602 -23.072  1.00  0.00     0.232 C 
HETATM   21  C1  UNL     1     -20.992   1.649 -23.787  1.00  0.00     0.119 C 
HETATM   22  O1  UNL     1     -22.265   0.884 -21.978  1.00  0.00    -0.272 OA
ATOM     23  H1  UNL     1     -21.432  -0.878 -24.519  1.00  0.00     0.190 HD
ENDBRANCH  17  19
ENDBRANCH  14  17
ENDBRANCH  11  14
ENDBRANCH   1   8
TORSDOF 4
ENDMDL
