MODEL 1
REMARK VINA RESULT: -5.145350597      0.000      0.000
REMARK  9 active torsions:
REMARK  status: ('A' for Active; 'I' for Inactive)
REMARK    1  A    between atoms: C4_4  and  C5_5 
REMARK    2  A    between atoms: C5_5  and  O1_6 
REMARK    3  A    between atoms: C5_5  and  C6_8 
REMARK    4  A    between atoms: C8_11  and  O3_12 
REMARK    5  A    between atoms: C9_14  and  O4_15 
REMARK    6  A    between atoms: C10_17  and  O5_18 
REMARK    7  A    between atoms: O5_18  and  C11_19 
REMARK    8  A    between atoms: C14_23  and  C15_24 
REMARK    9  A    between atoms: C16_25  and  C17_26 
ROOT
HETATM    1  C1  UNL     1      18.351  42.019 -37.446  1.00  0.00     0.010 C 
HETATM    2  C2  UNL     1      17.770  40.621 -37.489  1.00  0.00    -0.010 C 
HETATM    3  C3  UNL     1      16.978  40.284 -36.282  1.00  0.00     0.013 C 
HETATM    4  C4  UNL     1      17.568  39.096 -35.505  1.00  0.00     0.029 C 
HETATM    5  C7  UNL     1      19.005  39.402 -35.444  1.00  0.00     0.035 C 
HETATM    6  C8  UNL     1      19.876  38.625 -34.559  1.00  0.00     0.154 C 
HETATM    7  C9  UNL     1      21.241  38.904 -35.155  1.00  0.00     0.177 C 
HETATM    8  C10 UNL     1      20.982  39.448 -36.585  1.00  0.00     0.171 C 
HETATM    9  C12 UNL     1      19.587  39.022 -36.796  1.00  0.00    -0.001 C 
HETATM   10  C13 UNL     1      19.622  37.486 -36.905  1.00  0.00     0.019 C 
HETATM   11  C14 UNL     1      18.805  39.599 -37.920  1.00  0.00     0.023 C 
ENDROOT
BRANCH   4  12
HETATM   12  C5  UNL     1      16.824  39.025 -34.204  1.00  0.00     0.183 C 
BRANCH  12  13
HETATM   13  O1  UNL     1      17.338  38.154 -33.278  1.00  0.00    -0.388 OA
ATOM     14  H1  UNL     1      17.275  37.234 -33.505  1.00  0.00     0.210 HD
ENDBRANCH  12  13
BRANCH  12  15
HETATM   15  C6  UNL     1      15.366  38.886 -34.405  1.00  0.00     0.263 C 
HETATM   16  O2  UNL     1      14.764  37.909 -34.032  1.00  0.00    -0.304 OA
ENDBRANCH  12  15
ENDBRANCH   4  12
BRANCH   6  17
HETATM   17  O3  UNL     1      19.895  39.016 -33.219  1.00  0.00    -0.392 OA
ATOM     18  H3  UNL     1      20.381  38.454 -32.626  1.00  0.00     0.210 HD
ENDBRANCH   6  17
BRANCH  11  19
HETATM   19  C15 UNL     1      19.595  40.254 -38.976  1.00  0.00    -0.014 C 
HETATM   20  C16 UNL     1      19.992  39.789 -40.116  1.00  0.00     0.081 C 
BRANCH  20  21
HETATM   21  C17 UNL     1      19.755  38.482 -40.660  1.00  0.00     0.198 C 
HETATM   22  O7  UNL     1      18.761  38.075 -41.301  1.00  0.00    -0.645 OA
HETATM   23  O8  UNL     1      20.737  37.457 -40.488  1.00  0.00    -0.645 OA
ENDBRANCH  20  21
ENDBRANCH  11  19
BRANCH   7  24
HETATM   24  O4  UNL     1      21.884  39.852 -34.396  1.00  0.00    -0.390 OA
ATOM     25  H4  UNL     1      21.984  40.647 -34.907  1.00  0.00     0.210 HD
ENDBRANCH   7  24
BRANCH   8  26
HETATM   26  O5  UNL     1      21.944  38.892 -37.458  1.00  0.00    -0.319 OA
BRANCH  26  27
HETATM   27  C11 UNL     1      23.033  39.664 -37.812  1.00  0.00     0.398 C 
HETATM   28  O6  UNL     1      23.037  40.919 -37.771  1.00  0.00    -0.276 OA
ENDBRANCH  26  27
ENDBRANCH   8  26
TORSDOF 9
ENDMDL
MODEL 2
REMARK VINA RESULT: -4.883037430      3.905      5.410
REMARK  9 active torsions:
REMARK  status: ('A' for Active; 'I' for Inactive)
REMARK    1  A    between atoms: C4_4  and  C5_5 
REMARK    2  A    between atoms: C5_5  and  O1_6 
REMARK    3  A    between atoms: C5_5  and  C6_8 
REMARK    4  A    between atoms: C8_11  and  O3_12 
REMARK    5  A    between atoms: C9_14  and  O4_15 
REMARK    6  A    between atoms: C10_17  and  O5_18 
REMARK    7  A    between atoms: O5_18  and  C11_19 
REMARK    8  A    between atoms: C14_23  and  C15_24 
REMARK    9  A    between atoms: C16_25  and  C17_26 
ROOT
HETATM    1  C1  UNL     1      19.383  45.588 -36.855  1.00  0.00     0.010 C 
HETATM    2  C2  UNL     1      18.879  45.226 -38.238  1.00  0.00    -0.010 C 
HETATM    3  C3  UNL     1      17.420  44.971 -38.276  1.00  0.00     0.013 C 
HETATM    4  C4  UNL     1      17.085  43.533 -38.707  1.00  0.00     0.029 C 
HETATM    5  C7  UNL     1      18.009  42.711 -37.913  1.00  0.00     0.035 C 
HETATM    6  C8  UNL     1      17.824  41.258 -37.857  1.00  0.00     0.154 C 
HETATM    7  C9  UNL     1      19.191  40.795 -37.397  1.00  0.00     0.177 C 
HETATM    8  C10 UNL     1      20.158  41.980 -37.661  1.00  0.00     0.171 C 
HETATM    9  C12 UNL     1      19.360  42.783 -38.605  1.00  0.00    -0.001 C 
HETATM   10  C13 UNL     1      19.292  41.965 -39.909  1.00  0.00     0.019 C 
HETATM   11  C14 UNL     1      19.761  44.183 -38.898  1.00  0.00     0.023 C 
ENDROOT
BRANCH   4  12
HETATM   12  C5  UNL     1      15.617  43.345 -38.468  1.00  0.00     0.183 C 
BRANCH  12  13
HETATM   13  O1  UNL     1      14.913  42.810 -39.515  1.00  0.00    -0.388 OA
ATOM     14  H1  UNL     1      14.519  43.440 -40.106  1.00  0.00     0.210 HD
ENDBRANCH  12  13
BRANCH  12  15
HETATM   15  C6  UNL     1      14.991  44.552 -37.886  1.00  0.00     0.263 C 
HETATM   16  O2  UNL     1      14.056  44.478 -37.126  1.00  0.00    -0.304 OA
ENDBRANCH  12  15
ENDBRANCH   4  12
BRANCH   6  17
HETATM   17  O3  UNL     1      16.873  40.795 -36.946  1.00  0.00    -0.392 OA
ATOM     18  H3  UNL     1      16.913  41.170 -36.073  1.00  0.00     0.210 HD
ENDBRANCH   6  17
BRANCH  11  19
HETATM   19  C15 UNL     1      21.142  44.541 -38.532  1.00  0.00    -0.014 C 
HETATM   20  C16 UNL     1      22.072  45.078 -39.253  1.00  0.00     0.081 C 
BRANCH  20  21
HETATM   21  C17 UNL     1      21.995  45.476 -40.631  1.00  0.00     0.198 C 
HETATM   22  O7  UNL     1      22.516  44.930 -41.627  1.00  0.00    -0.645 OA
HETATM   23  O8  UNL     1      21.241  46.637 -40.988  1.00  0.00    -0.645 OA
ENDBRANCH  20  21
ENDBRANCH  11  19
BRANCH   7  24
HETATM   24  O4  UNL     1      19.146  40.511 -36.053  1.00  0.00    -0.390 OA
ATOM     25  H4  UNL     1      19.173  41.323 -35.560  1.00  0.00     0.210 HD
ENDBRANCH   7  24
BRANCH   8  26
HETATM   26  O5  UNL     1      21.376  41.462 -38.155  1.00  0.00    -0.319 OA
BRANCH  26  27
HETATM   27  C11 UNL     1      22.405  41.239 -37.260  1.00  0.00     0.398 C 
HETATM   28  O6  UNL     1      22.238  41.144 -36.020  1.00  0.00    -0.276 OA
ENDBRANCH  26  27
ENDBRANCH   8  26
TORSDOF 9
ENDMDL
MODEL 3
REMARK VINA RESULT: -4.873773895      4.303      6.005
REMARK  9 active torsions:
REMARK  status: ('A' for Active; 'I' for Inactive)
REMARK    1  A    between atoms: C4_4  and  C5_5 
REMARK    2  A    between atoms: C5_5  and  O1_6 
REMARK    3  A    between atoms: C5_5  and  C6_8 
REMARK    4  A    between atoms: C8_11  and  O3_12 
REMARK    5  A    between atoms: C9_14  and  O4_15 
REMARK    6  A    between atoms: C10_17  and  O5_18 
REMARK    7  A    between atoms: O5_18  and  C11_19 
REMARK    8  A    between atoms: C14_23  and  C15_24 
REMARK    9  A    between atoms: C16_25  and  C17_26 
ROOT
HETATM    1  C1  UNL     1      19.583  45.631 -36.928  1.00  0.00     0.010 C 
HETATM    2  C2  UNL     1      18.886  45.641 -38.273  1.00  0.00    -0.010 C 
HETATM    3  C3  UNL     1      17.510  45.092 -38.219  1.00  0.00     0.013 C 
HETATM    4  C4  UNL     1      17.342  43.840 -39.097  1.00  0.00     0.029 C 
HETATM    5  C7  UNL     1      18.528  43.032 -38.776  1.00  0.00     0.035 C 
HETATM    6  C8  UNL     1      18.601  41.640 -39.227  1.00  0.00     0.154 C 
HETATM    7  C9  UNL     1      20.089  41.370 -39.140  1.00  0.00     0.177 C 
HETATM    8  C10 UNL     1      20.775  42.761 -39.075  1.00  0.00     0.171 C 
HETATM    9  C12 UNL     1      19.686  43.629 -39.557  1.00  0.00    -0.001 C 
HETATM   10  C13 UNL     1      19.502  43.293 -41.050  1.00  0.00     0.019 C 
HETATM   11  C14 UNL     1      19.783  45.100 -39.371  1.00  0.00     0.023 C 
ENDROOT
BRANCH   4  12
HETATM   12  C5  UNL     1      16.001  43.259 -38.761  1.00  0.00     0.183 C 
BRANCH  12  13
HETATM   13  O1  UNL     1      15.344  42.654 -39.800  1.00  0.00    -0.388 OA
ATOM     14  H1  UNL     1      14.542  43.080 -40.079  1.00  0.00     0.210 HD
ENDBRANCH  12  13
BRANCH  12  15
HETATM   15  C6  UNL     1      15.161  44.207 -37.997  1.00  0.00     0.263 C 
HETATM   16  O2  UNL     1      14.016  44.431 -38.306  1.00  0.00    -0.304 OA
ENDBRANCH  12  15
ENDBRANCH   4  12
BRANCH   6  17
HETATM   17  O3  UNL     1      17.938  40.701 -38.434  1.00  0.00    -0.392 OA
ATOM     18  H3  UNL     1      18.355  39.851 -38.354  1.00  0.00     0.210 HD
ENDBRANCH   6  17
BRANCH  11  19
HETATM   19  C15 UNL     1      21.130  45.617 -39.075  1.00  0.00    -0.014 C 
HETATM   20  C16 UNL     1      22.025  46.090 -39.880  1.00  0.00     0.081 C 
BRANCH  20  21
HETATM   21  C17 UNL     1      21.934  46.237 -41.305  1.00  0.00     0.198 C 
HETATM   22  O7  UNL     1      21.505  47.212 -41.960  1.00  0.00    -0.645 OA
HETATM   23  O8  UNL     1      22.370  45.172 -42.154  1.00  0.00    -0.645 OA
ENDBRANCH  20  21
ENDBRANCH  11  19
BRANCH   7  24
HETATM   24  O4  UNL     1      20.356  40.657 -37.995  1.00  0.00    -0.390 OA
ATOM     25  H4  UNL     1      21.205  40.914 -37.656  1.00  0.00     0.210 HD
ENDBRANCH   7  24
BRANCH   8  26
HETATM   26  O5  UNL     1      21.942  42.723 -39.870  1.00  0.00    -0.319 OA
BRANCH  26  27
HETATM   27  C11 UNL     1      23.138  42.383 -39.266  1.00  0.00     0.398 C 
HETATM   28  O6  UNL     1      23.225  41.976 -38.082  1.00  0.00    -0.276 OA
ENDBRANCH  26  27
ENDBRANCH   8  26
TORSDOF 9
ENDMDL
MODEL 4
REMARK VINA RESULT: -4.619978677      4.901      7.880
REMARK  9 active torsions:
REMARK  status: ('A' for Active; 'I' for Inactive)
REMARK    1  A    between atoms: C4_4  and  C5_5 
REMARK    2  A    between atoms: C5_5  and  O1_6 
REMARK    3  A    between atoms: C5_5  and  C6_8 
REMARK    4  A    between atoms: C8_11  and  O3_12 
REMARK    5  A    between atoms: C9_14  and  O4_15 
REMARK    6  A    between atoms: C10_17  and  O5_18 
REMARK    7  A    between atoms: O5_18  and  C11_19 
REMARK    8  A    between atoms: C14_23  and  C15_24 
REMARK    9  A    between atoms: C16_25  and  C17_26 
ROOT
HETATM    1  C1  UNL     1      20.175  42.372 -41.435  1.00  0.00     0.010 C 
HETATM    2  C2  UNL     1      19.477  43.711 -41.309  1.00  0.00    -0.010 C 
HETATM    3  C3  UNL     1      20.287  44.839 -41.827  1.00  0.00     0.013 C 
HETATM    4  C4  UNL     1      20.622  45.871 -40.737  1.00  0.00     0.029 C 
HETATM    5  C7  UNL     1      21.057  45.045 -39.601  1.00  0.00     0.035 C 
HETATM    6  C8  UNL     1      21.703  45.678 -38.448  1.00  0.00     0.154 C 
HETATM    7  C9  UNL     1      21.522  44.619 -37.380  1.00  0.00     0.177 C 
HETATM    8  C10 UNL     1      20.404  43.674 -37.896  1.00  0.00     0.171 C 
HETATM    9  C12 UNL     1      19.795  44.513 -38.943  1.00  0.00    -0.001 C 
HETATM   10  C13 UNL     1      19.093  45.670 -38.208  1.00  0.00     0.019 C 
HETATM   11  C14 UNL     1      18.870  43.897 -39.931  1.00  0.00     0.023 C 
ENDROOT
BRANCH   4  12
HETATM   12  C5  UNL     1      21.631  46.808 -41.332  1.00  0.00     0.183 C 
BRANCH  12  13
HETATM   13  O1  UNL     1      21.112  47.907 -41.967  1.00  0.00    -0.388 OA
ATOM     14  H1  UNL     1      21.066  47.847 -42.913  1.00  0.00     0.210 HD
ENDBRANCH  12  13
BRANCH  12  15
HETATM   15  C6  UNL     1      22.654  46.092 -42.124  1.00  0.00     0.263 C 
HETATM   16  O2  UNL     1      23.135  46.572 -43.122  1.00  0.00    -0.304 OA
ENDBRANCH  12  15
ENDBRANCH   4  12
BRANCH   6  17
HETATM   17  O3  UNL     1      23.067  45.943 -38.578  1.00  0.00    -0.392 OA
ATOM     18  H3  UNL     1      23.558  46.016 -37.767  1.00  0.00     0.210 HD
ENDBRANCH   6  17
BRANCH  11  19
HETATM   19  C15 UNL     1      18.322  42.582 -39.557  1.00  0.00    -0.014 C 
HETATM   20  C16 UNL     1      17.134  42.270 -39.151  1.00  0.00     0.081 C 
BRANCH  20  21
HETATM   21  C17 UNL     1      16.014  43.149 -38.959  1.00  0.00     0.198 C 
HETATM   22  O7  UNL     1      15.020  43.314 -39.699  1.00  0.00    -0.645 OA
HETATM   23  O8  UNL     1      15.958  43.973 -37.792  1.00  0.00    -0.645 OA
ENDBRANCH  20  21
ENDBRANCH  11  19
BRANCH   7  24
HETATM   24  O4  UNL     1      22.697  43.923 -37.227  1.00  0.00    -0.390 OA
ATOM     25  H4  UNL     1      22.923  43.887 -36.305  1.00  0.00     0.210 HD
ENDBRANCH   7  24
BRANCH   8  26
HETATM   26  O5  UNL     1      19.571  43.329 -36.808  1.00  0.00    -0.319 OA
BRANCH  26  27
HETATM   27  C11 UNL     1      19.642  42.042 -36.309  1.00  0.00     0.398 C 
HETATM   28  O6  UNL     1      20.259  41.110 -36.880  1.00  0.00    -0.276 OA
ENDBRANCH  26  27
ENDBRANCH   8  26
TORSDOF 9
ENDMDL
MODEL 5
REMARK VINA RESULT: -4.545574179      3.637      5.246
REMARK  9 active torsions:
REMARK  status: ('A' for Active; 'I' for Inactive)
REMARK    1  A    between atoms: C4_4  and  C5_5 
REMARK    2  A    between atoms: C5_5  and  O1_6 
REMARK    3  A    between atoms: C5_5  and  C6_8 
REMARK    4  A    between atoms: C8_11  and  O3_12 
REMARK    5  A    between atoms: C9_14  and  O4_15 
REMARK    6  A    between atoms: C10_17  and  O5_18 
REMARK    7  A    between atoms: O5_18  and  C11_19 
REMARK    8  A    between atoms: C14_23  and  C15_24 
REMARK    9  A    between atoms: C16_25  and  C17_26 
ROOT
HETATM    1  C1  UNL     1      19.865  45.467 -36.637  1.00  0.00     0.010 C 
HETATM    2  C2  UNL     1      19.444  45.238 -38.074  1.00  0.00    -0.010 C 
HETATM    3  C3  UNL     1      17.973  45.257 -38.259  1.00  0.00     0.013 C 
HETATM    4  C4  UNL     1      17.428  43.917 -38.779  1.00  0.00     0.029 C 
HETATM    5  C7  UNL     1      18.104  42.919 -37.937  1.00  0.00     0.035 C 
HETATM    6  C8  UNL     1      17.654  41.525 -37.959  1.00  0.00     0.154 C 
HETATM    7  C9  UNL     1      18.862  40.806 -37.393  1.00  0.00     0.177 C 
HETATM    8  C10 UNL     1      20.049  41.798 -37.517  1.00  0.00     0.171 C 
HETATM    9  C12 UNL     1      19.508  42.757 -38.497  1.00  0.00    -0.001 C 
HETATM   10  C13 UNL     1      19.423  41.997 -39.834  1.00  0.00     0.019 C 
HETATM   11  C14 UNL     1      20.183  44.066 -38.693  1.00  0.00     0.023 C 
ENDROOT
BRANCH   4  12
HETATM   12  C5  UNL     1      15.934  43.997 -38.685  1.00  0.00     0.183 C 
BRANCH  12  13
HETATM   13  O1  UNL     1      15.411  43.815 -37.431  1.00  0.00    -0.388 OA
ATOM     14  H1  UNL     1      14.918  43.014 -37.306  1.00  0.00     0.210 HD
ENDBRANCH  12  13
BRANCH  12  15
HETATM   15  C6  UNL     1      15.268  43.188 -39.729  1.00  0.00     0.263 C 
HETATM   16  O2  UNL     1      14.245  43.551 -40.256  1.00  0.00    -0.304 OA
ENDBRANCH  12  15
ENDBRANCH   4  12
BRANCH   6  17
HETATM   17  O3  UNL     1      16.550  41.223 -37.160  1.00  0.00    -0.392 OA
ATOM     18  H3  UNL     1      15.907  41.916 -37.055  1.00  0.00     0.210 HD
ENDBRANCH   6  17
BRANCH  11  19
HETATM   19  C15 UNL     1      21.563  44.154 -38.185  1.00  0.00    -0.014 C 
HETATM   20  C16 UNL     1      22.683  44.034 -38.821  1.00  0.00     0.081 C 
BRANCH  20  21
HETATM   21  C17 UNL     1      22.874  43.780 -40.221  1.00  0.00     0.198 C 
HETATM   22  O7  UNL     1      23.083  44.604 -41.138  1.00  0.00    -0.645 OA
HETATM   23  O8  UNL     1      22.834  42.436 -40.706  1.00  0.00    -0.645 OA
ENDBRANCH  20  21
ENDBRANCH  11  19
BRANCH   7  24
HETATM   24  O4  UNL     1      18.633  40.504 -36.072  1.00  0.00    -0.390 OA
ATOM     25  H4  UNL     1      18.267  39.630 -36.009  1.00  0.00     0.210 HD
ENDBRANCH   7  24
BRANCH   8  26
HETATM   26  O5  UNL     1      21.196  41.077 -37.916  1.00  0.00    -0.319 OA
BRANCH  26  27
HETATM   27  C11 UNL     1      22.093  40.678 -36.943  1.00  0.00     0.398 C 
HETATM   28  O6  UNL     1      21.758  40.063 -35.902  1.00  0.00    -0.276 OA
ENDBRANCH  26  27
ENDBRANCH   8  26
TORSDOF 9
ENDMDL
