MODEL 1
REMARK VINA RESULT: -6.498144670      0.000      0.000
REMARK  10 active torsions:
REMARK  status: ('A' for Active; 'I' for Inactive)
REMARK       I    between atoms: C2_2  and  N1_4 
REMARK    1  A    between atoms: N1_4  and  C3_6 
REMARK    2  A    between atoms: C3_6  and  C4_7 
REMARK    3  A    between atoms: C3_6  and  C8_11 
REMARK    4  A    between atoms: C4_7  and  C5_8 
REMARK    5  A    between atoms: C8_11  and  O2_12 
REMARK    6  A    between atoms: C8_11  and  C9_14 
REMARK    7  A    between atoms: C9_14  and  O3_15 
REMARK    8  A    between atoms: C9_14  and  C10_17 
REMARK    9  A    between atoms: C11_18  and  C12_19 
REMARK   10  A    between atoms: C14_21  and  O4_22 
ROOT
HETATM    1  C8  UNL     1      -7.458  20.756 -23.145  1.00  0.00     0.173 C 
ENDROOT
BRANCH   1   2
HETATM    2  C3  UNL     1      -7.078  19.727 -24.163  1.00  0.00     0.116 C 
BRANCH   2   3
HETATM    3  N1  UNL     1      -7.574  18.398 -23.884  1.00  0.00    -0.354 N 
HETATM    4  C2  UNL     1      -6.804  17.220 -24.060  1.00  0.00     0.214 C 
HETATM    5  C1  UNL     1      -7.371  15.903 -23.757  1.00  0.00     0.117 C 
HETATM    6  O1  UNL     1      -5.604  17.302 -24.486  1.00  0.00    -0.274 OA
ATOM      7  H1  UNL     1      -8.529  18.302 -23.541  1.00  0.00     0.162 HD
ENDBRANCH   2   3
BRANCH   2   8
HETATM    8  C4  UNL     1      -7.387  20.162 -25.570  1.00  0.00     0.031 C 
BRANCH   8   9
HETATM    9  C5  UNL     1      -6.216  20.037 -26.508  1.00  0.00    -0.021 C 
HETATM   10  C6  UNL     1      -6.592  20.871 -27.742  1.00  0.00     0.009 C 
HETATM   11  C7  UNL     1      -4.976  20.715 -25.943  1.00  0.00     0.009 C 
ENDBRANCH   8   9
ENDBRANCH   2   8
ENDBRANCH   1   2
BRANCH   1  12
HETATM   12  O2  UNL     1      -8.735  21.227 -23.533  1.00  0.00    -0.391 OA
ATOM     13  H2  UNL     1      -8.609  22.133 -23.789  1.00  0.00     0.210 HD
ENDBRANCH   1  12
BRANCH   1  14
HETATM   14  C9  UNL     1      -7.603  20.219 -21.763  1.00  0.00     0.171 C 
BRANCH  14  15
HETATM   15  O3  UNL     1      -6.589  20.519 -20.889  1.00  0.00    -0.389 OA
ATOM     16  H3  UNL     1      -6.486  21.437 -20.668  1.00  0.00     0.210 HD
ENDBRANCH  14  15
BRANCH  14  17
HETATM   17  C10 UNL     1      -8.885  20.673 -21.142  1.00  0.00     0.003 C 
HETATM   18  C11 UNL     1      -8.967  21.545 -20.185  1.00  0.00    -0.023 C 
BRANCH  18  19
HETATM   19  C12 UNL     1     -10.222  21.978 -19.588  1.00  0.00     0.013 C 
HETATM   20  C13 UNL     1     -10.866  21.024 -18.582  1.00  0.00     0.040 C 
HETATM   21  C14 UNL     1     -12.205  21.612 -19.057  1.00  0.00     0.119 C 
HETATM   22  C15 UNL     1     -11.486  21.833 -20.403  1.00  0.00     0.040 C 
BRANCH  21  23
HETATM   23  O4  UNL     1     -13.227  20.698 -19.104  1.00  0.00    -0.396 OA
ATOM     24  H4  UNL     1     -13.900  20.906 -19.742  1.00  0.00     0.210 HD
ENDBRANCH  21  23
ENDBRANCH  18  19
ENDBRANCH  14  17
ENDBRANCH   1  14
TORSDOF 10
ENDMDL
MODEL 2
REMARK VINA RESULT: -6.462705459      1.734      3.257
REMARK  10 active torsions:
REMARK  status: ('A' for Active; 'I' for Inactive)
REMARK       I    between atoms: C2_2  and  N1_4 
REMARK    1  A    between atoms: N1_4  and  C3_6 
REMARK    2  A    between atoms: C3_6  and  C4_7 
REMARK    3  A    between atoms: C3_6  and  C8_11 
REMARK    4  A    between atoms: C4_7  and  C5_8 
REMARK    5  A    between atoms: C8_11  and  O2_12 
REMARK    6  A    between atoms: C8_11  and  C9_14 
REMARK    7  A    between atoms: C9_14  and  O3_15 
REMARK    8  A    between atoms: C9_14  and  C10_17 
REMARK    9  A    between atoms: C11_18  and  C12_19 
REMARK   10  A    between atoms: C14_21  and  O4_22 
ROOT
HETATM    1  C8  UNL     1      -7.036  20.236 -23.824  1.00  0.00     0.173 C 
ENDROOT
BRANCH   1   2
HETATM    2  C3  UNL     1      -6.247  19.446 -24.821  1.00  0.00     0.116 C 
BRANCH   2   3
HETATM    3  N1  UNL     1      -5.140  20.163 -25.413  1.00  0.00    -0.354 N 
HETATM    4  C2  UNL     1      -5.253  20.950 -26.587  1.00  0.00     0.214 C 
HETATM    5  C1  UNL     1      -4.087  21.650 -27.134  1.00  0.00     0.117 C 
HETATM    6  O1  UNL     1      -6.379  21.052 -27.179  1.00  0.00    -0.274 OA
ATOM      7  H1  UNL     1      -4.228  20.100 -24.961  1.00  0.00     0.162 HD
ENDBRANCH   2   3
BRANCH   2   8
HETATM    8  C4  UNL     1      -5.833  18.099 -24.294  1.00  0.00     0.031 C 
BRANCH   8   9
HETATM    9  C5  UNL     1      -6.505  16.948 -24.994  1.00  0.00    -0.021 C 
HETATM   10  C6  UNL     1      -7.185  16.135 -23.882  1.00  0.00     0.009 C 
HETATM   11  C7  UNL     1      -7.645  17.425 -25.881  1.00  0.00     0.009 C 
ENDBRANCH   8   9
ENDBRANCH   2   8
ENDBRANCH   1   2
BRANCH   1  12
HETATM   12  O2  UNL     1      -8.195  20.672 -24.511  1.00  0.00    -0.391 OA
ATOM     13  H2  UNL     1      -8.504  19.918 -24.997  1.00  0.00     0.210 HD
ENDBRANCH   1  12
BRANCH   1  14
HETATM   14  C9  UNL     1      -7.506  19.442 -22.654  1.00  0.00     0.171 C 
BRANCH  14  15
HETATM   15  O3  UNL     1      -6.559  19.140 -21.709  1.00  0.00    -0.389 OA
ATOM     16  H3  UNL     1      -6.313  18.225 -21.640  1.00  0.00     0.210 HD
ENDBRANCH  14  15
BRANCH  14  17
HETATM   17  C10 UNL     1      -8.637  20.129 -21.958  1.00  0.00     0.003 C 
HETATM   18  C11 UNL     1      -8.496  21.123 -21.138  1.00  0.00    -0.023 C 
BRANCH  18  19
HETATM   19  C12 UNL     1      -9.606  21.783 -20.466  1.00  0.00     0.013 C 
HETATM   20  C13 UNL     1      -9.381  22.188 -19.009  1.00  0.00     0.040 C 
HETATM   21  C14 UNL     1     -10.893  21.970 -18.835  1.00  0.00     0.119 C 
HETATM   22  C15 UNL     1     -10.744  20.927 -19.961  1.00  0.00     0.040 C 
BRANCH  21  23
HETATM   23  O4  UNL     1     -11.243  21.444 -17.618  1.00  0.00    -0.396 OA
ATOM     24  H4  UNL     1     -11.010  21.994 -16.879  1.00  0.00     0.210 HD
ENDBRANCH  21  23
ENDBRANCH  18  19
ENDBRANCH  14  17
ENDBRANCH   1  14
TORSDOF 10
ENDMDL
MODEL 3
REMARK VINA RESULT: -6.440654532      1.536      3.315
REMARK  10 active torsions:
REMARK  status: ('A' for Active; 'I' for Inactive)
REMARK       I    between atoms: C2_2  and  N1_4 
REMARK    1  A    between atoms: N1_4  and  C3_6 
REMARK    2  A    between atoms: C3_6  and  C4_7 
REMARK    3  A    between atoms: C3_6  and  C8_11 
REMARK    4  A    between atoms: C4_7  and  C5_8 
REMARK    5  A    between atoms: C8_11  and  O2_12 
REMARK    6  A    between atoms: C8_11  and  C9_14 
REMARK    7  A    between atoms: C9_14  and  O3_15 
REMARK    8  A    between atoms: C9_14  and  C10_17 
REMARK    9  A    between atoms: C11_18  and  C12_19 
REMARK   10  A    between atoms: C14_21  and  O4_22 
ROOT
HETATM    1  C8  UNL     1      -7.227  19.124 -22.955  1.00  0.00     0.173 C 
ENDROOT
BRANCH   1   2
HETATM    2  C3  UNL     1      -6.612  18.997 -24.313  1.00  0.00     0.116 C 
BRANCH   2   3
HETATM    3  N1  UNL     1      -5.775  20.111 -24.698  1.00  0.00    -0.354 N 
HETATM    4  C2  UNL     1      -5.456  20.425 -26.044  1.00  0.00     0.214 C 
HETATM    5  C1  UNL     1      -4.600  21.571 -26.363  1.00  0.00     0.117 C 
HETATM    6  O1  UNL     1      -5.917  19.705 -26.991  1.00  0.00    -0.274 OA
ATOM      7  H1  UNL     1      -5.393  20.704 -23.962  1.00  0.00     0.162 HD
ENDBRANCH   2   3
BRANCH   2   8
HETATM    8  C4  UNL     1      -5.923  17.675 -24.516  1.00  0.00     0.031 C 
BRANCH   8   9
HETATM    9  C5  UNL     1      -6.826  16.605 -25.070  1.00  0.00    -0.021 C 
HETATM   10  C6  UNL     1      -7.342  15.833 -23.846  1.00  0.00     0.009 C 
HETATM   11  C7  UNL     1      -8.071  17.204 -25.707  1.00  0.00     0.009 C 
ENDBRANCH   8   9
ENDBRANCH   2   8
ENDBRANCH   1   2
BRANCH   1  12
HETATM   12  O2  UNL     1      -6.175  18.894 -22.035  1.00  0.00    -0.391 OA
ATOM     13  H2  UNL     1      -6.325  19.497 -21.317  1.00  0.00     0.210 HD
ENDBRANCH   1  12
BRANCH   1  14
HETATM   14  C9  UNL     1      -7.765  20.481 -22.657  1.00  0.00     0.171 C 
BRANCH  14  15
HETATM   15  O3  UNL     1      -8.484  21.078 -23.660  1.00  0.00    -0.389 OA
ATOM     16  H3  UNL     1      -8.841  21.937 -23.464  1.00  0.00     0.210 HD
ENDBRANCH  14  15
BRANCH  14  17
HETATM   17  C10 UNL     1      -8.625  20.461 -21.433  1.00  0.00     0.003 C 
HETATM   18  C11 UNL     1      -9.750  21.096 -21.319  1.00  0.00    -0.023 C 
BRANCH  18  19
HETATM   19  C12 UNL     1     -10.577  21.068 -20.121  1.00  0.00     0.013 C 
HETATM   20  C13 UNL     1     -11.864  21.894 -20.159  1.00  0.00     0.040 C 
HETATM   21  C14 UNL     1     -11.669  22.053 -18.641  1.00  0.00     0.119 C 
HETATM   22  C15 UNL     1     -10.163  21.927 -18.949  1.00  0.00     0.040 C 
BRANCH  21  23
HETATM   23  O4  UNL     1     -12.048  23.279 -18.158  1.00  0.00    -0.396 OA
ATOM     24  H4  UNL     1     -11.322  23.821 -17.871  1.00  0.00     0.210 HD
ENDBRANCH  21  23
ENDBRANCH  18  19
ENDBRANCH  14  17
ENDBRANCH   1  14
TORSDOF 10
ENDMDL
MODEL 4
REMARK VINA RESULT: -6.383783171      3.053      7.315
REMARK  10 active torsions:
REMARK  status: ('A' for Active; 'I' for Inactive)
REMARK       I    between atoms: C2_2  and  N1_4 
REMARK    1  A    between atoms: N1_4  and  C3_6 
REMARK    2  A    between atoms: C3_6  and  C4_7 
REMARK    3  A    between atoms: C3_6  and  C8_11 
REMARK    4  A    between atoms: C4_7  and  C5_8 
REMARK    5  A    between atoms: C8_11  and  O2_12 
REMARK    6  A    between atoms: C8_11  and  C9_14 
REMARK    7  A    between atoms: C9_14  and  O3_15 
REMARK    8  A    between atoms: C9_14  and  C10_17 
REMARK    9  A    between atoms: C11_18  and  C12_19 
REMARK   10  A    between atoms: C14_21  and  O4_22 
ROOT
HETATM    1  C8  UNL     1     -11.576  22.260 -19.213  1.00  0.00     0.173 C 
ENDROOT
BRANCH   1   2
HETATM    2  C3  UNL     1     -12.225  20.915 -19.319  1.00  0.00     0.116 C 
BRANCH   2   3
HETATM    3  N1  UNL     1     -12.877  20.468 -18.110  1.00  0.00    -0.354 N 
HETATM    4  C2  UNL     1     -12.349  19.464 -17.258  1.00  0.00     0.214 C 
HETATM    5  C1  UNL     1     -13.066  19.057 -16.046  1.00  0.00     0.117 C 
HETATM    6  O1  UNL     1     -11.239  18.905 -17.546  1.00  0.00    -0.274 OA
ATOM      7  H1  UNL     1     -13.766  20.897 -17.854  1.00  0.00     0.162 HD
ENDBRANCH   2   3
BRANCH   2   8
HETATM    8  C4  UNL     1     -13.120  20.798 -20.523  1.00  0.00     0.031 C 
BRANCH   8   9
HETATM    9  C5  UNL     1     -14.384  21.609 -20.413  1.00  0.00    -0.021 C 
HETATM   10  C6  UNL     1     -14.423  22.475 -21.681  1.00  0.00     0.009 C 
HETATM   11  C7  UNL     1     -15.620  20.727 -20.505  1.00  0.00     0.009 C 
ENDBRANCH   8   9
ENDBRANCH   2   8
ENDBRANCH   1   2
BRANCH   1  12
HETATM   12  O2  UNL     1     -12.105  22.849 -18.038  1.00  0.00    -0.391 OA
ATOM     13  H2  UNL     1     -12.712  22.211 -17.683  1.00  0.00     0.210 HD
ENDBRANCH   1  12
BRANCH   1  14
HETATM   14  C9  UNL     1     -10.097  22.208 -19.036  1.00  0.00     0.171 C 
BRANCH  14  15
HETATM   15  O3  UNL     1      -9.641  21.447 -17.991  1.00  0.00    -0.389 OA
ATOM     16  H3  UNL     1      -8.740  21.150 -18.052  1.00  0.00     0.210 HD
ENDBRANCH  14  15
BRANCH  14  17
HETATM   17  C10 UNL     1      -9.425  21.720 -20.279  1.00  0.00     0.003 C 
HETATM   18  C11 UNL     1      -8.151  21.805 -20.504  1.00  0.00    -0.023 C 
BRANCH  18  19
HETATM   19  C12 UNL     1      -7.508  21.327 -21.720  1.00  0.00     0.013 C 
HETATM   20  C13 UNL     1      -8.428  21.006 -22.899  1.00  0.00     0.040 C 
HETATM   21  C14 UNL     1      -7.372  19.957 -23.287  1.00  0.00     0.119 C 
HETATM   22  C15 UNL     1      -7.076  19.880 -21.776  1.00  0.00     0.040 C 
BRANCH  21  23
HETATM   23  O4  UNL     1      -7.900  18.809 -23.821  1.00  0.00    -0.396 OA
ATOM     24  H4  UNL     1      -7.921  18.078 -23.215  1.00  0.00     0.210 HD
ENDBRANCH  21  23
ENDBRANCH  18  19
ENDBRANCH  14  17
ENDBRANCH   1  14
TORSDOF 10
ENDMDL
MODEL 5
REMARK VINA RESULT: -6.331766133      1.513      3.013
REMARK  10 active torsions:
REMARK  status: ('A' for Active; 'I' for Inactive)
REMARK       I    between atoms: C2_2  and  N1_4 
REMARK    1  A    between atoms: N1_4  and  C3_6 
REMARK    2  A    between atoms: C3_6  and  C4_7 
REMARK    3  A    between atoms: C3_6  and  C8_11 
REMARK    4  A    between atoms: C4_7  and  C5_8 
REMARK    5  A    between atoms: C8_11  and  O2_12 
REMARK    6  A    between atoms: C8_11  and  C9_14 
REMARK    7  A    between atoms: C9_14  and  O3_15 
REMARK    8  A    between atoms: C9_14  and  C10_17 
REMARK    9  A    between atoms: C11_18  and  C12_19 
REMARK   10  A    between atoms: C14_21  and  O4_22 
ROOT
HETATM    1  C8  UNL     1      -7.743  20.243 -23.340  1.00  0.00     0.173 C 
ENDROOT
BRANCH   1   2
HETATM    2  C3  UNL     1      -6.725  19.587 -24.219  1.00  0.00     0.116 C 
BRANCH   2   3
HETATM    3  N1  UNL     1      -5.637  20.449 -24.622  1.00  0.00    -0.354 N 
HETATM    4  C2  UNL     1      -5.261  20.660 -25.973  1.00  0.00     0.214 C 
HETATM    5  C1  UNL     1      -4.145  21.548 -26.309  1.00  0.00     0.117 C 
HETATM    6  O1  UNL     1      -5.897  20.071 -26.909  1.00  0.00    -0.274 OA
ATOM      7  H1  UNL     1      -5.111  20.933 -23.894  1.00  0.00     0.162 HD
ENDBRANCH   2   3
BRANCH   2   8
HETATM    8  C4  UNL     1      -6.234  18.279 -23.661  1.00  0.00     0.031 C 
BRANCH   8   9
HETATM    9  C5  UNL     1      -6.513  17.101 -24.555  1.00  0.00    -0.021 C 
HETATM   10  C6  UNL     1      -7.267  16.091 -23.677  1.00  0.00     0.009 C 
HETATM   11  C7  UNL     1      -7.492  17.463 -25.662  1.00  0.00     0.009 C 
ENDBRANCH   8   9
ENDBRANCH   2   8
ENDBRANCH   1   2
BRANCH   1  12
HETATM   12  O2  UNL     1      -8.718  19.251 -23.076  1.00  0.00    -0.391 OA
ATOM     13  H2  UNL     1      -9.493  19.721 -22.793  1.00  0.00     0.210 HD
ENDBRANCH   1  12
BRANCH   1  14
HETATM   14  C9  UNL     1      -7.212  20.681 -22.018  1.00  0.00     0.171 C 
BRANCH  14  15
HETATM   15  O3  UNL     1      -6.422  21.802 -22.027  1.00  0.00    -0.389 OA
ATOM     16  H3  UNL     1      -5.484  21.654 -21.996  1.00  0.00     0.210 HD
ENDBRANCH  14  15
BRANCH  14  17
HETATM   17  C10 UNL     1      -8.322  20.917 -21.045  1.00  0.00     0.003 C 
HETATM   18  C11 UNL     1      -8.431  21.973 -20.300  1.00  0.00    -0.023 C 
BRANCH  18  19
HETATM   19  C12 UNL     1      -9.517  22.190 -19.355  1.00  0.00     0.013 C 
HETATM   20  C13 UNL     1      -9.753  21.090 -18.320  1.00  0.00     0.040 C 
HETATM   21  C14 UNL     1     -11.228  21.525 -18.366  1.00  0.00     0.119 C 
HETATM   22  C15 UNL     1     -10.930  21.935 -19.823  1.00  0.00     0.040 C 
BRANCH  21  23
HETATM   23  O4  UNL     1     -12.117  20.487 -18.241  1.00  0.00    -0.396 OA
ATOM     24  H4  UNL     1     -12.574  20.470 -17.408  1.00  0.00     0.210 HD
ENDBRANCH  21  23
ENDBRANCH  18  19
ENDBRANCH  14  17
ENDBRANCH   1  14
TORSDOF 10
ENDMDL
