MODEL 1
REMARK VINA RESULT: -7.358860410      0.000      0.000
REMARK  9 active torsions:
REMARK  status: ('A' for Active; 'I' for Inactive)
REMARK    1  A    between atoms: C2_2  and  C4_4 
REMARK    2  A    between atoms: C4_4  and  C5_5 
REMARK    3  A    between atoms: C5_5  and  N1_6 
REMARK    4  A    between atoms: N1_6  and  C6_9 
REMARK    5  A    between atoms: C6_9  and  C7_10 
REMARK    6  A    between atoms: C6_9  and  C8_13 
REMARK    7  A    between atoms: C8_13  and  O3_14 
REMARK    8  A    between atoms: C8_13  and  C9_16 
REMARK    9  A    between atoms: C12_19  and  C13_20 
ROOT
HETATM    1  C6  UNL     1      -7.302  18.350 -24.712  1.00  0.00     0.314 C 
ENDROOT
BRANCH   1   2
HETATM    2  N1  UNL     1      -6.853  18.741 -23.428  1.00  0.00    -0.059 N 
ATOM      3  H12 UNL     1      -6.096  19.420 -23.505  1.00  0.00     0.278 HD
ATOM      4  H11 UNL     1      -6.354  17.977 -22.974  1.00  0.00     0.278 HD
BRANCH   2   5
HETATM    5  C5  UNL     1      -7.927  19.258 -22.545  1.00  0.00     0.233 C 
BRANCH   5   6
HETATM    6  C4  UNL     1      -8.272  20.628 -23.103  1.00  0.00     0.031 C 
BRANCH   6   7
HETATM    7  C2  UNL     1      -8.572  21.613 -22.005  1.00  0.00    -0.021 C 
HETATM    8  C1  UNL     1      -9.725  21.248 -21.139  1.00  0.00     0.009 C 
HETATM    9  C3  UNL     1      -7.284  21.896 -21.280  1.00  0.00     0.009 C 
ENDBRANCH   6   7
ENDBRANCH   5   6
ENDBRANCH   2   5
ENDBRANCH   1   2
BRANCH   1  10
HETATM   10  C7  UNL     1      -7.921  16.991 -24.775  1.00  0.00     0.207 C 
HETATM   11  O1  UNL     1      -9.106  16.739 -24.741  1.00  0.00    -0.646 OA
HETATM   12  O2  UNL     1      -7.015  15.933 -24.878  1.00  0.00    -0.646 OA
ENDBRANCH   1  10
BRANCH   1  13
HETATM   13  C8  UNL     1      -6.197  18.231 -25.775  1.00  0.00     0.164 C 
BRANCH  13  14
HETATM   14  O3  UNL     1      -4.965  18.545 -25.066  1.00  0.00    -0.393 OA
ATOM     15  H3  UNL     1      -4.650  17.708 -24.745  1.00  0.00     0.210 HD
ENDBRANCH  13  14
BRANCH  13  16
HETATM   16  C9  UNL     1      -6.299  19.179 -26.902  1.00  0.00     0.031 C 
HETATM   17  C10 UNL     1      -7.599  19.438 -27.576  1.00  0.00     0.009 C 
HETATM   18  C11 UNL     1      -7.589  20.818 -26.865  1.00  0.00     0.016 C 
HETATM   19  C12 UNL     1      -6.143  20.639 -26.472  1.00  0.00     0.093 C 
BRANCH  19  20
HETATM   20  C13 UNL     1      -5.197  21.426 -27.339  1.00  0.00     0.177 C 
HETATM   21  O4  UNL     1      -4.014  21.564 -27.009  1.00  0.00    -0.648 OA
HETATM   22  O5  UNL     1      -5.710  21.986 -28.517  1.00  0.00    -0.648 OA
ENDBRANCH  19  20
ENDBRANCH  13  16
ENDBRANCH   1  13
TORSDOF 9
ENDMDL
MODEL 2
REMARK VINA RESULT: -7.238417469      1.157      1.763
REMARK  9 active torsions:
REMARK  status: ('A' for Active; 'I' for Inactive)
REMARK    1  A    between atoms: C2_2  and  C4_4 
REMARK    2  A    between atoms: C4_4  and  C5_5 
REMARK    3  A    between atoms: C5_5  and  N1_6 
REMARK    4  A    between atoms: N1_6  and  C6_9 
REMARK    5  A    between atoms: C6_9  and  C7_10 
REMARK    6  A    between atoms: C6_9  and  C8_13 
REMARK    7  A    between atoms: C8_13  and  O3_14 
REMARK    8  A    between atoms: C8_13  and  C9_16 
REMARK    9  A    between atoms: C12_19  and  C13_20 
ROOT
HETATM    1  C6  UNL     1      -7.327  17.920 -23.967  1.00  0.00     0.314 C 
ENDROOT
BRANCH   1   2
HETATM    2  N1  UNL     1      -7.014  18.659 -22.801  1.00  0.00    -0.059 N 
ATOM      3  H12 UNL     1      -6.294  19.354 -23.001  1.00  0.00     0.278 HD
ATOM      4  H11 UNL     1      -6.510  18.077 -22.133  1.00  0.00     0.278 HD
BRANCH   2   5
HETATM    5  C5  UNL     1      -8.188  19.295 -22.156  1.00  0.00     0.233 C 
BRANCH   5   6
HETATM    6  C4  UNL     1      -8.328  20.647 -22.836  1.00  0.00     0.031 C 
BRANCH   6   7
HETATM    7  C2  UNL     1      -8.670  21.729 -21.848  1.00  0.00    -0.021 C 
HETATM    8  C1  UNL     1      -9.818  21.417 -20.954  1.00  0.00     0.009 C 
HETATM    9  C3  UNL     1      -7.399  22.130 -21.149  1.00  0.00     0.009 C 
ENDBRANCH   6   7
ENDBRANCH   5   6
ENDBRANCH   2   5
ENDBRANCH   1   2
BRANCH   1  10
HETATM   10  C7  UNL     1      -7.161  16.440 -23.838  1.00  0.00     0.207 C 
HETATM   11  O1  UNL     1      -7.184  15.801 -22.808  1.00  0.00    -0.646 OA
HETATM   12  O2  UNL     1      -6.956  15.762 -25.042  1.00  0.00    -0.646 OA
ENDBRANCH   1  10
BRANCH   1  13
HETATM   13  C8  UNL     1      -6.437  18.222 -25.183  1.00  0.00     0.164 C 
BRANCH  13  14
HETATM   14  O3  UNL     1      -5.080  17.961 -24.725  1.00  0.00    -0.393 OA
ATOM     15  H3  UNL     1      -4.687  17.439 -25.415  1.00  0.00     0.210 HD
ENDBRANCH  13  14
BRANCH  13  16
HETATM   16  C9  UNL     1      -6.469  19.619 -25.660  1.00  0.00     0.031 C 
HETATM   17  C10 UNL     1      -5.497  20.626 -25.159  1.00  0.00     0.009 C 
HETATM   18  C11 UNL     1      -4.817  20.529 -26.552  1.00  0.00     0.016 C 
HETATM   19  C12 UNL     1      -5.997  19.768 -27.107  1.00  0.00     0.093 C 
BRANCH  19  20
HETATM   20  C13 UNL     1      -6.902  20.623 -27.953  1.00  0.00     0.177 C 
HETATM   21  O4  UNL     1      -8.050  20.250 -28.215  1.00  0.00    -0.648 OA
HETATM   22  O5  UNL     1      -6.392  21.841 -28.423  1.00  0.00    -0.648 OA
ENDBRANCH  19  20
ENDBRANCH  13  16
ENDBRANCH   1  13
TORSDOF 9
ENDMDL
MODEL 3
REMARK VINA RESULT: -7.043150513      0.695      1.143
REMARK  9 active torsions:
REMARK  status: ('A' for Active; 'I' for Inactive)
REMARK    1  A    between atoms: C2_2  and  C4_4 
REMARK    2  A    between atoms: C4_4  and  C5_5 
REMARK    3  A    between atoms: C5_5  and  N1_6 
REMARK    4  A    between atoms: N1_6  and  C6_9 
REMARK    5  A    between atoms: C6_9  and  C7_10 
REMARK    6  A    between atoms: C6_9  and  C8_13 
REMARK    7  A    between atoms: C8_13  and  O3_14 
REMARK    8  A    between atoms: C8_13  and  C9_16 
REMARK    9  A    between atoms: C12_19  and  C13_20 
ROOT
HETATM    1  C6  UNL     1      -7.106  18.280 -24.709  1.00  0.00     0.314 C 
ENDROOT
BRANCH   1   2
HETATM    2  N1  UNL     1      -6.945  19.121 -23.581  1.00  0.00    -0.059 N 
ATOM      3  H12 UNL     1      -6.011  19.531 -23.571  1.00  0.00     0.278 HD
ATOM      4  H11 UNL     1      -6.899  18.568 -22.726  1.00  0.00     0.278 HD
BRANCH   2   5
HETATM    5  C5  UNL     1      -7.979  20.177 -23.464  1.00  0.00     0.233 C 
BRANCH   5   6
HETATM    6  C4  UNL     1      -8.501  20.063 -22.041  1.00  0.00     0.031 C 
BRANCH   6   7
HETATM    7  C2  UNL     1      -8.914  21.403 -21.494  1.00  0.00    -0.021 C 
HETATM    8  C1  UNL     1     -10.183  21.393 -20.717  1.00  0.00     0.009 C 
HETATM    9  C3  UNL     1      -7.727  21.993 -20.783  1.00  0.00     0.009 C 
ENDBRANCH   6   7
ENDBRANCH   5   6
ENDBRANCH   2   5
ENDBRANCH   1   2
BRANCH   1  10
HETATM   10  C7  UNL     1      -7.136  16.818 -24.405  1.00  0.00     0.207 C 
HETATM   11  O1  UNL     1      -7.164  15.916 -25.214  1.00  0.00    -0.646 OA
HETATM   12  O2  UNL     1      -7.135  16.497 -23.045  1.00  0.00    -0.646 OA
ENDBRANCH   1  10
BRANCH   1  13
HETATM   13  C8  UNL     1      -5.968  18.355 -25.739  1.00  0.00     0.164 C 
BRANCH  13  14
HETATM   14  O3  UNL     1      -4.846  18.931 -25.012  1.00  0.00    -0.393 OA
ATOM     15  H3  UNL     1      -4.266  19.264 -25.687  1.00  0.00     0.210 HD
ENDBRANCH  13  14
BRANCH  13  16
HETATM   16  C9  UNL     1      -6.223  19.230 -26.901  1.00  0.00     0.031 C 
HETATM   17  C10 UNL     1      -7.585  19.364 -27.480  1.00  0.00     0.009 C 
HETATM   18  C11 UNL     1      -7.618  20.780 -26.843  1.00  0.00     0.016 C 
HETATM   19  C12 UNL     1      -6.136  20.718 -26.560  1.00  0.00     0.093 C 
BRANCH  19  20
HETATM   20  C13 UNL     1      -5.317  21.517 -27.539  1.00  0.00     0.177 C 
HETATM   21  O4  UNL     1      -5.842  21.992 -28.551  1.00  0.00    -0.648 OA
HETATM   22  O5  UNL     1      -3.956  21.694 -27.254  1.00  0.00    -0.648 OA
ENDBRANCH  19  20
ENDBRANCH  13  16
ENDBRANCH   1  13
TORSDOF 9
ENDMDL
MODEL 4
REMARK VINA RESULT: -6.741151841      2.938      5.995
REMARK  9 active torsions:
REMARK  status: ('A' for Active; 'I' for Inactive)
REMARK    1  A    between atoms: C2_2  and  C4_4 
REMARK    2  A    between atoms: C4_4  and  C5_5 
REMARK    3  A    between atoms: C5_5  and  N1_6 
REMARK    4  A    between atoms: N1_6  and  C6_9 
REMARK    5  A    between atoms: C6_9  and  C7_10 
REMARK    6  A    between atoms: C6_9  and  C8_13 
REMARK    7  A    between atoms: C8_13  and  O3_14 
REMARK    8  A    between atoms: C8_13  and  C9_16 
REMARK    9  A    between atoms: C12_19  and  C13_20 
ROOT
HETATM    1  C6  UNL     1      -7.074  19.532 -23.700  1.00  0.00     0.314 C 
ENDROOT
BRANCH   1   2
HETATM    2  N1  UNL     1      -6.969  19.997 -25.033  1.00  0.00    -0.059 N 
ATOM      3  H12 UNL     1      -7.541  20.831 -25.167  1.00  0.00     0.278 HD
ATOM      4  H11 UNL     1      -7.442  19.360 -25.673  1.00  0.00     0.278 HD
BRANCH   2   5
HETATM    5  C5  UNL     1      -5.576  20.243 -25.478  1.00  0.00     0.233 C 
BRANCH   5   6
HETATM    6  C4  UNL     1      -5.700  20.734 -26.911  1.00  0.00     0.031 C 
BRANCH   6   7
HETATM    7  C2  UNL     1      -4.581  21.674 -27.272  1.00  0.00    -0.021 C 
HETATM    8  C1  UNL     1      -5.022  22.979 -27.834  1.00  0.00     0.009 C 
HETATM    9  C3  UNL     1      -3.656  21.761 -26.088  1.00  0.00     0.009 C 
ENDBRANCH   6   7
ENDBRANCH   5   6
ENDBRANCH   2   5
ENDBRANCH   1   2
BRANCH   1  10
HETATM   10  C7  UNL     1      -7.197  18.050 -23.558  1.00  0.00     0.207 C 
HETATM   11  O1  UNL     1      -6.674  17.363 -22.707  1.00  0.00    -0.646 OA
HETATM   12  O2  UNL     1      -7.995  17.428 -24.522  1.00  0.00    -0.646 OA
ENDBRANCH   1  10
BRANCH   1  13
HETATM   13  C8  UNL     1      -8.321  20.015 -22.942  1.00  0.00     0.164 C 
BRANCH  13  14
HETATM   14  O3  UNL     1      -8.713  21.243 -23.618  1.00  0.00    -0.393 OA
ATOM     15  H3  UNL     1      -8.398  21.142 -24.509  1.00  0.00     0.210 HD
ENDBRANCH  13  14
BRANCH  13  16
HETATM   16  C9  UNL     1      -8.106  20.355 -21.522  1.00  0.00     0.031 C 
HETATM   17  C10 UNL     1      -6.793  20.859 -21.040  1.00  0.00     0.009 C 
HETATM   18  C11 UNL     1      -7.474  22.248 -20.914  1.00  0.00     0.016 C 
HETATM   19  C12 UNL     1      -8.838  21.628 -21.094  1.00  0.00     0.093 C 
BRANCH  19  20
HETATM   20  C13 UNL     1      -9.594  21.485 -19.800  1.00  0.00     0.177 C 
HETATM   21  O4  UNL     1     -10.474  20.626 -19.682  1.00  0.00    -0.648 OA
HETATM   22  O5  UNL     1      -9.260  22.355 -18.753  1.00  0.00    -0.648 OA
ENDBRANCH  19  20
ENDBRANCH  13  16
ENDBRANCH   1  13
TORSDOF 9
ENDMDL
MODEL 5
REMARK VINA RESULT: -6.395430189      2.208      4.805
REMARK  9 active torsions:
REMARK  status: ('A' for Active; 'I' for Inactive)
REMARK    1  A    between atoms: C2_2  and  C4_4 
REMARK    2  A    between atoms: C4_4  and  C5_5 
REMARK    3  A    between atoms: C5_5  and  N1_6 
REMARK    4  A    between atoms: N1_6  and  C6_9 
REMARK    5  A    between atoms: C6_9  and  C7_10 
REMARK    6  A    between atoms: C6_9  and  C8_13 
REMARK    7  A    between atoms: C8_13  and  O3_14 
REMARK    8  A    between atoms: C8_13  and  C9_16 
REMARK    9  A    between atoms: C12_19  and  C13_20 
ROOT
HETATM    1  C6  UNL     1      -6.762  18.096 -25.931  1.00  0.00     0.314 C 
ENDROOT
BRANCH   1   2
HETATM    2  N1  UNL     1      -7.495  19.056 -26.668  1.00  0.00    -0.059 N 
ATOM      3  H12 UNL     1      -7.899  19.754 -26.044  1.00  0.00     0.278 HD
ATOM      4  H11 UNL     1      -8.350  18.645 -27.043  1.00  0.00     0.278 HD
BRANCH   2   5
HETATM    5  C5  UNL     1      -6.716  19.710 -27.748  1.00  0.00     0.233 C 
BRANCH   5   6
HETATM    6  C4  UNL     1      -6.607  21.167 -27.329  1.00  0.00     0.031 C 
BRANCH   6   7
HETATM    7  C2  UNL     1      -5.254  21.737 -27.659  1.00  0.00    -0.021 C 
HETATM    8  C1  UNL     1      -5.277  23.122 -28.202  1.00  0.00     0.009 C 
HETATM    9  C3  UNL     1      -4.365  21.528 -26.462  1.00  0.00     0.009 C 
ENDBRANCH   6   7
ENDBRANCH   5   6
ENDBRANCH   2   5
ENDBRANCH   1   2
BRANCH   1  10
HETATM   10  C7  UNL     1      -7.578  16.978 -25.367  1.00  0.00     0.207 C 
HETATM   11  O1  UNL     1      -8.755  17.021 -25.078  1.00  0.00    -0.646 OA
HETATM   12  O2  UNL     1      -6.883  15.784 -25.160  1.00  0.00    -0.646 OA
ENDBRANCH   1  10
BRANCH   1  13
HETATM   13  C8  UNL     1      -6.074  18.638 -24.667  1.00  0.00     0.164 C 
BRANCH  13  14
HETATM   14  O3  UNL     1      -5.056  17.648 -24.345  1.00  0.00    -0.393 OA
ATOM     15  H3  UNL     1      -4.781  17.862 -23.461  1.00  0.00     0.210 HD
ENDBRANCH  13  14
BRANCH  13  16
HETATM   16  C9  UNL     1      -6.941  18.766 -23.479  1.00  0.00     0.031 C 
HETATM   17  C10 UNL     1      -6.528  18.217 -22.161  1.00  0.00     0.009 C 
HETATM   18  C11 UNL     1      -6.295  19.688 -21.723  1.00  0.00     0.016 C 
HETATM   19  C12 UNL     1      -7.019  20.197 -22.947  1.00  0.00     0.093 C 
BRANCH  19  20
HETATM   20  C13 UNL     1      -8.421  20.657 -22.651  1.00  0.00     0.177 C 
HETATM   21  O4  UNL     1      -8.910  21.609 -23.268  1.00  0.00    -0.648 OA
HETATM   22  O5  UNL     1      -9.135  19.969 -21.660  1.00  0.00    -0.648 OA
ENDBRANCH  19  20
ENDBRANCH  13  16
ENDBRANCH   1  13
TORSDOF 9
ENDMDL
