MODEL 1
REMARK VINA RESULT: -5.063773418      0.000      0.000
REMARK  2 active torsions:
REMARK  status: ('A' for Active; 'I' for Inactive)
REMARK    1  A    between atoms: N1_5  and  C5_6 
REMARK    2  A    between atoms: C9_10  and  O1_11 
ROOT
HETATM    1  C1  UNL     1      -3.489   2.855  87.121  1.00  0.00     0.012 C 
HETATM    2  C2  UNL     1      -2.444   2.922  86.532  1.00  0.00    -0.108 C 
HETATM    3  C3  UNL     1      -1.166   2.995  85.805  1.00  0.00     0.121 C 
HETATM    4  C4  UNL     1      -1.282   2.393  84.468  1.00  0.00     0.292 C 
HETATM    5  N1  UNL     1      -1.319   3.230  83.319  1.00  0.00     0.089 N 
HETATM    6  C7  UNL     1      -1.678   4.592  83.614  1.00  0.00     0.275 C 
HETATM    7  C8  UNL     1      -0.735   5.166  84.614  1.00  0.00     0.063 C 
HETATM    8  C9  UNL     1      -0.617   4.373  85.870  1.00  0.00     0.137 C 
ENDROOT
BRANCH   8   9
HETATM    9  O1  UNL     1       0.736   4.355  86.246  1.00  0.00    -0.394 OA
ATOM     10  H1  UNL     1       1.277   4.764  85.580  1.00  0.00     0.210 HD
ENDBRANCH   8   9
BRANCH   5  11
HETATM   11  C5  UNL     1      -0.204   3.083  82.441  1.00  0.00     0.268 C 
HETATM   12  C6  UNL     1      -0.355   1.919  81.485  1.00  0.00     0.037 C 
ENDBRANCH   5  11
TORSDOF 2
ENDMDL
MODEL 2
REMARK VINA RESULT: -5.043166870      2.238      2.747
REMARK  2 active torsions:
REMARK  status: ('A' for Active; 'I' for Inactive)
REMARK    1  A    between atoms: N1_5  and  C5_6 
REMARK    2  A    between atoms: C9_10  and  O1_11 
ROOT
HETATM    1  C1  UNL     1      -3.210   4.228  88.985  1.00  0.00     0.012 C 
HETATM    2  C2  UNL     1      -3.035   3.916  87.838  1.00  0.00    -0.108 C 
HETATM    3  C3  UNL     1      -2.828   3.542  86.430  1.00  0.00     0.121 C 
HETATM    4  C4  UNL     1      -3.054   4.689  85.538  1.00  0.00     0.292 C 
HETATM    5  N1  UNL     1      -1.943   5.334  84.926  1.00  0.00     0.089 N 
HETATM    6  C7  UNL     1      -0.693   5.071  85.587  1.00  0.00     0.275 C 
HETATM    7  C8  UNL     1      -0.441   3.604  85.646  1.00  0.00     0.063 C 
HETATM    8  C9  UNL     1      -1.540   2.820  86.276  1.00  0.00     0.137 C 
ENDROOT
BRANCH   8   9
HETATM    9  O1  UNL     1      -1.713   1.642  85.531  1.00  0.00    -0.394 OA
ATOM     10  H1  UNL     1      -2.612   1.556  85.237  1.00  0.00     0.210 HD
ENDBRANCH   8   9
BRANCH   5  11
HETATM   11  C5  UNL     1      -1.902   5.224  83.504  1.00  0.00     0.268 C 
HETATM   12  C6  UNL     1      -0.830   6.088  82.876  1.00  0.00     0.037 C 
ENDBRANCH   5  11
TORSDOF 2
ENDMDL
MODEL 3
REMARK VINA RESULT: -4.974228522      2.324      4.492
REMARK  2 active torsions:
REMARK  status: ('A' for Active; 'I' for Inactive)
REMARK    1  A    between atoms: N1_5  and  C5_6 
REMARK    2  A    between atoms: C9_10  and  O1_11 
ROOT
HETATM    1  C1  UNL     1       1.336   2.129  81.102  1.00  0.00     0.012 C 
HETATM    2  C2  UNL     1       0.273   2.476  81.541  1.00  0.00    -0.108 C 
HETATM    3  C3  UNL     1      -1.028   2.895  82.088  1.00  0.00     0.121 C 
HETATM    4  C4  UNL     1      -1.000   2.925  83.557  1.00  0.00     0.292 C 
HETATM    5  N1  UNL     1      -0.965   4.175  84.236  1.00  0.00     0.089 N 
HETATM    6  C7  UNL     1      -0.522   5.264  83.407  1.00  0.00     0.275 C 
HETATM    7  C8  UNL     1      -1.390   5.379  82.202  1.00  0.00     0.063 C 
HETATM    8  C9  UNL     1      -1.499   4.126  81.403  1.00  0.00     0.137 C 
ENDROOT
BRANCH   8   9
HETATM    9  O1  UNL     1      -2.834   3.989  80.991  1.00  0.00    -0.394 OA
ATOM     10  H1  UNL     1      -3.319   4.793  81.140  1.00  0.00     0.210 HD
ENDBRANCH   8   9
BRANCH   5  11
HETATM   11  C5  UNL     1      -2.122   4.456  85.023  1.00  0.00     0.268 C 
HETATM   12  C6  UNL     1      -2.051   3.857  86.411  1.00  0.00     0.037 C 
ENDBRANCH   5  11
TORSDOF 2
ENDMDL
MODEL 4
REMARK VINA RESULT: -4.963238703      2.829      4.007
REMARK  2 active torsions:
REMARK  status: ('A' for Active; 'I' for Inactive)
REMARK    1  A    between atoms: N1_5  and  C5_6 
REMARK    2  A    between atoms: C9_10  and  O1_11 
ROOT
HETATM    1  C1  UNL     1      -1.209   3.120  85.147  1.00  0.00     0.012 C 
HETATM    2  C2  UNL     1      -1.222   3.598  84.045  1.00  0.00    -0.108 C 
HETATM    3  C3  UNL     1      -1.229   4.192  82.699  1.00  0.00     0.121 C 
HETATM    4  C4  UNL     1       0.045   4.865  82.409  1.00  0.00     0.292 C 
HETATM    5  N1  UNL     1       0.970   4.267  81.509  1.00  0.00     0.089 N 
HETATM    6  C7  UNL     1       0.751   2.858  81.315  1.00  0.00     0.275 C 
HETATM    7  C8  UNL     1      -0.637   2.616  80.831  1.00  0.00     0.063 C 
HETATM    8  C9  UNL     1      -1.699   3.195  81.702  1.00  0.00     0.137 C 
ENDROOT
BRANCH   8   9
HETATM    9  O1  UNL     1      -2.687   3.747  80.871  1.00  0.00    -0.394 OA
ATOM     10  H1  UNL     1      -3.028   4.554  81.239  1.00  0.00     0.210 HD
ENDBRANCH   8   9
BRANCH   5  11
HETATM   11  C5  UNL     1       1.196   5.007  80.310  1.00  0.00     0.268 C 
HETATM   12  C6  UNL     1       0.264   6.190  80.162  1.00  0.00     0.037 C 
ENDBRANCH   5  11
TORSDOF 2
ENDMDL
MODEL 5
REMARK VINA RESULT: -4.821976578      1.552      1.869
REMARK  2 active torsions:
REMARK  status: ('A' for Active; 'I' for Inactive)
REMARK    1  A    between atoms: N1_5  and  C5_6 
REMARK    2  A    between atoms: C9_10  and  O1_11 
ROOT
HETATM    1  C1  UNL     1      -3.947   5.321  86.976  1.00  0.00     0.012 C 
HETATM    2  C2  UNL     1      -3.146   4.733  86.301  1.00  0.00    -0.108 C 
HETATM    3  C3  UNL     1      -2.172   4.015  85.464  1.00  0.00     0.121 C 
HETATM    4  C4  UNL     1      -2.196   4.508  84.080  1.00  0.00     0.292 C 
HETATM    5  N1  UNL     1      -1.132   5.324  83.604  1.00  0.00     0.089 N 
HETATM    6  C7  UNL     1      -0.366   5.937  84.656  1.00  0.00     0.275 C 
HETATM    7  C8  UNL     1       0.181   4.895  85.568  1.00  0.00     0.063 C 
HETATM    8  C9  UNL     1      -0.848   3.979  86.137  1.00  0.00     0.137 C 
ENDROOT
BRANCH   8   9
HETATM    9  O1  UNL     1      -0.320   2.677  86.131  1.00  0.00    -0.394 OA
ATOM     10  H1  UNL     1      -0.577   2.204  86.914  1.00  0.00     0.210 HD
ENDBRANCH   8   9
BRANCH   5  11
HETATM   11  C5  UNL     1      -0.353   4.736  82.562  1.00  0.00     0.268 C 
HETATM   12  C6  UNL     1      -0.807   3.338  82.203  1.00  0.00     0.037 C 
ENDBRANCH   5  11
TORSDOF 2
ENDMDL
