MODEL 1
REMARK VINA RESULT: -4.560214852      0.000      0.000
REMARK  2 active torsions:
REMARK  status: ('A' for Active; 'I' for Inactive)
REMARK    1  A    between atoms: C2_2  and  C3_3 
REMARK    2  A    between atoms: C3_3  and  O1_4 
ROOT
HETATM    1  C3  UNL     1      -0.107   1.917  80.760  1.00  0.00     0.105 C 
HETATM    2  C4  UNL     1       0.773   3.141  80.631  1.00  0.00     0.314 C 
HETATM    3  N1  UNL     1       0.207   4.185  81.444  1.00  0.00     0.091 N 
HETATM    4  C5  UNL     1       0.085   3.663  82.806  1.00  0.00     0.273 C 
HETATM    5  C6  UNL     1      -1.115   2.744  82.901  1.00  0.00     0.038 C 
HETATM    6  C7  UNL     1      -1.379   2.230  81.500  1.00  0.00     0.029 C 
HETATM    7  C8  UNL     1      -2.023   3.412  80.769  1.00  0.00     0.038 C 
HETATM    8  C9  UNL     1      -1.094   4.585  80.963  1.00  0.00     0.273 C 
ENDROOT
BRANCH   1   9
HETATM    9  C2  UNL     1       0.669   0.813  81.382  1.00  0.00     0.003 C 
HETATM   10  C1  UNL     1       0.272  -0.443  81.393  1.00  0.00     0.010 C 
ENDBRANCH   1   9
BRANCH   1  11
HETATM   11  O1  UNL     1      -0.460   1.522  79.471  1.00  0.00    -0.384 OA
ATOM     12  H1  UNL     1       0.003   2.079  78.857  1.00  0.00     0.211 HD
ENDBRANCH   1  11
TORSDOF 2
ENDMDL
MODEL 2
REMARK VINA RESULT: -4.458034680      3.835      5.130
REMARK  2 active torsions:
REMARK  status: ('A' for Active; 'I' for Inactive)
REMARK    1  A    between atoms: C2_2  and  C3_3 
REMARK    2  A    between atoms: C3_3  and  O1_4 
ROOT
HETATM    1  C3  UNL     1      -2.029   3.880  85.548  1.00  0.00     0.105 C 
HETATM    2  C4  UNL     1      -0.619   4.364  85.807  1.00  0.00     0.314 C 
HETATM    3  N1  UNL     1      -0.378   5.504  84.963  1.00  0.00     0.091 N 
HETATM    4  C5  UNL     1      -1.421   6.490  85.248  1.00  0.00     0.273 C 
HETATM    5  C6  UNL     1      -2.713   6.084  84.570  1.00  0.00     0.038 C 
HETATM    6  C7  UNL     1      -2.645   4.583  84.370  1.00  0.00     0.029 C 
HETATM    7  C8  UNL     1      -1.674   4.392  83.200  1.00  0.00     0.038 C 
HETATM    8  C9  UNL     1      -0.420   5.147  83.565  1.00  0.00     0.273 C 
ENDROOT
BRANCH   1   9
HETATM    9  C2  UNL     1      -2.834   4.016  86.790  1.00  0.00     0.003 C 
HETATM   10  C1  UNL     1      -3.910   3.300  87.046  1.00  0.00     0.010 C 
ENDBRANCH   1   9
BRANCH   1  11
HETATM   11  O1  UNL     1      -1.952   2.525  85.233  1.00  0.00    -0.384 OA
ATOM     12  H1  UNL     1      -1.767   2.048  86.033  1.00  0.00     0.211 HD
ENDBRANCH   1  11
TORSDOF 2
ENDMDL
MODEL 3
REMARK VINA RESULT: -4.322486287      2.963      3.706
REMARK  2 active torsions:
REMARK  status: ('A' for Active; 'I' for Inactive)
REMARK    1  A    between atoms: C2_2  and  C3_3 
REMARK    2  A    between atoms: C3_3  and  O1_4 
ROOT
HETATM    1  C3  UNL     1      -1.480   4.420  83.078  1.00  0.00     0.105 C 
HETATM    2  C4  UNL     1      -0.892   5.777  82.760  1.00  0.00     0.314 C 
HETATM    3  N1  UNL     1      -0.784   6.515  83.991  1.00  0.00     0.091 N 
HETATM    4  C5  UNL     1       0.011   5.708  84.918  1.00  0.00     0.273 C 
HETATM    5  C6  UNL     1      -0.840   4.596  85.495  1.00  0.00     0.038 C 
HETATM    6  C7  UNL     1      -1.958   4.347  84.502  1.00  0.00     0.029 C 
HETATM    7  C8  UNL     1      -2.917   5.526  84.695  1.00  0.00     0.038 C 
HETATM    8  C9  UNL     1      -2.081   6.775  84.568  1.00  0.00     0.273 C 
ENDROOT
BRANCH   1   9
HETATM    9  C2  UNL     1      -0.493   3.361  82.743  1.00  0.00     0.003 C 
HETATM   10  C1  UNL     1      -0.825   2.150  82.347  1.00  0.00     0.010 C 
ENDBRANCH   1   9
BRANCH   1  11
HETATM   11  O1  UNL     1      -2.591   4.246  82.255  1.00  0.00    -0.384 OA
ATOM     12  H1  UNL     1      -3.145   5.013  82.345  1.00  0.00     0.211 HD
ENDBRANCH   1  11
TORSDOF 2
ENDMDL
MODEL 4
REMARK VINA RESULT: -4.253584722      2.337      3.881
REMARK  2 active torsions:
REMARK  status: ('A' for Active; 'I' for Inactive)
REMARK    1  A    between atoms: C2_2  and  C3_3 
REMARK    2  A    between atoms: C3_3  and  O1_4 
ROOT
HETATM    1  C3  UNL     1      -0.991   4.321  83.479  1.00  0.00     0.105 C 
HETATM    2  C4  UNL     1       0.033   5.283  82.919  1.00  0.00     0.314 C 
HETATM    3  N1  UNL     1       0.187   5.003  81.516  1.00  0.00     0.091 N 
HETATM    4  C5  UNL     1      -1.138   5.100  80.902  1.00  0.00     0.273 C 
HETATM    5  C6  UNL     1      -1.941   3.852  81.208  1.00  0.00     0.038 C 
HETATM    6  C7  UNL     1      -1.358   3.262  82.476  1.00  0.00     0.029 C 
HETATM    7  C8  UNL     1      -0.042   2.615  82.034  1.00  0.00     0.038 C 
HETATM    8  C9  UNL     1       0.726   3.683  81.294  1.00  0.00     0.273 C 
ENDROOT
BRANCH   1   9
HETATM    9  C2  UNL     1      -2.167   5.083  83.974  1.00  0.00     0.003 C 
HETATM   10  C1  UNL     1      -2.617   5.012  85.209  1.00  0.00     0.010 C 
ENDBRANCH   1   9
BRANCH   1  11
HETATM   11  O1  UNL     1      -0.406   3.680  84.569  1.00  0.00    -0.384 OA
ATOM     12  H1  UNL     1      -0.560   4.212  85.340  1.00  0.00     0.211 HD
ENDBRANCH   1  11
TORSDOF 2
ENDMDL
MODEL 5
REMARK VINA RESULT: -4.213250575      2.097      3.367
REMARK  2 active torsions:
REMARK  status: ('A' for Active; 'I' for Inactive)
REMARK    1  A    between atoms: C2_2  and  C3_3 
REMARK    2  A    between atoms: C3_3  and  O1_4 
ROOT
HETATM    1  C3  UNL     1       0.371   4.188  81.534  1.00  0.00     0.105 C 
HETATM    2  C4  UNL     1       0.810   2.749  81.382  1.00  0.00     0.314 C 
HETATM    3  N1  UNL     1      -0.344   1.909  81.563  1.00  0.00     0.091 N 
HETATM    4  C5  UNL     1      -1.357   2.342  80.600  1.00  0.00     0.273 C 
HETATM    5  C6  UNL     1      -2.026   3.610  81.088  1.00  0.00     0.038 C 
HETATM    6  C7  UNL     1      -1.046   4.282  82.029  1.00  0.00     0.029 C 
HETATM    7  C8  UNL     1      -1.109   3.450  83.314  1.00  0.00     0.038 C 
HETATM    8  C9  UNL     1      -0.874   2.019  82.902  1.00  0.00     0.273 C 
ENDROOT
BRANCH   1   9
HETATM    9  C2  UNL     1       0.587   4.910  80.253  1.00  0.00     0.003 C 
HETATM   10  C1  UNL     1       1.775   5.131  79.730  1.00  0.00     0.010 C 
ENDBRANCH   1   9
BRANCH   1  11
HETATM   11  O1  UNL     1       1.190   4.772  82.499  1.00  0.00    -0.384 OA
ATOM     12  H1  UNL     1       2.059   4.867  82.128  1.00  0.00     0.211 HD
ENDBRANCH   1  11
TORSDOF 2
ENDMDL
