MODEL 1
REMARK VINA RESULT: -7.422358701      0.000      0.000
REMARK  3 active torsions:
REMARK  status: ('A' for Active; 'I' for Inactive)
REMARK    1  A    between atoms: C6_6  and  N1_7 
REMARK       I    between atoms: N1_7  and  C7_9 
REMARK    2  A    between atoms: C7_9  and  C8_11 
REMARK    3  A    between atoms: C8_11  and  N2_12 
ROOT
HETATM    1  N1  UNL     1      16.517   8.866  11.587  1.00  0.00    -0.351 N 
ATOM      2  H1  UNL     1      16.635   9.679  12.192  1.00  0.00     0.163 HD
HETATM    3  C7  UNL     1      16.569   7.559  12.128  1.00  0.00     0.256 C 
HETATM    4  O1  UNL     1      16.424   6.581  11.373  1.00  0.00    -0.267 OA
ENDROOT
BRANCH   3   5
HETATM    5  C8  UNL     1      16.794   7.358  13.573  1.00  0.00     0.160 C 
BRANCH   5   6
HETATM    6  N2  UNL     1      16.400   6.085  14.004  1.00  0.00    -0.385 N 
HETATM    7  C9  UNL     1      17.401   5.185  14.508  1.00  0.00     0.128 C 
HETATM    8  C10 UNL     1      16.577   4.114  15.167  1.00  0.00     0.024 C 
HETATM    9  C11 UNL     1      17.165   3.371  16.291  1.00  0.00     0.147 C 
HETATM   10  C13 UNL     1      15.562   5.013  15.886  1.00  0.00     0.024 C 
HETATM   11  S1  UNL     1      15.619   2.804  17.057  1.00  0.00     0.145 S 
HETATM   12  O2  UNL     1      15.626   3.059  18.517  1.00  0.00    -0.228 OA
HETATM   13  O3  UNL     1      15.319   1.406  16.673  1.00  0.00    -0.228 OA
HETATM   14  C12 UNL     1      14.515   3.968  16.206  1.00  0.00     0.147 C 
HETATM   15  C14 UNL     1      15.244   5.988  14.839  1.00  0.00     0.128 C 
ENDBRANCH   5   6
ENDBRANCH   3   5
BRANCH   1  16
HETATM   16  C6  UNL     1      16.297   9.040  10.176  1.00  0.00     0.093 C 
HETATM   17  C5  UNL     1      17.140  10.197   9.657  1.00  0.00     0.027 C 
HETATM   18  C4  UNL     1      16.389  10.544   8.382  1.00  0.00     0.011 C 
HETATM   19  C2  UNL     1      14.960  10.621   8.904  1.00  0.00    -0.039 C 
HETATM   20  C1  UNL     1      14.024  10.489   7.723  1.00  0.00     0.015 C 
HETATM   21  C3  UNL     1      14.789  11.961   9.541  1.00  0.00     0.015 C 
HETATM   22  C15 UNL     1      14.899   9.467   9.841  1.00  0.00    -0.020 C 
HETATM   23  C16 UNL     1      14.245   8.302   9.094  1.00  0.00     0.018 C 
HETATM   24  C17 UNL     1      14.044   9.721  11.059  1.00  0.00     0.018 C 
ENDBRANCH   1  16
TORSDOF 3
ENDMDL
MODEL 2
REMARK VINA RESULT: -7.419274851      3.510      4.698
REMARK  3 active torsions:
REMARK  status: ('A' for Active; 'I' for Inactive)
REMARK    1  A    between atoms: C6_6  and  N1_7 
REMARK       I    between atoms: N1_7  and  C7_9 
REMARK    2  A    between atoms: C7_9  and  C8_11 
REMARK    3  A    between atoms: C8_11  and  N2_12 
ROOT
HETATM    1  N1  UNL     1      18.474   8.135  13.291  1.00  0.00    -0.351 N 
ATOM      2  H1  UNL     1      17.748   8.663  12.807  1.00  0.00     0.163 HD
HETATM    3  C7  UNL     1      18.543   6.727  13.155  1.00  0.00     0.256 C 
HETATM    4  O1  UNL     1      19.434   6.099  13.755  1.00  0.00    -0.267 OA
ENDROOT
BRANCH   3   5
HETATM    5  C8  UNL     1      17.567   6.011  12.311  1.00  0.00     0.160 C 
BRANCH   5   6
HETATM    6  N2  UNL     1      16.716   5.186  13.058  1.00  0.00    -0.385 N 
HETATM    7  C9  UNL     1      17.181   3.884  13.448  1.00  0.00     0.128 C 
HETATM    8  C10 UNL     1      16.172   3.471  14.483  1.00  0.00     0.024 C 
HETATM    9  C11 UNL     1      16.592   2.537  15.538  1.00  0.00     0.147 C 
HETATM   10  C13 UNL     1      16.081   4.793  15.257  1.00  0.00     0.024 C 
HETATM   11  S1  UNL     1      15.318   2.949  16.765  1.00  0.00     0.145 S 
HETATM   12  O2  UNL     1      15.920   3.171  18.101  1.00  0.00    -0.228 OA
HETATM   13  O3  UNL     1      14.216   1.960  16.737  1.00  0.00    -0.228 OA
HETATM   14  C12 UNL     1      14.803   4.524  16.022  1.00  0.00     0.147 C 
HETATM   15  C14 UNL     1      16.020   5.767  14.163  1.00  0.00     0.128 C 
ENDBRANCH   5   6
ENDBRANCH   3   5
BRANCH   1  16
HETATM   16  C6  UNL     1      19.435   8.813  14.118  1.00  0.00     0.093 C 
HETATM   17  C5  UNL     1      18.729   9.501  15.279  1.00  0.00     0.027 C 
HETATM   18  C4  UNL     1      19.766  10.540  15.667  1.00  0.00     0.011 C 
HETATM   19  C2  UNL     1      20.085  11.147  14.306  1.00  0.00    -0.039 C 
HETATM   20  C1  UNL     1      21.415  11.858  14.412  1.00  0.00     0.015 C 
HETATM   21  C3  UNL     1      19.006  12.131  13.992  1.00  0.00     0.015 C 
HETATM   22  C15 UNL     1      20.120   9.951  13.422  1.00  0.00    -0.020 C 
HETATM   23  C16 UNL     1      21.587   9.549  13.251  1.00  0.00     0.018 C 
HETATM   24  C17 UNL     1      19.589  10.208  12.033  1.00  0.00     0.018 C 
ENDBRANCH   1  16
TORSDOF 3
ENDMDL
MODEL 3
REMARK VINA RESULT: -7.187841407      1.742      2.090
REMARK  3 active torsions:
REMARK  status: ('A' for Active; 'I' for Inactive)
REMARK    1  A    between atoms: C6_6  and  N1_7 
REMARK       I    between atoms: N1_7  and  C7_9 
REMARK    2  A    between atoms: C7_9  and  C8_11 
REMARK    3  A    between atoms: C8_11  and  N2_12 
ROOT
HETATM    1  N1  UNL     1      16.818   8.054   9.905  1.00  0.00    -0.351 N 
ATOM      2  H1  UNL     1      16.857   8.619  10.753  1.00  0.00     0.163 HD
HETATM    3  C7  UNL     1      17.498   6.814   9.841  1.00  0.00     0.256 C 
HETATM    4  O1  UNL     1      17.440   6.139   8.797  1.00  0.00    -0.267 OA
ENDROOT
BRANCH   3   5
HETATM    5  C8  UNL     1      18.269   6.325  11.001  1.00  0.00     0.160 C 
BRANCH   5   6
HETATM    6  N2  UNL     1      17.466   5.661  11.937  1.00  0.00    -0.385 N 
HETATM    7  C9  UNL     1      17.317   4.235  11.833  1.00  0.00     0.128 C 
HETATM    8  C10 UNL     1      16.705   3.871  13.157  1.00  0.00     0.024 C 
HETATM    9  C11 UNL     1      16.953   2.526  13.697  1.00  0.00     0.147 C 
HETATM   10  C13 UNL     1      17.587   4.739  14.065  1.00  0.00     0.024 C 
HETATM   11  S1  UNL     1      16.621   2.890  15.445  1.00  0.00     0.145 S 
HETATM   12  O2  UNL     1      17.697   2.355  16.312  1.00  0.00    -0.228 OA
HETATM   13  O3  UNL     1      15.252   2.470  15.823  1.00  0.00    -0.228 OA
HETATM   14  C12 UNL     1      16.738   4.698  15.317  1.00  0.00     0.147 C 
HETATM   15  C14 UNL     1      17.625   5.998  13.316  1.00  0.00     0.128 C 
ENDBRANCH   5   6
ENDBRANCH   3   5
BRANCH   1  16
HETATM   16  C6  UNL     1      16.073   8.512   8.763  1.00  0.00     0.093 C 
HETATM   17  C5  UNL     1      16.752   9.730   8.153  1.00  0.00     0.027 C 
HETATM   18  C4  UNL     1      15.595  10.342   7.382  1.00  0.00     0.011 C 
HETATM   19  C2  UNL     1      14.509  10.345   8.450  1.00  0.00    -0.039 C 
HETATM   20  C1  UNL     1      13.171  10.473   7.755  1.00  0.00     0.015 C 
HETATM   21  C3  UNL     1      14.744  11.533   9.323  1.00  0.00     0.015 C 
HETATM   22  C15 UNL     1      14.709   9.028   9.113  1.00  0.00    -0.020 C 
HETATM   23  C16 UNL     1      13.696   8.051   8.511  1.00  0.00     0.018 C 
HETATM   24  C17 UNL     1      14.441   9.051  10.598  1.00  0.00     0.018 C 
ENDBRANCH   1  16
TORSDOF 3
ENDMDL
MODEL 4
REMARK VINA RESULT: -7.155078844      1.889      2.541
REMARK  3 active torsions:
REMARK  status: ('A' for Active; 'I' for Inactive)
REMARK    1  A    between atoms: C6_6  and  N1_7 
REMARK       I    between atoms: N1_7  and  C7_9 
REMARK    2  A    between atoms: C7_9  and  C8_11 
REMARK    3  A    between atoms: C8_11  and  N2_12 
ROOT
HETATM    1  N1  UNL     1      16.159   7.549  10.050  1.00  0.00    -0.351 N 
ATOM      2  H1  UNL     1      15.370   6.923   9.891  1.00  0.00     0.163 HD
HETATM    3  C7  UNL     1      17.443   7.022  10.329  1.00  0.00     0.256 C 
HETATM    4  O1  UNL     1      18.394   7.801  10.522  1.00  0.00    -0.267 OA
ENDROOT
BRANCH   3   5
HETATM    5  C8  UNL     1      17.653   5.562  10.392  1.00  0.00     0.160 C 
BRANCH   5   6
HETATM    6  N2  UNL     1      16.983   4.970  11.471  1.00  0.00    -0.385 N 
HETATM    7  C9  UNL     1      17.075   3.547  11.646  1.00  0.00     0.128 C 
HETATM    8  C10 UNL     1      16.547   3.352  13.039  1.00  0.00     0.024 C 
HETATM    9  C11 UNL     1      17.024   2.197  13.814  1.00  0.00     0.147 C 
HETATM   10  C13 UNL     1      17.280   4.512  13.728  1.00  0.00     0.024 C 
HETATM   11  S1  UNL     1      16.653   2.834  15.474  1.00  0.00     0.145 S 
HETATM   12  O2  UNL     1      17.814   2.660  16.380  1.00  0.00    -0.228 OA
HETATM   13  O3  UNL     1      15.379   2.278  15.984  1.00  0.00    -0.228 OA
HETATM   14  C12 UNL     1      16.463   4.577  15.000  1.00  0.00     0.147 C 
HETATM   15  C14 UNL     1      17.098   5.591  12.753  1.00  0.00     0.128 C 
ENDBRANCH   5   6
ENDBRANCH   3   5
BRANCH   1  16
HETATM   16  C6  UNL     1      15.977   8.974   9.994  1.00  0.00     0.093 C 
HETATM   17  C5  UNL     1      14.888   9.398  10.971  1.00  0.00     0.027 C 
HETATM   18  C4  UNL     1      14.492  10.744  10.387  1.00  0.00     0.011 C 
HETATM   19  C2  UNL     1      14.307  10.376   8.920  1.00  0.00    -0.039 C 
HETATM   20  C1  UNL     1      14.375  11.649   8.107  1.00  0.00     0.015 C 
HETATM   21  C3  UNL     1      12.956   9.756   8.782  1.00  0.00     0.015 C 
HETATM   22  C15 UNL     1      15.449   9.454   8.675  1.00  0.00    -0.020 C 
HETATM   23  C16 UNL     1      16.566  10.269   8.019  1.00  0.00     0.018 C 
HETATM   24  C17 UNL     1      15.127   8.333   7.717  1.00  0.00     0.018 C 
ENDBRANCH   1  16
TORSDOF 3
ENDMDL
MODEL 5
REMARK VINA RESULT: -7.094277788      3.278      4.771
REMARK  3 active torsions:
REMARK  status: ('A' for Active; 'I' for Inactive)
REMARK    1  A    between atoms: C6_6  and  N1_7 
REMARK       I    between atoms: N1_7  and  C7_9 
REMARK    2  A    between atoms: C7_9  and  C8_11 
REMARK    3  A    between atoms: C8_11  and  N2_12 
ROOT
HETATM    1  N1  UNL     1      18.421   6.390  11.579  1.00  0.00    -0.351 N 
ATOM      2  H1  UNL     1      19.051   7.063  12.017  1.00  0.00     0.163 HD
HETATM    3  C7  UNL     1      17.093   6.246  12.048  1.00  0.00     0.256 C 
HETATM    4  O1  UNL     1      16.340   5.419  11.502  1.00  0.00    -0.267 OA
ENDROOT
BRANCH   3   5
HETATM    5  C8  UNL     1      16.606   7.067  13.174  1.00  0.00     0.160 C 
BRANCH   5   6
HETATM    6  N2  UNL     1      16.499   6.336  14.363  1.00  0.00    -0.385 N 
HETATM    7  C9  UNL     1      15.202   5.876  14.779  1.00  0.00     0.128 C 
HETATM    8  C10 UNL     1      15.536   4.880  15.854  1.00  0.00     0.024 C 
HETATM    9  C11 UNL     1      14.600   3.772  16.098  1.00  0.00     0.147 C 
HETATM   10  C13 UNL     1      16.694   4.160  15.151  1.00  0.00     0.024 C 
HETATM   11  S1  UNL     1      15.763   2.628  16.895  1.00  0.00     0.145 S 
HETATM   12  O2  UNL     1      15.661   1.272  16.307  1.00  0.00    -0.228 OA
HETATM   13  O3  UNL     1      15.628   2.677  18.369  1.00  0.00    -0.228 OA
HETATM   14  C12 UNL     1      17.287   3.452  16.350  1.00  0.00     0.147 C 
HETATM   15  C14 UNL     1      17.444   5.289  14.595  1.00  0.00     0.128 C 
ENDBRANCH   5   6
ENDBRANCH   3   5
BRANCH   1  16
HETATM   16  C6  UNL     1      18.875   5.580  10.481  1.00  0.00     0.093 C 
HETATM   17  C5  UNL     1      19.699   4.410  11.004  1.00  0.00     0.027 C 
HETATM   18  C4  UNL     1      20.489   4.043   9.759  1.00  0.00     0.011 C 
HETATM   19  C2  UNL     1      21.014   5.410   9.339  1.00  0.00    -0.039 C 
HETATM   20  C1  UNL     1      21.420   5.327   7.885  1.00  0.00     0.015 C 
HETATM   21  C3  UNL     1      22.207   5.710  10.185  1.00  0.00     0.015 C 
HETATM   22  C15 UNL     1      19.838   6.290   9.577  1.00  0.00    -0.020 C 
HETATM   23  C16 UNL     1      19.128   6.483   8.235  1.00  0.00     0.018 C 
HETATM   24  C17 UNL     1      20.205   7.672  10.063  1.00  0.00     0.018 C 
ENDBRANCH   1  16
TORSDOF 3
ENDMDL
