MODEL 1
REMARK VINA RESULT: -7.780495983      0.000      0.000
REMARK  7 active torsions:
REMARK  status: ('A' for Active; 'I' for Inactive)
REMARK    1  A    between atoms: C8_8  and  C9_9 
REMARK    2  A    between atoms: C9_9  and  O1_10 
REMARK    3  A    between atoms: O1_10  and  C10_11 
REMARK    4  A    between atoms: C10_11  and  C11_13 
REMARK    5  A    between atoms: C11_13  and  C12_14 
REMARK    6  A    between atoms: C23_25  and  O3_26 
REMARK    7  A    between atoms: C24_29  and  O5_30 
ROOT
HETATM    1  C1  UNL     1      15.827  -3.072   2.064  1.00  0.00     0.020 C 
HETATM    2  C2  UNL     1      14.701  -3.183   3.101  1.00  0.00    -0.014 C 
HETATM    3  C3  UNL     1      13.755  -2.017   2.779  1.00  0.00     0.020 C 
HETATM    4  C4  UNL     1      15.277  -2.955   4.441  1.00  0.00     0.023 C 
HETATM    5  C5  UNL     1      14.949  -4.016   5.469  1.00  0.00    -0.037 C 
HETATM    6  C6  UNL     1      15.818  -3.700   6.669  1.00  0.00     0.015 C 
HETATM    7  C7  UNL     1      13.511  -3.882   5.951  1.00  0.00     0.015 C 
HETATM    8  C8  UNL     1      15.213  -5.359   4.861  1.00  0.00     0.056 C 
HETATM    9  C22 UNL     1      14.222  -5.563   3.778  1.00  0.00     0.019 A 
HETATM   10  C23 UNL     1      13.414  -6.600   3.354  1.00  0.00     0.193 A 
HETATM   11  O4  UNL     1      12.753  -6.160   2.328  1.00  0.00    -0.264 OA
HETATM   12  C24 UNL     1      13.062  -4.905   2.040  1.00  0.00     0.193 A 
HETATM   13  C25 UNL     1      14.006  -4.480   2.949  1.00  0.00     0.020 A 
ENDROOT
BRANCH   8  14
HETATM   14  C9  UNL     1      15.294  -6.485   5.827  1.00  0.00     0.189 C 
BRANCH  14  15
HETATM   15  O1  UNL     1      16.639  -6.856   6.056  1.00  0.00    -0.321 OA
BRANCH  15  16
HETATM   16  C10 UNL     1      16.992  -7.757   7.070  1.00  0.00     0.259 C 
HETATM   17  O2  UNL     1      16.179  -8.701   7.219  1.00  0.00    -0.265 OA
BRANCH  16  18
HETATM   18  C11 UNL     1      18.215  -7.567   7.858  1.00  0.00     0.120 C 
BRANCH  18  19
HETATM   19  C12 UNL     1      18.195  -6.520   8.906  1.00  0.00    -0.031 C 
HETATM   20  C13 UNL     1      16.883  -6.383   9.590  1.00  0.00     0.014 C 
HETATM   21  C14 UNL     1      16.933  -5.390  10.737  1.00  0.00    -0.013 C 
HETATM   22  C15 UNL     1      17.949  -5.846  11.730  1.00  0.00     0.009 C 
HETATM   23  C19 UNL     1      17.303  -4.041  10.169  1.00  0.00     0.009 C 
HETATM   24  C16 UNL     1      19.299  -5.923  11.051  1.00  0.00    -0.013 C 
HETATM   25  C17 UNL     1      19.711  -4.588  10.510  1.00  0.00     0.009 C 
HETATM   26  C21 UNL     1      19.216  -6.946   9.965  1.00  0.00     0.014 C 
HETATM   27  C18 UNL     1      18.646  -4.171   9.517  1.00  0.00    -0.013 C 
HETATM   28  C20 UNL     1      18.634  -5.170   8.386  1.00  0.00     0.014 C 
ENDBRANCH  18  19
ENDBRANCH  16  18
ENDBRANCH  15  16
ENDBRANCH  14  15
ENDBRANCH   8  14
BRANCH  10  29
HETATM   29  O3  UNL     1      13.386  -7.842   3.974  1.00  0.00    -0.340 OA
ATOM     30  H3  UNL     1      12.617  -8.400   3.983  1.00  0.00     0.220 HD
ENDBRANCH  10  29
BRANCH  12  31
HETATM   31  O5  UNL     1      12.526  -4.151   0.999  1.00  0.00    -0.340 OA
ATOM     32  H5  UNL     1      12.983  -3.480   0.505  1.00  0.00     0.220 HD
ENDBRANCH  12  31
TORSDOF 7
ENDMDL
MODEL 2
REMARK VINA RESULT: -7.596676758      5.013      7.655
REMARK  7 active torsions:
REMARK  status: ('A' for Active; 'I' for Inactive)
REMARK    1  A    between atoms: C8_8  and  C9_9 
REMARK    2  A    between atoms: C9_9  and  O1_10 
REMARK    3  A    between atoms: O1_10  and  C10_11 
REMARK    4  A    between atoms: C10_11  and  C11_13 
REMARK    5  A    between atoms: C11_13  and  C12_14 
REMARK    6  A    between atoms: C23_25  and  O3_26 
REMARK    7  A    between atoms: C24_29  and  O5_30 
ROOT
HETATM    1  C1  UNL     1      21.601   1.080   5.656  1.00  0.00     0.020 C 
HETATM    2  C2  UNL     1      22.192  -0.303   5.351  1.00  0.00    -0.014 C 
HETATM    3  C3  UNL     1      23.322  -0.034   4.347  1.00  0.00     0.020 C 
HETATM    4  C4  UNL     1      21.158  -1.113   4.676  1.00  0.00     0.023 C 
HETATM    5  C5  UNL     1      20.913  -2.477   5.286  1.00  0.00    -0.037 C 
HETATM    6  C6  UNL     1      19.680  -3.016   4.590  1.00  0.00     0.015 C 
HETATM    7  C7  UNL     1      22.041  -3.439   4.942  1.00  0.00     0.015 C 
HETATM    8  C8  UNL     1      20.753  -2.308   6.766  1.00  0.00     0.056 C 
HETATM    9  C22 UNL     1      22.062  -1.880   7.312  1.00  0.00     0.019 A 
HETATM   10  C23 UNL     1      22.838  -2.213   8.406  1.00  0.00     0.193 A 
HETATM   11  O4  UNL     1      23.904  -1.476   8.342  1.00  0.00    -0.264 OA
HETATM   12  C24 UNL     1      23.894  -0.679   7.284  1.00  0.00     0.193 A 
HETATM   13  C25 UNL     1      22.724  -0.905   6.592  1.00  0.00     0.020 A 
ENDROOT
BRANCH   8  14
HETATM   14  C9  UNL     1      20.152  -3.469   7.472  1.00  0.00     0.189 C 
BRANCH  14  15
HETATM   15  O1  UNL     1      19.383  -3.042   8.579  1.00  0.00    -0.321 OA
BRANCH  15  16
HETATM   16  C10 UNL     1      19.039  -3.918   9.618  1.00  0.00     0.259 C 
HETATM   17  O2  UNL     1      19.982  -4.168  10.407  1.00  0.00    -0.265 OA
BRANCH  16  18
HETATM   18  C11 UNL     1      17.683  -4.466   9.728  1.00  0.00     0.120 C 
BRANCH  18  19
HETATM   19  C12 UNL     1      17.313  -5.561   8.803  1.00  0.00    -0.031 C 
HETATM   20  C13 UNL     1      16.253  -6.459   9.330  1.00  0.00     0.014 C 
HETATM   21  C14 UNL     1      15.814  -7.494   8.311  1.00  0.00    -0.013 C 
HETATM   22  C15 UNL     1      15.292  -6.793   7.101  1.00  0.00     0.009 C 
HETATM   23  C19 UNL     1      17.012  -8.345   7.964  1.00  0.00     0.009 C 
HETATM   24  C16 UNL     1      16.391  -5.928   6.523  1.00  0.00    -0.013 C 
HETATM   25  C17 UNL     1      17.581  -6.751   6.134  1.00  0.00     0.009 C 
HETATM   26  C21 UNL     1      16.756  -4.896   7.541  1.00  0.00     0.014 C 
HETATM   27  C18 UNL     1      18.063  -7.443   7.392  1.00  0.00    -0.013 C 
HETATM   28  C20 UNL     1      18.504  -6.388   8.376  1.00  0.00     0.014 C 
ENDBRANCH  18  19
ENDBRANCH  16  18
ENDBRANCH  15  16
ENDBRANCH  14  15
ENDBRANCH   8  14
BRANCH  10  29
HETATM   29  O3  UNL     1      22.462  -3.167   9.341  1.00  0.00    -0.340 OA
ATOM     30  H3  UNL     1      22.784  -3.173  10.235  1.00  0.00     0.220 HD
ENDBRANCH  10  29
BRANCH  12  31
HETATM   31  O5  UNL     1      24.891   0.229   6.937  1.00  0.00    -0.340 OA
ATOM     32  H5  UNL     1      25.825   0.055   6.933  1.00  0.00     0.220 HD
ENDBRANCH  12  31
TORSDOF 7
ENDMDL
MODEL 3
REMARK VINA RESULT: -7.532891019      4.308      7.101
REMARK  7 active torsions:
REMARK  status: ('A' for Active; 'I' for Inactive)
REMARK    1  A    between atoms: C8_8  and  C9_9 
REMARK    2  A    between atoms: C9_9  and  O1_10 
REMARK    3  A    between atoms: O1_10  and  C10_11 
REMARK    4  A    between atoms: C10_11  and  C11_13 
REMARK    5  A    between atoms: C11_13  and  C12_14 
REMARK    6  A    between atoms: C23_25  and  O3_26 
REMARK    7  A    between atoms: C24_29  and  O5_30 
ROOT
HETATM    1  C1  UNL     1      18.224  -8.408   7.324  1.00  0.00     0.020 C 
HETATM    2  C2  UNL     1      17.210  -7.259   7.248  1.00  0.00    -0.014 C 
HETATM    3  C3  UNL     1      15.910  -7.914   6.761  1.00  0.00     0.020 C 
HETATM    4  C4  UNL     1      17.662  -6.305   6.216  1.00  0.00     0.023 C 
HETATM    5  C5  UNL     1      17.734  -4.861   6.664  1.00  0.00    -0.037 C 
HETATM    6  C6  UNL     1      18.429  -4.122   5.539  1.00  0.00     0.015 C 
HETATM    7  C7  UNL     1      16.342  -4.252   6.766  1.00  0.00     0.015 C 
HETATM    8  C8  UNL     1      18.464  -4.809   7.971  1.00  0.00     0.056 C 
HETATM    9  C22 UNL     1      17.616  -5.478   8.985  1.00  0.00     0.019 A 
HETATM   10  C23 UNL     1      17.236  -5.220  10.288  1.00  0.00     0.193 A 
HETATM   11  O4  UNL     1      16.464  -6.197  10.650  1.00  0.00    -0.264 OA
HETATM   12  C24 UNL     1      16.302  -7.087   9.682  1.00  0.00     0.193 A 
HETATM   13  C25 UNL     1      17.028  -6.664   8.590  1.00  0.00     0.020 A 
ENDROOT
BRANCH   8  14
HETATM   14  C9  UNL     1      18.942  -3.461   8.374  1.00  0.00     0.189 C 
BRANCH  14  15
HETATM   15  O1  UNL     1      20.064  -3.560   9.228  1.00  0.00    -0.321 OA
BRANCH  15  16
HETATM   16  C10 UNL     1      21.369  -3.357   8.756  1.00  0.00     0.259 C 
HETATM   17  O2  UNL     1      22.215  -3.167   9.663  1.00  0.00    -0.265 OA
BRANCH  16  18
HETATM   18  C11 UNL     1      21.664  -3.374   7.319  1.00  0.00     0.120 C 
BRANCH  18  19
HETATM   19  C12 UNL     1      21.714  -2.071   6.618  1.00  0.00    -0.031 C 
HETATM   20  C13 UNL     1      22.928  -1.271   6.924  1.00  0.00     0.014 C 
HETATM   21  C14 UNL     1      23.006  -0.001   6.097  1.00  0.00    -0.013 C 
HETATM   22  C15 UNL     1      23.021  -0.364   4.649  1.00  0.00     0.009 C 
HETATM   23  C19 UNL     1      21.800   0.844   6.428  1.00  0.00     0.009 C 
HETATM   24  C16 UNL     1      21.752  -1.121   4.321  1.00  0.00    -0.013 C 
HETATM   25  C17 UNL     1      20.537  -0.292   4.604  1.00  0.00     0.009 C 
HETATM   26  C21 UNL     1      21.744  -2.384   5.120  1.00  0.00     0.014 C 
HETATM   27  C18 UNL     1      20.576   0.053   6.078  1.00  0.00    -0.013 C 
HETATM   28  C20 UNL     1      20.483  -1.229   6.868  1.00  0.00     0.014 C 
ENDBRANCH  18  19
ENDBRANCH  16  18
ENDBRANCH  15  16
ENDBRANCH  14  15
ENDBRANCH   8  14
BRANCH  10  29
HETATM   29  O3  UNL     1      17.654  -4.098  10.992  1.00  0.00    -0.340 OA
ATOM     30  H3  UNL     1      18.561  -3.937  11.219  1.00  0.00     0.220 HD
ENDBRANCH  10  29
BRANCH  12  31
HETATM   31  O5  UNL     1      15.534  -8.246   9.759  1.00  0.00    -0.340 OA
ATOM     32  H5  UNL     1      15.846  -9.131   9.611  1.00  0.00     0.220 HD
ENDBRANCH  12  31
TORSDOF 7
ENDMDL
MODEL 4
REMARK VINA RESULT: -7.504006193      4.626      7.219
REMARK  7 active torsions:
REMARK  status: ('A' for Active; 'I' for Inactive)
REMARK    1  A    between atoms: C8_8  and  C9_9 
REMARK    2  A    between atoms: C9_9  and  O1_10 
REMARK    3  A    between atoms: O1_10  and  C10_11 
REMARK    4  A    between atoms: C10_11  and  C11_13 
REMARK    5  A    between atoms: C11_13  and  C12_14 
REMARK    6  A    between atoms: C23_25  and  O3_26 
REMARK    7  A    between atoms: C24_29  and  O5_30 
ROOT
HETATM    1  C1  UNL     1      24.446  -4.410   5.355  1.00  0.00     0.020 C 
HETATM    2  C2  UNL     1      24.061  -3.075   6.008  1.00  0.00    -0.014 C 
HETATM    3  C3  UNL     1      25.375  -2.286   6.093  1.00  0.00     0.020 C 
HETATM    4  C4  UNL     1      23.594  -3.346   7.382  1.00  0.00     0.023 C 
HETATM    5  C5  UNL     1      22.252  -2.741   7.734  1.00  0.00    -0.037 C 
HETATM    6  C6  UNL     1      21.881  -3.333   9.078  1.00  0.00     0.015 C 
HETATM    7  C7  UNL     1      22.372  -1.240   7.959  1.00  0.00     0.015 C 
HETATM    8  C8  UNL     1      21.286  -3.067   6.636  1.00  0.00     0.056 C 
HETATM    9  C22 UNL     1      21.723  -2.337   5.424  1.00  0.00     0.019 A 
HETATM   10  C23 UNL     1      21.106  -1.594   4.436  1.00  0.00     0.193 A 
HETATM   11  O4  UNL     1      22.041  -1.204   3.626  1.00  0.00    -0.264 OA
HETATM   12  C24 UNL     1      23.236  -1.633   4.004  1.00  0.00     0.193 A 
HETATM   13  C25 UNL     1      23.078  -2.368   5.158  1.00  0.00     0.020 A 
ENDROOT
BRANCH   8  14
HETATM   14  C9  UNL     1      19.853  -2.872   6.977  1.00  0.00     0.189 C 
BRANCH  14  15
HETATM   15  O1  UNL     1      19.034  -3.749   6.231  1.00  0.00    -0.321 OA
BRANCH  15  16
HETATM   16  C10 UNL     1      17.758  -4.122   6.675  1.00  0.00     0.259 C 
HETATM   17  O2  UNL     1      16.905  -4.207   5.759  1.00  0.00    -0.265 OA
BRANCH  16  18
HETATM   18  C11 UNL     1      17.496  -4.377   8.095  1.00  0.00     0.120 C 
BRANCH  18  19
HETATM   19  C12 UNL     1      17.793  -5.732   8.611  1.00  0.00    -0.031 C 
HETATM   20  C13 UNL     1      19.196  -5.905   9.068  1.00  0.00     0.014 C 
HETATM   21  C14 UNL     1      19.433  -7.264   9.702  1.00  0.00    -0.013 C 
HETATM   22  C15 UNL     1      18.523  -7.418  10.874  1.00  0.00     0.009 C 
HETATM   23  C19 UNL     1      19.152  -8.319   8.659  1.00  0.00     0.009 C 
HETATM   24  C16 UNL     1      17.090  -7.308  10.401  1.00  0.00    -0.013 C 
HETATM   25  C17 UNL     1      16.769  -8.368   9.392  1.00  0.00     0.009 C 
HETATM   26  C21 UNL     1      16.891  -5.941   9.831  1.00  0.00     0.014 C 
HETATM   27  C18 UNL     1      17.723  -8.171   8.232  1.00  0.00    -0.013 C 
HETATM   28  C20 UNL     1      17.451  -6.820   7.618  1.00  0.00     0.014 C 
ENDBRANCH  18  19
ENDBRANCH  16  18
ENDBRANCH  15  16
ENDBRANCH  14  15
ENDBRANCH   8  14
BRANCH  10  29
HETATM   29  O3  UNL     1      19.737  -1.364   4.402  1.00  0.00    -0.340 OA
ATOM     30  H3  UNL     1      19.359  -0.495   4.340  1.00  0.00     0.220 HD
ENDBRANCH  10  29
BRANCH  12  31
HETATM   31  O5  UNL     1      24.438  -1.384   3.347  1.00  0.00    -0.340 OA
ATOM     32  H5  UNL     1      24.841  -1.943   2.692  1.00  0.00     0.220 HD
ENDBRANCH  12  31
TORSDOF 7
ENDMDL
MODEL 5
REMARK VINA RESULT: -7.490446238      4.576      7.884
REMARK  7 active torsions:
REMARK  status: ('A' for Active; 'I' for Inactive)
REMARK    1  A    between atoms: C8_8  and  C9_9 
REMARK    2  A    between atoms: C9_9  and  O1_10 
REMARK    3  A    between atoms: O1_10  and  C10_11 
REMARK    4  A    between atoms: C10_11  and  C11_13 
REMARK    5  A    between atoms: C11_13  and  C12_14 
REMARK    6  A    between atoms: C23_25  and  O3_26 
REMARK    7  A    between atoms: C24_29  and  O5_30 
ROOT
HETATM    1  C1  UNL     1      20.023  -8.918   9.278  1.00  0.00     0.020 C 
HETATM    2  C2  UNL     1      18.530  -8.564   9.296  1.00  0.00    -0.014 C 
HETATM    3  C3  UNL     1      17.816  -9.890   9.599  1.00  0.00     0.020 C 
HETATM    4  C4  UNL     1      18.138  -8.127   7.941  1.00  0.00     0.023 C 
HETATM    5  C5  UNL     1      17.411  -6.801   7.881  1.00  0.00    -0.037 C 
HETATM    6  C6  UNL     1      17.321  -6.455   6.409  1.00  0.00     0.015 C 
HETATM    7  C7  UNL     1      15.974  -6.944   8.364  1.00  0.00     0.015 C 
HETATM    8  C8  UNL     1      18.179  -5.805   8.696  1.00  0.00     0.056 C 
HETATM    9  C22 UNL     1      18.087  -6.222  10.115  1.00  0.00     0.019 A 
HETATM   10  C23 UNL     1      17.860  -5.591  11.322  1.00  0.00     0.193 A 
HETATM   11  O4  UNL     1      17.899  -6.511  12.235  1.00  0.00    -0.264 OA
HETATM   12  C24 UNL     1      18.136  -7.709  11.723  1.00  0.00     0.193 A 
HETATM   13  C25 UNL     1      18.264  -7.570  10.358  1.00  0.00     0.020 A 
ENDROOT
BRANCH   8  14
HETATM   14  C9  UNL     1      17.820  -4.383   8.458  1.00  0.00     0.189 C 
BRANCH  14  15
HETATM   15  O1  UNL     1      18.838  -3.522   8.927  1.00  0.00    -0.321 OA
BRANCH  15  16
HETATM   16  C10 UNL     1      20.174  -3.677   8.531  1.00  0.00     0.259 C 
HETATM   17  O2  UNL     1      20.982  -3.765   9.487  1.00  0.00    -0.265 OA
BRANCH  16  18
HETATM   18  C11 UNL     1      20.541  -3.727   7.112  1.00  0.00     0.120 C 
BRANCH  18  19
HETATM   19  C12 UNL     1      21.002  -2.468   6.483  1.00  0.00    -0.031 C 
HETATM   20  C13 UNL     1      22.472  -2.266   6.551  1.00  0.00     0.014 C 
HETATM   21  C14 UNL     1      22.921  -1.031   5.792  1.00  0.00    -0.013 C 
HETATM   22  C15 UNL     1      22.520  -1.168   4.361  1.00  0.00     0.009 C 
HETATM   23  C19 UNL     1      22.259   0.170   6.424  1.00  0.00     0.009 C 
HETATM   24  C16 UNL     1      21.015  -1.307   4.284  1.00  0.00    -0.013 C 
HETATM   25  C17 UNL     1      20.329  -0.111   4.870  1.00  0.00     0.009 C 
HETATM   26  C21 UNL     1      20.626  -2.559   5.001  1.00  0.00     0.014 C 
HETATM   27  C18 UNL     1      20.776  -0.015   6.315  1.00  0.00    -0.013 C 
HETATM   28  C20 UNL     1      20.302  -1.249   7.041  1.00  0.00     0.014 C 
ENDBRANCH  18  19
ENDBRANCH  16  18
ENDBRANCH  15  16
ENDBRANCH  14  15
ENDBRANCH   8  14
BRANCH  10  29
HETATM   29  O3  UNL     1      17.641  -4.224  11.434  1.00  0.00    -0.340 OA
ATOM     30  H3  UNL     1      18.138  -3.577  10.948  1.00  0.00     0.220 HD
ENDBRANCH  10  29
BRANCH  12  31
HETATM   31  O5  UNL     1      18.237  -8.898  12.441  1.00  0.00    -0.340 OA
ATOM     32  H5  UNL     1      18.921  -9.550  12.344  1.00  0.00     0.220 HD
ENDBRANCH  12  31
TORSDOF 7
ENDMDL
