MODEL 1
REMARK VINA RESULT: -7.001989099      0.000      0.000
REMARK  9 active torsions:
REMARK  status: ('A' for Active; 'I' for Inactive)
REMARK    1  A    between atoms: C2_2  and  C3_3 
REMARK    2  A    between atoms: C3_3  and  C4_4 
REMARK    3  A    between atoms: C5_6  and  C6_7 
REMARK    4  A    between atoms: C6_7  and  C7_8 
REMARK    5  A    between atoms: C8_9  and  O1_10 
REMARK    6  A    between atoms: O1_10  and  C9_11 
REMARK    7  A    between atoms: C20_25  and  O4_26 
REMARK    8  A    between atoms: C21_28  and  O5_29 
REMARK    9  A    between atoms: C21_28  and  C22_31 
ROOT
HETATM    1  C7  UNL     1     -14.216 -39.025 -12.170  1.00  0.00     0.057 C 
HETATM    2  C8  UNL     1     -13.038 -38.068 -12.169  1.00  0.00     0.142 C 
HETATM    3  C11 UNL     1     -13.597 -36.651 -12.042  1.00  0.00     0.074 C 
HETATM    4  C12 UNL     1     -14.368 -36.445 -13.318  1.00  0.00     0.105 C 
HETATM    5  C13 UNL     1     -13.501 -36.022 -14.421  1.00  0.00     0.050 C 
HETATM    6  O3  UNL     1     -15.292 -35.334 -13.203  1.00  0.00    -0.336 OA
HETATM    7  C14 UNL     1     -16.153 -35.562 -14.291  1.00  0.00     0.079 A 
HETATM    8  C15 UNL     1     -16.849 -34.643 -15.078  1.00  0.00     0.039 A 
HETATM    9  C16 UNL     1     -17.644 -35.112 -16.100  1.00  0.00     0.026 A 
HETATM   10  C17 UNL     1     -17.743 -36.466 -16.329  1.00  0.00     0.034 A 
HETATM   11 CL1  UNL     1     -18.766 -37.070 -17.645  1.00  0.00    -0.084 Cl
HETATM   12  C18 UNL     1     -17.038 -37.348 -15.528  1.00  0.00     0.037 A 
HETATM   13  C19 UNL     1     -16.242 -36.931 -14.510  1.00  0.00     0.017 A 
HETATM   14  C20 UNL     1     -15.400 -37.503 -13.511  1.00  0.00     0.150 C 
HETATM   15  C21 UNL     1     -15.006 -38.908 -13.465  1.00  0.00     0.102 C 
ENDROOT
BRANCH   1  16
HETATM   16  C6  UNL     1     -13.810 -40.365 -11.735  1.00  0.00     0.038 C 
BRANCH  16  17
HETATM   17  C5  UNL     1     -14.529 -40.938 -10.589  1.00  0.00    -0.011 C 
HETATM   18  C4  UNL     1     -15.179 -42.129 -10.679  1.00  0.00    -0.015 C 
HETATM   19 BR1  UNL     1     -15.117 -43.028 -12.362  1.00  0.00    -0.056 Br
BRANCH  18  20
HETATM   20  C3  UNL     1     -15.913 -42.744  -9.562  1.00  0.00     0.046 C 
BRANCH  20  21
HETATM   21  C2  UNL     1     -15.376 -44.137  -9.302  1.00  0.00     0.001 C 
HETATM   22  C1  UNL     1     -15.014 -44.340  -7.858  1.00  0.00     0.005 C 
ENDBRANCH  20  21
ENDBRANCH  18  20
ENDBRANCH  16  17
ENDBRANCH   1  16
BRANCH   2  23
HETATM   23  O1  UNL     1     -12.143 -38.415 -11.191  1.00  0.00    -0.316 OA
BRANCH  23  24
HETATM   24  C9  UNL     1     -10.779 -38.311 -11.385  1.00  0.00     0.255 C 
HETATM   25  C10 UNL     1     -10.104 -38.610 -12.674  1.00  0.00     0.126 C 
HETATM   26  O2  UNL     1     -10.124 -37.942 -10.391  1.00  0.00    -0.266 OA
ENDBRANCH  23  24
ENDBRANCH   2  23
BRANCH  15  27
HETATM   27  O5  UNL     1     -16.231 -39.585 -13.099  1.00  0.00    -0.386 OA
ATOM     28  H5  UNL     1     -15.908 -40.208 -12.458  1.00  0.00     0.210 HD
ENDBRANCH  15  27
BRANCH  15  29
HETATM   29  C22 UNL     1     -14.560 -39.676 -14.600  1.00  0.00     0.037 C 
HETATM   30  C23 UNL     1     -15.363 -40.657 -15.346  1.00  0.00     0.008 C 
ENDBRANCH  15  29
BRANCH  14  31
HETATM   31  O4  UNL     1     -16.169 -37.323 -12.297  1.00  0.00    -0.379 OA
ATOM     32  H4  UNL     1     -16.745 -38.076 -12.357  1.00  0.00     0.211 HD
ENDBRANCH  14  31
TORSDOF 9
ENDMDL
MODEL 2
REMARK VINA RESULT: -6.917690786      2.537      3.693
REMARK  9 active torsions:
REMARK  status: ('A' for Active; 'I' for Inactive)
REMARK    1  A    between atoms: C2_2  and  C3_3 
REMARK    2  A    between atoms: C3_3  and  C4_4 
REMARK    3  A    between atoms: C5_6  and  C6_7 
REMARK    4  A    between atoms: C6_7  and  C7_8 
REMARK    5  A    between atoms: C8_9  and  O1_10 
REMARK    6  A    between atoms: O1_10  and  C9_11 
REMARK    7  A    between atoms: C20_25  and  O4_26 
REMARK    8  A    between atoms: C21_28  and  O5_29 
REMARK    9  A    between atoms: C21_28  and  C22_31 
ROOT
HETATM    1  C7  UNL     1     -15.674 -41.412 -12.136  1.00  0.00     0.057 C 
HETATM    2  C8  UNL     1     -14.797 -41.737 -13.331  1.00  0.00     0.142 C 
HETATM    3  C11 UNL     1     -13.957 -40.497 -13.637  1.00  0.00     0.074 C 
HETATM    4  C12 UNL     1     -14.967 -39.467 -14.064  1.00  0.00     0.105 C 
HETATM    5  C13 UNL     1     -15.320 -39.597 -15.480  1.00  0.00     0.050 C 
HETATM    6  O3  UNL     1     -14.414 -38.128 -14.002  1.00  0.00    -0.336 OA
HETATM    7  C14 UNL     1     -15.575 -37.335 -14.038  1.00  0.00     0.079 A 
HETATM    8  C15 UNL     1     -15.759 -36.059 -14.572  1.00  0.00     0.039 A 
HETATM    9  C16 UNL     1     -17.005 -35.476 -14.484  1.00  0.00     0.026 A 
HETATM   10  C17 UNL     1     -18.039 -36.151 -13.878  1.00  0.00     0.034 A 
HETATM   11 CL1  UNL     1     -19.642 -35.402 -13.765  1.00  0.00    -0.084 Cl
HETATM   12  C18 UNL     1     -17.819 -37.416 -13.360  1.00  0.00     0.037 A 
HETATM   13  C19 UNL     1     -16.609 -38.029 -13.424  1.00  0.00     0.017 A 
HETATM   14  C20 UNL     1     -16.016 -39.264 -13.024  1.00  0.00     0.150 C 
HETATM   15  C21 UNL     1     -16.759 -40.414 -12.518  1.00  0.00     0.102 C 
ENDROOT
BRANCH   1  16
HETATM   16  C6  UNL     1     -16.083 -42.630 -11.431  1.00  0.00     0.038 C 
BRANCH  16  17
HETATM   17  C5  UNL     1     -15.744 -42.718 -10.004  1.00  0.00    -0.011 C 
HETATM   18  C4  UNL     1     -15.381 -43.896  -9.429  1.00  0.00    -0.015 C 
HETATM   19 BR1  UNL     1     -15.331 -45.434 -10.558  1.00  0.00    -0.056 Br
BRANCH  18  20
HETATM   20  C3  UNL     1     -15.032 -44.035  -8.007  1.00  0.00     0.046 C 
BRANCH  20  21
HETATM   21  C2  UNL     1     -14.768 -45.493  -7.686  1.00  0.00     0.001 C 
HETATM   22  C1  UNL     1     -14.317 -45.682  -6.265  1.00  0.00     0.005 C 
ENDBRANCH  20  21
ENDBRANCH  18  20
ENDBRANCH  16  17
ENDBRANCH   1  16
BRANCH   2  23
HETATM   23  O1  UNL     1     -14.067 -42.872 -13.090  1.00  0.00    -0.316 OA
BRANCH  23  24
HETATM   24  C9  UNL     1     -13.663 -43.705 -14.115  1.00  0.00     0.255 C 
HETATM   25  C10 UNL     1     -14.582 -44.253 -15.146  1.00  0.00     0.126 C 
HETATM   26  O2  UNL     1     -12.448 -43.983 -14.130  1.00  0.00    -0.266 OA
ENDBRANCH  23  24
ENDBRANCH   2  23
BRANCH  15  27
HETATM   27  O5  UNL     1     -17.200 -39.976 -11.211  1.00  0.00    -0.386 OA
ATOM     28  H5  UNL     1     -17.841 -39.317 -11.450  1.00  0.00     0.210 HD
ENDBRANCH  15  27
BRANCH  15  29
HETATM   29  C22 UNL     1     -17.975 -40.928 -13.095  1.00  0.00     0.037 C 
HETATM   30  C23 UNL     1     -19.335 -40.702 -12.581  1.00  0.00     0.008 C 
ENDBRANCH  15  29
BRANCH  14  31
HETATM   31  O4  UNL     1     -15.182 -38.875 -11.905  1.00  0.00    -0.379 OA
ATOM     32  H4  UNL     1     -14.926 -39.733 -11.588  1.00  0.00     0.211 HD
ENDBRANCH  14  31
TORSDOF 9
ENDMDL
MODEL 3
REMARK VINA RESULT: -6.554449501      3.605      5.889
REMARK  9 active torsions:
REMARK  status: ('A' for Active; 'I' for Inactive)
REMARK    1  A    between atoms: C2_2  and  C3_3 
REMARK    2  A    between atoms: C3_3  and  C4_4 
REMARK    3  A    between atoms: C5_6  and  C6_7 
REMARK    4  A    between atoms: C6_7  and  C7_8 
REMARK    5  A    between atoms: C8_9  and  O1_10 
REMARK    6  A    between atoms: O1_10  and  C9_11 
REMARK    7  A    between atoms: C20_25  and  O4_26 
REMARK    8  A    between atoms: C21_28  and  O5_29 
REMARK    9  A    between atoms: C21_28  and  C22_31 
ROOT
HETATM    1  C7  UNL     1     -15.388 -35.312 -13.987  1.00  0.00     0.057 C 
HETATM    2  C8  UNL     1     -15.436 -34.917 -15.451  1.00  0.00     0.142 C 
HETATM    3  C11 UNL     1     -16.836 -34.373 -15.736  1.00  0.00     0.074 C 
HETATM    4  C12 UNL     1     -17.737 -35.563 -15.543  1.00  0.00     0.105 C 
HETATM    5  C13 UNL     1     -17.801 -36.404 -16.741  1.00  0.00     0.050 C 
HETATM    6  O3  UNL     1     -19.118 -35.158 -15.371  1.00  0.00    -0.336 OA
HETATM    7  C14 UNL     1     -19.693 -36.318 -14.824  1.00  0.00     0.079 A 
HETATM    8  C15 UNL     1     -20.993 -36.809 -14.955  1.00  0.00     0.039 A 
HETATM    9  C16 UNL     1     -21.328 -37.982 -14.314  1.00  0.00     0.026 A 
HETATM   10  C17 UNL     1     -20.388 -38.647 -13.560  1.00  0.00     0.034 A 
HETATM   11 CL1  UNL     1     -20.818 -40.156 -12.735  1.00  0.00    -0.084 Cl
HETATM   12  C18 UNL     1     -19.108 -38.129 -13.453  1.00  0.00     0.037 A 
HETATM   13  C19 UNL     1     -18.733 -36.977 -14.067  1.00  0.00     0.017 A 
HETATM   14  C20 UNL     1     -17.568 -36.163 -14.188  1.00  0.00     0.150 C 
HETATM   15  C21 UNL     1     -16.236 -36.551 -13.735  1.00  0.00     0.102 C 
ENDROOT
BRANCH   1  16
HETATM   16  C6  UNL     1     -14.012 -35.310 -13.482  1.00  0.00     0.038 C 
BRANCH  16  17
HETATM   17  C5  UNL     1     -13.781 -34.660 -12.185  1.00  0.00    -0.011 C 
HETATM   18  C4  UNL     1     -13.176 -35.314 -11.158  1.00  0.00    -0.015 C 
HETATM   19 BR1  UNL     1     -12.638 -37.118 -11.473  1.00  0.00    -0.056 Br
BRANCH  18  20
HETATM   20  C3  UNL     1     -12.922 -34.707  -9.842  1.00  0.00     0.046 C 
BRANCH  20  21
HETATM   21  C2  UNL     1     -11.523 -35.058  -9.378  1.00  0.00     0.001 C 
HETATM   22  C1  UNL     1     -11.226 -34.498  -8.016  1.00  0.00     0.005 C 
ENDBRANCH  20  21
ENDBRANCH  18  20
ENDBRANCH  16  17
ENDBRANCH   1  16
BRANCH   2  23
HETATM   23  O1  UNL     1     -14.419 -34.044 -15.742  1.00  0.00    -0.316 OA
BRANCH  23  24
HETATM   24  C9  UNL     1     -14.629 -32.681 -15.804  1.00  0.00     0.255 C 
HETATM   25  C10 UNL     1     -14.850 -31.825 -14.610  1.00  0.00     0.126 C 
HETATM   26  O2  UNL     1     -14.622 -32.190 -16.949  1.00  0.00    -0.266 OA
ENDBRANCH  23  24
ENDBRANCH   2  23
BRANCH  15  27
HETATM   27  O5  UNL     1     -16.352 -36.513 -12.293  1.00  0.00    -0.386 OA
ATOM     28  H5  UNL     1     -15.627 -35.940 -12.070  1.00  0.00     0.210 HD
ENDBRANCH  15  27
BRANCH  15  29
HETATM   29  C22 UNL     1     -15.632 -37.839 -13.959  1.00  0.00     0.037 C 
HETATM   30  C23 UNL     1     -15.601 -38.955 -13.001  1.00  0.00     0.008 C 
ENDBRANCH  15  29
BRANCH  14  31
HETATM   31  O4  UNL     1     -17.889 -35.014 -13.367  1.00  0.00    -0.379 OA
ATOM     32  H4  UNL     1     -18.791 -35.219 -13.148  1.00  0.00     0.211 HD
ENDBRANCH  14  31
TORSDOF 9
ENDMDL
MODEL 4
REMARK VINA RESULT: -6.398402161      7.394     11.572
REMARK  9 active torsions:
REMARK  status: ('A' for Active; 'I' for Inactive)
REMARK    1  A    between atoms: C2_2  and  C3_3 
REMARK    2  A    between atoms: C3_3  and  C4_4 
REMARK    3  A    between atoms: C5_6  and  C6_7 
REMARK    4  A    between atoms: C6_7  and  C7_8 
REMARK    5  A    between atoms: C8_9  and  O1_10 
REMARK    6  A    between atoms: O1_10  and  C9_11 
REMARK    7  A    between atoms: C20_25  and  O4_26 
REMARK    8  A    between atoms: C21_28  and  O5_29 
REMARK    9  A    between atoms: C21_28  and  C22_31 
ROOT
HETATM    1  C7  UNL     1     -14.547 -48.405  -9.868  1.00  0.00     0.057 C 
HETATM    2  C8  UNL     1     -15.771 -48.979 -10.557  1.00  0.00     0.142 C 
HETATM    3  C11 UNL     1     -15.351 -50.287 -11.227  1.00  0.00     0.074 C 
HETATM    4  C12 UNL     1     -14.374 -49.858 -12.288  1.00  0.00     0.105 C 
HETATM    5  C13 UNL     1     -15.049 -49.427 -13.515  1.00  0.00     0.050 C 
HETATM    6  O3  UNL     1     -13.571 -50.973 -12.749  1.00  0.00    -0.336 OA
HETATM    7  C14 UNL     1     -12.508 -50.317 -13.394  1.00  0.00     0.079 A 
HETATM    8  C15 UNL     1     -11.748 -50.727 -14.490  1.00  0.00     0.039 A 
HETATM    9  C16 UNL     1     -10.744 -49.902 -14.948  1.00  0.00     0.026 A 
HETATM   10  C17 UNL     1     -10.505 -48.698 -14.326  1.00  0.00     0.034 A 
HETATM   11 CL1  UNL     1      -9.213 -47.636 -14.915  1.00  0.00    -0.084 Cl
HETATM   12  C18 UNL     1     -11.280 -48.324 -13.241  1.00  0.00     0.037 A 
HETATM   13  C19 UNL     1     -12.280 -49.104 -12.756  1.00  0.00     0.017 A 
HETATM   14  C20 UNL     1     -13.249 -49.069 -11.710  1.00  0.00     0.150 C 
HETATM   15  C21 UNL     1     -13.541 -47.896 -10.890  1.00  0.00     0.102 C 
ENDROOT
BRANCH   1  16
HETATM   16  C6  UNL     1     -14.927 -47.504  -8.776  1.00  0.00     0.038 C 
BRANCH  16  17
HETATM   17  C5  UNL     1     -15.223 -46.111  -9.135  1.00  0.00    -0.011 C 
HETATM   18  C4  UNL     1     -15.003 -45.088  -8.265  1.00  0.00    -0.015 C 
HETATM   19 BR1  UNL     1     -14.293 -45.542  -6.553  1.00  0.00    -0.056 Br
BRANCH  18  20
HETATM   20  C3  UNL     1     -15.283 -43.678  -8.578  1.00  0.00     0.046 C 
BRANCH  20  21
HETATM   21  C2  UNL     1     -15.790 -43.561 -10.002  1.00  0.00     0.001 C 
HETATM   22  C1  UNL     1     -16.161 -42.148 -10.352  1.00  0.00     0.005 C 
ENDBRANCH  20  21
ENDBRANCH  18  20
ENDBRANCH  16  17
ENDBRANCH   1  16
BRANCH   2  23
HETATM   23  O1  UNL     1     -16.805 -49.104  -9.666  1.00  0.00    -0.316 OA
BRANCH  23  24
HETATM   24  C9  UNL     1     -18.112 -49.256 -10.087  1.00  0.00     0.255 C 
HETATM   25  C10 UNL     1     -18.618 -48.773 -11.397  1.00  0.00     0.126 C 
HETATM   26  O2  UNL     1     -18.868 -49.836  -9.284  1.00  0.00    -0.266 OA
ENDBRANCH  23  24
ENDBRANCH   2  23
BRANCH  15  27
HETATM   27  O5  UNL     1     -12.358 -47.765 -10.066  1.00  0.00    -0.386 OA
ATOM     28  H5  UNL     1     -11.675 -47.947 -10.702  1.00  0.00     0.210 HD
ENDBRANCH  15  27
BRANCH  15  29
HETATM   29  C22 UNL     1     -13.710 -46.558 -11.397  1.00  0.00     0.037 C 
HETATM   30  C23 UNL     1     -14.444 -46.185 -12.616  1.00  0.00     0.008 C 
ENDBRANCH  15  29
BRANCH  14  31
HETATM   31  O4  UNL     1     -12.734 -50.033 -10.759  1.00  0.00    -0.379 OA
ATOM     32  H4  UNL     1     -12.882 -50.835 -11.246  1.00  0.00     0.211 HD
ENDBRANCH  14  31
TORSDOF 9
ENDMDL
MODEL 5
REMARK VINA RESULT: -6.388624951      2.960      5.111
REMARK  9 active torsions:
REMARK  status: ('A' for Active; 'I' for Inactive)
REMARK    1  A    between atoms: C2_2  and  C3_3 
REMARK    2  A    between atoms: C3_3  and  C4_4 
REMARK    3  A    between atoms: C5_6  and  C6_7 
REMARK    4  A    between atoms: C6_7  and  C7_8 
REMARK    5  A    between atoms: C8_9  and  O1_10 
REMARK    6  A    between atoms: O1_10  and  C9_11 
REMARK    7  A    between atoms: C20_25  and  O4_26 
REMARK    8  A    between atoms: C21_28  and  O5_29 
REMARK    9  A    between atoms: C21_28  and  C22_31 
ROOT
HETATM    1  C7  UNL     1     -15.305 -42.181 -11.612  1.00  0.00     0.057 C 
HETATM    2  C8  UNL     1     -15.278 -42.839 -12.979  1.00  0.00     0.142 C 
HETATM    3  C11 UNL     1     -13.999 -42.384 -13.683  1.00  0.00     0.074 C 
HETATM    4  C12 UNL     1     -14.195 -40.905 -13.878  1.00  0.00     0.105 C 
HETATM    5  C13 UNL     1     -14.981 -40.608 -15.078  1.00  0.00     0.050 C 
HETATM    6  O3  UNL     1     -12.938 -40.238 -14.154  1.00  0.00    -0.336 OA
HETATM    7  C14 UNL     1     -13.264 -38.893 -13.906  1.00  0.00     0.079 A 
HETATM    8  C15 UNL     1     -12.757 -37.735 -14.496  1.00  0.00     0.039 A 
HETATM    9  C16 UNL     1     -13.236 -36.512 -14.080  1.00  0.00     0.026 A 
HETATM   10  C17 UNL     1     -14.198 -36.448 -13.097  1.00  0.00     0.034 A 
HETATM   11 CL1  UNL     1     -14.816 -34.876 -12.560  1.00  0.00    -0.084 Cl
HETATM   12  C18 UNL     1     -14.678 -37.619 -12.534  1.00  0.00     0.037 A 
HETATM   13  C19 UNL     1     -14.234 -38.846 -12.913  1.00  0.00     0.017 A 
HETATM   14  C20 UNL     1     -14.471 -40.214 -12.586  1.00  0.00     0.150 C 
HETATM   15  C21 UNL     1     -15.560 -40.686 -11.736  1.00  0.00     0.102 C 
ENDROOT
BRANCH   1  16
HETATM   16  C6  UNL     1     -16.138 -42.941 -10.675  1.00  0.00     0.038 C 
BRANCH  16  17
HETATM   17  C5  UNL     1     -15.634 -43.084  -9.302  1.00  0.00    -0.011 C 
HETATM   18  C4  UNL     1     -15.252 -44.291  -8.806  1.00  0.00    -0.015 C 
HETATM   19 BR1  UNL     1     -15.397 -45.795  -9.971  1.00  0.00    -0.056 Br
BRANCH  18  20
HETATM   20  C3  UNL     1     -14.741 -44.486  -7.440  1.00  0.00     0.046 C 
BRANCH  20  21
HETATM   21  C2  UNL     1     -14.367 -45.940  -7.236  1.00  0.00     0.001 C 
HETATM   22  C1  UNL     1     -15.239 -46.607  -6.211  1.00  0.00     0.005 C 
ENDBRANCH  20  21
ENDBRANCH  18  20
ENDBRANCH  16  17
ENDBRANCH   1  16
BRANCH   2  23
HETATM   23  O1  UNL     1     -15.406 -44.198 -12.856  1.00  0.00    -0.316 OA
BRANCH  23  24
HETATM   24  C9  UNL     1     -16.321 -44.911 -13.606  1.00  0.00     0.255 C 
HETATM   25  C10 UNL     1     -17.617 -44.356 -14.073  1.00  0.00     0.126 C 
HETATM   26  O2  UNL     1     -15.993 -46.082 -13.878  1.00  0.00    -0.266 OA
ENDBRANCH  23  24
ENDBRANCH   2  23
BRANCH  15  27
HETATM   27  O5  UNL     1     -15.173 -40.232 -10.417  1.00  0.00    -0.386 OA
ATOM     28  H5  UNL     1     -14.323 -39.850 -10.602  1.00  0.00     0.210 HD
ENDBRANCH  15  27
BRANCH  15  29
HETATM   29  C22 UNL     1     -16.927 -40.239 -11.825  1.00  0.00     0.037 C 
HETATM   30  C23 UNL     1     -17.907 -40.657 -12.839  1.00  0.00     0.008 C 
ENDBRANCH  15  29
BRANCH  14  31
HETATM   31  O4  UNL     1     -13.278 -40.581 -11.850  1.00  0.00    -0.379 OA
ATOM     32  H4  UNL     1     -13.674 -41.047 -11.123  1.00  0.00     0.211 HD
ENDBRANCH  14  31
TORSDOF 9
ENDMDL
