MODEL 1
REMARK VINA RESULT: -7.993614010      0.000      0.000
REMARK  6 active torsions:
REMARK  status: ('A' for Active; 'I' for Inactive)
REMARK    1  A    between atoms: C2_2  and  C4_4 
REMARK    2  A    between atoms: C4_4  and  C5_5 
REMARK    3  A    between atoms: C7_7  and  O1_8 
REMARK    4  A    between atoms: C8_10  and  O2_11 
REMARK    5  A    between atoms: C9_13  and  C10_14 
REMARK    6  A    between atoms: C11_15  and  C12_16 
ROOT
HETATM    1  C5  UNL     1      29.480  -3.063  58.113  1.00  0.00    -0.054 A 
HETATM    2  C6  UNL     1      30.030  -3.611  59.242  1.00  0.00     0.046 A 
HETATM    3  C7  UNL     1      31.348  -4.021  59.298  1.00  0.00     0.100 A 
HETATM    4  C8  UNL     1      32.174  -3.883  58.173  1.00  0.00     0.109 A 
HETATM    5  C9  UNL     1      31.659  -3.340  57.028  1.00  0.00     0.000 A 
HETATM    6  C18 UNL     1      30.305  -2.936  57.026  1.00  0.00     0.021 A 
ENDROOT
BRANCH   5   7
HETATM    7  C10 UNL     1      32.449  -3.166  55.833  1.00  0.00     0.015 C 
HETATM    8  C11 UNL     1      33.074  -4.039  55.125  1.00  0.00     0.012 C 
BRANCH   8   9
HETATM    9  C12 UNL     1      33.842  -3.699  53.921  1.00  0.00    -0.030 A 
HETATM   10  C13 UNL     1      35.183  -4.042  53.806  1.00  0.00     0.053 A 
HETATM   11  C14 UNL     1      35.891  -3.726  52.689  1.00  0.00     0.120 A 
HETATM   12  F1  UNL     1      37.204  -4.074  52.602  1.00  0.00    -0.206 F 
HETATM   13  C15 UNL     1      35.335  -3.054  51.617  1.00  0.00     0.084 A 
HETATM   14  C16 UNL     1      34.008  -2.717  51.735  1.00  0.00     0.120 A 
HETATM   15  F2  UNL     1      33.452  -2.056  50.686  1.00  0.00    -0.206 F 
HETATM   16  C17 UNL     1      33.269  -3.039  52.884  1.00  0.00     0.053 A 
ENDBRANCH   8   9
ENDBRANCH   5   7
BRANCH   4  17
HETATM   17  O2  UNL     1      33.480  -4.305  58.276  1.00  0.00    -0.357 OA
ATOM     18  H2  UNL     1      33.946  -4.117  59.081  1.00  0.00     0.217 HD
ENDBRANCH   4  17
BRANCH   3  19
HETATM   19  O1  UNL     1      31.817  -4.562  60.474  1.00  0.00    -0.358 OA
ATOM     20  H1  UNL     1      31.991  -5.495  60.504  1.00  0.00     0.217 HD
ENDBRANCH   3  19
BRANCH   1  21
HETATM   21  C4  UNL     1      28.081  -2.632  58.068  1.00  0.00     0.042 C 
BRANCH  21  22
HETATM   22  C2  UNL     1      27.400  -2.628  59.410  1.00  0.00    -0.019 C 
HETATM   23  C1  UNL     1      26.400  -3.742  59.555  1.00  0.00     0.010 C 
HETATM   24  C3  UNL     1      26.758  -1.296  59.723  1.00  0.00     0.010 C 
ENDBRANCH  21  22
ENDBRANCH   1  21
TORSDOF 6
ENDMDL
MODEL 2
REMARK VINA RESULT: -7.870949584      4.050      6.126
REMARK  6 active torsions:
REMARK  status: ('A' for Active; 'I' for Inactive)
REMARK    1  A    between atoms: C2_2  and  C4_4 
REMARK    2  A    between atoms: C4_4  and  C5_5 
REMARK    3  A    between atoms: C7_7  and  O1_8 
REMARK    4  A    between atoms: C8_10  and  O2_11 
REMARK    5  A    between atoms: C9_13  and  C10_14 
REMARK    6  A    between atoms: C11_15  and  C12_16 
ROOT
HETATM    1  C5  UNL     1      34.762  -7.908  59.885  1.00  0.00    -0.054 A 
HETATM    2  C6  UNL     1      34.105  -7.311  60.930  1.00  0.00     0.046 A 
HETATM    3  C7  UNL     1      33.486  -6.082  60.807  1.00  0.00     0.100 A 
HETATM    4  C8  UNL     1      33.514  -5.401  59.582  1.00  0.00     0.109 A 
HETATM    5  C9  UNL     1      34.160  -5.967  58.517  1.00  0.00     0.000 A 
HETATM    6  C18 UNL     1      34.777  -7.226  58.697  1.00  0.00     0.021 A 
ENDROOT
BRANCH   5   7
HETATM    7  C10 UNL     1      34.229  -5.325  57.227  1.00  0.00     0.015 C 
HETATM    8  C11 UNL     1      34.804  -5.714  56.144  1.00  0.00     0.012 C 
BRANCH   8   9
HETATM    9  C12 UNL     1      34.783  -4.939  54.897  1.00  0.00    -0.030 A 
HETATM   10  C13 UNL     1      33.605  -4.371  54.427  1.00  0.00     0.053 A 
HETATM   11  C14 UNL     1      33.590  -3.653  53.273  1.00  0.00     0.120 A 
HETATM   12  F1  UNL     1      32.422  -3.107  52.834  1.00  0.00    -0.206 F 
HETATM   13  C15 UNL     1      34.721  -3.445  52.506  1.00  0.00     0.084 A 
HETATM   14  C16 UNL     1      35.882  -4.009  52.975  1.00  0.00     0.120 A 
HETATM   15  F2  UNL     1      37.001  -3.811  52.229  1.00  0.00    -0.206 F 
HETATM   16  C17 UNL     1      35.909  -4.751  54.165  1.00  0.00     0.053 A 
ENDBRANCH   8   9
ENDBRANCH   5   7
BRANCH   4  17
HETATM   17  O2  UNL     1      32.883  -4.180  59.508  1.00  0.00    -0.357 OA
ATOM     18  H2  UNL     1      33.423  -3.405  59.414  1.00  0.00     0.217 HD
ENDBRANCH   4  17
BRANCH   3  19
HETATM   19  O1  UNL     1      32.850  -5.556  61.910  1.00  0.00    -0.358 OA
ATOM     20  H1  UNL     1      32.655  -4.627  61.918  1.00  0.00     0.217 HD
ENDBRANCH   3  19
BRANCH   1  21
HETATM   21  C4  UNL     1      35.415  -9.211  60.029  1.00  0.00     0.042 C 
BRANCH  21  22
HETATM   22  C2  UNL     1      36.565  -9.214  60.998  1.00  0.00    -0.019 C 
HETATM   23  C1  UNL     1      37.800  -9.857  60.428  1.00  0.00     0.010 C 
HETATM   24  C3  UNL     1      36.201  -9.849  62.321  1.00  0.00     0.010 C 
ENDBRANCH  21  22
ENDBRANCH   1  21
TORSDOF 6
ENDMDL
MODEL 3
REMARK VINA RESULT: -7.868413017      3.812      5.710
REMARK  6 active torsions:
REMARK  status: ('A' for Active; 'I' for Inactive)
REMARK    1  A    between atoms: C2_2  and  C4_4 
REMARK    2  A    between atoms: C4_4  and  C5_5 
REMARK    3  A    between atoms: C7_7  and  O1_8 
REMARK    4  A    between atoms: C8_10  and  O2_11 
REMARK    5  A    between atoms: C9_13  and  C10_14 
REMARK    6  A    between atoms: C11_15  and  C12_16 
ROOT
HETATM    1  C5  UNL     1      34.495  -7.749  59.770  1.00  0.00    -0.054 A 
HETATM    2  C6  UNL     1      33.785  -7.127  60.764  1.00  0.00     0.046 A 
HETATM    3  C7  UNL     1      33.237  -5.869  60.605  1.00  0.00     0.100 A 
HETATM    4  C8  UNL     1      33.399  -5.182  59.393  1.00  0.00     0.109 A 
HETATM    5  C9  UNL     1      34.101  -5.772  58.378  1.00  0.00     0.000 A 
HETATM    6  C18 UNL     1      34.640  -7.060  58.594  1.00  0.00     0.021 A 
ENDROOT
BRANCH   5   7
HETATM    7  C10 UNL     1      34.306  -5.126  57.104  1.00  0.00     0.015 C 
HETATM    8  C11 UNL     1      34.301  -5.624  55.918  1.00  0.00     0.012 C 
BRANCH   8   9
HETATM    9  C12 UNL     1      34.528  -4.825  54.708  1.00  0.00    -0.030 A 
HETATM   10  C13 UNL     1      35.801  -4.690  54.168  1.00  0.00     0.053 A 
HETATM   11  C14 UNL     1      36.007  -3.950  53.046  1.00  0.00     0.120 A 
HETATM   12  F1  UNL     1      37.264  -3.832  52.537  1.00  0.00    -0.206 F 
HETATM   13  C15 UNL     1      34.985  -3.294  52.384  1.00  0.00     0.084 A 
HETATM   14  C16 UNL     1      33.729  -3.432  52.922  1.00  0.00     0.120 A 
HETATM   15  F2  UNL     1      32.717  -2.792  52.279  1.00  0.00    -0.206 F 
HETATM   16  C17 UNL     1      33.506  -4.194  54.079  1.00  0.00     0.053 A 
ENDBRANCH   8   9
ENDBRANCH   5   7
BRANCH   4  17
HETATM   17  O2  UNL     1      32.835  -3.931  59.280  1.00  0.00    -0.357 OA
ATOM     18  H2  UNL     1      33.242  -3.216  59.754  1.00  0.00     0.217 HD
ENDBRANCH   4  17
BRANCH   3  19
HETATM   19  O1  UNL     1      32.540  -5.320  61.658  1.00  0.00    -0.358 OA
ATOM     20  H1  UNL     1      31.890  -5.855  62.097  1.00  0.00     0.217 HD
ENDBRANCH   3  19
BRANCH   1  21
HETATM   21  C4  UNL     1      35.070  -9.083  59.953  1.00  0.00     0.042 C 
BRANCH  21  22
HETATM   22  C2  UNL     1      36.503  -9.073  60.412  1.00  0.00    -0.019 C 
HETATM   23  C1  UNL     1      37.311 -10.190  59.809  1.00  0.00     0.010 C 
HETATM   24  C3  UNL     1      36.624  -9.085  61.918  1.00  0.00     0.010 C 
ENDBRANCH  21  22
ENDBRANCH   1  21
TORSDOF 6
ENDMDL
MODEL 4
REMARK VINA RESULT: -7.846423325      5.142      6.654
REMARK  6 active torsions:
REMARK  status: ('A' for Active; 'I' for Inactive)
REMARK    1  A    between atoms: C2_2  and  C4_4 
REMARK    2  A    between atoms: C4_4  and  C5_5 
REMARK    3  A    between atoms: C7_7  and  O1_8 
REMARK    4  A    between atoms: C8_10  and  O2_11 
REMARK    5  A    between atoms: C9_13  and  C10_14 
REMARK    6  A    between atoms: C11_15  and  C12_16 
ROOT
HETATM    1  C5  UNL     1      35.454  -8.905  58.009  1.00  0.00    -0.054 A 
HETATM    2  C6  UNL     1      36.452  -9.775  57.654  1.00  0.00     0.046 A 
HETATM    3  C7  UNL     1      37.105  -9.695  56.439  1.00  0.00     0.100 A 
HETATM    4  C8  UNL     1      36.752  -8.698  55.518  1.00  0.00     0.109 A 
HETATM    5  C9  UNL     1      35.761  -7.812  55.838  1.00  0.00     0.000 A 
HETATM    6  C18 UNL     1      35.127  -7.938  57.095  1.00  0.00     0.021 A 
ENDROOT
BRANCH   5   7
HETATM    7  C10 UNL     1      35.346  -6.760  54.942  1.00  0.00     0.015 C 
HETATM    8  C11 UNL     1      35.818  -5.573  54.792  1.00  0.00     0.012 C 
BRANCH   8   9
HETATM    9  C12 UNL     1      35.280  -4.609  53.824  1.00  0.00    -0.030 A 
HETATM   10  C13 UNL     1      33.937  -4.254  53.838  1.00  0.00     0.053 A 
HETATM   11  C14 UNL     1      33.443  -3.360  52.941  1.00  0.00     0.120 A 
HETATM   12  F1  UNL     1      32.122  -3.029  52.976  1.00  0.00    -0.206 F 
HETATM   13  C15 UNL     1      34.227  -2.759  51.974  1.00  0.00     0.084 A 
HETATM   14  C16 UNL     1      35.554  -3.114  51.964  1.00  0.00     0.120 A 
HETATM   15  F2  UNL     1      36.334  -2.529  51.018  1.00  0.00    -0.206 F 
HETATM   16  C17 UNL     1      36.074  -4.035  52.886  1.00  0.00     0.053 A 
ENDBRANCH   8   9
ENDBRANCH   5   7
BRANCH   4  17
HETATM   17  O2  UNL     1      37.430  -8.657  54.321  1.00  0.00    -0.357 OA
ATOM     18  H2  UNL     1      37.553  -7.811  53.908  1.00  0.00     0.217 HD
ENDBRANCH   4  17
BRANCH   3  19
HETATM   19  O1  UNL     1      38.095 -10.612  56.165  1.00  0.00    -0.358 OA
ATOM     20  H1  UNL     1      37.944 -11.247  55.475  1.00  0.00     0.217 HD
ENDBRANCH   3  19
BRANCH   1  21
HETATM   21  C4  UNL     1      34.771  -9.002  59.301  1.00  0.00     0.042 C 
BRANCH  21  22
HETATM   22  C2  UNL     1      35.112  -7.891  60.257  1.00  0.00    -0.019 C 
HETATM   23  C1  UNL     1      35.874  -8.378  61.460  1.00  0.00     0.010 C 
HETATM   24  C3  UNL     1      33.894  -7.105  60.684  1.00  0.00     0.010 C 
ENDBRANCH  21  22
ENDBRANCH   1  21
TORSDOF 6
ENDMDL
MODEL 5
REMARK VINA RESULT: -7.828435878      5.151      6.553
REMARK  6 active torsions:
REMARK  status: ('A' for Active; 'I' for Inactive)
REMARK    1  A    between atoms: C2_2  and  C4_4 
REMARK    2  A    between atoms: C4_4  and  C5_5 
REMARK    3  A    between atoms: C7_7  and  O1_8 
REMARK    4  A    between atoms: C8_10  and  O2_11 
REMARK    5  A    between atoms: C9_13  and  C10_14 
REMARK    6  A    between atoms: C11_15  and  C12_16 
ROOT
HETATM    1  C5  UNL     1      35.473  -8.925  58.020  1.00  0.00    -0.054 A 
HETATM    2  C6  UNL     1      36.471  -9.791  57.652  1.00  0.00     0.046 A 
HETATM    3  C7  UNL     1      37.110  -9.705  56.431  1.00  0.00     0.100 A 
HETATM    4  C8  UNL     1      36.745  -8.706  55.516  1.00  0.00     0.109 A 
HETATM    5  C9  UNL     1      35.753  -7.825  55.849  1.00  0.00     0.000 A 
HETATM    6  C18 UNL     1      35.133  -7.957  57.112  1.00  0.00     0.021 A 
ENDROOT
BRANCH   5   7
HETATM    7  C10 UNL     1      35.326  -6.772  54.960  1.00  0.00     0.015 C 
HETATM    8  C11 UNL     1      35.803  -5.589  54.796  1.00  0.00     0.012 C 
BRANCH   8   9
HETATM    9  C12 UNL     1      35.250  -4.623  53.838  1.00  0.00    -0.030 A 
HETATM   10  C13 UNL     1      36.057  -4.017  52.885  1.00  0.00     0.053 A 
HETATM   11  C14 UNL     1      35.541  -3.124  51.999  1.00  0.00     0.120 A 
HETATM   12  F1  UNL     1      36.354  -2.544  51.074  1.00  0.00    -0.206 F 
HETATM   13  C15 UNL     1      34.205  -2.766  51.990  1.00  0.00     0.084 A 
HETATM   14  C16 UNL     1      33.411  -3.369  52.935  1.00  0.00     0.120 A 
HETATM   15  F2  UNL     1      32.096  -3.024  52.936  1.00  0.00    -0.206 F 
HETATM   16  C17 UNL     1      33.935  -4.292  53.853  1.00  0.00     0.053 A 
ENDBRANCH   8   9
ENDBRANCH   5   7
BRANCH   4  17
HETATM   17  O2  UNL     1      37.410  -8.660  54.312  1.00  0.00    -0.357 OA
ATOM     18  H2  UNL     1      37.506  -9.470  53.825  1.00  0.00     0.217 HD
ENDBRANCH   4  17
BRANCH   3  19
HETATM   19  O1  UNL     1      38.101 -10.617  56.144  1.00  0.00    -0.358 OA
ATOM     20  H1  UNL     1      37.984 -11.192  55.397  1.00  0.00     0.217 HD
ENDBRANCH   3  19
BRANCH   1  21
HETATM   21  C4  UNL     1      34.804  -9.028  59.319  1.00  0.00     0.042 C 
BRANCH  21  22
HETATM   22  C2  UNL     1      35.140  -7.911  60.269  1.00  0.00    -0.019 C 
HETATM   23  C1  UNL     1      35.905  -8.388  61.474  1.00  0.00     0.010 C 
HETATM   24  C3  UNL     1      33.919  -7.129  60.693  1.00  0.00     0.010 C 
ENDBRANCH  21  22
ENDBRANCH   1  21
TORSDOF 6
ENDMDL
