MODEL 1
REMARK VINA RESULT: -7.720425968      0.000      0.000
REMARK  6 active torsions:
REMARK  status: ('A' for Active; 'I' for Inactive)
REMARK    1  A    between atoms: C2_3  and  N2_4 
REMARK    2  A    between atoms: N2_4  and  N3_5 
REMARK    3  A    between atoms: N2_4  and  C3_8 
REMARK    4  A    between atoms: C6_17  and  N7_18 
REMARK    5  A    between atoms: C7_23  and  N9_24 
REMARK    6  A    between atoms: N9_24  and  N10_26 
ROOT
HETATM    1  N1  UNL     1     -13.021 -30.024  13.461  1.00  0.00    -0.191 NA
HETATM    2  C1  UNL     1     -13.604 -29.425  14.240  1.00  0.00     0.107 C 
HETATM    3  C2  UNL     1     -14.331 -28.693  15.234  1.00  0.00     0.211 C 
ENDROOT
BRANCH   3   4
HETATM    4  N2  UNL     1     -14.491 -29.303  16.519  1.00  0.00    -0.246 N 
BRANCH   4   5
HETATM    5  N3  UNL     1     -15.076 -30.544  16.642  1.00  0.00    -0.337 N 
ATOM      6  H32 UNL     1     -16.073 -30.616  16.845  1.00  0.00     0.177 HD
ATOM      7  H31 UNL     1     -14.546 -31.393  16.449  1.00  0.00     0.177 HD
ENDBRANCH   4   5
BRANCH   4   8
HETATM    8  C3  UNL     1     -14.149 -28.566  17.681  1.00  0.00     0.145 A 
HETATM    9  N4  UNL     1     -12.823 -28.577  18.042  1.00  0.00    -0.336 N 
HETATM   10  C4  UNL     1     -12.357 -27.990  19.131  1.00  0.00     0.183 A 
ATOM     11  H4  UNL     1     -12.163 -29.065  17.436  1.00  0.00     0.168 HD
HETATM   12  N5  UNL     1     -13.219 -27.350  19.927  1.00  0.00    -0.337 N 
HETATM   13  C5  UNL     1     -14.533 -27.311  19.614  1.00  0.00     0.139 A 
ATOM     14  H5  UNL     1     -12.884 -26.890  20.774  1.00  0.00     0.168 HD
HETATM   15  N6  UNL     1     -15.405 -26.657  20.400  1.00  0.00    -0.176 N 
HETATM   16  C8  UNL     1     -15.041 -27.928  18.460  1.00  0.00     0.100 A 
HETATM   17  C6  UNL     1     -16.715 -26.585  20.110  1.00  0.00     0.679 A 
ATOM     18  H6  UNL     1     -15.061 -26.201  21.245  1.00  0.00     0.186 HD
HETATM   19  N8  UNL     1     -17.208 -27.169  19.010  1.00  0.00    -0.174 N 
HETATM   20  C7  UNL     1     -16.384 -27.847  18.170  1.00  0.00     0.153 A 
ATOM     21  H8  UNL     1     -18.205 -27.105  18.803  1.00  0.00     0.186 HD
BRANCH  17  22
HETATM   22  N7  UNL     1     -17.527 -25.937  20.908  1.00  0.00    -0.234 N 
ATOM     23  H72 UNL     1     -18.113 -25.194  20.526  1.00  0.00     0.174 HD
ATOM     24  H71 UNL     1     -17.568 -26.178  21.898  1.00  0.00     0.174 HD
ENDBRANCH  17  22
BRANCH  20  25
HETATM   25  N9  UNL     1     -16.857 -28.378  17.101  1.00  0.00    -0.291 N 
ATOM     26  H9  UNL     1     -16.450 -29.231  16.717  1.00  0.00     0.188 HD
BRANCH  25  27
HETATM   27  N10 UNL     1     -17.936 -27.761  16.478  1.00  0.00    -0.344 N 
ATOM     28 2H10 UNL     1     -18.866 -28.176  16.544  1.00  0.00     0.176 HD
ATOM     29 1H10 UNL     1     -17.770 -26.896  15.964  1.00  0.00     0.176 HD
ENDBRANCH  25  27
ENDBRANCH  20  25
ENDBRANCH   4   8
ENDBRANCH   3   4
TORSDOF 6
ENDMDL
MODEL 2
REMARK VINA RESULT: -7.598304545      1.546      5.509
REMARK  6 active torsions:
REMARK  status: ('A' for Active; 'I' for Inactive)
REMARK    1  A    between atoms: C2_3  and  N2_4 
REMARK    2  A    between atoms: N2_4  and  N3_5 
REMARK    3  A    between atoms: N2_4  and  C3_8 
REMARK    4  A    between atoms: C6_17  and  N7_18 
REMARK    5  A    between atoms: C7_23  and  N9_24 
REMARK    6  A    between atoms: N9_24  and  N10_26 
ROOT
HETATM    1  N1  UNL     1     -14.668 -28.283  23.576  1.00  0.00    -0.191 NA
HETATM    2  C1  UNL     1     -14.025 -28.250  22.632  1.00  0.00     0.107 C 
HETATM    3  C2  UNL     1     -13.232 -28.187  21.440  1.00  0.00     0.211 C 
ENDROOT
BRANCH   3   4
HETATM    4  N2  UNL     1     -13.578 -27.196  20.467  1.00  0.00    -0.246 N 
BRANCH   4   5
HETATM    5  N3  UNL     1     -12.866 -26.022  20.373  1.00  0.00    -0.337 N 
ATOM      6  H32 UNL     1     -11.864 -26.019  20.564  1.00  0.00     0.177 HD
ATOM      7  H31 UNL     1     -13.308 -25.169  20.030  1.00  0.00     0.177 HD
ENDBRANCH   4   5
BRANCH   4   8
HETATM    8  C3  UNL     1     -14.741 -27.382  19.677  1.00  0.00     0.145 A 
HETATM    9  N4  UNL     1     -15.907 -26.852  20.175  1.00  0.00    -0.336 N 
HETATM   10  C4  UNL     1     -17.083 -26.993  19.587  1.00  0.00     0.183 A 
ATOM     11  H4  UNL     1     -15.863 -26.321  21.044  1.00  0.00     0.168 HD
HETATM   12  N5  UNL     1     -17.145 -27.688  18.447  1.00  0.00    -0.337 N 
HETATM   13  C5  UNL     1     -16.026 -28.228  17.918  1.00  0.00     0.139 A 
ATOM     14  H5  UNL     1     -18.041 -27.812  17.975  1.00  0.00     0.168 HD
HETATM   15  N6  UNL     1     -16.076 -28.916  16.765  1.00  0.00    -0.176 N 
HETATM   16  C8  UNL     1     -14.771 -28.085  18.531  1.00  0.00     0.100 A 
HETATM   17  C6  UNL     1     -14.979 -29.453  16.203  1.00  0.00     0.679 A 
ATOM     18  H6  UNL     1     -16.976 -29.036  16.301  1.00  0.00     0.186 HD
HETATM   19  N8  UNL     1     -13.777 -29.319  16.780  1.00  0.00    -0.174 N 
HETATM   20  C7  UNL     1     -13.652 -28.635  17.947  1.00  0.00     0.153 A 
ATOM     21  H8  UNL     1     -12.953 -29.731  16.340  1.00  0.00     0.186 HD
BRANCH  17  22
HETATM   22  N7  UNL     1     -15.078 -30.116  15.079  1.00  0.00    -0.234 N 
ATOM     23  H72 UNL     1     -15.280 -29.609  14.217  1.00  0.00     0.174 HD
ATOM     24  H71 UNL     1     -14.953 -31.128  15.071  1.00  0.00     0.174 HD
ENDBRANCH  17  22
BRANCH  20  25
HETATM   25  N9  UNL     1     -12.493 -28.483  18.477  1.00  0.00    -0.291 N 
ATOM     26  H9  UNL     1     -12.297 -28.834  19.415  1.00  0.00     0.188 HD
BRANCH  25  27
HETATM   27  N10 UNL     1     -11.511 -27.828  17.743  1.00  0.00    -0.344 N 
ATOM     28 2H10 UNL     1     -10.861 -28.366  17.170  1.00  0.00     0.176 HD
ATOM     29 1H10 UNL     1     -11.463 -26.810  17.796  1.00  0.00     0.176 HD
ENDBRANCH  25  27
ENDBRANCH  20  25
ENDBRANCH   4   8
ENDBRANCH   3   4
TORSDOF 6
ENDMDL
MODEL 3
REMARK VINA RESULT: -7.435754819      1.830      4.443
REMARK  6 active torsions:
REMARK  status: ('A' for Active; 'I' for Inactive)
REMARK    1  A    between atoms: C2_3  and  N2_4 
REMARK    2  A    between atoms: N2_4  and  N3_5 
REMARK    3  A    between atoms: N2_4  and  C3_8 
REMARK    4  A    between atoms: C6_17  and  N7_18 
REMARK    5  A    between atoms: C7_23  and  N9_24 
REMARK    6  A    between atoms: N9_24  and  N10_26 
ROOT
HETATM    1  N1  UNL     1     -11.166 -30.163  22.302  1.00  0.00    -0.191 NA
HETATM    2  C1  UNL     1     -11.598 -29.789  21.313  1.00  0.00     0.107 C 
HETATM    3  C2  UNL     1     -12.142 -29.295  20.083  1.00  0.00     0.211 C 
ENDROOT
BRANCH   3   4
HETATM    4  N2  UNL     1     -12.585 -27.934  20.055  1.00  0.00    -0.246 N 
BRANCH   4   5
HETATM    5  N3  UNL     1     -11.685 -26.903  19.898  1.00  0.00    -0.337 N 
ATOM      6  H32 UNL     1     -12.023 -25.950  19.773  1.00  0.00     0.177 HD
ATOM      7  H31 UNL     1     -10.683 -27.067  19.990  1.00  0.00     0.177 HD
ENDBRANCH   4   5
BRANCH   4   8
HETATM    8  C3  UNL     1     -13.949 -27.646  20.312  1.00  0.00     0.145 A 
HETATM    9  N4  UNL     1     -14.293 -27.448  21.627  1.00  0.00    -0.336 N 
HETATM   10  C4  UNL     1     -15.533 -27.232  22.034  1.00  0.00     0.183 A 
ATOM     11  H4  UNL     1     -13.552 -27.469  22.328  1.00  0.00     0.168 HD
HETATM   12  N5  UNL     1     -16.507 -27.204  21.119  1.00  0.00    -0.337 N 
HETATM   13  C5  UNL     1     -16.218 -27.393  19.813  1.00  0.00     0.139 A 
ATOM     14  H5  UNL     1     -17.471 -27.040  21.408  1.00  0.00     0.168 HD
HETATM   15  N6  UNL     1     -17.189 -27.352  18.884  1.00  0.00    -0.176 N 
HETATM   16  C8  UNL     1     -14.907 -27.622  19.367  1.00  0.00     0.100 A 
HETATM   17  C6  UNL     1     -16.934 -27.520  17.575  1.00  0.00     0.679 A 
ATOM     18  H6  UNL     1     -18.150 -27.189  19.182  1.00  0.00     0.186 HD
HETATM   19  N8  UNL     1     -15.685 -27.737  17.141  1.00  0.00    -0.174 N 
HETATM   20  C7  UNL     1     -14.655 -27.791  18.024  1.00  0.00     0.153 A 
ATOM     21  H8  UNL     1     -15.508 -27.862  16.144  1.00  0.00     0.186 HD
BRANCH  17  22
HETATM   22  N7  UNL     1     -17.913 -27.473  16.707  1.00  0.00    -0.234 N 
ATOM     23  H72 UNL     1     -17.738 -27.756  15.743  1.00  0.00     0.174 HD
ATOM     24  H71 UNL     1     -18.837 -27.157  16.999  1.00  0.00     0.174 HD
ENDBRANCH  17  22
BRANCH  20  25
HETATM   25  N9  UNL     1     -13.456 -27.967  17.599  1.00  0.00    -0.291 N 
ATOM     26  H9  UNL     1     -12.689 -27.391  17.946  1.00  0.00     0.188 HD
BRANCH  25  27
HETATM   27  N10 UNL     1     -13.229 -28.960  16.653  1.00  0.00    -0.344 N 
ATOM     28 2H10 UNL     1     -12.498 -28.837  15.953  1.00  0.00     0.176 HD
ATOM     29 1H10 UNL     1     -13.808 -29.800  16.684  1.00  0.00     0.176 HD
ENDBRANCH  25  27
ENDBRANCH  20  25
ENDBRANCH   4   8
ENDBRANCH   3   4
TORSDOF 6
ENDMDL
MODEL 4
REMARK VINA RESULT: -7.110084703      1.781      2.616
REMARK  6 active torsions:
REMARK  status: ('A' for Active; 'I' for Inactive)
REMARK    1  A    between atoms: C2_3  and  N2_4 
REMARK    2  A    between atoms: N2_4  and  N3_5 
REMARK    3  A    between atoms: N2_4  and  C3_8 
REMARK    4  A    between atoms: C6_17  and  N7_18 
REMARK    5  A    between atoms: C7_23  and  N9_24 
REMARK    6  A    between atoms: N9_24  and  N10_26 
ROOT
HETATM    1  N1  UNL     1     -18.004 -27.954  16.411  1.00  0.00    -0.191 NA
HETATM    2  C1  UNL     1     -16.863 -27.909  16.367  1.00  0.00     0.107 C 
HETATM    3  C2  UNL     1     -15.431 -27.872  16.329  1.00  0.00     0.211 C 
ENDROOT
BRANCH   3   4
HETATM    4  N2  UNL     1     -14.724 -28.730  17.231  1.00  0.00    -0.246 N 
BRANCH   4   5
HETATM    5  N3  UNL     1     -15.050 -30.063  17.337  1.00  0.00    -0.337 N 
ATOM      6  H32 UNL     1     -15.651 -30.496  16.637  1.00  0.00     0.177 HD
ATOM      7  H31 UNL     1     -14.629 -30.648  18.059  1.00  0.00     0.177 HD
ENDBRANCH   4   5
BRANCH   4   8
HETATM    8  C3  UNL     1     -13.760 -28.167  18.106  1.00  0.00     0.145 A 
HETATM    9  N4  UNL     1     -12.460 -28.169  17.662  1.00  0.00    -0.336 N 
HETATM   10  C4  UNL     1     -11.440 -27.736  18.385  1.00  0.00     0.183 A 
ATOM     11  H4  UNL     1     -12.270 -28.522  16.724  1.00  0.00     0.168 HD
HETATM   12  N5  UNL     1     -11.684 -27.273  19.615  1.00  0.00    -0.337 N 
HETATM   13  C5  UNL     1     -12.946 -27.250  20.095  1.00  0.00     0.139 A 
ATOM     14  H5  UNL     1     -10.914 -26.934  20.192  1.00  0.00     0.168 HD
HETATM   15  N6  UNL     1     -13.203 -26.772  21.325  1.00  0.00    -0.176 N 
HETATM   16  C8  UNL     1     -14.038 -27.704  19.338  1.00  0.00     0.100 A 
HETATM   17  C6  UNL     1     -14.449 -26.720  21.827  1.00  0.00     0.679 A 
ATOM     18  H6  UNL     1     -12.427 -26.437  21.895  1.00  0.00     0.186 HD
HETATM   19  N8  UNL     1     -15.496 -27.149  21.110  1.00  0.00    -0.174 N 
HETATM   20  C7  UNL     1     -15.311 -27.645  19.860  1.00  0.00     0.153 A 
ATOM     21  H8  UNL     1     -16.436 -27.103  21.505  1.00  0.00     0.186 HD
BRANCH  17  22
HETATM   22  N7  UNL     1     -14.649 -26.246  23.031  1.00  0.00    -0.234 N 
ATOM     23  H72 UNL     1     -13.889 -26.275  23.711  1.00  0.00     0.174 HD
ATOM     24  H71 UNL     1     -15.557 -25.854  23.280  1.00  0.00     0.174 HD
ENDBRANCH  17  22
BRANCH  20  25
HETATM   25  N9  UNL     1     -16.322 -28.025  19.166  1.00  0.00    -0.291 N 
ATOM     26  H9  UNL     1     -16.211 -28.308  18.192  1.00  0.00     0.188 HD
BRANCH  25  27
HETATM   27  N10 UNL     1     -17.572 -28.040  19.773  1.00  0.00    -0.344 N 
ATOM     28 2H10 UNL     1     -17.655 -27.847  20.771  1.00  0.00     0.176 HD
ATOM     29 1H10 UNL     1     -18.389 -28.248  19.198  1.00  0.00     0.176 HD
ENDBRANCH  25  27
ENDBRANCH  20  25
ENDBRANCH   4   8
ENDBRANCH   3   4
TORSDOF 6
ENDMDL
MODEL 5
REMARK VINA RESULT: -7.043063495      1.972      5.174
REMARK  6 active torsions:
REMARK  status: ('A' for Active; 'I' for Inactive)
REMARK    1  A    between atoms: C2_3  and  N2_4 
REMARK    2  A    between atoms: N2_4  and  N3_5 
REMARK    3  A    between atoms: N2_4  and  C3_8 
REMARK    4  A    between atoms: C6_17  and  N7_18 
REMARK    5  A    between atoms: C7_23  and  N9_24 
REMARK    6  A    between atoms: N9_24  and  N10_26 
ROOT
HETATM    1  N1  UNL     1     -15.322 -24.903  24.210  1.00  0.00    -0.191 NA
HETATM    2  C1  UNL     1     -14.865 -25.189  23.202  1.00  0.00     0.107 C 
HETATM    3  C2  UNL     1     -14.302 -25.572  21.942  1.00  0.00     0.211 C 
ENDROOT
BRANCH   3   4
HETATM    4  N2  UNL     1     -14.429 -26.943  21.550  1.00  0.00    -0.246 N 
BRANCH   4   5
HETATM    5  N3  UNL     1     -14.737 -27.915  22.476  1.00  0.00    -0.337 N 
ATOM      6  H32 UNL     1     -14.859 -27.662  23.456  1.00  0.00     0.177 HD
ATOM      7  H31 UNL     1     -14.930 -28.872  22.183  1.00  0.00     0.177 HD
ENDBRANCH   4   5
BRANCH   4   8
HETATM    8  C3  UNL     1     -14.116 -27.312  20.217  1.00  0.00     0.145 A 
HETATM    9  N4  UNL     1     -12.788 -27.532  19.942  1.00  0.00    -0.336 N 
HETATM   10  C4  UNL     1     -12.331 -27.823  18.735  1.00  0.00     0.183 A 
ATOM     11  H4  UNL     1     -12.119 -27.468  20.709  1.00  0.00     0.168 HD
HETATM   12  N5  UNL     1     -13.204 -27.907  17.727  1.00  0.00    -0.337 N 
HETATM   13  C5  UNL     1     -14.520 -27.700  17.948  1.00  0.00     0.139 A 
ATOM     14  H5  UNL     1     -12.875 -28.130  16.787  1.00  0.00     0.168 HD
HETATM   15  N6  UNL     1     -15.407 -27.797  16.944  1.00  0.00    -0.176 N 
HETATM   16  C8  UNL     1     -15.020 -27.392  19.224  1.00  0.00     0.100 A 
HETATM   17  C6  UNL     1     -16.725 -27.612  17.133  1.00  0.00     0.679 A 
ATOM     18  H6  UNL     1     -15.069 -28.018  16.008  1.00  0.00     0.186 HD
HETATM   19  N8  UNL     1     -17.211 -27.320  18.347  1.00  0.00    -0.174 N 
HETATM   20  C7  UNL     1     -16.371 -27.206  19.409  1.00  0.00     0.153 A 
ATOM     21  H8  UNL     1     -18.214 -27.184  18.474  1.00  0.00     0.186 HD
BRANCH  17  22
HETATM   22  N7  UNL     1     -17.551 -27.716  16.122  1.00  0.00    -0.234 N 
ATOM     23  H72 UNL     1     -17.336 -27.232  15.251  1.00  0.00     0.174 HD
ATOM     24  H71 UNL     1     -18.398 -28.277  16.212  1.00  0.00     0.174 HD
ENDBRANCH  17  22
BRANCH  20  25
HETATM   25  N9  UNL     1     -16.846 -26.959  20.575  1.00  0.00    -0.291 N 
ATOM     26  H9  UNL     1     -16.474 -27.428  21.401  1.00  0.00     0.188 HD
BRANCH  25  27
HETATM   27  N10 UNL     1     -17.879 -26.035  20.686  1.00  0.00    -0.344 N 
ATOM     28 2H10 UNL     1     -18.190 -25.520  19.863  1.00  0.00     0.176 HD
ATOM     29 1H10 UNL     1     -18.307 -25.894  21.602  1.00  0.00     0.176 HD
ENDBRANCH  25  27
ENDBRANCH  20  25
ENDBRANCH   4   8
ENDBRANCH   3   4
TORSDOF 6
ENDMDL
