MODEL 1
REMARK VINA RESULT: -8.331547615      0.000      0.000
REMARK  2 active torsions:
REMARK  status: ('A' for Active; 'I' for Inactive)
REMARK    1  A    between atoms: O1_2  and  C2_3 
REMARK    2  A    between atoms: C9_12  and  O3_13 
ROOT
HETATM    1  C2  UNL     1      12.805  45.733  43.246  1.00  0.00     0.138 C 
HETATM    2  C3  UNL     1      12.013  46.381  44.063  1.00  0.00    -0.042 C 
HETATM    3  C4  UNL     1      12.133  47.584  44.915  1.00  0.00     0.070 C 
HETATM    4  C5  UNL     1      10.687  47.868  44.439  1.00  0.00     0.026 C 
HETATM    5  C6  UNL     1      10.638  46.299  44.503  1.00  0.00     0.057 C 
HETATM    6  C7  UNL     1      10.368  45.920  45.914  1.00  0.00     0.099 C 
HETATM    7  O2  UNL     1      10.806  46.989  46.732  1.00  0.00    -0.345 OA
HETATM    8  C8  UNL     1      12.133  47.204  46.382  1.00  0.00     0.173 C 
HETATM    9 CL1  UNL     1      12.771  48.608  47.282  1.00  0.00    -0.084 Cl
HETATM   10  C9  UNL     1      13.073  46.075  46.558  1.00  0.00     0.187 C 
HETATM   11  C10 UNL     1      12.466  44.752  46.869  1.00  0.00     0.122 C 
HETATM   12 BR1  UNL     1      13.375  43.223  46.183  1.00  0.00    -0.084 Br
HETATM   13  C11 UNL     1      11.020  44.739  46.478  1.00  0.00    -0.031 C 
HETATM   14  C12 UNL     1      10.261  43.660  46.768  1.00  0.00    -0.015 C 
HETATM   15  C13 UNL     1       8.805  43.760  46.507  1.00  0.00     0.009 C 
HETATM   16  C14 UNL     1       8.381  44.554  45.339  1.00  0.00     0.016 C 
HETATM   17  C15 UNL     1       8.870  45.793  46.116  1.00  0.00     0.027 C 
HETATM   18  C16 UNL     1       8.469  45.043  47.337  1.00  0.00     0.016 C 
ENDROOT
BRANCH   1  19
HETATM   19  O1  UNL     1      12.444  44.599  42.546  1.00  0.00    -0.368 OA
HETATM   20  C1  UNL     1      11.788  44.699  41.322  1.00  0.00     0.208 C 
ENDBRANCH   1  19
BRANCH  10  21
HETATM   21  O3  UNL     1      14.013  46.360  47.602  1.00  0.00    -0.390 OA
ATOM     22  H3  UNL     1      14.901  46.349  47.263  1.00  0.00     0.210 HD
ENDBRANCH  10  21
TORSDOF 2
ENDMDL
MODEL 2
REMARK VINA RESULT: -8.127529336      1.649      2.009
REMARK  2 active torsions:
REMARK  status: ('A' for Active; 'I' for Inactive)
REMARK    1  A    between atoms: O1_2  and  C2_3 
REMARK    2  A    between atoms: C9_12  and  O3_13 
ROOT
HETATM    1  C2  UNL     1      13.266  45.098  43.686  1.00  0.00     0.138 C 
HETATM    2  C3  UNL     1      12.081  45.646  43.775  1.00  0.00    -0.042 C 
HETATM    3  C4  UNL     1      11.519  46.991  43.519  1.00  0.00     0.070 C 
HETATM    4  C5  UNL     1      10.318  46.202  42.943  1.00  0.00     0.026 C 
HETATM    5  C6  UNL     1      10.736  45.230  44.104  1.00  0.00     0.057 C 
HETATM    6  C7  UNL     1      10.122  45.743  45.356  1.00  0.00     0.099 C 
HETATM    7  O2  UNL     1       9.895  47.129  45.180  1.00  0.00    -0.345 OA
HETATM    8  C8  UNL     1      11.125  47.663  44.818  1.00  0.00     0.173 C 
HETATM    9 CL1  UNL     1      10.943  49.404  44.467  1.00  0.00    -0.084 Cl
HETATM   10  C9  UNL     1      12.244  47.497  45.772  1.00  0.00     0.187 C 
HETATM   11  C10 UNL     1      12.007  46.576  46.916  1.00  0.00     0.122 C 
HETATM   12 BR1  UNL     1      13.522  45.608  47.549  1.00  0.00    -0.084 Br
HETATM   13  C11 UNL     1      10.868  45.653  46.611  1.00  0.00    -0.031 C 
HETATM   14  C12 UNL     1      10.427  44.800  47.562  1.00  0.00    -0.015 C 
HETATM   15  C13 UNL     1       9.199  44.024  47.267  1.00  0.00     0.009 C 
HETATM   16  C14 UNL     1       8.986  43.601  45.871  1.00  0.00     0.016 C 
HETATM   17  C15 UNL     1       8.765  45.093  45.546  1.00  0.00     0.027 C 
HETATM   18  C16 UNL     1       8.216  45.193  46.926  1.00  0.00     0.016 C 
ENDROOT
BRANCH   1  19
HETATM   19  O1  UNL     1      13.541  43.781  43.993  1.00  0.00    -0.368 OA
HETATM   20  C1  UNL     1      14.760  43.423  44.564  1.00  0.00     0.208 C 
ENDBRANCH   1  19
BRANCH  10  21
HETATM   21  O3  UNL     1      12.625  48.764  46.327  1.00  0.00    -0.390 OA
ATOM     22  H3  UNL     1      13.448  49.058  45.954  1.00  0.00     0.210 HD
ENDBRANCH  10  21
TORSDOF 2
ENDMDL
MODEL 3
REMARK VINA RESULT: -7.839001927      2.089      4.339
REMARK  2 active torsions:
REMARK  status: ('A' for Active; 'I' for Inactive)
REMARK    1  A    between atoms: O1_2  and  C2_3 
REMARK    2  A    between atoms: C9_12  and  O3_13 
ROOT
HETATM    1  C2  UNL     1       9.786  45.525  47.324  1.00  0.00     0.138 C 
HETATM    2  C3  UNL     1      10.956  45.013  47.034  1.00  0.00    -0.042 C 
HETATM    3  C4  UNL     1      12.285  44.988  47.682  1.00  0.00     0.070 C 
HETATM    4  C5  UNL     1      12.324  43.524  47.178  1.00  0.00     0.026 C 
HETATM    5  C6  UNL     1      11.530  44.186  45.996  1.00  0.00     0.057 C 
HETATM    6  C7  UNL     1      12.527  44.795  45.077  1.00  0.00     0.099 C 
HETATM    7  O2  UNL     1      13.695  45.057  45.832  1.00  0.00    -0.345 OA
HETATM    8  C8  UNL     1      13.277  45.831  46.906  1.00  0.00     0.173 C 
HETATM    9 CL1  UNL     1      14.656  46.143  47.995  1.00  0.00    -0.084 Cl
HETATM   10  C9  UNL     1      12.627  47.124  46.598  1.00  0.00     0.187 C 
HETATM   11  C10 UNL     1      12.275  47.365  45.173  1.00  0.00     0.122 C 
HETATM   12 BR1  UNL     1      10.710  48.405  44.853  1.00  0.00    -0.084 Br
HETATM   13  C11 UNL     1      12.221  46.068  44.426  1.00  0.00    -0.031 C 
HETATM   14  C12 UNL     1      12.013  46.075  43.091  1.00  0.00    -0.015 C 
HETATM   15  C13 UNL     1      12.128  44.782  42.376  1.00  0.00     0.009 C 
HETATM   16  C14 UNL     1      11.687  43.572  43.091  1.00  0.00     0.016 C 
HETATM   17  C15 UNL     1      12.905  43.781  44.014  1.00  0.00     0.027 C 
HETATM   18  C16 UNL     1      13.569  44.358  42.814  1.00  0.00     0.016 C 
ENDROOT
BRANCH   1  19
HETATM   19  O1  UNL     1       8.665  45.405  46.528  1.00  0.00    -0.368 OA
HETATM   20  C1  UNL     1       7.813  44.312  46.661  1.00  0.00     0.208 C 
ENDBRANCH   1  19
BRANCH  10  21
HETATM   21  O3  UNL     1      13.458  48.217  47.014  1.00  0.00    -0.390 OA
ATOM     22  H3  UNL     1      13.857  48.031  47.856  1.00  0.00     0.210 HD
ENDBRANCH  10  21
TORSDOF 2
ENDMDL
MODEL 4
REMARK VINA RESULT: -7.731996422      2.334      4.120
REMARK  2 active torsions:
REMARK  status: ('A' for Active; 'I' for Inactive)
REMARK    1  A    between atoms: O1_2  and  C2_3 
REMARK    2  A    between atoms: C9_12  and  O3_13 
ROOT
HETATM    1  C2  UNL     1      13.988  46.059  46.700  1.00  0.00     0.138 C 
HETATM    2  C3  UNL     1      13.270  44.986  46.483  1.00  0.00    -0.042 C 
HETATM    3  C4  UNL     1      13.405  43.781  45.635  1.00  0.00     0.070 C 
HETATM    4  C5  UNL     1      12.820  43.047  46.866  1.00  0.00     0.026 C 
HETATM    5  C6  UNL     1      12.042  44.406  46.979  1.00  0.00     0.057 C 
HETATM    6  C7  UNL     1      10.875  44.328  46.062  1.00  0.00     0.099 C 
HETATM    7  O2  UNL     1      11.186  43.379  45.060  1.00  0.00    -0.345 OA
HETATM    8  C8  UNL     1      12.390  43.801  44.510  1.00  0.00     0.173 C 
HETATM    9 CL1  UNL     1      12.942  42.617  43.293  1.00  0.00    -0.084 Cl
HETATM   10  C9  UNL     1      12.421  45.146  43.896  1.00  0.00     0.187 C 
HETATM   11  C10 UNL     1      11.231  46.008  44.131  1.00  0.00     0.122 C 
HETATM   12 BR1  UNL     1      11.555  47.883  44.249  1.00  0.00    -0.084 Br
HETATM   13  C11 UNL     1      10.463  45.519  45.321  1.00  0.00    -0.031 C 
HETATM   14  C12 UNL     1       9.291  46.107  45.646  1.00  0.00    -0.015 C 
HETATM   15  C13 UNL     1       8.493  45.485  46.729  1.00  0.00     0.009 C 
HETATM   16  C14 UNL     1       9.233  44.862  47.841  1.00  0.00     0.016 C 
HETATM   17  C15 UNL     1       9.680  43.790  46.825  1.00  0.00     0.027 C 
HETATM   18  C16 UNL     1       8.365  44.029  46.170  1.00  0.00     0.016 C 
ENDROOT
BRANCH   1  19
HETATM   19  O1  UNL     1      13.632  47.071  47.568  1.00  0.00    -0.368 OA
HETATM   20  C1  UNL     1      12.970  48.205  47.104  1.00  0.00     0.208 C 
ENDBRANCH   1  19
BRANCH  10  21
HETATM   21  O3  UNL     1      12.591  45.048  42.475  1.00  0.00    -0.390 OA
ATOM     22  H3  UNL     1      11.772  45.227  42.028  1.00  0.00     0.210 HD
ENDBRANCH  10  21
TORSDOF 2
ENDMDL
MODEL 5
REMARK VINA RESULT: -7.566610003      1.656      1.785
REMARK  2 active torsions:
REMARK  status: ('A' for Active; 'I' for Inactive)
REMARK    1  A    between atoms: O1_2  and  C2_3 
REMARK    2  A    between atoms: C9_12  and  O3_13 
ROOT
HETATM    1  C2  UNL     1      12.189  47.144  43.312  1.00  0.00     0.138 C 
HETATM    2  C3  UNL     1      11.972  47.070  44.601  1.00  0.00    -0.042 C 
HETATM    3  C4  UNL     1      12.803  47.191  45.819  1.00  0.00     0.070 C 
HETATM    4  C5  UNL     1      11.575  47.947  46.385  1.00  0.00     0.026 C 
HETATM    5  C6  UNL     1      10.839  46.893  45.483  1.00  0.00     0.057 C 
HETATM    6  C7  UNL     1      10.741  45.632  46.263  1.00  0.00     0.099 C 
HETATM    7  O2  UNL     1      11.779  45.645  47.224  1.00  0.00    -0.345 OA
HETATM    8  C8  UNL     1      12.949  45.848  46.504  1.00  0.00     0.173 C 
HETATM    9 CL1  UNL     1      14.329  45.988  47.629  1.00  0.00    -0.084 Cl
HETATM   10  C9  UNL     1      13.292  44.847  45.471  1.00  0.00     0.187 C 
HETATM   11  C10 UNL     1      12.239  43.849  45.141  1.00  0.00     0.122 C 
HETATM   12 BR1  UNL     1      12.189  43.239  43.336  1.00  0.00    -0.084 Br
HETATM   13  C11 UNL     1      10.896  44.349  45.578  1.00  0.00    -0.031 C 
HETATM   14  C12 UNL     1       9.815  43.548  45.457  1.00  0.00    -0.015 C 
HETATM   15  C13 UNL     1       8.543  44.025  46.049  1.00  0.00     0.009 C 
HETATM   16  C14 UNL     1       8.280  45.475  46.008  1.00  0.00     0.016 C 
HETATM   17  C15 UNL     1       9.430  45.622  47.026  1.00  0.00     0.027 C 
HETATM   18  C16 UNL     1       9.009  44.283  47.521  1.00  0.00     0.016 C 
ENDROOT
BRANCH   1  19
HETATM   19  O1  UNL     1      11.214  46.989  42.347  1.00  0.00    -0.368 OA
HETATM   20  C1  UNL     1      11.503  46.355  41.141  1.00  0.00     0.208 C 
ENDBRANCH   1  19
BRANCH  10  21
HETATM   21  O3  UNL     1      14.462  44.110  45.852  1.00  0.00    -0.390 OA
ATOM     22  H3  UNL     1      14.232  43.403  46.445  1.00  0.00     0.210 HD
ENDBRANCH  10  21
TORSDOF 2
ENDMDL
