MODEL 1
REMARK VINA RESULT: -7.155721144      0.000      0.000
REMARK  4 active torsions:
REMARK  status: ('A' for Active; 'I' for Inactive)
REMARK    1  A    between atoms: N1_1  and  C1_4 
REMARK    2  A    between atoms: N3_9  and  N4_10 
REMARK    3  A    between atoms: N5_13  and  N6_14 
REMARK    4  A    between atoms: C3_16  and  C4_17 
ROOT
HETATM    1  N6  UNL     1      16.931 -12.895   5.531  1.00  0.00    -0.273 N 
ATOM      2  H6  UNL     1      16.009 -13.057   5.126  1.00  0.00     0.188 HD
HETATM    3  C3  UNL     1      17.521 -13.833   6.154  1.00  0.00     0.127 C 
ENDROOT
BRANCH   1   4
HETATM    4  N5  UNL     1      17.533 -11.660   5.401  1.00  0.00     0.005 N 
HETATM    5  C1  UNL     1      17.338 -10.630   6.274  1.00  0.00     0.718 A 
HETATM    6  N2  UNL     1      18.090  -9.619   5.803  1.00  0.00    -0.136 N 
HETATM    7  C2  UNL     1      18.732  -9.994   4.680  1.00  0.00     0.377 A 
ATOM      8  H2  UNL     1      18.163  -8.698   6.234  1.00  0.00     0.189 HD
HETATM    9  O1  UNL     1      19.525  -9.299   3.967  1.00  0.00    -0.243 OA
HETATM   10  N3  UNL     1      18.367 -11.263   4.456  1.00  0.00    -0.111 N 
BRANCH   5  11
HETATM   11  N1  UNL     1      16.588 -10.637   7.327  1.00  0.00    -0.231 N 
ATOM     12  H12 UNL     1      16.869 -10.402   8.280  1.00  0.00     0.174 HD
ATOM     13  H11 UNL     1      15.599 -10.875   7.389  1.00  0.00     0.174 HD
ENDBRANCH   5  11
BRANCH  10  14
HETATM   14  N4  UNL     1      18.840 -12.011   3.357  1.00  0.00    -0.318 N 
ATOM     15  H42 UNL     1      18.792 -13.021   3.225  1.00  0.00     0.179 HD
ATOM     16  H41 UNL     1      19.298 -11.581   2.554  1.00  0.00     0.179 HD
ENDBRANCH  10  14
ENDBRANCH   1   4
BRANCH   3  17
HETATM   17  C4  UNL     1      16.928 -15.173   6.323  1.00  0.00     0.056 A 
HETATM   18  C5  UNL     1      17.149 -15.917   7.462  1.00  0.00     0.159 A 
HETATM   19  O2  UNL     1      16.622 -17.106   7.612  1.00  0.00    -0.314 OA
HETATM   20  C6  UNL     1      15.849 -17.675   6.695  1.00  0.00     0.173 A 
HETATM   21  C7  UNL     1      15.581 -16.997   5.530  1.00  0.00     0.126 A 
HETATM   22  C9  UNL     1      15.056 -18.824   6.302  1.00  0.00     0.282 A 
HETATM   23  C8  UNL     1      16.130 -15.732   5.350  1.00  0.00     0.215 A 
HETATM   24  N7  UNL     1      14.793 -18.105   5.109  1.00  0.00    -0.315 N 
HETATM   25  O3  UNL     1      15.902 -15.101   4.307  1.00  0.00    -0.285 OA
ATOM     26  H7  UNL     1      14.249 -18.306   4.270  1.00  0.00     0.169 HD
HETATM   27  O4  UNL     1      14.738 -19.956   6.792  1.00  0.00    -0.265 OA
ENDBRANCH   3  17
TORSDOF 4
ENDMDL
MODEL 2
REMARK VINA RESULT: -6.900925539      2.349      7.398
REMARK  4 active torsions:
REMARK  status: ('A' for Active; 'I' for Inactive)
REMARK    1  A    between atoms: N1_1  and  C1_4 
REMARK    2  A    between atoms: N3_9  and  N4_10 
REMARK    3  A    between atoms: N5_13  and  N6_14 
REMARK    4  A    between atoms: C3_16  and  C4_17 
ROOT
HETATM    1  N6  UNL     1      16.094 -13.601   5.757  1.00  0.00    -0.273 N 
ATOM      2  H6  UNL     1      15.463 -13.172   6.435  1.00  0.00     0.188 HD
HETATM    3  C3  UNL     1      17.045 -12.923   5.260  1.00  0.00     0.127 C 
ENDROOT
BRANCH   1   4
HETATM    4  N5  UNL     1      15.909 -14.918   5.385  1.00  0.00     0.005 N 
HETATM    5  C1  UNL     1      15.006 -15.317   4.443  1.00  0.00     0.718 A 
HETATM    6  N2  UNL     1      15.134 -16.653   4.373  1.00  0.00    -0.136 N 
HETATM    7  C2  UNL     1      16.077 -17.081   5.233  1.00  0.00     0.377 A 
ATOM      8  H2  UNL     1      14.592 -17.258   3.756  1.00  0.00     0.189 HD
HETATM    9  O1  UNL     1      16.462 -18.278   5.435  1.00  0.00    -0.243 OA
HETATM   10  N3  UNL     1      16.539 -15.984   5.846  1.00  0.00    -0.111 N 
BRANCH   5  11
HETATM   11  N1  UNL     1      14.204 -14.559   3.768  1.00  0.00    -0.231 N 
ATOM     12  H12 UNL     1      13.807 -13.668   4.068  1.00  0.00     0.174 HD
ATOM     13  H11 UNL     1      13.833 -14.717   2.832  1.00  0.00     0.174 HD
ENDBRANCH   5  11
BRANCH  10  14
HETATM   14  N4  UNL     1      17.551 -16.027   6.828  1.00  0.00    -0.318 N 
ATOM     15  H42 UNL     1      17.740 -16.775   7.495  1.00  0.00     0.179 HD
ATOM     16  H41 UNL     1      18.219 -15.268   6.966  1.00  0.00     0.179 HD
ENDBRANCH  10  14
ENDBRANCH   1   4
BRANCH   3  17
HETATM   17  C4  UNL     1      17.292 -11.513   5.621  1.00  0.00     0.056 A 
HETATM   18  C5  UNL     1      16.471 -10.842   6.501  1.00  0.00     0.159 A 
HETATM   19  O2  UNL     1      16.692  -9.592   6.820  1.00  0.00    -0.314 OA
HETATM   20  C6  UNL     1      17.704  -8.889   6.329  1.00  0.00     0.173 A 
HETATM   21  C7  UNL     1      18.569  -9.486   5.444  1.00  0.00     0.126 A 
HETATM   22  C9  UNL     1      18.412  -7.623   6.288  1.00  0.00     0.282 A 
HETATM   23  C8  UNL     1      18.354 -10.815   5.091  1.00  0.00     0.215 A 
HETATM   24  N7  UNL     1      19.290  -8.261   5.377  1.00  0.00    -0.315 N 
HETATM   25  O3  UNL     1      19.121 -11.375   4.294  1.00  0.00    -0.285 OA
ATOM     26  H7  UNL     1      20.120  -7.957   4.868  1.00  0.00     0.169 HD
HETATM   27  O4  UNL     1      18.302  -6.469   6.818  1.00  0.00    -0.265 OA
ENDBRANCH   3  17
TORSDOF 4
ENDMDL
MODEL 3
REMARK VINA RESULT: -6.861741049      0.858      1.826
REMARK  4 active torsions:
REMARK  status: ('A' for Active; 'I' for Inactive)
REMARK    1  A    between atoms: N1_1  and  C1_4 
REMARK    2  A    between atoms: N3_9  and  N4_10 
REMARK    3  A    between atoms: N5_13  and  N6_14 
REMARK    4  A    between atoms: C3_16  and  C4_17 
ROOT
HETATM    1  N6  UNL     1      17.068 -12.875   5.384  1.00  0.00    -0.273 N 
ATOM      2  H6  UNL     1      16.321 -13.130   4.737  1.00  0.00     0.188 HD
HETATM    3  C3  UNL     1      17.468 -13.713   6.251  1.00  0.00     0.127 C 
ENDROOT
BRANCH   1   4
HETATM    4  N5  UNL     1      17.640 -11.621   5.312  1.00  0.00     0.005 N 
HETATM    5  C1  UNL     1      18.532 -11.252   4.347  1.00  0.00     0.718 A 
HETATM    6  N2  UNL     1      18.846  -9.974   4.625  1.00  0.00    -0.136 N 
HETATM    7  C2  UNL     1      18.182  -9.553   5.718  1.00  0.00     0.377 A 
ATOM      8  H2  UNL     1      19.496  -9.404   4.084  1.00  0.00     0.189 HD
HETATM    9  O1  UNL     1      18.234  -8.406   6.268  1.00  0.00    -0.243 OA
HETATM   10  N3  UNL     1      17.443 -10.596   6.122  1.00  0.00    -0.111 N 
BRANCH   5  11
HETATM   11  N1  UNL     1      18.972 -11.984   3.377  1.00  0.00    -0.231 N 
ATOM     12  H12 UNL     1      18.949 -13.003   3.321  1.00  0.00     0.174 HD
ATOM     13  H11 UNL     1      19.411 -11.677   2.510  1.00  0.00     0.174 HD
ENDBRANCH   5  11
BRANCH  10  14
HETATM   14  N4  UNL     1      16.600 -10.542   7.251  1.00  0.00    -0.318 N 
ATOM     15  H42 UNL     1      15.837  -9.888   7.428  1.00  0.00     0.179 HD
ATOM     16  H41 UNL     1      16.685 -11.188   8.035  1.00  0.00     0.179 HD
ENDBRANCH  10  14
ENDBRANCH   1   4
BRANCH   3  17
HETATM   17  C4  UNL     1      16.895 -15.067   6.374  1.00  0.00     0.056 A 
HETATM   18  C5  UNL     1      17.128 -15.847   7.486  1.00  0.00     0.159 A 
HETATM   19  O2  UNL     1      16.618 -17.048   7.595  1.00  0.00    -0.314 OA
HETATM   20  C6  UNL     1      15.854 -17.596   6.658  1.00  0.00     0.173 A 
HETATM   21  C7  UNL     1      15.575 -16.882   5.518  1.00  0.00     0.126 A 
HETATM   22  C9  UNL     1      15.078 -18.743   6.226  1.00  0.00     0.282 A 
HETATM   23  C8  UNL     1      16.105 -15.603   5.381  1.00  0.00     0.215 A 
HETATM   24  N7  UNL     1      14.804 -17.987   5.058  1.00  0.00    -0.315 N 
HETATM   25  O3  UNL     1      15.867 -14.940   4.361  1.00  0.00    -0.285 OA
ATOM     26  H7  UNL     1      14.263 -18.167   4.213  1.00  0.00     0.169 HD
HETATM   27  O4  UNL     1      14.777 -19.896   6.676  1.00  0.00    -0.265 OA
ENDBRANCH   3  17
TORSDOF 4
ENDMDL
MODEL 4
REMARK VINA RESULT: -6.657660077      2.337      7.289
REMARK  4 active torsions:
REMARK  status: ('A' for Active; 'I' for Inactive)
REMARK    1  A    between atoms: N1_1  and  C1_4 
REMARK    2  A    between atoms: N3_9  and  N4_10 
REMARK    3  A    between atoms: N5_13  and  N6_14 
REMARK    4  A    between atoms: C3_16  and  C4_17 
ROOT
HETATM    1  N6  UNL     1      16.324 -14.164   6.529  1.00  0.00    -0.273 N 
ATOM      2  H6  UNL     1      15.540 -13.654   6.936  1.00  0.00     0.188 HD
HETATM    3  C3  UNL     1      17.322 -13.528   6.068  1.00  0.00     0.127 C 
ENDROOT
BRANCH   1   4
HETATM    4  N5  UNL     1      16.296 -15.544   6.481  1.00  0.00     0.005 N 
HETATM    5  C1  UNL     1      16.801 -16.344   7.464  1.00  0.00     0.718 A 
HETATM    6  N2  UNL     1      16.582 -17.602   7.045  1.00  0.00    -0.136 N 
HETATM    7  C2  UNL     1      15.965 -17.599   5.848  1.00  0.00     0.377 A 
ATOM      8  H2  UNL     1      16.846 -18.442   7.561  1.00  0.00     0.189 HD
HETATM    9  O1  UNL     1      15.604 -18.604   5.154  1.00  0.00    -0.243 OA
HETATM   10  N3  UNL     1      15.801 -16.309   5.524  1.00  0.00    -0.111 N 
BRANCH   5  11
HETATM   11  N1  UNL     1      17.367 -15.960   8.562  1.00  0.00    -0.231 N 
ATOM     12  H12 UNL     1      17.977 -16.516   9.162  1.00  0.00     0.174 HD
ATOM     13  H11 UNL     1      17.305 -15.047   9.012  1.00  0.00     0.174 HD
ENDBRANCH   5  11
BRANCH  10  14
HETATM   14  N4  UNL     1      15.184 -15.896   4.325  1.00  0.00    -0.318 N 
ATOM     15  H42 UNL     1      15.257 -14.987   3.869  1.00  0.00     0.179 HD
ATOM     16  H41 UNL     1      14.573 -16.505   3.781  1.00  0.00     0.179 HD
ENDBRANCH  10  14
ENDBRANCH   1   4
BRANCH   3  17
HETATM   17  C4  UNL     1      17.408 -12.055   6.093  1.00  0.00     0.056 A 
HETATM   18  C5  UNL     1      16.446 -11.289   6.715  1.00  0.00     0.159 A 
HETATM   19  O2  UNL     1      16.524  -9.983   6.736  1.00  0.00    -0.314 OA
HETATM   20  C6  UNL     1      17.518  -9.309   6.171  1.00  0.00     0.173 A 
HETATM   21  C7  UNL     1      18.518 -10.000   5.530  1.00  0.00     0.126 A 
HETATM   22  C9  UNL     1      18.114  -8.019   5.879  1.00  0.00     0.282 A 
HETATM   23  C8  UNL     1      18.456 -11.389   5.496  1.00  0.00     0.215 A 
HETATM   24  N7  UNL     1      19.134  -8.754   5.224  1.00  0.00    -0.315 N 
HETATM   25  O3  UNL     1      19.346 -12.035   4.923  1.00  0.00    -0.285 OA
ATOM     26  H7  UNL     1      19.983  -8.490   4.725  1.00  0.00     0.169 HD
HETATM   27  O4  UNL     1      17.851  -6.792   6.101  1.00  0.00    -0.265 OA
ENDBRANCH   3  17
TORSDOF 4
ENDMDL
MODEL 5
REMARK VINA RESULT: -6.624462230      2.334      7.216
REMARK  4 active torsions:
REMARK  status: ('A' for Active; 'I' for Inactive)
REMARK    1  A    between atoms: N1_1  and  C1_4 
REMARK    2  A    between atoms: N3_9  and  N4_10 
REMARK    3  A    between atoms: N5_13  and  N6_14 
REMARK    4  A    between atoms: C3_16  and  C4_17 
ROOT
HETATM    1  N6  UNL     1      16.270 -14.619   6.112  1.00  0.00    -0.273 N 
ATOM      2  H6  UNL     1      15.438 -14.035   6.025  1.00  0.00     0.188 HD
HETATM    3  C3  UNL     1      17.419 -14.080   6.157  1.00  0.00     0.127 C 
ENDROOT
BRANCH   1   4
HETATM    4  N5  UNL     1      16.142 -15.992   6.180  1.00  0.00     0.005 N 
HETATM    5  C1  UNL     1      16.614 -16.744   7.216  1.00  0.00     0.718 A 
HETATM    6  N2  UNL     1      16.294 -18.013   6.907  1.00  0.00    -0.136 N 
HETATM    7  C2  UNL     1      15.646 -18.062   5.728  1.00  0.00     0.377 A 
ATOM      8  H2  UNL     1      16.511 -18.825   7.486  1.00  0.00     0.189 HD
HETATM    9  O1  UNL     1      15.196 -19.090   5.127  1.00  0.00    -0.243 OA
HETATM   10  N3  UNL     1      15.567 -16.794   5.301  1.00  0.00    -0.111 N 
BRANCH   5  11
HETATM   11  N1  UNL     1      17.236 -16.315   8.265  1.00  0.00    -0.231 N 
ATOM     12  H12 UNL     1      18.111 -16.674   8.647  1.00  0.00     0.174 HD
ATOM     13  H11 UNL     1      16.964 -15.553   8.886  1.00  0.00     0.174 HD
ENDBRANCH   5  11
BRANCH  10  14
HETATM   14  N4  UNL     1      14.949 -16.435   4.085  1.00  0.00    -0.318 N 
ATOM     15  H42 UNL     1      15.250 -16.673   3.140  1.00  0.00     0.179 HD
ATOM     16  H41 UNL     1      14.099 -15.874   4.043  1.00  0.00     0.179 HD
ENDBRANCH  10  14
ENDBRANCH   1   4
BRANCH   3  17
HETATM   17  C4  UNL     1      17.618 -12.620   6.090  1.00  0.00     0.056 A 
HETATM   18  C5  UNL     1      18.624 -12.066   5.328  1.00  0.00     0.159 A 
HETATM   19  O2  UNL     1      18.799 -10.770   5.268  1.00  0.00    -0.314 OA
HETATM   20  C6  UNL     1      18.035  -9.907   5.926  1.00  0.00     0.173 A 
HETATM   21  C7  UNL     1      17.010 -10.380   6.709  1.00  0.00     0.126 A 
HETATM   22  C9  UNL     1      17.743  -8.521   6.242  1.00  0.00     0.282 A 
HETATM   23  C8  UNL     1      16.805 -11.754   6.786  1.00  0.00     0.215 A 
HETATM   24  N7  UNL     1      16.692  -9.033   7.043  1.00  0.00    -0.315 N 
HETATM   25  O3  UNL     1      15.886 -12.204   7.486  1.00  0.00    -0.285 OA
ATOM     26  H7  UNL     1      15.980  -8.602   7.632  1.00  0.00     0.169 HD
HETATM   27  O4  UNL     1      18.209  -7.374   5.945  1.00  0.00    -0.265 OA
ENDBRANCH   3  17
TORSDOF 4
ENDMDL
