MODEL 1
REMARK VINA RESULT: -9.020850938      0.000      0.000
REMARK  11 active torsions:
REMARK  status: ('A' for Active; 'I' for Inactive)
REMARK    1  A    between atoms: S1_2  and  C2_3 
REMARK    2  A    between atoms: C2_3  and  N1_4 
REMARK    3  A    between atoms: C2_3  and  C3_8 
REMARK       I    between atoms: C3_8  and  N2_10 
REMARK    4  A    between atoms: N2_10  and  C4_12 
REMARK    5  A    between atoms: C7_15  and  N3_16 
REMARK    6  A    between atoms: C8_19  and  C9_20 
REMARK       I    between atoms: C9_20  and  N4_22 
REMARK    7  A    between atoms: N4_22  and  N5_24 
REMARK    8  A    between atoms: C10_25  and  O5_26 
REMARK    9  A    between atoms: C13_30  and  C14_31 
REMARK   10  A    between atoms: C15_32  and  O6_33 
REMARK       I    between atoms: N6_35  and  C16_36 
REMARK   11  A    between atoms: N8_41  and  N9_42 
ROOT
HETATM    1  C9  UNL     1      29.203 -17.306 -42.770  1.00  0.00     0.273 C 
HETATM    2  O4  UNL     1      29.032 -16.156 -42.337  1.00  0.00    -0.266 OA
HETATM    3  N4  UNL     1      29.310 -17.638 -44.116  1.00  0.00    -0.257 N 
ATOM      4  H4  UNL     1      29.468 -18.629 -44.294  1.00  0.00     0.191 HD
ENDROOT
BRANCH   3   5
HETATM    5  N5  UNL     1      29.238 -16.865 -45.240  1.00  0.00    -0.229 N 
HETATM    6  C10 UNL     1      30.325 -16.477 -45.960  1.00  0.00     0.162 A 
HETATM    7  C11 UNL     1      29.921 -15.672 -46.996  1.00  0.00     0.060 A 
HETATM    8  C12 UNL     1      28.574 -15.585 -46.885  1.00  0.00     0.038 A 
HETATM    9  C13 UNL     1      28.098 -16.325 -45.789  1.00  0.00     0.092 A 
BRANCH   6  10
HETATM   10  O5  UNL     1      31.665 -16.761 -45.803  1.00  0.00    -0.345 OA
ATOM     11  H5  UNL     1      32.434 -16.390 -46.219  1.00  0.00     0.219 HD
ENDBRANCH   6  10
BRANCH   9  12
HETATM   12  C14 UNL     1      26.710 -16.339 -45.374  1.00  0.00     0.141 A 
HETATM   13  C15 UNL     1      25.725 -15.425 -45.183  1.00  0.00     0.186 A 
HETATM   14  N6  UNL     1      24.502 -16.014 -44.977  1.00  0.00    -0.193 N 
HETATM   15  C16 UNL     1      23.244 -15.366 -44.726  1.00  0.00     0.345 C 
HETATM   16  C17 UNL     1      24.716 -17.320 -45.036  1.00  0.00     0.358 A 
HETATM   17  N7  UNL     1      23.204 -13.957 -44.654  1.00  0.00    -0.039 NA
HETATM   18  O7  UNL     1      22.216 -16.077 -44.576  1.00  0.00    -0.250 OA
HETATM   19  O8  UNL     1      23.814 -18.226 -44.891  1.00  0.00    -0.244 OA
HETATM   20  N8  UNL     1      26.019 -17.533 -45.270  1.00  0.00    -0.205 N 
BRANCH  13  21
HETATM   21  O6  UNL     1      25.838 -14.050 -45.166  1.00  0.00    -0.344 OA
ATOM     22  H6  UNL     1      25.139 -13.407 -45.207  1.00  0.00     0.219 HD
ENDBRANCH  13  21
BRANCH  20  23
HETATM   23  N9  UNL     1      26.492 -18.831 -45.408  1.00  0.00    -0.334 N 
ATOM     24  H92 UNL     1      27.487 -19.023 -45.292  1.00  0.00     0.177 HD
ATOM     25  H91 UNL     1      25.970 -19.687 -45.594  1.00  0.00     0.177 HD
ENDBRANCH  20  23
ENDBRANCH   9  12
ENDBRANCH   3   5
BRANCH   1  26
HETATM   26  C8  UNL     1      29.300 -18.348 -41.693  1.00  0.00     0.068 A 
HETATM   27  C7  UNL     1      30.411 -18.631 -41.012  1.00  0.00     0.118 A 
HETATM   28  C6  UNL     1      30.321 -19.521 -39.908  1.00  0.00     0.039 A 
HETATM   29  C5  UNL     1      29.127 -20.056 -39.587  1.00  0.00     0.032 A 
HETATM   30  C4  UNL     1      27.937 -19.791 -40.280  1.00  0.00     0.035 A 
HETATM   31  C18 UNL     1      28.081 -18.926 -41.327  1.00  0.00     0.049 A 
BRANCH  27  32
HETATM   32  N3  UNL     1      31.705 -18.154 -41.331  1.00  0.00    -0.115 N 
HETATM   33  O2  UNL     1      32.198 -17.183 -40.705  1.00  0.00    -0.532 OA
HETATM   34  O3  UNL     1      32.442 -18.721 -42.318  1.00  0.00    -0.532 OA
ENDBRANCH  27  32
BRANCH  30  35
HETATM   35  N2  UNL     1      26.758 -20.425 -39.843  1.00  0.00    -0.325 N 
HETATM   36  C3  UNL     1      26.372 -21.761 -40.023  1.00  0.00     0.263 C 
HETATM   37  O1  UNL     1      27.101 -22.569 -40.642  1.00  0.00    -0.270 OA
ATOM     38  H2  UNL     1      26.100 -19.838 -39.331  1.00  0.00     0.169 HD
BRANCH  36  39
HETATM   39  C2  UNL     1      25.062 -22.279 -39.475  1.00  0.00     0.336 C 
BRANCH  39  40
HETATM   40  S1  UNL     1      25.402 -23.520 -38.226  1.00  0.00    -0.132 SA
HETATM   41  C1  UNL     1      24.140 -24.787 -38.072  1.00  0.00     0.092 C 
ENDBRANCH  39  40
BRANCH  39  42
HETATM   42  N1  UNL     1      24.273 -21.224 -38.897  1.00  0.00    -0.058 N 
ATOM     43  H13 UNL     1      23.272 -21.393 -38.995  1.00  0.00     0.276 HD
ATOM     44  H12 UNL     1      24.321 -21.220 -37.878  1.00  0.00     0.276 HD
ATOM     45  H11 UNL     1      24.556 -20.330 -39.300  1.00  0.00     0.276 HD
ENDBRANCH  39  42
ENDBRANCH  36  39
ENDBRANCH  30  35
ENDBRANCH   1  26
TORSDOF 11
ENDMDL
MODEL 2
REMARK VINA RESULT: -8.937918897      3.624      8.912
REMARK  11 active torsions:
REMARK  status: ('A' for Active; 'I' for Inactive)
REMARK    1  A    between atoms: S1_2  and  C2_3 
REMARK    2  A    between atoms: C2_3  and  N1_4 
REMARK    3  A    between atoms: C2_3  and  C3_8 
REMARK       I    between atoms: C3_8  and  N2_10 
REMARK    4  A    between atoms: N2_10  and  C4_12 
REMARK    5  A    between atoms: C7_15  and  N3_16 
REMARK    6  A    between atoms: C8_19  and  C9_20 
REMARK       I    between atoms: C9_20  and  N4_22 
REMARK    7  A    between atoms: N4_22  and  N5_24 
REMARK    8  A    between atoms: C10_25  and  O5_26 
REMARK    9  A    between atoms: C13_30  and  C14_31 
REMARK   10  A    between atoms: C15_32  and  O6_33 
REMARK       I    between atoms: N6_35  and  C16_36 
REMARK   11  A    between atoms: N8_41  and  N9_42 
ROOT
HETATM    1  C9  UNL     1      25.544 -20.446 -42.694  1.00  0.00     0.273 C 
HETATM    2  O4  UNL     1      24.682 -21.232 -43.117  1.00  0.00    -0.266 OA
HETATM    3  N4  UNL     1      26.181 -20.555 -41.463  1.00  0.00    -0.257 N 
ATOM      4  H4  UNL     1      26.878 -19.833 -41.283  1.00  0.00     0.191 HD
ENDROOT
BRANCH   3   5
HETATM    5  N5  UNL     1      26.034 -21.464 -40.454  1.00  0.00    -0.229 N 
HETATM    6  C10 UNL     1      24.899 -21.596 -39.716  1.00  0.00     0.162 A 
HETATM    7  C11 UNL     1      25.090 -22.557 -38.754  1.00  0.00     0.060 A 
HETATM    8  C12 UNL     1      26.359 -23.000 -38.930  1.00  0.00     0.038 A 
HETATM    9  C13 UNL     1      26.993 -22.337 -39.995  1.00  0.00     0.092 A 
BRANCH   6  10
HETATM   10  O5  UNL     1      23.685 -20.949 -39.797  1.00  0.00    -0.345 OA
ATOM     11  H5  UNL     1      22.928 -21.110 -40.348  1.00  0.00     0.219 HD
ENDBRANCH   6  10
BRANCH   9  12
HETATM   12  C14 UNL     1      28.382 -22.541 -40.351  1.00  0.00     0.141 A 
HETATM   13  C15 UNL     1      29.112 -23.490 -40.991  1.00  0.00     0.186 A 
HETATM   14  N6  UNL     1      30.396 -23.078 -41.243  1.00  0.00    -0.193 N 
HETATM   15  C16 UNL     1      31.449 -23.818 -41.884  1.00  0.00     0.345 C 
HETATM   16  C17 UNL     1      30.482 -21.849 -40.755  1.00  0.00     0.358 A 
HETATM   17  N7  UNL     1      31.193 -25.139 -42.309  1.00  0.00    -0.039 NA
HETATM   18  O7  UNL     1      32.568 -23.263 -42.045  1.00  0.00    -0.250 OA
HETATM   19  O8  UNL     1      31.535 -21.110 -40.791  1.00  0.00    -0.244 OA
HETATM   20  N8  UNL     1      29.300 -21.514 -40.221  1.00  0.00    -0.205 N 
BRANCH  13  21
HETATM   21  O6  UNL     1      28.707 -24.753 -41.373  1.00  0.00    -0.344 OA
ATOM     22  H6  UNL     1      27.883 -25.185 -41.180  1.00  0.00     0.219 HD
ENDBRANCH  13  21
BRANCH  20  23
HETATM   23  N9  UNL     1      29.125 -20.252 -39.669  1.00  0.00    -0.334 N 
ATOM     24  H92 UNL     1      29.919 -19.615 -39.599  1.00  0.00     0.177 HD
ATOM     25  H91 UNL     1      28.271 -19.816 -39.321  1.00  0.00     0.177 HD
ENDBRANCH  20  23
ENDBRANCH   9  12
ENDBRANCH   3   5
BRANCH   1  26
HETATM   26  C8  UNL     1      25.865 -19.332 -43.649  1.00  0.00     0.068 A 
HETATM   27  C7  UNL     1      27.100 -18.955 -43.983  1.00  0.00     0.118 A 
HETATM   28  C6  UNL     1      27.260 -17.999 -45.022  1.00  0.00     0.039 A 
HETATM   29  C5  UNL     1      26.167 -17.500 -45.633  1.00  0.00     0.032 A 
HETATM   30  C4  UNL     1      24.852 -17.863 -45.309  1.00  0.00     0.035 A 
HETATM   31  C18 UNL     1      24.759 -18.787 -44.307  1.00  0.00     0.049 A 
BRANCH  27  32
HETATM   32  N3  UNL     1      28.286 -19.393 -43.345  1.00  0.00    -0.115 N 
HETATM   33  O2  UNL     1      28.976 -20.314 -43.847  1.00  0.00    -0.532 OA
HETATM   34  O3  UNL     1      28.704 -18.841 -42.179  1.00  0.00    -0.532 OA
ENDBRANCH  27  32
BRANCH  30  35
HETATM   35  N2  UNL     1      23.800 -17.255 -46.021  1.00  0.00    -0.325 N 
HETATM   36  C3  UNL     1      22.586 -16.762 -45.523  1.00  0.00     0.263 C 
HETATM   37  O1  UNL     1      22.309 -16.828 -44.303  1.00  0.00    -0.270 OA
ATOM     38  H2  UNL     1      23.938 -17.163 -47.026  1.00  0.00     0.169 HD
BRANCH  36  39
HETATM   39  C2  UNL     1      21.564 -16.128 -46.438  1.00  0.00     0.336 C 
BRANCH  39  40
HETATM   40  S1  UNL     1      21.841 -14.356 -46.485  1.00  0.00    -0.132 SA
HETATM   41  C1  UNL     1      20.557 -13.380 -45.699  1.00  0.00     0.092 C 
ENDBRANCH  39  40
BRANCH  39  42
HETATM   42  N1  UNL     1      21.643 -16.658 -47.773  1.00  0.00    -0.058 N 
ATOM     43  H13 UNL     1      22.525 -16.423 -48.230  1.00  0.00     0.276 HD
ATOM     44  H12 UNL     1      21.742 -17.674 -47.780  1.00  0.00     0.276 HD
ATOM     45  H11 UNL     1      20.834 -16.345 -48.310  1.00  0.00     0.276 HD
ENDBRANCH  39  42
ENDBRANCH  36  39
ENDBRANCH  30  35
ENDBRANCH   1  26
TORSDOF 11
ENDMDL
MODEL 3
REMARK VINA RESULT: -8.923913728      1.104      1.769
REMARK  11 active torsions:
REMARK  status: ('A' for Active; 'I' for Inactive)
REMARK    1  A    between atoms: S1_2  and  C2_3 
REMARK    2  A    between atoms: C2_3  and  N1_4 
REMARK    3  A    between atoms: C2_3  and  C3_8 
REMARK       I    between atoms: C3_8  and  N2_10 
REMARK    4  A    between atoms: N2_10  and  C4_12 
REMARK    5  A    between atoms: C7_15  and  N3_16 
REMARK    6  A    between atoms: C8_19  and  C9_20 
REMARK       I    between atoms: C9_20  and  N4_22 
REMARK    7  A    between atoms: N4_22  and  N5_24 
REMARK    8  A    between atoms: C10_25  and  O5_26 
REMARK    9  A    between atoms: C13_30  and  C14_31 
REMARK   10  A    between atoms: C15_32  and  O6_33 
REMARK       I    between atoms: N6_35  and  C16_36 
REMARK   11  A    between atoms: N8_41  and  N9_42 
ROOT
HETATM    1  C9  UNL     1      29.322 -17.375 -43.108  1.00  0.00     0.273 C 
HETATM    2  O4  UNL     1      28.899 -16.242 -42.831  1.00  0.00    -0.266 OA
HETATM    3  N4  UNL     1      29.779 -17.765 -44.362  1.00  0.00    -0.257 N 
ATOM      4  H4  UNL     1      30.109 -18.729 -44.409  1.00  0.00     0.191 HD
ENDROOT
BRANCH   3   5
HETATM    5  N5  UNL     1      29.861 -17.080 -45.541  1.00  0.00    -0.229 N 
HETATM    6  C10 UNL     1      31.026 -16.863 -46.208  1.00  0.00     0.162 A 
HETATM    7  C11 UNL     1      30.777 -16.105 -47.326  1.00  0.00     0.060 A 
HETATM    8  C12 UNL     1      29.442 -15.872 -47.317  1.00  0.00     0.038 A 
HETATM    9  C13 UNL     1      28.822 -16.471 -46.207  1.00  0.00     0.092 A 
BRANCH   6  10
HETATM   10  O5  UNL     1      32.315 -17.269 -45.937  1.00  0.00    -0.345 OA
ATOM     11  H5  UNL     1      33.118 -16.771 -45.837  1.00  0.00     0.219 HD
ENDBRANCH   6  10
BRANCH   9  12
HETATM   12  C14 UNL     1      27.418 -16.311 -45.891  1.00  0.00     0.141 A 
HETATM   13  C15 UNL     1      26.361 -17.124 -45.638  1.00  0.00     0.186 A 
HETATM   14  N6  UNL     1      25.268 -16.431 -45.181  1.00  0.00    -0.193 N 
HETATM   15  C16 UNL     1      23.976 -16.955 -44.829  1.00  0.00     0.345 C 
HETATM   16  C17 UNL     1      25.637 -15.159 -45.147  1.00  0.00     0.358 A 
HETATM   17  N7  UNL     1      23.741 -18.339 -44.967  1.00  0.00    -0.039 NA
HETATM   18  O7  UNL     1      23.094 -16.160 -44.411  1.00  0.00    -0.250 OA
HETATM   19  O8  UNL     1      24.890 -14.181 -44.773  1.00  0.00    -0.244 OA
HETATM   20  N8  UNL     1      26.907 -15.067 -45.564  1.00  0.00    -0.205 N 
BRANCH  13  21
HETATM   21  O6  UNL     1      26.288 -18.493 -45.800  1.00  0.00    -0.344 OA
ATOM     22  H6  UNL     1      25.745 -19.109 -45.321  1.00  0.00     0.219 HD
ENDBRANCH  13  21
BRANCH  20  23
HETATM   23  N9  UNL     1      27.538 -13.831 -45.588  1.00  0.00    -0.334 N 
ATOM     24  H92 UNL     1      28.175 -13.601 -46.351  1.00  0.00     0.177 HD
ATOM     25  H91 UNL     1      27.445 -13.050 -44.938  1.00  0.00     0.177 HD
ENDBRANCH  20  23
ENDBRANCH   9  12
ENDBRANCH   3   5
BRANCH   1  26
HETATM   26  C8  UNL     1      29.311 -18.324 -41.945  1.00  0.00     0.068 A 
HETATM   27  C7  UNL     1      30.330 -18.501 -41.103  1.00  0.00     0.118 A 
HETATM   28  C6  UNL     1      30.127 -19.306 -39.951  1.00  0.00     0.039 A 
HETATM   29  C5  UNL     1      28.920 -19.870 -39.744  1.00  0.00     0.032 A 
HETATM   30  C4  UNL     1      27.825 -19.716 -40.606  1.00  0.00     0.035 A 
HETATM   31  C18 UNL     1      28.077 -18.929 -41.694  1.00  0.00     0.049 A 
BRANCH  27  32
HETATM   32  N3  UNL     1      31.638 -17.989 -41.289  1.00  0.00    -0.115 N 
HETATM   33  O2  UNL     1      32.108 -17.141 -40.491  1.00  0.00    -0.532 OA
HETATM   34  O3  UNL     1      32.410 -18.389 -42.329  1.00  0.00    -0.532 OA
ENDBRANCH  27  32
BRANCH  30  35
HETATM   35  N2  UNL     1      26.622 -20.370 -40.276  1.00  0.00    -0.325 N 
HETATM   36  C3  UNL     1      26.355 -21.746 -40.268  1.00  0.00     0.263 C 
HETATM   37  O1  UNL     1      27.235 -22.580 -40.583  1.00  0.00    -0.270 OA
ATOM     38  H2  UNL     1      25.846 -19.765 -40.009  1.00  0.00     0.169 HD
BRANCH  36  39
HETATM   39  C2  UNL     1      24.996 -22.278 -39.875  1.00  0.00     0.336 C 
BRANCH  39  40
HETATM   40  S1  UNL     1      25.148 -23.195 -38.341  1.00  0.00    -0.132 SA
HETATM   41  C1  UNL     1      24.421 -24.835 -38.378  1.00  0.00     0.092 C 
ENDBRANCH  39  40
BRANCH  39  42
HETATM   42  N1  UNL     1      24.039 -21.218 -39.704  1.00  0.00    -0.058 N 
ATOM     43  H13 UNL     1      23.756 -20.806 -40.593  1.00  0.00     0.276 HD
ATOM     44  H12 UNL     1      23.126 -21.566 -39.408  1.00  0.00     0.276 HD
ATOM     45  H11 UNL     1      24.415 -20.524 -39.058  1.00  0.00     0.276 HD
ENDBRANCH  39  42
ENDBRANCH  36  39
ENDBRANCH  30  35
ENDBRANCH   1  26
TORSDOF 11
ENDMDL
MODEL 4
REMARK VINA RESULT: -8.685011700      3.694      8.249
REMARK  11 active torsions:
REMARK  status: ('A' for Active; 'I' for Inactive)
REMARK    1  A    between atoms: S1_2  and  C2_3 
REMARK    2  A    between atoms: C2_3  and  N1_4 
REMARK    3  A    between atoms: C2_3  and  C3_8 
REMARK       I    between atoms: C3_8  and  N2_10 
REMARK    4  A    between atoms: N2_10  and  C4_12 
REMARK    5  A    between atoms: C7_15  and  N3_16 
REMARK    6  A    between atoms: C8_19  and  C9_20 
REMARK       I    between atoms: C9_20  and  N4_22 
REMARK    7  A    between atoms: N4_22  and  N5_24 
REMARK    8  A    between atoms: C10_25  and  O5_26 
REMARK    9  A    between atoms: C13_30  and  C14_31 
REMARK   10  A    between atoms: C15_32  and  O6_33 
REMARK       I    between atoms: N6_35  and  C16_36 
REMARK   11  A    between atoms: N8_41  and  N9_42 
ROOT
HETATM    1  C9  UNL     1      26.420 -16.071 -45.156  1.00  0.00     0.273 C 
HETATM    2  O4  UNL     1      26.752 -15.095 -44.467  1.00  0.00    -0.266 OA
HETATM    3  N4  UNL     1      27.307 -16.959 -45.752  1.00  0.00    -0.257 N 
ATOM      4  H4  UNL     1      26.862 -17.718 -46.268  1.00  0.00     0.191 HD
ENDROOT
BRANCH   3   5
HETATM    5  N5  UNL     1      28.673 -16.990 -45.767  1.00  0.00    -0.229 N 
HETATM    6  C10 UNL     1      29.429 -16.503 -46.787  1.00  0.00     0.162 A 
HETATM    7  C11 UNL     1      30.756 -16.730 -46.520  1.00  0.00     0.060 A 
HETATM    8  C12 UNL     1      30.783 -17.361 -45.321  1.00  0.00     0.038 A 
HETATM    9  C13 UNL     1      29.488 -17.545 -44.807  1.00  0.00     0.092 A 
BRANCH   6  10
HETATM   10  O5  UNL     1      29.071 -15.865 -47.956  1.00  0.00    -0.345 OA
ATOM     11  H5  UNL     1      29.237 -14.981 -48.260  1.00  0.00     0.219 HD
ENDBRANCH   6  10
BRANCH   9  12
HETATM   12  C14 UNL     1      29.207 -18.273 -43.586  1.00  0.00     0.141 A 
HETATM   13  C15 UNL     1      29.346 -19.547 -43.139  1.00  0.00     0.186 A 
HETATM   14  N6  UNL     1      29.104 -19.654 -41.792  1.00  0.00    -0.193 N 
HETATM   15  C16 UNL     1      29.140 -20.842 -40.983  1.00  0.00     0.345 C 
HETATM   16  C17 UNL     1      28.805 -18.431 -41.381  1.00  0.00     0.358 A 
HETATM   17  N7  UNL     1      29.438 -22.077 -41.597  1.00  0.00    -0.039 NA
HETATM   18  O7  UNL     1      28.904 -20.743 -39.750  1.00  0.00    -0.250 OA
HETATM   19  O8  UNL     1      28.511 -18.108 -40.170  1.00  0.00    -0.244 OA
HETATM   20  N8  UNL     1      28.860 -17.598 -42.429  1.00  0.00    -0.205 N 
BRANCH  13  21
HETATM   21  O6  UNL     1      29.675 -20.670 -43.870  1.00  0.00    -0.344 OA
ATOM     22  H6  UNL     1      30.480 -20.841 -44.345  1.00  0.00     0.219 HD
ENDBRANCH  13  21
BRANCH  20  23
HETATM   23  N9  UNL     1      28.616 -16.244 -42.248  1.00  0.00    -0.334 N 
ATOM     24  H92 UNL     1      28.682 -15.838 -41.314  1.00  0.00     0.177 HD
ATOM     25  H91 UNL     1      28.392 -15.533 -42.944  1.00  0.00     0.177 HD
ENDBRANCH  20  23
ENDBRANCH   9  12
ENDBRANCH   3   5
BRANCH   1  26
HETATM   26  C8  UNL     1      24.933 -16.234 -45.294  1.00  0.00     0.068 A 
HETATM   27  C7  UNL     1      24.271 -17.366 -45.055  1.00  0.00     0.118 A 
HETATM   28  C6  UNL     1      22.850 -17.336 -45.064  1.00  0.00     0.039 A 
HETATM   29  C5  UNL     1      22.216 -16.174 -45.318  1.00  0.00     0.032 A 
HETATM   30  C4  UNL     1      22.874 -14.964 -45.581  1.00  0.00     0.035 A 
HETATM   31  C18 UNL     1      24.236 -15.051 -45.555  1.00  0.00     0.049 A 
BRANCH  27  32
HETATM   32  N3  UNL     1      24.870 -18.631 -44.840  1.00  0.00    -0.115 N 
HETATM   33  O2  UNL     1      25.402 -19.253 -45.793  1.00  0.00    -0.532 OA
HETATM   34  O3  UNL     1      24.881 -19.207 -43.612  1.00  0.00    -0.532 OA
ENDBRANCH  27  32
BRANCH  30  35
HETATM   35  N2  UNL     1      22.089 -13.823 -45.841  1.00  0.00    -0.325 N 
HETATM   36  C3  UNL     1      21.388 -13.024 -44.928  1.00  0.00     0.263 C 
HETATM   37  O1  UNL     1      21.398 -13.278 -43.702  1.00  0.00    -0.270 OA
ATOM     38  H2  UNL     1      22.021 -13.544 -46.820  1.00  0.00     0.169 HD
BRANCH  36  39
HETATM   39  C2  UNL     1      20.595 -11.821 -45.386  1.00  0.00     0.336 C 
BRANCH  39  40
HETATM   40  S1  UNL     1      21.275 -11.229 -46.937  1.00  0.00    -0.132 SA
HETATM   41  C1  UNL     1      21.127  -9.459 -47.187  1.00  0.00     0.092 C 
ENDBRANCH  39  40
BRANCH  39  42
HETATM   42  N1  UNL     1      19.204 -12.139 -45.565  1.00  0.00    -0.058 N 
ATOM     43  H13 UNL     1      18.597 -11.348 -45.350  1.00  0.00     0.276 HD
ATOM     44  H12 UNL     1      18.956 -12.249 -46.548  1.00  0.00     0.276 HD
ATOM     45  H11 UNL     1      18.972 -12.965 -45.013  1.00  0.00     0.276 HD
ENDBRANCH  39  42
ENDBRANCH  36  39
ENDBRANCH  30  35
ENDBRANCH   1  26
TORSDOF 11
ENDMDL
MODEL 5
REMARK VINA RESULT: -8.676587321      3.583      8.130
REMARK  11 active torsions:
REMARK  status: ('A' for Active; 'I' for Inactive)
REMARK    1  A    between atoms: S1_2  and  C2_3 
REMARK    2  A    between atoms: C2_3  and  N1_4 
REMARK    3  A    between atoms: C2_3  and  C3_8 
REMARK       I    between atoms: C3_8  and  N2_10 
REMARK    4  A    between atoms: N2_10  and  C4_12 
REMARK    5  A    between atoms: C7_15  and  N3_16 
REMARK    6  A    between atoms: C8_19  and  C9_20 
REMARK       I    between atoms: C9_20  and  N4_22 
REMARK    7  A    between atoms: N4_22  and  N5_24 
REMARK    8  A    between atoms: C10_25  and  O5_26 
REMARK    9  A    between atoms: C13_30  and  C14_31 
REMARK   10  A    between atoms: C15_32  and  O6_33 
REMARK       I    between atoms: N6_35  and  C16_36 
REMARK   11  A    between atoms: N8_41  and  N9_42 
ROOT
HETATM    1  C9  UNL     1      26.072 -15.835 -45.334  1.00  0.00     0.273 C 
HETATM    2  O4  UNL     1      26.361 -14.755 -44.795  1.00  0.00    -0.266 OA
HETATM    3  N4  UNL     1      26.997 -16.793 -45.735  1.00  0.00    -0.257 N 
ATOM      4  H4  UNL     1      26.584 -17.631 -46.143  1.00  0.00     0.191 HD
ENDROOT
BRANCH   3   5
HETATM    5  N5  UNL     1      28.361 -16.804 -45.676  1.00  0.00    -0.229 N 
HETATM    6  C10 UNL     1      29.163 -16.300 -46.652  1.00  0.00     0.162 A 
HETATM    7  C11 UNL     1      30.478 -16.509 -46.315  1.00  0.00     0.060 A 
HETATM    8  C12 UNL     1      30.449 -17.147 -45.120  1.00  0.00     0.038 A 
HETATM    9  C13 UNL     1      29.132 -17.353 -44.676  1.00  0.00     0.092 A 
BRANCH   6  10
HETATM   10  O5  UNL     1      28.859 -15.660 -47.834  1.00  0.00    -0.345 OA
ATOM     11  H5  UNL     1      29.194 -14.855 -48.212  1.00  0.00     0.219 HD
ENDBRANCH   6  10
BRANCH   9  12
HETATM   12  C14 UNL     1      28.796 -18.091 -43.476  1.00  0.00     0.141 A 
HETATM   13  C15 UNL     1      28.891 -17.898 -42.136  1.00  0.00     0.186 A 
HETATM   14  N6  UNL     1      28.216 -18.857 -41.423  1.00  0.00    -0.193 N 
HETATM   15  C16 UNL     1      28.111 -18.981 -39.995  1.00  0.00     0.345 C 
HETATM   16  C17 UNL     1      27.687 -19.671 -42.325  1.00  0.00     0.358 A 
HETATM   17  N7  UNL     1      28.777 -18.043 -39.177  1.00  0.00    -0.039 NA
HETATM   18  O7  UNL     1      27.429 -19.926 -39.517  1.00  0.00    -0.250 OA
HETATM   19  O8  UNL     1      26.974 -20.708 -42.058  1.00  0.00    -0.244 OA
HETATM   20  N8  UNL     1      28.021 -19.235 -43.547  1.00  0.00    -0.205 N 
BRANCH  13  21
HETATM   21  O6  UNL     1      29.571 -16.898 -41.471  1.00  0.00    -0.344 OA
ATOM     22  H6  UNL     1      30.074 -16.969 -40.668  1.00  0.00     0.219 HD
ENDBRANCH  13  21
BRANCH  20  23
HETATM   23  N9  UNL     1      27.556 -19.906 -44.670  1.00  0.00    -0.334 N 
ATOM     24  H92 UNL     1      27.839 -19.596 -45.599  1.00  0.00     0.177 HD
ATOM     25  H91 UNL     1      26.958 -20.731 -44.722  1.00  0.00     0.177 HD
ENDBRANCH  20  23
ENDBRANCH   9  12
ENDBRANCH   3   5
BRANCH   1  26
HETATM   26  C8  UNL     1      24.596 -16.041 -45.518  1.00  0.00     0.068 A 
HETATM   27  C7  UNL     1      23.956 -17.186 -45.276  1.00  0.00     0.118 A 
HETATM   28  C6  UNL     1      22.537 -17.195 -45.333  1.00  0.00     0.039 A 
HETATM   29  C5  UNL     1      21.881 -16.056 -45.634  1.00  0.00     0.032 A 
HETATM   30  C4  UNL     1      22.515 -14.834 -45.903  1.00  0.00     0.035 A 
HETATM   31  C18 UNL     1      23.877 -14.884 -45.829  1.00  0.00     0.049 A 
BRANCH  27  32
HETATM   32  N3  UNL     1      24.582 -18.429 -45.013  1.00  0.00    -0.115 N 
HETATM   33  O2  UNL     1      25.074 -19.105 -45.950  1.00  0.00    -0.532 OA
HETATM   34  O3  UNL     1      24.661 -18.926 -43.753  1.00  0.00    -0.532 OA
ENDBRANCH  27  32
BRANCH  30  35
HETATM   35  N2  UNL     1      21.709 -13.722 -46.215  1.00  0.00    -0.325 N 
HETATM   36  C3  UNL     1      21.021 -12.873 -45.336  1.00  0.00     0.263 C 
HETATM   37  O1  UNL     1      21.066 -13.048 -44.097  1.00  0.00    -0.270 OA
ATOM     38  H2  UNL     1      21.612 -13.507 -47.207  1.00  0.00     0.169 HD
BRANCH  36  39
HETATM   39  C2  UNL     1      20.202 -11.711 -45.849  1.00  0.00     0.336 C 
BRANCH  39  40
HETATM   40  S1  UNL     1      19.233 -11.039 -44.498  1.00  0.00    -0.132 SA
HETATM   41  C1  UNL     1      18.138  -9.696 -44.964  1.00  0.00     0.092 C 
ENDBRANCH  39  40
BRANCH  39  42
HETATM   42  N1  UNL     1      21.034 -10.676 -46.400  1.00  0.00    -0.058 N 
ATOM     43  H13 UNL     1      20.489  -9.890 -46.756  1.00  0.00     0.276 HD
ATOM     44  H12 UNL     1      21.557 -10.176 -45.680  1.00  0.00     0.276 HD
ATOM     45  H11 UNL     1      21.646 -11.076 -47.112  1.00  0.00     0.276 HD
ENDBRANCH  39  42
ENDBRANCH  36  39
ENDBRANCH  30  35
ENDBRANCH   1  26
TORSDOF 11
ENDMDL
