MODEL 1
REMARK VINA RESULT: -8.415387357      0.000      0.000
REMARK  5 active torsions:
REMARK  status: ('A' for Active; 'I' for Inactive)
REMARK    1  A    between atoms: C2_2  and  C3_3 
REMARK    2  A    between atoms: C3_3  and  C5_5 
REMARK    3  A    between atoms: C5_5  and  C6_6 
REMARK    4  A    between atoms: C6_6  and  N1_8 
REMARK    5  A    between atoms: N1_8  and  C8_10 
ROOT
HETATM    1  C8  UNL     1      15.582   9.780  10.833  1.00  0.00     0.148 A 
HETATM    2  N2  UNL     1      15.883   9.734   9.525  1.00  0.00    -0.303 N 
ATOM      3  H2  UNL     1      15.807  10.615   9.016  1.00  0.00     0.171 HD
HETATM    4  C9  UNL     1      16.264   8.687   8.819  1.00  0.00     0.255 A 
HETATM    5  O1  UNL     1      16.494   8.907   7.575  1.00  0.00    -0.268 OA
HETATM    6  C10 UNL     1      16.453   7.396   9.220  1.00  0.00     0.037 A 
HETATM    7  C11 UNL     1      16.236   7.041  10.539  1.00  0.00     0.026 A 
HETATM    8  S1  UNL     1      15.728   8.282  11.627  1.00  0.00    -0.055 SA
HETATM    9  C12 UNL     1      16.438   5.633  11.012  1.00  0.00     0.058 C 
HETATM   10  C13 UNL     1      15.678   5.398  12.309  1.00  0.00     0.044 C 
HETATM   11  C14 UNL     1      17.885   5.271  11.135  1.00  0.00     0.044 C 
HETATM   12  N3  UNL     1      15.825   4.773  10.016  1.00  0.00    -0.366 N 
ATOM     13  H3  UNL     1      15.247   3.976  10.283  1.00  0.00     0.162 HD
HETATM   14  C15 UNL     1      16.066   5.088   8.665  1.00  0.00     0.080 C 
HETATM   15  N4  UNL     1      15.564   4.326   7.753  1.00  0.00    -0.389 N 
ATOM     16  H41 UNL     1      15.738   4.554   6.774  1.00  0.00     0.157 HD
ATOM     17  H42 UNL     1      15.001   3.505   7.975  1.00  0.00     0.157 HD
HETATM   18  C16 UNL     1      16.887   6.285   8.341  1.00  0.00     0.088 C 
HETATM   19  C17 UNL     1      16.785   6.515   6.880  1.00  0.00     0.023 C 
ENDROOT
BRANCH   1  20
HETATM   20  N1  UNL     1      15.221  10.844  11.447  1.00  0.00    -0.366 N 
ATOM     21  H1  UNL     1      15.871  11.630  11.473  1.00  0.00     0.162 HD
BRANCH  20  22
HETATM   22  C6  UNL     1      13.940  10.993  12.109  1.00  0.00     0.080 C 
HETATM   23  C7  UNL     1      13.076  11.968  11.391  1.00  0.00     0.032 C 
BRANCH  22  24
HETATM   24  C5  UNL     1      14.159  11.214  13.551  1.00  0.00     0.029 C 
BRANCH  24  25
HETATM   25  C3  UNL     1      13.285  10.536  14.528  1.00  0.00    -0.017 C 
HETATM   26  C4  UNL     1      13.904   9.139  14.755  1.00  0.00     0.010 C 
BRANCH  25  27
HETATM   27  C2  UNL     1      13.125  11.138  15.872  1.00  0.00    -0.000 C 
HETATM   28  C1  UNL     1      12.031  12.215  15.731  1.00  0.00     0.005 C 
ENDBRANCH  25  27
ENDBRANCH  24  25
ENDBRANCH  22  24
ENDBRANCH  20  22
ENDBRANCH   1  20
TORSDOF 5
ENDMDL
MODEL 2
REMARK VINA RESULT: -8.408864236      1.313      1.598
REMARK  5 active torsions:
REMARK  status: ('A' for Active; 'I' for Inactive)
REMARK    1  A    between atoms: C2_2  and  C3_3 
REMARK    2  A    between atoms: C3_3  and  C5_5 
REMARK    3  A    between atoms: C5_5  and  C6_6 
REMARK    4  A    between atoms: C6_6  and  N1_8 
REMARK    5  A    between atoms: N1_8  and  C8_10 
ROOT
HETATM    1  C8  UNL     1      15.177  10.599  12.020  1.00  0.00     0.148 A 
HETATM    2  N2  UNL     1      15.640  10.849  10.784  1.00  0.00    -0.303 N 
ATOM      3  H2  UNL     1      15.560  11.815  10.463  1.00  0.00     0.171 HD
HETATM    4  C9  UNL     1      16.185   9.998   9.936  1.00  0.00     0.255 A 
HETATM    5  O1  UNL     1      16.549  10.491   8.809  1.00  0.00    -0.268 OA
HETATM    6  C10 UNL     1      16.421   8.661  10.085  1.00  0.00     0.037 A 
HETATM    7  C11 UNL     1      16.070   8.021  11.260  1.00  0.00     0.026 A 
HETATM    8  S1  UNL     1      15.337   8.974  12.500  1.00  0.00    -0.055 SA
HETATM    9  C12 UNL     1      16.318   6.557  11.455  1.00  0.00     0.058 C 
HETATM   10  C13 UNL     1      15.424   6.013  12.559  1.00  0.00     0.044 C 
HETATM   11  C14 UNL     1      17.763   6.247  11.699  1.00  0.00     0.044 C 
HETATM   12  N3  UNL     1      15.902   5.902  10.229  1.00  0.00    -0.366 N 
ATOM     13  H3  UNL     1      15.358   5.039  10.244  1.00  0.00     0.162 HD
HETATM   14  C15 UNL     1      16.284   6.511   9.019  1.00  0.00     0.080 C 
HETATM   15  N4  UNL     1      15.959   5.938   7.908  1.00  0.00    -0.389 N 
ATOM     16  H41 UNL     1      16.235   6.379   7.031  1.00  0.00     0.157 HD
ATOM     17  H42 UNL     1      15.437   5.063   7.877  1.00  0.00     0.157 HD
HETATM   18  C16 UNL     1      17.044   7.787   9.064  1.00  0.00     0.088 C 
HETATM   19  C17 UNL     1      17.107   8.320   7.682  1.00  0.00     0.023 C 
ENDROOT
BRANCH   1  20
HETATM   20  N1  UNL     1      14.661  11.488  12.784  1.00  0.00    -0.366 N 
ATOM     21  H1  UNL     1      15.263  12.238  13.123  1.00  0.00     0.162 HD
BRANCH  20  22
HETATM   22  C6  UNL     1      13.272  11.485  13.195  1.00  0.00     0.080 C 
HETATM   23  C7  UNL     1      12.390  11.985  12.107  1.00  0.00     0.032 C 
BRANCH  22  24
HETATM   24  C5  UNL     1      13.153  12.132  14.516  1.00  0.00     0.029 C 
BRANCH  24  25
HETATM   25  C3  UNL     1      12.314  11.505  15.556  1.00  0.00    -0.017 C 
HETATM   26  C4  UNL     1      13.249  10.562  16.345  1.00  0.00     0.010 C 
BRANCH  25  27
HETATM   27  C2  UNL     1      11.664  12.376  16.562  1.00  0.00    -0.000 C 
HETATM   28  C1  UNL     1      11.592  11.549  17.861  1.00  0.00     0.005 C 
ENDBRANCH  25  27
ENDBRANCH  24  25
ENDBRANCH  22  24
ENDBRANCH  20  22
ENDBRANCH   1  20
TORSDOF 5
ENDMDL
MODEL 3
REMARK VINA RESULT: -8.350242453      2.256      3.320
REMARK  5 active torsions:
REMARK  status: ('A' for Active; 'I' for Inactive)
REMARK    1  A    between atoms: C2_2  and  C3_3 
REMARK    2  A    between atoms: C3_3  and  C5_5 
REMARK    3  A    between atoms: C5_5  and  C6_6 
REMARK    4  A    between atoms: C6_6  and  N1_8 
REMARK    5  A    between atoms: N1_8  and  C8_10 
ROOT
HETATM    1  C8  UNL     1      14.778  10.354  12.241  1.00  0.00     0.148 A 
HETATM    2  N2  UNL     1      14.806   9.210  12.943  1.00  0.00    -0.303 N 
ATOM      3  H2  UNL     1      14.397   9.247  13.877  1.00  0.00     0.171 HD
HETATM    4  C9  UNL     1      15.298   8.044  12.570  1.00  0.00     0.255 A 
HETATM    5  O1  UNL     1      15.201   7.097  13.432  1.00  0.00    -0.268 OA
HETATM    6  C10 UNL     1      15.898   7.694  11.395  1.00  0.00     0.037 A 
HETATM    7  C11 UNL     1      16.057   8.633  10.391  1.00  0.00     0.026 A 
HETATM    8  S1  UNL     1      15.473  10.230  10.692  1.00  0.00    -0.055 SA
HETATM    9  C12 UNL     1      16.709   8.281   9.089  1.00  0.00     0.058 C 
HETATM   10  C13 UNL     1      17.207   9.538   8.391  1.00  0.00     0.044 C 
HETATM   11  C14 UNL     1      15.819   7.463   8.205  1.00  0.00     0.044 C 
HETATM   12  N3  UNL     1      17.886   7.498   9.416  1.00  0.00    -0.366 N 
ATOM     13  H3  UNL     1      18.780   7.659   8.951  1.00  0.00     0.162 HD
HETATM   14  C15 UNL     1      17.739   6.507  10.405  1.00  0.00     0.080 C 
HETATM   15  N4  UNL     1      18.758   5.770  10.698  1.00  0.00    -0.389 N 
ATOM     16  H41 UNL     1      18.652   5.051  11.414  1.00  0.00     0.157 HD
ATOM     17  H42 UNL     1      19.662   5.880  10.240  1.00  0.00     0.157 HD
HETATM   18  C16 UNL     1      16.421   6.346  11.072  1.00  0.00     0.088 C 
HETATM   19  C17 UNL     1      16.606   5.416  12.211  1.00  0.00     0.023 C 
ENDROOT
BRANCH   1  20
HETATM   20  N1  UNL     1      14.276  11.449  12.676  1.00  0.00    -0.366 N 
ATOM     21  H1  UNL     1      14.858  12.286  12.658  1.00  0.00     0.162 HD
BRANCH  20  22
HETATM   22  C6  UNL     1      12.927  11.563  13.194  1.00  0.00     0.080 C 
HETATM   23  C7  UNL     1      12.020  12.185  12.194  1.00  0.00     0.032 C 
BRANCH  22  24
HETATM   24  C5  UNL     1      12.971  12.169  14.539  1.00  0.00     0.029 C 
BRANCH  24  25
HETATM   25  C3  UNL     1      12.243  11.522  15.648  1.00  0.00    -0.017 C 
HETATM   26  C4  UNL     1      13.268  10.603  16.350  1.00  0.00     0.010 C 
BRANCH  25  27
HETATM   27  C2  UNL     1      11.663  12.377  16.709  1.00  0.00    -0.000 C 
HETATM   28  C1  UNL     1      11.622  11.510  17.983  1.00  0.00     0.005 C 
ENDBRANCH  25  27
ENDBRANCH  24  25
ENDBRANCH  22  24
ENDBRANCH  20  22
ENDBRANCH   1  20
TORSDOF 5
ENDMDL
MODEL 4
REMARK VINA RESULT: -8.329831759      0.963      1.086
REMARK  5 active torsions:
REMARK  status: ('A' for Active; 'I' for Inactive)
REMARK    1  A    between atoms: C2_2  and  C3_3 
REMARK    2  A    between atoms: C3_3  and  C5_5 
REMARK    3  A    between atoms: C5_5  and  C6_6 
REMARK    4  A    between atoms: C6_6  and  N1_8 
REMARK    5  A    between atoms: N1_8  and  C8_10 
ROOT
HETATM    1  C8  UNL     1      15.216  10.055  11.463  1.00  0.00     0.148 A 
HETATM    2  N2  UNL     1      15.473   9.910  10.153  1.00  0.00    -0.303 N 
ATOM      3  H2  UNL     1      15.300  10.728   9.568  1.00  0.00     0.171 HD
HETATM    4  C9  UNL     1      15.922   8.836   9.531  1.00  0.00     0.255 A 
HETATM    5  O1  UNL     1      16.086   8.954   8.263  1.00  0.00    -0.268 OA
HETATM    6  C10 UNL     1      16.240   7.610  10.042  1.00  0.00     0.037 A 
HETATM    7  C11 UNL     1      16.103   7.367  11.396  1.00  0.00     0.026 A 
HETATM    8  S1  UNL     1      15.524   8.659  12.385  1.00  0.00    -0.055 SA
HETATM    9  C12 UNL     1      16.446   6.034  11.988  1.00  0.00     0.058 C 
HETATM   10  C13 UNL     1      15.758   5.861  13.334  1.00  0.00     0.044 C 
HETATM   11  C14 UNL     1      17.924   5.812  12.082  1.00  0.00     0.044 C 
HETATM   12  N3  UNL     1      15.879   5.033  11.105  1.00  0.00    -0.366 N 
ATOM     13  H3  UNL     1      15.385   4.219  11.469  1.00  0.00     0.162 HD
HETATM   14  C15 UNL     1      16.043   5.236   9.721  1.00  0.00     0.080 C 
HETATM   15  N4  UNL     1      15.580   4.348   8.906  1.00  0.00    -0.389 N 
ATOM     16  H41 UNL     1      15.698   4.495   7.904  1.00  0.00     0.157 HD
ATOM     17  H42 UNL     1      15.101   3.508   9.228  1.00  0.00     0.157 HD
HETATM   18  C16 UNL     1      16.741   6.462   9.252  1.00  0.00     0.088 C 
HETATM   19  C17 UNL     1      16.567   6.540   7.782  1.00  0.00     0.023 C 
ENDROOT
BRANCH   1  20
HETATM   20  N1  UNL     1      14.782  11.139  11.990  1.00  0.00    -0.366 N 
ATOM     21  H1  UNL     1      15.390  11.957  11.979  1.00  0.00     0.162 HD
BRANCH  20  22
HETATM   22  C6  UNL     1      13.475  11.265  12.604  1.00  0.00     0.080 C 
HETATM   23  C7  UNL     1      12.521  11.956  11.696  1.00  0.00     0.032 C 
BRANCH  22  24
HETATM   24  C5  UNL     1      13.627  11.808  13.967  1.00  0.00     0.029 C 
BRANCH  24  25
HETATM   25  C3  UNL     1      12.609  11.494  14.989  1.00  0.00    -0.017 C 
HETATM   26  C4  UNL     1      13.290  10.529  15.984  1.00  0.00     0.010 C 
BRANCH  25  27
HETATM   27  C2  UNL     1      12.057  12.602  15.802  1.00  0.00    -0.000 C 
HETATM   28  C1  UNL     1      11.550  11.961  17.110  1.00  0.00     0.005 C 
ENDBRANCH  25  27
ENDBRANCH  24  25
ENDBRANCH  22  24
ENDBRANCH  20  22
ENDBRANCH   1  20
TORSDOF 5
ENDMDL
MODEL 5
REMARK VINA RESULT: -8.244300261      2.116      2.818
REMARK  5 active torsions:
REMARK  status: ('A' for Active; 'I' for Inactive)
REMARK    1  A    between atoms: C2_2  and  C3_3 
REMARK    2  A    between atoms: C3_3  and  C5_5 
REMARK    3  A    between atoms: C5_5  and  C6_6 
REMARK    4  A    between atoms: C6_6  and  N1_8 
REMARK    5  A    between atoms: N1_8  and  C8_10 
ROOT
HETATM    1  C8  UNL     1      14.788  10.948  12.952  1.00  0.00     0.148 A 
HETATM    2  N2  UNL     1      15.731  11.145  12.017  1.00  0.00    -0.303 N 
ATOM      3  H2  UNL     1      15.832  12.101  11.676  1.00  0.00     0.171 HD
HETATM    4  C9  UNL     1      16.543  10.251  11.486  1.00  0.00     0.255 A 
HETATM    5  O1  UNL     1      17.362  10.696  10.604  1.00  0.00    -0.268 OA
HETATM    6  C10 UNL     1      16.642   8.913  11.741  1.00  0.00     0.037 A 
HETATM    7  C11 UNL     1      15.809   8.322  12.674  1.00  0.00     0.026 A 
HETATM    8  S1  UNL     1      14.668   9.335  13.482  1.00  0.00    -0.055 SA
HETATM    9  C12 UNL     1      15.894   6.857  12.978  1.00  0.00     0.058 C 
HETATM   10  C13 UNL     1      14.601   6.376  13.620  1.00  0.00     0.044 C 
HETATM   11  C14 UNL     1      17.094   6.511  13.805  1.00  0.00     0.044 C 
HETATM   12  N3  UNL     1      15.997   6.176  11.701  1.00  0.00    -0.366 N 
ATOM     13  H3  UNL     1      15.461   5.332  11.502  1.00  0.00     0.162 HD
HETATM   14  C15 UNL     1      16.871   6.735  10.749  1.00  0.00     0.080 C 
HETATM   15  N4  UNL     1      17.012   6.137   9.613  1.00  0.00    -0.389 N 
ATOM     16  H41 UNL     1      17.645   6.542   8.923  1.00  0.00     0.157 HD
ATOM     17  H42 UNL     1      16.515   5.278   9.383  1.00  0.00     0.157 HD
HETATM   18  C16 UNL     1      17.596   7.988  11.086  1.00  0.00     0.088 C 
HETATM   19  C17 UNL     1      18.247   8.475   9.846  1.00  0.00     0.023 C 
ENDROOT
BRANCH   1  20
HETATM   20  N1  UNL     1      14.039  11.876  13.419  1.00  0.00    -0.366 N 
ATOM     21  H1  UNL     1      14.434  12.811  13.516  1.00  0.00     0.162 HD
BRANCH  20  22
HETATM   22  C6  UNL     1      12.661  11.671  13.818  1.00  0.00     0.080 C 
HETATM   23  C7  UNL     1      11.737  11.854  12.667  1.00  0.00     0.032 C 
BRANCH  22  24
HETATM   24  C5  UNL     1      12.386  12.450  15.040  1.00  0.00     0.029 C 
BRANCH  24  25
HETATM   25  C3  UNL     1      12.392  11.770  16.349  1.00  0.00    -0.017 C 
HETATM   26  C4  UNL     1      13.605  12.338  17.118  1.00  0.00     0.010 C 
BRANCH  25  27
HETATM   27  C2  UNL     1      11.222  11.940  17.242  1.00  0.00    -0.000 C 
HETATM   28  C1  UNL     1      11.590  11.245  18.567  1.00  0.00     0.005 C 
ENDBRANCH  25  27
ENDBRANCH  24  25
ENDBRANCH  22  24
ENDBRANCH  20  22
ENDBRANCH   1  20
TORSDOF 5
ENDMDL
