MODEL 1
REMARK VINA RESULT: -7.621123720      0.000      0.000
REMARK  6 active torsions:
REMARK  status: ('A' for Active; 'I' for Inactive)
REMARK    1  A    between atoms: C2_2  and  C4_4 
REMARK    2  A    between atoms: C4_4  and  C5_5 
REMARK    3  A    between atoms: C13_21  and  C14_22 
REMARK    4  A    between atoms: C14_22  and  C15_23 
REMARK    5  A    between atoms: C14_22  and  N4_25 
REMARK    6  A    between atoms: N4_25  and  C16_27 
ROOT
HETATM    1  C5  UNL     1      91.800 118.260 130.574  1.00  0.00     0.214 C 
HETATM    2  O1  UNL     1      91.800 117.975 129.217  1.00  0.00    -0.369 OA
HETATM    3  C6  UNL     1      92.827 118.595 128.527  1.00  0.00     0.244 C 
HETATM    4  C7  UNL     1      92.430 118.796 127.117  1.00  0.00     0.094 C 
HETATM    5  N1  UNL     1      92.523 119.965 126.605  1.00  0.00    -0.387 N 
ATOM      6  H11 UNL     1      92.249 120.103 125.633  1.00  0.00     0.157 HD
ATOM      7  H12 UNL     1      92.869 120.728 127.187  1.00  0.00     0.157 HD
HETATM    8  N2  UNL     1      91.950 117.739 126.311  1.00  0.00    -0.378 N 
ATOM      9  H2  UNL     1      91.795 117.867 125.310  1.00  0.00     0.160 HD
HETATM   10  C8  UNL     1      91.689 116.478 126.950  1.00  0.00     0.121 C 
HETATM   11  C9  UNL     1      91.572 115.290 126.073  1.00  0.00     0.020 C 
HETATM   12  C10 UNL     1      91.885 114.068 126.954  1.00  0.00     0.003 C 
HETATM   13  C11 UNL     1      91.105 114.070 128.232  1.00  0.00     0.020 C 
HETATM   14  C12 UNL     1      91.948 114.201 129.483  1.00  0.00     0.121 C 
HETATM   15  N3  UNL     1      91.134 114.798 130.469  1.00  0.00    -0.378 N 
ATOM     16  H3  UNL     1      90.193 115.095 130.211  1.00  0.00     0.160 HD
HETATM   17  C13 UNL     1      91.558 114.996 131.765  1.00  0.00     0.103 C 
HETATM   18  N5  UNL     1      92.277 116.206 132.107  1.00  0.00    -0.313 N 
ATOM     19  H5  UNL     1      92.585 116.244 133.079  1.00  0.00     0.170 HD
HETATM   20  C19 UNL     1      92.624 117.321 131.364  1.00  0.00     0.252 C 
HETATM   21  O2  UNL     1      93.879 117.615 131.337  1.00  0.00    -0.270 OA
ENDROOT
BRANCH  17  22
HETATM   22  C14 UNL     1      92.223 113.781 132.430  1.00  0.00     0.155 C 
BRANCH  22  23
HETATM   23  C15 UNL     1      91.278 112.631 132.570  1.00  0.00     0.118 C 
HETATM   24  S1  UNL     1      92.068 111.031 132.284  1.00  0.00    -0.095 SA
ENDBRANCH  22  23
BRANCH  22  25
HETATM   25  N4  UNL     1      92.821 114.209 133.640  1.00  0.00    -0.406 N 
ATOM     26  H4  UNL     1      93.684 114.753 133.638  1.00  0.00     0.154 HD
BRANCH  25  27
HETATM   27  C16 UNL     1      92.184 113.858 134.851  1.00  0.00     0.069 C 
HETATM   28  C17 UNL     1      93.221 113.184 135.761  1.00  0.00     0.031 C 
HETATM   29  C18 UNL     1      91.747 115.159 135.537  1.00  0.00     0.031 C 
ENDBRANCH  25  27
ENDBRANCH  22  25
ENDBRANCH  17  22
BRANCH   1  30
HETATM   30  C4  UNL     1      90.386 118.405 131.020  1.00  0.00     0.045 C 
BRANCH  30  31
HETATM   31  C2  UNL     1      89.975 119.854 131.131  1.00  0.00    -0.020 C 
HETATM   32  C1  UNL     1      89.208 120.308 129.907  1.00  0.00     0.009 C 
HETATM   33  C3  UNL     1      89.062 120.075 132.319  1.00  0.00     0.009 C 
ENDBRANCH  30  31
ENDBRANCH   1  30
TORSDOF 6
ENDMDL
MODEL 2
REMARK VINA RESULT: -7.406162031      1.162      1.658
REMARK  6 active torsions:
REMARK  status: ('A' for Active; 'I' for Inactive)
REMARK    1  A    between atoms: C2_2  and  C4_4 
REMARK    2  A    between atoms: C4_4  and  C5_5 
REMARK    3  A    between atoms: C13_21  and  C14_22 
REMARK    4  A    between atoms: C14_22  and  C15_23 
REMARK    5  A    between atoms: C14_22  and  N4_25 
REMARK    6  A    between atoms: N4_25  and  C16_27 
ROOT
HETATM    1  C5  UNL     1      91.823 118.234 130.545  1.00  0.00     0.214 C 
HETATM    2  O1  UNL     1      91.826 117.986 129.180  1.00  0.00    -0.369 OA
HETATM    3  C6  UNL     1      92.849 118.633 128.509  1.00  0.00     0.244 C 
HETATM    4  C7  UNL     1      92.450 118.871 127.105  1.00  0.00     0.094 C 
HETATM    5  N1  UNL     1      92.536 120.054 126.626  1.00  0.00    -0.387 N 
ATOM      6  H11 UNL     1      92.261 120.219 125.658  1.00  0.00     0.157 HD
ATOM      7  H12 UNL     1      92.876 120.803 127.230  1.00  0.00     0.157 HD
HETATM    8  N2  UNL     1      91.979 117.834 126.269  1.00  0.00    -0.378 N 
ATOM      9  H2  UNL     1      91.823 117.989 125.273  1.00  0.00     0.160 HD
HETATM   10  C8  UNL     1      91.727 116.554 126.872  1.00  0.00     0.121 C 
HETATM   11  C9  UNL     1      91.618 115.389 125.962  1.00  0.00     0.020 C 
HETATM   12  C10 UNL     1      91.940 114.146 126.809  1.00  0.00     0.003 C 
HETATM   13  C11 UNL     1      91.160 114.106 128.086  1.00  0.00     0.020 C 
HETATM   14  C12 UNL     1      92.001 114.208 129.340  1.00  0.00     0.121 C 
HETATM   15  N3  UNL     1      91.183 114.771 130.342  1.00  0.00    -0.378 N 
ATOM     16  H3  UNL     1      90.240 115.069 130.092  1.00  0.00     0.160 HD
HETATM   17  C13 UNL     1      91.605 114.936 131.644  1.00  0.00     0.103 C 
HETATM   18  N5  UNL     1      92.314 116.141 132.020  1.00  0.00    -0.313 N 
ATOM     19  H5  UNL     1      92.622 116.154 132.992  1.00  0.00     0.170 HD
HETATM   20  C19 UNL     1      92.654 117.278 131.309  1.00  0.00     0.252 C 
HETATM   21  O2  UNL     1      93.907 117.582 131.291  1.00  0.00    -0.270 OA
ENDROOT
BRANCH  17  22
HETATM   22  C14 UNL     1      92.279 113.707 132.275  1.00  0.00     0.155 C 
BRANCH  22  23
HETATM   23  C15 UNL     1      91.485 113.157 133.417  1.00  0.00     0.118 C 
HETATM   24  S1  UNL     1      91.513 111.352 133.489  1.00  0.00    -0.095 SA
ENDBRANCH  22  23
BRANCH  22  25
HETATM   25  N4  UNL     1      93.616 114.047 132.590  1.00  0.00    -0.406 N 
ATOM     26  H4  UNL     1      93.828 114.758 133.290  1.00  0.00     0.154 HD
BRANCH  25  27
HETATM   27  C16 UNL     1      94.648 113.369 131.905  1.00  0.00     0.069 C 
HETATM   28  C17 UNL     1      95.577 114.418 131.277  1.00  0.00     0.031 C 
HETATM   29  C18 UNL     1      95.467 112.598 132.948  1.00  0.00     0.031 C 
ENDBRANCH  25  27
ENDBRANCH  22  25
ENDBRANCH  17  22
BRANCH   1  30
HETATM   30  C4  UNL     1      90.409 118.356 130.994  1.00  0.00     0.045 C 
BRANCH  30  31
HETATM   31  C2  UNL     1      89.998 119.797 131.180  1.00  0.00    -0.020 C 
HETATM   32  C1  UNL     1      89.210 120.307 129.992  1.00  0.00     0.009 C 
HETATM   33  C3  UNL     1      89.103 119.960 132.392  1.00  0.00     0.009 C 
ENDBRANCH  30  31
ENDBRANCH   1  30
TORSDOF 6
ENDMDL
MODEL 3
REMARK VINA RESULT: -7.310126379      3.137      5.803
REMARK  6 active torsions:
REMARK  status: ('A' for Active; 'I' for Inactive)
REMARK    1  A    between atoms: C2_2  and  C4_4 
REMARK    2  A    between atoms: C4_4  and  C5_5 
REMARK    3  A    between atoms: C13_21  and  C14_22 
REMARK    4  A    between atoms: C14_22  and  C15_23 
REMARK    5  A    between atoms: C14_22  and  N4_25 
REMARK    6  A    between atoms: N4_25  and  C16_27 
ROOT
HETATM    1  C5  UNL     1      93.282 113.425 127.532  1.00  0.00     0.214 C 
HETATM    2  O1  UNL     1      93.249 114.278 126.438  1.00  0.00    -0.369 OA
HETATM    3  C6  UNL     1      92.254 113.963 125.529  1.00  0.00     0.244 C 
HETATM    4  C7  UNL     1      92.648 114.426 124.181  1.00  0.00     0.094 C 
HETATM    5  N1  UNL     1      92.620 113.598 123.206  1.00  0.00    -0.387 N 
ATOM      6  H11 UNL     1      92.891 113.917 122.276  1.00  0.00     0.157 HD
ATOM      7  H12 UNL     1      92.327 112.638 123.388  1.00  0.00     0.157 HD
HETATM    8  N2  UNL     1      93.053 115.756 123.929  1.00  0.00    -0.378 N 
ATOM      9  H2  UNL     1      93.205 116.091 122.977  1.00  0.00     0.160 HD
HETATM   10  C8  UNL     1      93.243 116.622 125.061  1.00  0.00     0.121 C 
HETATM   11  C9  UNL     1      93.279 118.079 124.797  1.00  0.00     0.020 C 
HETATM   12  C10 UNL     1      92.901 118.768 126.120  1.00  0.00     0.003 C 
HETATM   13  C11 UNL     1      93.693 118.251 127.281  1.00  0.00     0.020 C 
HETATM   14  C12 UNL     1      92.874 117.535 128.332  1.00  0.00     0.121 C 
HETATM   15  N3  UNL     1      93.733 116.615 128.969  1.00  0.00    -0.378 N 
ATOM     16  H3  UNL     1      94.688 116.518 128.623  1.00  0.00     0.160 HD
HETATM   17  C13 UNL     1      93.337 115.842 130.040  1.00  0.00     0.103 C 
HETATM   18  N5  UNL     1      92.697 114.565 129.803  1.00  0.00    -0.313 N 
ATOM     19  H5  UNL     1      92.403 114.085 130.654  1.00  0.00     0.170 HD
HETATM   20  C19 UNL     1      92.411 113.872 128.640  1.00  0.00     0.252 C 
HETATM   21  O2  UNL     1      91.176 113.545 128.466  1.00  0.00    -0.270 OA
ENDROOT
BRANCH  17  22
HETATM   22  C14 UNL     1      92.606 116.600 131.160  1.00  0.00     0.155 C 
BRANCH  22  23
HETATM   23  C15 UNL     1      93.222 116.350 132.500  1.00  0.00     0.118 C 
HETATM   24  S1  UNL     1      95.015 116.573 132.503  1.00  0.00    -0.095 SA
ENDBRANCH  22  23
BRANCH  22  25
HETATM   25  N4  UNL     1      91.226 116.296 131.074  1.00  0.00    -0.406 N 
ATOM     26  H4  UNL     1      90.718 116.395 130.195  1.00  0.00     0.154 HD
BRANCH  25  27
HETATM   27  C16 UNL     1      90.575 115.850 132.246  1.00  0.00     0.069 C 
HETATM   28  C17 UNL     1      89.513 116.889 132.629  1.00  0.00     0.031 C 
HETATM   29  C18 UNL     1      89.841 114.549 131.899  1.00  0.00     0.031 C 
ENDBRANCH  25  27
ENDBRANCH  22  25
ENDBRANCH  17  22
BRANCH   1  30
HETATM   30  C4  UNL     1      94.706 113.184 127.893  1.00  0.00     0.045 C 
BRANCH  30  31
HETATM   31  C2  UNL     1      95.121 111.756 127.630  1.00  0.00    -0.020 C 
HETATM   32  C1  UNL     1      95.498 111.043 128.910  1.00  0.00     0.009 C 
HETATM   33  C3  UNL     1      93.989 110.962 127.010  1.00  0.00     0.009 C 
ENDBRANCH  30  31
ENDBRANCH   1  30
TORSDOF 6
ENDMDL
MODEL 4
REMARK VINA RESULT: -7.078797561      3.323      4.882
REMARK  6 active torsions:
REMARK  status: ('A' for Active; 'I' for Inactive)
REMARK    1  A    between atoms: C2_2  and  C4_4 
REMARK    2  A    between atoms: C4_4  and  C5_5 
REMARK    3  A    between atoms: C13_21  and  C14_22 
REMARK    4  A    between atoms: C14_22  and  C15_23 
REMARK    5  A    between atoms: C14_22  and  N4_25 
REMARK    6  A    between atoms: N4_25  and  C16_27 
ROOT
HETATM    1  C5  UNL     1      92.841 116.208 129.436  1.00  0.00     0.214 C 
HETATM    2  O1  UNL     1      92.807 117.053 128.337  1.00  0.00    -0.369 OA
HETATM    3  C6  UNL     1      93.611 118.170 128.481  1.00  0.00     0.244 C 
HETATM    4  C7  UNL     1      93.076 119.278 127.661  1.00  0.00     0.094 C 
HETATM    5  N1  UNL     1      92.862 120.413 128.212  1.00  0.00    -0.387 N 
ATOM      6  H11 UNL     1      92.493 121.177 127.646  1.00  0.00     0.157 HD
ATOM      7  H12 UNL     1      93.067 120.520 129.205  1.00  0.00     0.157 HD
HETATM    8  N2  UNL     1      92.793 119.129 126.285  1.00  0.00    -0.378 N 
ATOM      9  H2  UNL     1      92.540 119.931 125.708  1.00  0.00     0.160 HD
HETATM   10  C8  UNL     1      92.875 117.807 125.726  1.00  0.00     0.121 C 
HETATM   11  C9  UNL     1      92.968 117.702 124.251  1.00  0.00     0.020 C 
HETATM   12  C10 UNL     1      93.616 116.339 123.953  1.00  0.00     0.003 C 
HETATM   13  C11 UNL     1      92.953 115.217 124.690  1.00  0.00     0.020 C 
HETATM   14  C12 UNL     1      93.833 114.527 125.710  1.00  0.00     0.121 C 
HETATM   15  N3  UNL     1      92.979 113.991 126.697  1.00  0.00    -0.378 N 
ATOM     16  H3  UNL     1      91.978 114.178 126.631  1.00  0.00     0.160 HD
HETATM   17  C13 UNL     1      93.440 113.223 127.745  1.00  0.00     0.103 C 
HETATM   18  N5  UNL     1      93.886 113.867 128.962  1.00  0.00    -0.313 N 
ATOM     19  H5  UNL     1      94.248 113.221 129.664  1.00  0.00     0.170 HD
HETATM   20  C19 UNL     1      93.913 115.194 129.354  1.00  0.00     0.252 C 
HETATM   21  O2  UNL     1      95.062 115.653 129.715  1.00  0.00    -0.270 OA
ENDROOT
BRANCH  17  22
HETATM   22  C14 UNL     1      94.412 112.098 127.355  1.00  0.00     0.155 C 
BRANCH  22  23
HETATM   23  C15 UNL     1      93.714 110.965 126.673  1.00  0.00     0.118 C 
HETATM   24  S1  UNL     1      93.958 110.962 124.883  1.00  0.00    -0.095 SA
ENDBRANCH  22  23
BRANCH  22  25
HETATM   25  N4  UNL     1      95.153 111.734 128.504  1.00  0.00    -0.406 N 
ATOM     26  H4  UNL     1      94.695 111.599 129.406  1.00  0.00     0.154 HD
BRANCH  25  27
HETATM   27  C16 UNL     1      96.548 111.563 128.363  1.00  0.00     0.069 C 
HETATM   28  C17 UNL     1      97.040 112.517 127.266  1.00  0.00     0.031 C 
HETATM   29  C18 UNL     1      97.203 112.000 129.680  1.00  0.00     0.031 C 
ENDBRANCH  25  27
ENDBRANCH  22  25
ENDBRANCH  17  22
BRANCH   1  30
HETATM   30  C4  UNL     1      91.468 115.674 129.656  1.00  0.00     0.045 C 
BRANCH  30  31
HETATM   31  C2  UNL     1      91.131 115.573 131.125  1.00  0.00    -0.020 C 
HETATM   32  C1  UNL     1      90.442 116.825 131.624  1.00  0.00     0.009 C 
HETATM   33  C3  UNL     1      90.180 114.423 131.391  1.00  0.00     0.009 C 
ENDBRANCH  30  31
ENDBRANCH   1  30
TORSDOF 6
ENDMDL
MODEL 5
REMARK VINA RESULT: -7.078428855      4.079      8.189
REMARK  6 active torsions:
REMARK  status: ('A' for Active; 'I' for Inactive)
REMARK    1  A    between atoms: C2_2  and  C4_4 
REMARK    2  A    between atoms: C4_4  and  C5_5 
REMARK    3  A    between atoms: C13_21  and  C14_22 
REMARK    4  A    between atoms: C14_22  and  C15_23 
REMARK    5  A    between atoms: C14_22  and  N4_25 
REMARK    6  A    between atoms: N4_25  and  C16_27 
ROOT
HETATM    1  C5  UNL     1      92.294 112.424 136.019  1.00  0.00     0.214 C 
HETATM    2  O1  UNL     1      93.642 112.746 136.061  1.00  0.00    -0.369 OA
HETATM    3  C6  UNL     1      94.471 111.667 135.806  1.00  0.00     0.244 C 
HETATM    4  C7  UNL     1      95.777 111.876 136.466  1.00  0.00     0.094 C 
HETATM    5  N1  UNL     1      96.240 110.962 137.232  1.00  0.00    -0.387 N 
ATOM      6  H11 UNL     1      97.141 111.105 137.688  1.00  0.00     0.157 HD
ATOM      7  H12 UNL     1      95.691 110.112 137.367  1.00  0.00     0.157 HD
HETATM    8  N2  UNL     1      96.537 113.053 136.280  1.00  0.00    -0.378 N 
ATOM      9  H2  UNL     1      97.487 113.131 136.644  1.00  0.00     0.160 HD
HETATM   10  C8  UNL     1      95.925 114.135 135.558  1.00  0.00     0.121 C 
HETATM   11  C9  UNL     1      96.825 115.186 135.028  1.00  0.00     0.020 C 
HETATM   12  C10 UNL     1      96.073 115.852 133.862  1.00  0.00     0.003 C 
HETATM   13  C11 UNL     1      94.679 116.251 134.234  1.00  0.00     0.020 C 
HETATM   14  C12 UNL     1      93.592 115.517 133.480  1.00  0.00     0.121 C 
HETATM   15  N3  UNL     1      92.450 115.505 134.309  1.00  0.00    -0.378 N 
ATOM     16  H3  UNL     1      92.523 115.900 135.247  1.00  0.00     0.160 HD
HETATM   17  C13 UNL     1      91.240 114.983 133.904  1.00  0.00     0.103 C 
HETATM   18  N5  UNL     1      90.972 113.572 134.088  1.00  0.00    -0.313 N 
ATOM     19  H5  UNL     1      90.068 113.271 133.720  1.00  0.00     0.170 HD
HETATM   20  C19 UNL     1      91.709 112.555 134.668  1.00  0.00     0.252 C 
HETATM   21  O2  UNL     1      91.941 111.529 133.923  1.00  0.00    -0.270 OA
ENDROOT
BRANCH  17  22
HETATM   22  C14 UNL     1      90.763 115.436 132.515  1.00  0.00     0.155 C 
BRANCH  22  23
HETATM   23  C15 UNL     1      89.752 116.535 132.600  1.00  0.00     0.118 C 
HETATM   24  S1  UNL     1      90.277 118.040 131.749  1.00  0.00    -0.095 SA
ENDBRANCH  22  23
BRANCH  22  25
HETATM   25  N4  UNL     1      90.337 114.292 131.798  1.00  0.00    -0.406 N 
ATOM     26  H4  UNL     1      89.418 113.880 131.960  1.00  0.00     0.154 HD
BRANCH  25  27
HETATM   27  C16 UNL     1      91.225 113.740 130.849  1.00  0.00     0.069 C 
HETATM   28  C17 UNL     1      90.614 112.434 130.322  1.00  0.00     0.031 C 
HETATM   29  C18 UNL     1      91.307 114.717 129.669  1.00  0.00     0.031 C 
ENDBRANCH  25  27
ENDBRANCH  22  25
ENDBRANCH  17  22
BRANCH   1  30
HETATM   30  C4  UNL     1      91.600 113.184 137.095  1.00  0.00     0.045 C 
BRANCH  30  31
HETATM   31  C2  UNL     1      90.809 112.276 138.007  1.00  0.00    -0.020 C 
HETATM   32  C1  UNL     1      91.714 111.349 138.789  1.00  0.00     0.009 C 
HETATM   33  C3  UNL     1      90.023 113.073 139.027  1.00  0.00     0.009 C 
ENDBRANCH  30  31
ENDBRANCH   1  30
TORSDOF 6
ENDMDL
