MODEL 1
REMARK VINA RESULT: -9.992673992      0.000      0.000
REMARK  8 active torsions:
REMARK  status: ('A' for Active; 'I' for Inactive)
REMARK    1  A    between atoms: C2_2  and  C3_3 
REMARK    2  A    between atoms: C6_6  and  N1_7 
REMARK    3  A    between atoms: N1_7  and  C7_9 
REMARK    4  A    between atoms: C8_12  and  N3_13 
REMARK    5  A    between atoms: N3_13  and  C9_15 
REMARK    6  A    between atoms: C11_17  and  C12_18 
REMARK    7  A    between atoms: C15_27  and  N7_28 
REMARK       I    between atoms: N7_28  and  C16_30 
REMARK    8  A    between atoms: N10_35  and  O1_36 
ROOT
HETATM    1  C7  UNL     1      90.633 118.945 128.787  1.00  0.00     0.734 A 
HETATM    2  N2  UNL     1      90.965 118.021 129.715  1.00  0.00    -0.019 N 
ATOM      3  H2  UNL     1      91.546 117.229 129.441  1.00  0.00     0.203 HD
HETATM    4  C8  UNL     1      90.549 118.117 130.991  1.00  0.00     0.713 A 
HETATM    5  N6  UNL     1      89.789 119.158 131.333  1.00  0.00    -0.019 N 
ATOM      6  H6  UNL     1      89.467 119.245 132.297  1.00  0.00     0.203 HD
HETATM    7  C15 UNL     1      89.431 120.118 130.414  1.00  0.00     0.741 A 
HETATM    8  N10 UNL     1      89.853 120.006 129.150  1.00  0.00     0.128 N 
ENDROOT
BRANCH   4   9
HETATM    9  N3  UNL     1      90.905 117.201 131.812  1.00  0.00    -0.174 N 
ATOM     10  H3  UNL     1      91.494 117.478 132.597  1.00  0.00     0.186 HD
BRANCH   9  11
HETATM   11  C9  UNL     1      90.546 115.843 131.714  1.00  0.00     0.137 A 
HETATM   12  C10 UNL     1      91.070 114.829 130.943  1.00  0.00     0.077 A 
HETATM   13  C11 UNL     1      90.376 113.664 131.201  1.00  0.00     0.033 A 
HETATM   14  N4  UNL     1      89.447 113.986 132.119  1.00  0.00    -0.303 N 
HETATM   15  N5  UNL     1      89.549 115.282 132.423  1.00  0.00    -0.285 N 
ATOM     16  H4  UNL     1      88.768 113.339 132.521  1.00  0.00     0.186 HD
ATOM     17  H5  UNL     1      88.958 115.775 133.093  1.00  0.00     0.188 HD
BRANCH  13  18
HETATM   18  C12 UNL     1      90.601 112.325 130.594  1.00  0.00     0.037 A 
HETATM   19  C13 UNL     1      91.878 111.988 129.936  1.00  0.00     0.011 A 
HETATM   20  C14 UNL     1      91.690 111.492 131.338  1.00  0.00     0.011 A 
ENDBRANCH  13  18
ENDBRANCH   9  11
ENDBRANCH   4   9
BRANCH   1  21
HETATM   21  N1  UNL     1      91.004 118.894 127.565  1.00  0.00    -0.218 N 
ATOM     22  H1  UNL     1      90.492 119.463 126.892  1.00  0.00     0.178 HD
BRANCH  21  23
HETATM   23  C6  UNL     1      92.088 118.098 127.072  1.00  0.00     0.099 C 
HETATM   24  C5  UNL     1      91.611 116.819 126.415  1.00  0.00     0.026 C 
HETATM   25  C4  UNL     1      92.829 115.924 126.244  1.00  0.00     0.006 C 
HETATM   26  C3  UNL     1      93.777 116.601 125.308  1.00  0.00    -0.015 C 
HETATM   27  C18 UNL     1      93.293 117.975 124.880  1.00  0.00     0.006 C 
HETATM   28  C17 UNL     1      92.962 118.828 126.089  1.00  0.00     0.026 C 
BRANCH  26  29
HETATM   29  C2  UNL     1      93.992 115.746 124.103  1.00  0.00     0.000 C 
HETATM   30  C1  UNL     1      93.349 114.400 124.198  1.00  0.00     0.005 C 
ENDBRANCH  26  29
ENDBRANCH  21  23
ENDBRANCH   1  21
BRANCH   7  31
HETATM   31  N7  UNL     1      88.627 121.182 130.859  1.00  0.00    -0.161 N 
HETATM   32  C16 UNL     1      87.490 120.984 131.660  1.00  0.00     0.200 C 
HETATM   33  N8  UNL     1      86.328 120.849 131.086  1.00  0.00    -0.373 N 
HETATM   34  N9  UNL     1      87.544 120.940 133.097  1.00  0.00    -0.063 NA
ATOM     35  H82 UNL     1      86.289 120.881 130.068  1.00  0.00     0.158 HD
ATOM     36  H81 UNL     1      85.503 120.705 131.667  1.00  0.00     0.158 HD
ATOM     37  H7  UNL     1      88.879 122.133 130.590  1.00  0.00     0.187 HD
ENDBRANCH   7  31
BRANCH   8  38
HETATM   38  O1  UNL     1      89.513 120.942 128.222  1.00  0.00    -0.256 OA
ATOM     39  H1  UNL     1      89.771 121.847 128.351  1.00  0.00     0.246 HD
ENDBRANCH   8  38
TORSDOF 8
ENDMDL
MODEL 2
REMARK VINA RESULT: -9.632099064      1.516      1.842
REMARK  8 active torsions:
REMARK  status: ('A' for Active; 'I' for Inactive)
REMARK    1  A    between atoms: C2_2  and  C3_3 
REMARK    2  A    between atoms: C6_6  and  N1_7 
REMARK    3  A    between atoms: N1_7  and  C7_9 
REMARK    4  A    between atoms: C8_12  and  N3_13 
REMARK    5  A    between atoms: N3_13  and  C9_15 
REMARK    6  A    between atoms: C11_17  and  C12_18 
REMARK    7  A    between atoms: C15_27  and  N7_28 
REMARK       I    between atoms: N7_28  and  C16_30 
REMARK    8  A    between atoms: N10_35  and  O1_36 
ROOT
HETATM    1  C7  UNL     1      91.954 118.444 130.042  1.00  0.00     0.734 A 
HETATM    2  N2  UNL     1      91.504 117.401 130.772  1.00  0.00    -0.019 N 
ATOM      3  H2  UNL     1      91.992 116.507 130.714  1.00  0.00     0.203 HD
HETATM    4  C8  UNL     1      90.431 117.509 131.576  1.00  0.00     0.713 A 
HETATM    5  N6  UNL     1      89.805 118.685 131.642  1.00  0.00    -0.019 N 
ATOM      6  H6  UNL     1      88.990 118.783 132.248  1.00  0.00     0.203 HD
HETATM    7  C15 UNL     1      90.234 119.769 130.911  1.00  0.00     0.741 A 
HETATM    8  N10 UNL     1      91.303 119.642 130.118  1.00  0.00     0.128 N 
ENDROOT
BRANCH   4   9
HETATM    9  N3  UNL     1      90.066 116.475 132.238  1.00  0.00    -0.174 N 
ATOM     10  H3  UNL     1      89.700 116.623 133.178  1.00  0.00     0.186 HD
BRANCH   9  11
HETATM   11  C9  UNL     1      90.129 115.149 131.766  1.00  0.00     0.137 A 
HETATM   12  C10 UNL     1      90.899 114.585 130.773  1.00  0.00     0.077 A 
HETATM   13  C11 UNL     1      90.600 113.241 130.682  1.00  0.00     0.033 A 
HETATM   14  N4  UNL     1      89.659 113.010 131.616  1.00  0.00    -0.303 N 
HETATM   15  N5  UNL     1      89.379 114.146 132.259  1.00  0.00    -0.285 N 
ATOM     16  H4  UNL     1      89.226 112.105 131.803  1.00  0.00     0.186 HD
ATOM     17  H5  UNL     1      88.698 114.240 133.012  1.00  0.00     0.188 HD
BRANCH  13  18
HETATM   18  C12 UNL     1      91.191 112.245 129.749  1.00  0.00     0.037 A 
HETATM   19  C13 UNL     1      92.547 112.425 129.196  1.00  0.00     0.011 A 
HETATM   20  C14 UNL     1      92.411 111.486 130.356  1.00  0.00     0.011 A 
ENDBRANCH  13  18
ENDBRANCH   9  11
ENDBRANCH   4   9
BRANCH   1  21
HETATM   21  N1  UNL     1      92.968 118.387 129.266  1.00  0.00    -0.218 N 
ATOM     22  H1  UNL     1      93.821 118.855 129.570  1.00  0.00     0.178 HD
BRANCH  21  23
HETATM   23  C6  UNL     1      92.995 117.713 128.002  1.00  0.00     0.099 C 
HETATM   24  C5  UNL     1      93.264 116.229 128.145  1.00  0.00     0.026 C 
HETATM   25  C4  UNL     1      93.602 115.701 126.760  1.00  0.00     0.006 C 
HETATM   26  C3  UNL     1      92.398 115.873 125.890  1.00  0.00    -0.015 C 
HETATM   27  C18 UNL     1      91.257 116.574 126.605  1.00  0.00     0.006 C 
HETATM   28  C17 UNL     1      91.727 117.883 127.211  1.00  0.00     0.026 C 
BRANCH  26  29
HETATM   29  C2  UNL     1      91.938 114.541 125.397  1.00  0.00     0.000 C 
HETATM   30  C1  UNL     1      90.927 113.887 126.283  1.00  0.00     0.005 C 
ENDBRANCH  26  29
ENDBRANCH  21  23
ENDBRANCH   1  21
BRANCH   7  31
HETATM   31  N7  UNL     1      89.517 120.970 131.039  1.00  0.00    -0.161 N 
HETATM   32  C16 UNL     1      88.483 121.328 130.157  1.00  0.00     0.200 C 
HETATM   33  N8  UNL     1      88.766 122.053 129.112  1.00  0.00    -0.373 N 
HETATM   34  N9  UNL     1      87.112 120.943 130.362  1.00  0.00    -0.063 NA
ATOM     35  H82 UNL     1      89.737 122.326 128.967  1.00  0.00     0.158 HD
ATOM     36  H81 UNL     1      88.016 122.313 128.472  1.00  0.00     0.158 HD
ATOM     37  H7  UNL     1      89.755 121.606 131.800  1.00  0.00     0.187 HD
ENDBRANCH   7  31
BRANCH   8  38
HETATM   38  O1  UNL     1      91.749 120.699 129.385  1.00  0.00    -0.256 OA
ATOM     39  H1  UNL     1      91.368 121.559 129.520  1.00  0.00     0.246 HD
ENDBRANCH   8  38
TORSDOF 8
ENDMDL
MODEL 3
REMARK VINA RESULT: -9.558899231      2.280      6.788
REMARK  8 active torsions:
REMARK  status: ('A' for Active; 'I' for Inactive)
REMARK    1  A    between atoms: C2_2  and  C3_3 
REMARK    2  A    between atoms: C6_6  and  N1_7 
REMARK    3  A    between atoms: N1_7  and  C7_9 
REMARK    4  A    between atoms: C8_12  and  N3_13 
REMARK    5  A    between atoms: N3_13  and  C9_15 
REMARK    6  A    between atoms: C11_17  and  C12_18 
REMARK    7  A    between atoms: C15_27  and  N7_28 
REMARK       I    between atoms: N7_28  and  C16_30 
REMARK    8  A    between atoms: N10_35  and  O1_36 
ROOT
HETATM    1  C7  UNL     1      88.685 120.064 131.181  1.00  0.00     0.734 A 
HETATM    2  N2  UNL     1      89.294 119.040 131.817  1.00  0.00    -0.019 N 
ATOM      3  H2  UNL     1      88.983 118.783 132.754  1.00  0.00     0.203 HD
HETATM    4  C8  UNL     1      90.300 118.350 131.249  1.00  0.00     0.713 A 
HETATM    5  N6  UNL     1      90.695 118.699 130.024  1.00  0.00    -0.019 N 
ATOM      6  H6  UNL     1      91.455 118.185 129.579  1.00  0.00     0.203 HD
HETATM    7  C15 UNL     1      90.097 119.737 129.346  1.00  0.00     0.741 A 
HETATM    8  N10 UNL     1      89.099 120.412 129.927  1.00  0.00     0.128 N 
ENDROOT
BRANCH   4   9
HETATM    9  N3  UNL     1      90.827 117.393 131.916  1.00  0.00    -0.174 N 
ATOM     10  H3  UNL     1      91.550 117.633 132.594  1.00  0.00     0.186 HD
BRANCH   9  11
HETATM   11  C9  UNL     1      90.485 116.032 131.785  1.00  0.00     0.137 A 
HETATM   12  C10 UNL     1      90.927 115.076 130.898  1.00  0.00     0.077 A 
HETATM   13  C11 UNL     1      90.293 113.882 131.172  1.00  0.00     0.033 A 
HETATM   14  N4  UNL     1      89.481 114.128 132.215  1.00  0.00    -0.303 N 
HETATM   15  N5  UNL     1      89.595 115.408 132.579  1.00  0.00    -0.285 N 
ATOM     16  H4  UNL     1      88.871 113.442 132.661  1.00  0.00     0.186 HD
ATOM     17  H5  UNL     1      89.084 115.847 133.344  1.00  0.00     0.188 HD
BRANCH  13  18
HETATM   18  C12 UNL     1      90.466 112.584 130.465  1.00  0.00     0.037 A 
HETATM   19  C13 UNL     1      91.711 112.268 129.740  1.00  0.00     0.011 A 
HETATM   20  C14 UNL     1      91.560 111.678 131.109  1.00  0.00     0.011 A 
ENDBRANCH  13  18
ENDBRANCH   9  11
ENDBRANCH   4   9
BRANCH   1  21
HETATM   21  N1  UNL     1      87.727 120.746 131.681  1.00  0.00    -0.218 N 
ATOM     22  H1  UNL     1      86.885 120.860 131.119  1.00  0.00     0.178 HD
BRANCH  21  23
HETATM   23  C6  UNL     1      87.749 121.361 132.975  1.00  0.00     0.099 C 
HETATM   24  C5  UNL     1      87.863 120.347 134.094  1.00  0.00     0.026 C 
HETATM   25  C4  UNL     1      87.538 121.074 135.390  1.00  0.00     0.006 C 
HETATM   26  C3  UNL     1      88.580 122.123 135.608  1.00  0.00    -0.015 C 
HETATM   27  C18 UNL     1      89.577 122.202 134.466  1.00  0.00     0.006 C 
HETATM   28  C17 UNL     1      88.860 122.362 133.138  1.00  0.00     0.026 C 
BRANCH  26  29
HETATM   29  C2  UNL     1      89.302 121.860 136.888  1.00  0.00     0.000 C 
HETATM   30  C1  UNL     1      90.732 122.295 136.872  1.00  0.00     0.005 C 
ENDBRANCH  26  29
ENDBRANCH  21  23
ENDBRANCH   1  21
BRANCH   7  31
HETATM   31  N7  UNL     1      90.575 120.040 128.059  1.00  0.00    -0.161 N 
HETATM   32  C16 UNL     1      91.720 119.431 127.518  1.00  0.00     0.200 C 
HETATM   33  N8  UNL     1      92.876 120.013 127.667  1.00  0.00    -0.373 N 
HETATM   34  N9  UNL     1      91.675 118.193 126.785  1.00  0.00    -0.063 NA
ATOM     35  H82 UNL     1      92.908 120.890 128.187  1.00  0.00     0.158 HD
ATOM     36  H81 UNL     1      93.707 119.571 127.275  1.00  0.00     0.158 HD
ATOM     37  H7  UNL     1      90.071 120.726 127.497  1.00  0.00     0.187 HD
ENDBRANCH   7  31
BRANCH   8  38
HETATM   38  O1  UNL     1      88.491 121.442 129.277  1.00  0.00    -0.256 OA
ATOM     39  H1  UNL     1      88.797 121.701 128.416  1.00  0.00     0.246 HD
ENDBRANCH   8  38
TORSDOF 8
ENDMDL
MODEL 4
REMARK VINA RESULT: -9.555604764      1.487      1.766
REMARK  8 active torsions:
REMARK  status: ('A' for Active; 'I' for Inactive)
REMARK    1  A    between atoms: C2_2  and  C3_3 
REMARK    2  A    between atoms: C6_6  and  N1_7 
REMARK    3  A    between atoms: N1_7  and  C7_9 
REMARK    4  A    between atoms: C8_12  and  N3_13 
REMARK    5  A    between atoms: N3_13  and  C9_15 
REMARK    6  A    between atoms: C11_17  and  C12_18 
REMARK    7  A    between atoms: C15_27  and  N7_28 
REMARK       I    between atoms: N7_28  and  C16_30 
REMARK    8  A    between atoms: N10_35  and  O1_36 
ROOT
HETATM    1  C7  UNL     1      91.723 118.470 130.408  1.00  0.00     0.734 A 
HETATM    2  N2  UNL     1      91.284 117.529 131.273  1.00  0.00    -0.019 N 
ATOM      3  H2  UNL     1      91.763 116.629 131.312  1.00  0.00     0.203 HD
HETATM    4  C8  UNL     1      90.234 117.747 132.085  1.00  0.00     0.713 A 
HETATM    5  N6  UNL     1      89.619 118.929 132.022  1.00  0.00    -0.019 N 
ATOM      6  H6  UNL     1      88.822 119.110 132.632  1.00  0.00     0.203 HD
HETATM    7  C15 UNL     1      90.037 119.911 131.153  1.00  0.00     0.741 A 
HETATM    8  N10 UNL     1      91.084 119.676 130.353  1.00  0.00     0.128 N 
ENDROOT
BRANCH   4   9
HETATM    9  N3  UNL     1      89.878 116.806 132.877  1.00  0.00    -0.174 N 
ATOM     10  H3  UNL     1      89.380 117.070 133.727  1.00  0.00     0.186 HD
BRANCH   9  11
HETATM   11  C9  UNL     1      90.122 115.435 132.665  1.00  0.00     0.137 A 
HETATM   12  C10 UNL     1      90.095 114.686 131.510  1.00  0.00     0.077 A 
HETATM   13  C11 UNL     1      90.406 113.377 131.816  1.00  0.00     0.033 A 
HETATM   14  N4  UNL     1      90.615 113.350 133.144  1.00  0.00    -0.303 N 
HETATM   15  N5  UNL     1      90.445 114.575 133.649  1.00  0.00    -0.285 N 
ATOM     16  H4  UNL     1      90.865 112.521 133.684  1.00  0.00     0.186 HD
ATOM     17  H5  UNL     1      90.544 114.822 134.633  1.00  0.00     0.188 HD
BRANCH  13  18
HETATM   18  C12 UNL     1      90.494 112.226 130.877  1.00  0.00     0.037 A 
HETATM   19  C13 UNL     1      90.987 112.400 129.498  1.00  0.00     0.011 A 
HETATM   20  C14 UNL     1      91.961 111.856 130.499  1.00  0.00     0.011 A 
ENDBRANCH  13  18
ENDBRANCH   9  11
ENDBRANCH   4   9
BRANCH   1  21
HETATM   21  N1  UNL     1      92.715 118.307 129.620  1.00  0.00    -0.218 N 
ATOM     22  H1  UNL     1      93.535 118.894 129.766  1.00  0.00     0.178 HD
BRANCH  21  23
HETATM   23  C6  UNL     1      92.760 117.360 128.546  1.00  0.00     0.099 C 
HETATM   24  C5  UNL     1      91.504 117.386 127.700  1.00  0.00     0.026 C 
HETATM   25  C4  UNL     1      91.525 116.139 126.830  1.00  0.00     0.006 C 
HETATM   26  C3  UNL     1      92.703 116.230 125.914  1.00  0.00    -0.015 C 
HETATM   27  C18 UNL     1      93.547 117.465 126.171  1.00  0.00     0.006 C 
HETATM   28  C17 UNL     1      93.941 117.552 127.634  1.00  0.00     0.026 C 
BRANCH  26  29
HETATM   29  C2  UNL     1      92.240 116.224 124.495  1.00  0.00     0.000 C 
HETATM   30  C1  UNL     1      92.839 117.311 123.662  1.00  0.00     0.005 C 
ENDBRANCH  26  29
ENDBRANCH  21  23
ENDBRANCH   1  21
BRANCH   7  31
HETATM   31  N7  UNL     1      89.333 121.127 131.150  1.00  0.00    -0.161 N 
HETATM   32  C16 UNL     1      88.365 121.435 130.180  1.00  0.00     0.200 C 
HETATM   33  N8  UNL     1      88.726 122.082 129.109  1.00  0.00    -0.373 N 
HETATM   34  N9  UNL     1      86.977 121.082 130.321  1.00  0.00    -0.063 NA
ATOM     35  H82 UNL     1      89.709 122.332 129.008  1.00  0.00     0.158 HD
ATOM     36  H81 UNL     1      88.023 122.305 128.404  1.00  0.00     0.158 HD
ATOM     37  H7  UNL     1      89.533 121.811 131.880  1.00  0.00     0.187 HD
ENDBRANCH   7  31
BRANCH   8  38
HETATM   38  O1  UNL     1      91.518 120.630 129.485  1.00  0.00    -0.256 OA
ATOM     39  H1  UNL     1      92.074 121.333 129.799  1.00  0.00     0.246 HD
ENDBRANCH   8  38
TORSDOF 8
ENDMDL
MODEL 5
REMARK VINA RESULT: -9.553112983      2.215      6.938
REMARK  8 active torsions:
REMARK  status: ('A' for Active; 'I' for Inactive)
REMARK    1  A    between atoms: C2_2  and  C3_3 
REMARK    2  A    between atoms: C6_6  and  N1_7 
REMARK    3  A    between atoms: N1_7  and  C7_9 
REMARK    4  A    between atoms: C8_12  and  N3_13 
REMARK    5  A    between atoms: N3_13  and  C9_15 
REMARK    6  A    between atoms: C11_17  and  C12_18 
REMARK    7  A    between atoms: C15_27  and  N7_28 
REMARK       I    between atoms: N7_28  and  C16_30 
REMARK    8  A    between atoms: N10_35  and  O1_36 
ROOT
HETATM    1  C7  UNL     1      92.232 118.594 129.982  1.00  0.00     0.734 A 
HETATM    2  N2  UNL     1      91.150 119.402 130.022  1.00  0.00    -0.019 N 
ATOM      3  H2  UNL     1      90.670 119.544 130.910  1.00  0.00     0.203 HD
HETATM    4  C8  UNL     1      90.689 120.024 128.922  1.00  0.00     0.713 A 
HETATM    5  N6  UNL     1      91.329 119.828 127.768  1.00  0.00    -0.019 N 
ATOM      6  H6  UNL     1      90.993 120.294 126.926  1.00  0.00     0.203 HD
HETATM    7  C15 UNL     1      92.434 119.012 127.690  1.00  0.00     0.741 A 
HETATM    8  N10 UNL     1      92.878 118.401 128.794  1.00  0.00     0.128 N 
ENDROOT
BRANCH   4   9
HETATM    9  N3  UNL     1      89.658 120.774 129.040  1.00  0.00    -0.174 N 
ATOM     10  H3  UNL     1      89.465 121.431 128.284  1.00  0.00     0.186 HD
BRANCH   9  11
HETATM   11  C9  UNL     1      88.770 120.762 130.133  1.00  0.00     0.137 A 
HETATM   12  C10 UNL     1      89.013 120.682 131.487  1.00  0.00     0.077 A 
HETATM   13  C11 UNL     1      87.809 120.705 132.161  1.00  0.00     0.033 A 
HETATM   14  N4  UNL     1      86.859 120.799 131.213  1.00  0.00    -0.303 N 
HETATM   15  N5  UNL     1      87.432 120.831 130.008  1.00  0.00    -0.285 N 
ATOM     16  H4  UNL     1      85.855 120.839 131.389  1.00  0.00     0.186 HD
ATOM     17  H5  UNL     1      86.930 120.898 129.122  1.00  0.00     0.188 HD
BRANCH  13  18
HETATM   18  C12 UNL     1      87.596 120.642 133.632  1.00  0.00     0.037 A 
HETATM   19  C13 UNL     1      88.664 121.021 134.577  1.00  0.00     0.011 A 
HETATM   20  C14 UNL     1      87.603 122.045 134.312  1.00  0.00     0.011 A 
ENDBRANCH  13  18
ENDBRANCH   9  11
ENDBRANCH   4   9
BRANCH   1  21
HETATM   21  N1  UNL     1      92.704 117.983 131.000  1.00  0.00    -0.218 N 
ATOM     22  H1  UNL     1      93.613 118.285 131.352  1.00  0.00     0.178 HD
BRANCH  21  23
HETATM   23  C6  UNL     1      92.052 116.907 131.684  1.00  0.00     0.099 C 
HETATM   24  C5  UNL     1      90.707 116.567 131.075  1.00  0.00     0.026 C 
HETATM   25  C4  UNL     1      89.982 115.671 132.067  1.00  0.00     0.006 C 
HETATM   26  C3  UNL     1      90.761 114.403 132.205  1.00  0.00    -0.015 C 
HETATM   27  C18 UNL     1      92.048 114.419 131.399  1.00  0.00     0.006 C 
HETATM   28  C17 UNL     1      92.874 115.648 131.730  1.00  0.00     0.026 C 
BRANCH  26  29
HETATM   29  C2  UNL     1      89.919 113.245 131.784  1.00  0.00     0.000 C 
HETATM   30  C1  UNL     1      90.468 112.497 130.612  1.00  0.00     0.005 C 
ENDBRANCH  26  29
ENDBRANCH  21  23
ENDBRANCH   1  21
BRANCH   7  31
HETATM   31  N7  UNL     1      93.048 118.860 126.435  1.00  0.00    -0.161 N 
HETATM   32  C16 UNL     1      93.073 117.632 125.752  1.00  0.00     0.200 C 
HETATM   33  N8  UNL     1      94.089 116.835 125.919  1.00  0.00    -0.373 N 
HETATM   34  N9  UNL     1      92.028 117.216 124.854  1.00  0.00    -0.063 NA
ATOM     35  H82 UNL     1      94.830 117.130 126.555  1.00  0.00     0.158 HD
ATOM     36  H81 UNL     1      94.108 115.944 125.424  1.00  0.00     0.158 HD
ATOM     37  H7  UNL     1      93.492 119.671 126.004  1.00  0.00     0.187 HD
ENDBRANCH   7  31
BRANCH   8  38
HETATM   38  O1  UNL     1      93.969 117.589 128.743  1.00  0.00    -0.256 OA
ATOM     39  H1  UNL     1      94.795 117.930 128.421  1.00  0.00     0.246 HD
ENDBRANCH   8  38
TORSDOF 8
ENDMDL
