MODEL 1
REMARK VINA RESULT: -8.273368775      0.000      0.000
REMARK  7 active torsions:
REMARK  status: ('A' for Active; 'I' for Inactive)
REMARK    1  A    between atoms: C10_19  and  O5_20 
REMARK    2  A    between atoms: N3_22  and  O6_23 
REMARK    3  A    between atoms: O6_23  and  S1_24 
REMARK    4  A    between atoms: S1_24  and  N4_26 
REMARK    5  A    between atoms: N4_26  and  C11_28 
REMARK    6  A    between atoms: C11_28  and  C12_29 
REMARK    7  A    between atoms: C12_29  and  N5_30 
REMARK       I    between atoms: N6_33  and  C15_34 
ROOT
HETATM    1  N1  UNL     1      -3.090   6.776  10.491  1.00  0.00    -0.233 N 
ATOM      2  H11 UNL     1      -3.957   6.298  10.244  1.00  0.00     0.174 HD
ATOM      3  H12 UNL     1      -2.939   7.781  10.403  1.00  0.00     0.174 HD
HETATM    4  C1  UNL     1      -2.093   6.056  10.953  1.00  0.00     0.699 C 
HETATM    5  N2  UNL     1      -0.877   6.726  11.299  1.00  0.00    -0.223 N 
ATOM      6  H2  UNL     1      -0.545   7.463  10.677  1.00  0.00     0.177 HD
HETATM    7  C2  UNL     1      -0.093   6.429  12.466  1.00  0.00     0.164 C 
HETATM    8  C3  UNL     1       1.275   7.052  12.300  1.00  0.00     0.188 C 
HETATM    9  O1  UNL     1       1.685   6.798  10.996  1.00  0.00    -0.387 OA
HETATM   10  C4  UNL     1       2.424   7.806  10.432  1.00  0.00     0.193 C 
HETATM   11  C5  UNL     1       3.768   7.234  10.021  1.00  0.00     0.193 C 
HETATM   12  O2  UNL     1       3.659   5.849   9.911  1.00  0.00    -0.387 OA
HETATM   13  C6  UNL     1       4.042   5.437   8.651  1.00  0.00     0.193 C 
HETATM   14  C7  UNL     1       4.093   3.947   8.541  1.00  0.00     0.193 C 
HETATM   15  O3  UNL     1       3.119   3.294   9.283  1.00  0.00    -0.387 OA
HETATM   16  C8  UNL     1       1.835   3.679   8.940  1.00  0.00     0.194 C 
HETATM   17  C9  UNL     1       0.869   3.362  10.079  1.00  0.00     0.199 C 
HETATM   18  O4  UNL     1      -0.240   4.157  10.064  1.00  0.00    -0.340 OA
HETATM   19  C10 UNL     1      -1.352   3.637  10.660  1.00  0.00     0.416 C 
HETATM   20  N3  UNL     1      -2.303   4.664  11.074  1.00  0.00    -0.018 N 
ENDROOT
BRANCH  20  21
HETATM   21  O6  UNL     1      -3.490   4.239  11.617  1.00  0.00    -0.133 OA
BRANCH  21  22
HETATM   22  S1  UNL     1      -4.437   3.443  10.459  1.00  0.00     0.282 S 
HETATM   23  O7  UNL     1      -4.332   4.093   9.105  1.00  0.00    -0.203 OA
BRANCH  22  24
HETATM   24  N4  UNL     1      -4.025   1.759  10.455  1.00  0.00    -0.315 N 
ATOM     25  H4  UNL     1      -3.248   1.361   9.928  1.00  0.00     0.172 HD
BRANCH  24  26
HETATM   26  C11 UNL     1      -4.909   0.999  11.280  1.00  0.00     0.149 C 
BRANCH  26  27
HETATM   27  C12 UNL     1      -4.217   0.268  12.392  1.00  0.00     0.144 C 
BRANCH  27  28
HETATM   28  N5  UNL     1      -4.754   0.724  13.661  1.00  0.00    -0.159 NA
HETATM   29  C13 UNL     1      -3.877   1.832  14.079  1.00  0.00     0.146 C 
HETATM   30  C14 UNL     1      -4.527   2.379  15.359  1.00  0.00     0.181 C 
HETATM   31  N6  UNL     1      -5.136   1.231  15.973  1.00  0.00    -0.175 N 
HETATM   32  C15 UNL     1      -6.297   1.373  16.759  1.00  0.00     0.356 C 
HETATM   33  O9  UNL     1      -4.574   0.034  15.777  1.00  0.00    -0.087 OA
HETATM   34  N7  UNL     1      -6.955   0.289  17.396  1.00  0.00    -0.038 NA
HETATM   35  O8  UNL     1      -6.843   2.509  16.954  1.00  0.00    -0.248 OA
HETATM   36  O10 UNL     1      -4.742  -0.292  14.517  1.00  0.00    -0.115 OA
ENDBRANCH  27  28
ENDBRANCH  26  27
ENDBRANCH  24  26
ENDBRANCH  22  24
ENDBRANCH  21  22
ENDBRANCH  20  21
BRANCH  19  37
HETATM   37  O5  UNL     1      -1.091   2.829  11.762  1.00  0.00    -0.352 OA
ATOM     38  H5  UNL     1      -1.276   3.235  12.601  1.00  0.00     0.214 HD
ENDBRANCH  19  37
TORSDOF 7
ENDMDL
MODEL 2
REMARK VINA RESULT: -8.265347447      1.670      2.048
REMARK  7 active torsions:
REMARK  status: ('A' for Active; 'I' for Inactive)
REMARK    1  A    between atoms: C10_19  and  O5_20 
REMARK    2  A    between atoms: N3_22  and  O6_23 
REMARK    3  A    between atoms: O6_23  and  S1_24 
REMARK    4  A    between atoms: S1_24  and  N4_26 
REMARK    5  A    between atoms: N4_26  and  C11_28 
REMARK    6  A    between atoms: C11_28  and  C12_29 
REMARK    7  A    between atoms: C12_29  and  N5_30 
REMARK       I    between atoms: N6_33  and  C15_34 
ROOT
HETATM    1  N1  UNL     1      -2.950   6.548   9.049  1.00  0.00    -0.233 N 
ATOM      2  H11 UNL     1      -3.306   5.985   8.277  1.00  0.00     0.174 HD
ATOM      3  H12 UNL     1      -3.086   7.554   9.142  1.00  0.00     0.174 HD
HETATM    4  C1  UNL     1      -2.266   5.943   9.994  1.00  0.00     0.699 C 
HETATM    5  N2  UNL     1      -1.766   6.733  11.078  1.00  0.00    -0.223 N 
ATOM      6  H2  UNL     1      -1.369   7.646  10.859  1.00  0.00     0.177 HD
HETATM    7  C2  UNL     1      -1.786   6.323  12.455  1.00  0.00     0.164 C 
HETATM    8  C3  UNL     1      -0.854   7.219  13.240  1.00  0.00     0.188 C 
HETATM    9  O1  UNL     1       0.304   7.366  12.484  1.00  0.00    -0.387 OA
HETATM   10  C4  UNL     1       0.888   8.603  12.586  1.00  0.00     0.193 C 
HETATM   11  C5  UNL     1       2.307   8.414  13.092  1.00  0.00     0.193 C 
HETATM   12  O2  UNL     1       2.706   7.101  12.850  1.00  0.00    -0.387 OA
HETATM   13  C6  UNL     1       3.865   7.082  12.102  1.00  0.00     0.193 C 
HETATM   14  C7  UNL     1       4.415   5.700  11.956  1.00  0.00     0.193 C 
HETATM   15  O3  UNL     1       3.442   4.714  11.863  1.00  0.00    -0.387 OA
HETATM   16  C8  UNL     1       2.573   4.915  10.804  1.00  0.00     0.194 C 
HETATM   17  C9  UNL     1       1.270   4.156  11.043  1.00  0.00     0.199 C 
HETATM   18  O4  UNL     1       0.214   4.703  10.374  1.00  0.00    -0.340 OA
HETATM   19  C10 UNL     1      -0.815   3.853  10.090  1.00  0.00     0.416 C 
HETATM   20  N3  UNL     1      -2.077   4.549   9.865  1.00  0.00    -0.018 N 
ENDROOT
BRANCH  20  21
HETATM   21  O6  UNL     1      -3.159   3.787   9.498  1.00  0.00    -0.133 OA
BRANCH  21  22
HETATM   22  S1  UNL     1      -4.369   3.840  10.682  1.00  0.00     0.282 S 
HETATM   23  O7  UNL     1      -5.465   4.808  10.322  1.00  0.00    -0.203 OA
BRANCH  22  24
HETATM   24  N4  UNL     1      -4.936   2.231  10.983  1.00  0.00    -0.315 N 
ATOM     25  H4  UNL     1      -5.692   1.784  10.464  1.00  0.00     0.172 HD
BRANCH  24  26
HETATM   26  C11 UNL     1      -4.213   1.607  12.045  1.00  0.00     0.149 C 
BRANCH  26  27
HETATM   27  C12 UNL     1      -3.889   2.533  13.179  1.00  0.00     0.144 C 
BRANCH  27  28
HETATM   28  N5  UNL     1      -4.682   2.157  14.336  1.00  0.00    -0.159 NA
HETATM   29  C13 UNL     1      -5.169   3.427  14.902  1.00  0.00     0.146 C 
HETATM   30  C14 UNL     1      -6.100   3.008  16.050  1.00  0.00     0.181 C 
HETATM   31  N6  UNL     1      -5.532   1.784  16.546  1.00  0.00    -0.175 N 
HETATM   32  C15 UNL     1      -6.356   0.794  17.117  1.00  0.00     0.356 C 
HETATM   33  O9  UNL     1      -4.209   1.614  16.449  1.00  0.00    -0.087 OA
HETATM   34  N7  UNL     1      -5.870  -0.437  17.627  1.00  0.00    -0.038 NA
HETATM   35  O8  UNL     1      -7.619   0.944  17.215  1.00  0.00    -0.248 OA
HETATM   36  O10 UNL     1      -3.909   1.482  15.178  1.00  0.00    -0.115 OA
ENDBRANCH  27  28
ENDBRANCH  26  27
ENDBRANCH  24  26
ENDBRANCH  22  24
ENDBRANCH  21  22
ENDBRANCH  20  21
BRANCH  19  37
HETATM   37  O5  UNL     1      -1.034   2.871  11.051  1.00  0.00    -0.352 OA
ATOM     38  H5  UNL     1      -1.460   2.088  10.724  1.00  0.00     0.214 HD
ENDBRANCH  19  37
TORSDOF 7
ENDMDL
MODEL 3
REMARK VINA RESULT: -8.213272363      3.139      5.888
REMARK  7 active torsions:
REMARK  status: ('A' for Active; 'I' for Inactive)
REMARK    1  A    between atoms: C10_19  and  O5_20 
REMARK    2  A    between atoms: N3_22  and  O6_23 
REMARK    3  A    between atoms: O6_23  and  S1_24 
REMARK    4  A    between atoms: S1_24  and  N4_26 
REMARK    5  A    between atoms: N4_26  and  C11_28 
REMARK    6  A    between atoms: C11_28  and  C12_29 
REMARK    7  A    between atoms: C12_29  and  N5_30 
REMARK       I    between atoms: N6_33  and  C15_34 
ROOT
HETATM    1  N1  UNL     1      -2.296   5.756  13.315  1.00  0.00    -0.233 N 
ATOM      2  H11 UNL     1      -1.480   5.169  13.487  1.00  0.00     0.174 HD
ATOM      3  H12 UNL     1      -3.036   5.930  13.994  1.00  0.00     0.174 HD
HETATM    4  C1  UNL     1      -2.410   6.331  12.139  1.00  0.00     0.699 C 
HETATM    5  N2  UNL     1      -3.555   7.155  11.897  1.00  0.00    -0.223 N 
ATOM      6  H2  UNL     1      -4.458   6.829  12.239  1.00  0.00     0.177 HD
HETATM    7  C2  UNL     1      -3.515   8.413  11.203  1.00  0.00     0.164 C 
HETATM    8  C3  UNL     1      -4.925   8.795  10.814  1.00  0.00     0.188 C 
HETATM    9  O1  UNL     1      -5.539   7.648  10.322  1.00  0.00    -0.387 OA
HETATM   10  C4  UNL     1      -6.874   7.553  10.618  1.00  0.00     0.193 C 
HETATM   11  C5  UNL     1      -7.642   7.449   9.312  1.00  0.00     0.193 C 
HETATM   12  O2  UNL     1      -6.775   7.024   8.308  1.00  0.00    -0.387 OA
HETATM   13  C6  UNL     1      -7.259   5.877   7.711  1.00  0.00     0.193 C 
HETATM   14  C7  UNL     1      -6.445   5.478   6.524  1.00  0.00     0.193 C 
HETATM   15  O3  UNL     1      -5.088   5.744   6.656  1.00  0.00    -0.387 OA
HETATM   16  C8  UNL     1      -4.525   5.123   7.758  1.00  0.00     0.194 C 
HETATM   17  C9  UNL     1      -3.232   5.831   8.155  1.00  0.00     0.199 C 
HETATM   18  O4  UNL     1      -2.921   5.655   9.472  1.00  0.00    -0.340 OA
HETATM   19  C10 UNL     1      -1.599   5.771   9.791  1.00  0.00     0.416 C 
HETATM   20  N3  UNL     1      -1.384   6.090  11.199  1.00  0.00    -0.018 N 
ENDROOT
BRANCH  20  21
HETATM   21  O6  UNL     1      -0.084   6.154  11.637  1.00  0.00    -0.133 OA
BRANCH  21  22
HETATM   22  S1  UNL     1       0.741   4.713  11.303  1.00  0.00     0.282 S 
HETATM   23  O7  UNL     1       2.217   4.834  11.582  1.00  0.00    -0.203 OA
BRANCH  22  24
HETATM   24  N4  UNL     1      -0.022   3.414  12.158  1.00  0.00    -0.315 N 
ATOM     25  H4  UNL     1      -0.112   3.371  13.173  1.00  0.00     0.172 HD
BRANCH  24  26
HETATM   26  C11 UNL     1      -0.510   2.411  11.265  1.00  0.00     0.149 C 
BRANCH  26  27
HETATM   27  C12 UNL     1      -1.974   2.530  10.965  1.00  0.00     0.144 C 
BRANCH  27  28
HETATM   28  N5  UNL     1      -2.730   2.009  12.090  1.00  0.00    -0.159 NA
HETATM   29  C13 UNL     1      -4.090   1.780  11.571  1.00  0.00     0.146 C 
HETATM   30  C14 UNL     1      -4.843   1.119  12.735  1.00  0.00     0.181 C 
HETATM   31  N6  UNL     1      -4.248   1.684  13.915  1.00  0.00    -0.175 N 
HETATM   32  C15 UNL     1      -4.188   0.940  15.111  1.00  0.00     0.356 C 
HETATM   33  O9  UNL     1      -3.758   2.926  13.847  1.00  0.00    -0.087 OA
HETATM   34  N7  UNL     1      -3.618   1.428  16.315  1.00  0.00    -0.038 NA
HETATM   35  O8  UNL     1      -4.652  -0.246  15.190  1.00  0.00    -0.248 OA
HETATM   36  O10 UNL     1      -2.697   2.901  13.073  1.00  0.00    -0.115 OA
ENDBRANCH  27  28
ENDBRANCH  26  27
ENDBRANCH  24  26
ENDBRANCH  22  24
ENDBRANCH  21  22
ENDBRANCH  20  21
BRANCH  19  37
HETATM   37  O5  UNL     1      -0.903   6.706   9.031  1.00  0.00    -0.352 OA
ATOM     38  H5  UNL     1      -1.030   6.625   8.093  1.00  0.00     0.214 HD
ENDBRANCH  19  37
TORSDOF 7
ENDMDL
MODEL 4
REMARK VINA RESULT: -8.202424890      2.420      3.770
REMARK  7 active torsions:
REMARK  status: ('A' for Active; 'I' for Inactive)
REMARK    1  A    between atoms: C10_19  and  O5_20 
REMARK    2  A    between atoms: N3_22  and  O6_23 
REMARK    3  A    between atoms: O6_23  and  S1_24 
REMARK    4  A    between atoms: S1_24  and  N4_26 
REMARK    5  A    between atoms: N4_26  and  C11_28 
REMARK    6  A    between atoms: C11_28  and  C12_29 
REMARK    7  A    between atoms: C12_29  and  N5_30 
REMARK       I    between atoms: N6_33  and  C15_34 
ROOT
HETATM    1  N1  UNL     1      -4.890   8.577  10.798  1.00  0.00    -0.233 N 
ATOM      2  H11 UNL     1      -5.738   8.498  10.239  1.00  0.00     0.174 HD
ATOM      3  H12 UNL     1      -4.426   9.457  11.023  1.00  0.00     0.174 HD
HETATM    4  C1  UNL     1      -4.348   7.475  11.264  1.00  0.00     0.699 C 
HETATM    5  N2  UNL     1      -3.156   7.585  12.049  1.00  0.00    -0.223 N 
ATOM      6  H2  UNL     1      -2.444   8.248  11.743  1.00  0.00     0.177 HD
HETATM    7  C2  UNL     1      -2.897   6.824  13.240  1.00  0.00     0.164 C 
HETATM    8  C3  UNL     1      -1.425   6.926  13.568  1.00  0.00     0.188 C 
HETATM    9  O1  UNL     1      -0.728   6.773  12.374  1.00  0.00    -0.387 OA
HETATM   10  C4  UNL     1       0.415   7.527  12.290  1.00  0.00     0.193 C 
HETATM   11  C5  UNL     1       1.585   6.587  12.060  1.00  0.00     0.193 C 
HETATM   12  O2  UNL     1       1.105   5.378  11.557  1.00  0.00    -0.387 OA
HETATM   13  C6  UNL     1       1.717   5.083  10.356  1.00  0.00     0.193 C 
HETATM   14  C7  UNL     1       1.352   3.721   9.862  1.00  0.00     0.193 C 
HETATM   15  O3  UNL     1       0.047   3.347  10.155  1.00  0.00    -0.387 OA
HETATM   16  C8  UNL     1      -0.891   4.227   9.643  1.00  0.00     0.194 C 
HETATM   17  C9  UNL     1      -2.210   4.087  10.399  1.00  0.00     0.199 C 
HETATM   18  O4  UNL     1      -2.968   5.220  10.346  1.00  0.00    -0.340 OA
HETATM   19  C10 UNL     1      -4.312   5.044  10.506  1.00  0.00     0.416 C 
HETATM   20  N3  UNL     1      -4.991   6.256  10.952  1.00  0.00    -0.018 N 
ENDROOT
BRANCH  20  21
HETATM   21  O6  UNL     1      -6.357   6.204  11.072  1.00  0.00    -0.133 OA
BRANCH  21  22
HETATM   22  S1  UNL     1      -6.842   6.549  12.658  1.00  0.00     0.282 S 
HETATM   23  O7  UNL     1      -8.134   7.323  12.694  1.00  0.00    -0.203 OA
BRANCH  22  24
HETATM   24  N4  UNL     1      -6.891   5.074  13.567  1.00  0.00    -0.315 N 
ATOM     25  H4  UNL     1      -7.370   4.228  13.260  1.00  0.00     0.172 HD
BRANCH  24  26
HETATM   26  C11 UNL     1      -6.177   5.191  14.799  1.00  0.00     0.149 C 
BRANCH  26  27
HETATM   27  C12 UNL     1      -6.192   3.940  15.626  1.00  0.00     0.144 C 
BRANCH  27  28
HETATM   28  N5  UNL     1      -5.596   2.862  14.859  1.00  0.00    -0.159 NA
HETATM   29  C13 UNL     1      -4.981   1.969  15.858  1.00  0.00     0.146 C 
HETATM   30  C14 UNL     1      -4.460   0.776  15.042  1.00  0.00     0.181 C 
HETATM   31  N6  UNL     1      -4.099   1.339  13.770  1.00  0.00    -0.175 N 
HETATM   32  C15 UNL     1      -4.183   0.563  12.596  1.00  0.00     0.356 C 
HETATM   33  O9  UNL     1      -3.684   2.609  13.733  1.00  0.00    -0.087 OA
HETATM   34  N7  UNL     1      -3.845   1.048  11.306  1.00  0.00    -0.038 NA
HETATM   35  O8  UNL     1      -4.577  -0.650  12.618  1.00  0.00    -0.248 OA
HETATM   36  O10 UNL     1      -4.710   3.379  14.016  1.00  0.00    -0.115 OA
ENDBRANCH  27  28
ENDBRANCH  26  27
ENDBRANCH  24  26
ENDBRANCH  22  24
ENDBRANCH  21  22
ENDBRANCH  20  21
BRANCH  19  37
HETATM   37  O5  UNL     1      -4.659   4.016  11.378  1.00  0.00    -0.352 OA
ATOM     38  H5  UNL     1      -4.754   3.166  10.966  1.00  0.00     0.214 HD
ENDBRANCH  19  37
TORSDOF 7
ENDMDL
MODEL 5
REMARK VINA RESULT: -8.142120841      3.762      6.200
REMARK  7 active torsions:
REMARK  status: ('A' for Active; 'I' for Inactive)
REMARK    1  A    between atoms: C10_19  and  O5_20 
REMARK    2  A    between atoms: N3_22  and  O6_23 
REMARK    3  A    between atoms: O6_23  and  S1_24 
REMARK    4  A    between atoms: S1_24  and  N4_26 
REMARK    5  A    between atoms: N4_26  and  C11_28 
REMARK    6  A    between atoms: C11_28  and  C12_29 
REMARK    7  A    between atoms: C12_29  and  N5_30 
REMARK       I    between atoms: N6_33  and  C15_34 
ROOT
HETATM    1  N1  UNL     1      -1.894   6.085  10.947  1.00  0.00    -0.233 N 
ATOM      2  H11 UNL     1      -1.832   5.257  11.539  1.00  0.00     0.174 HD
ATOM      3  H12 UNL     1      -1.392   6.956  11.117  1.00  0.00     0.174 HD
HETATM    4  C1  UNL     1      -2.671   6.035   9.889  1.00  0.00     0.699 C 
HETATM    5  N2  UNL     1      -2.757   7.197   9.057  1.00  0.00    -0.223 N 
ATOM      6  H2  UNL     1      -2.810   8.107   9.513  1.00  0.00     0.177 HD
HETATM    7  C2  UNL     1      -2.775   7.165   7.620  1.00  0.00     0.164 C 
HETATM    8  C3  UNL     1      -3.248   8.508   7.112  1.00  0.00     0.188 C 
HETATM    9  O1  UNL     1      -4.330   8.886   7.901  1.00  0.00    -0.387 OA
HETATM   10  C4  UNL     1      -4.411  10.235   8.134  1.00  0.00     0.193 C 
HETATM   11  C5  UNL     1      -5.754  10.723   7.621  1.00  0.00     0.193 C 
HETATM   12  O2  UNL     1      -6.623   9.639   7.520  1.00  0.00    -0.387 OA
HETATM   13  C6  UNL     1      -7.767   9.870   8.258  1.00  0.00     0.193 C 
HETATM   14  C7  UNL     1      -8.793   8.805   8.048  1.00  0.00     0.193 C 
HETATM   15  O3  UNL     1      -8.260   7.537   7.864  1.00  0.00    -0.387 OA
HETATM   16  C8  UNL     1      -7.467   7.130   8.923  1.00  0.00     0.194 C 
HETATM   17  C9  UNL     1      -6.517   6.023   8.472  1.00  0.00     0.199 C 
HETATM   18  O4  UNL     1      -5.393   5.950   9.242  1.00  0.00    -0.340 OA
HETATM   19  C10 UNL     1      -4.774   4.734   9.277  1.00  0.00     0.416 C 
HETATM   20  N3  UNL     1      -3.367   4.829   9.653  1.00  0.00    -0.018 N 
ENDROOT
BRANCH  20  21
HETATM   21  O6  UNL     1      -2.673   3.652   9.790  1.00  0.00    -0.133 OA
BRANCH  21  22
HETATM   22  S1  UNL     1      -3.366   2.674  10.988  1.00  0.00     0.282 S 
HETATM   23  O7  UNL     1      -3.418   1.228  10.571  1.00  0.00    -0.203 OA
BRANCH  22  24
HETATM   24  N4  UNL     1      -2.531   2.936  12.484  1.00  0.00    -0.315 N 
ATOM     25  H4  UNL     1      -1.631   2.519  12.718  1.00  0.00     0.172 HD
BRANCH  24  26
HETATM   26  C11 UNL     1      -3.261   3.809  13.348  1.00  0.00     0.149 C 
BRANCH  26  27
HETATM   27  C12 UNL     1      -4.748   3.719  13.181  1.00  0.00     0.144 C 
BRANCH  27  28
HETATM   28  N5  UNL     1      -5.310   3.020  14.323  1.00  0.00    -0.159 NA
HETATM   29  C13 UNL     1      -5.855   4.076  15.194  1.00  0.00     0.146 C 
HETATM   30  C14 UNL     1      -6.549   3.317  16.335  1.00  0.00     0.181 C 
HETATM   31  N6  UNL     1      -5.772   2.119  16.495  1.00  0.00    -0.175 N 
HETATM   32  C15 UNL     1      -6.378   0.929  16.946  1.00  0.00     0.356 C 
HETATM   33  O9  UNL     1      -4.468   2.165  16.205  1.00  0.00    -0.087 OA
HETATM   34  N7  UNL     1      -5.679  -0.292  17.128  1.00  0.00    -0.038 NA
HETATM   35  O8  UNL     1      -7.622   0.872  17.226  1.00  0.00    -0.248 OA
HETATM   36  O10 UNL     1      -4.346   2.318  14.907  1.00  0.00    -0.115 OA
ENDBRANCH  27  28
ENDBRANCH  26  27
ENDBRANCH  24  26
ENDBRANCH  22  24
ENDBRANCH  21  22
ENDBRANCH  20  21
BRANCH  19  37
HETATM   37  O5  UNL     1      -4.850   4.014   8.090  1.00  0.00    -0.352 OA
ATOM     38  H5  UNL     1      -5.359   3.214   8.147  1.00  0.00     0.214 HD
ENDBRANCH  19  37
TORSDOF 7
ENDMDL
