MODEL 1
REMARK VINA RESULT: -8.993987997      0.000      0.000
REMARK  4 active torsions:
REMARK  status: ('A' for Active; 'I' for Inactive)
REMARK    1  A    between atoms: N2_7  and  C5_9 
REMARK    2  A    between atoms: C7_11  and  N3_12 
REMARK    3  A    between atoms: N3_12  and  C8_14 
REMARK    4  A    between atoms: C8_14  and  C9_15 
ROOT
HETATM    1  C5  UNL     1      88.095 120.595  12.157  1.00  0.00     0.125 A 
HETATM    2  C6  UNL     1      88.164 120.971  13.488  1.00  0.00     0.099 A 
HETATM    3  C7  UNL     1      86.916 121.289  13.932  1.00  0.00     0.119 A 
HETATM    4  N4  UNL     1      86.088 121.109  12.882  1.00  0.00    -0.284 N 
ATOM      5  H4  UNL     1      85.080 121.264  12.890  1.00  0.00     0.188 HD
HETATM    6  N5  UNL     1      86.801 120.694  11.830  1.00  0.00    -0.284 N 
ATOM      7  H5  UNL     1      86.414 120.485  10.909  1.00  0.00     0.188 HD
ENDROOT
BRANCH   1   8
HETATM    8  N2  UNL     1      89.157 120.186  11.303  1.00  0.00    -0.327 N 
HETATM    9  C4  UNL     1      89.740 119.045  11.470  1.00  0.00     0.114 A 
HETATM   10  N1  UNL     1      89.386 118.189  12.444  1.00  0.00    -0.351 N 
HETATM   11  C13 UNL     1      90.763 118.676  10.629  1.00  0.00     0.004 A 
HETATM   12  C3  UNL     1      90.008 117.016  12.593  1.00  0.00     0.098 A 
ATOM     13  H1  UNL     1      88.629 118.439  13.081  1.00  0.00     0.166 HD
HETATM   14  C2  UNL     1      91.041 116.609  11.767  1.00  0.00    -0.024 A 
HETATM   15  C1  UNL     1      91.738 115.321  11.916  1.00  0.00     0.051 C 
HETATM   16  C15 UNL     1      91.413 117.471  10.770  1.00  0.00     0.051 A 
HETATM   17 CL1  UNL     1      92.712 117.081   9.648  1.00  0.00    -0.083 Cl
HETATM   18  C14 UNL     1      91.170 119.623   9.535  1.00  0.00     0.054 C 
ATOM     19  H2  UNL     1      89.462 120.802  10.550  1.00  0.00     0.169 HD
ENDBRANCH   1   8
BRANCH   3  20
HETATM   20  N3  UNL     1      86.622 121.680  15.124  1.00  0.00    -0.375 N 
ATOM     21  H3  UNL     1      85.787 122.249  15.261  1.00  0.00     0.161 HD
BRANCH  20  22
HETATM   22  C8  UNL     1      87.435 121.342  16.278  1.00  0.00     0.128 C 
BRANCH  22  23
HETATM   23  C9  UNL     1      86.768 120.168  16.957  1.00  0.00     0.029 C 
HETATM   24  C10 UNL     1      86.135 120.556  18.276  1.00  0.00     0.034 C 
HETATM   25  C11 UNL     1      86.309 119.304  19.080  1.00  0.00     0.168 C 
HETATM   26  O1  UNL     1      87.210 118.494  18.450  1.00  0.00    -0.391 OA
HETATM   27  C12 UNL     1      87.842 119.203  17.456  1.00  0.00     0.173 C 
ENDBRANCH  22  23
ENDBRANCH  20  22
ENDBRANCH   3  20
TORSDOF 4
ENDMDL
MODEL 2
REMARK VINA RESULT: -8.418682174      3.813      7.230
REMARK  4 active torsions:
REMARK  status: ('A' for Active; 'I' for Inactive)
REMARK    1  A    between atoms: N2_7  and  C5_9 
REMARK    2  A    between atoms: C7_11  and  N3_12 
REMARK    3  A    between atoms: N3_12  and  C8_14 
REMARK    4  A    between atoms: C8_14  and  C9_15 
ROOT
HETATM    1  C5  UNL     1      87.866 121.146  12.719  1.00  0.00     0.125 A 
HETATM    2  C6  UNL     1      88.781 120.266  12.168  1.00  0.00     0.099 A 
HETATM    3  C7  UNL     1      88.954 120.562  10.849  1.00  0.00     0.119 A 
HETATM    4  N4  UNL     1      88.151 121.615  10.594  1.00  0.00    -0.284 N 
ATOM      5  H4  UNL     1      88.051 122.078   9.690  1.00  0.00     0.188 HD
HETATM    6  N5  UNL     1      87.507 121.956  11.715  1.00  0.00    -0.284 N 
ATOM      7  H5  UNL     1      86.839 122.723  11.795  1.00  0.00     0.188 HD
ENDROOT
BRANCH   1   8
HETATM    8  N2  UNL     1      87.394 121.198  14.060  1.00  0.00    -0.327 N 
HETATM    9  C4  UNL     1      87.660 120.247  14.893  1.00  0.00     0.114 A 
HETATM   10  N1  UNL     1      88.385 119.168  14.550  1.00  0.00    -0.351 N 
HETATM   11  C13 UNL     1      87.191 120.324  16.183  1.00  0.00     0.004 A 
HETATM   12  C3  UNL     1      88.643 118.200  15.433  1.00  0.00     0.098 A 
ATOM     13  H1  UNL     1      88.745 119.088  13.599  1.00  0.00     0.166 HD
HETATM   14  C2  UNL     1      88.190 118.241  16.740  1.00  0.00    -0.024 A 
HETATM   15  C1  UNL     1      88.465 117.184  17.726  1.00  0.00     0.051 C 
HETATM   16  C15 UNL     1      87.449 119.334  17.104  1.00  0.00     0.051 A 
HETATM   17 CL1  UNL     1      86.810 119.515  18.734  1.00  0.00    -0.083 Cl
HETATM   18  C14 UNL     1      86.378 121.524  16.582  1.00  0.00     0.054 C 
ATOM     19  H2  UNL     1      86.838 121.996  14.367  1.00  0.00     0.169 HD
ENDBRANCH   1   8
BRANCH   3  20
HETATM   20  N3  UNL     1      89.736 119.938  10.038  1.00  0.00    -0.375 N 
ATOM     21  H3  UNL     1      89.341 119.540   9.185  1.00  0.00     0.161 HD
BRANCH  20  22
HETATM   22  C8  UNL     1      91.157 119.781  10.290  1.00  0.00     0.128 C 
BRANCH  22  23
HETATM   23  C9  UNL     1      91.622 118.600   9.471  1.00  0.00     0.029 C 
HETATM   24  C10 UNL     1      92.014 118.999   8.065  1.00  0.00     0.034 C 
HETATM   25  C11 UNL     1      91.628 117.783   7.280  1.00  0.00     0.168 C 
HETATM   26  O1  UNL     1      90.821 116.996   8.052  1.00  0.00    -0.391 OA
HETATM   27  C12 UNL     1      90.425 117.702   9.163  1.00  0.00     0.173 C 
ENDBRANCH  22  23
ENDBRANCH  20  22
ENDBRANCH   3  20
TORSDOF 4
ENDMDL
MODEL 3
REMARK VINA RESULT: -8.416878165      1.661      2.035
REMARK  4 active torsions:
REMARK  status: ('A' for Active; 'I' for Inactive)
REMARK    1  A    between atoms: N2_7  and  C5_9 
REMARK    2  A    between atoms: C7_11  and  N3_12 
REMARK    3  A    between atoms: N3_12  and  C8_14 
REMARK    4  A    between atoms: C8_14  and  C9_15 
ROOT
HETATM    1  C5  UNL     1      89.237 120.064  11.273  1.00  0.00     0.125 A 
HETATM    2  C6  UNL     1      89.484 119.977  12.633  1.00  0.00     0.099 A 
HETATM    3  C7  UNL     1      88.331 120.216  13.317  1.00  0.00     0.119 A 
HETATM    4  N4  UNL     1      87.384 120.448  12.384  1.00  0.00    -0.284 N 
ATOM      5  H4  UNL     1      86.405 120.661  12.575  1.00  0.00     0.188 HD
HETATM    6  N5  UNL     1      87.935 120.355  11.170  1.00  0.00    -0.284 N 
ATOM      7  H5  UNL     1      87.435 120.487  10.290  1.00  0.00     0.188 HD
ENDROOT
BRANCH   1   8
HETATM    8  N2  UNL     1      90.155 119.887  10.201  1.00  0.00    -0.327 N 
HETATM    9  C4  UNL     1      90.564 118.707   9.866  1.00  0.00     0.114 A 
HETATM   10  N1  UNL     1      90.156 117.595  10.502  1.00  0.00    -0.351 N 
HETATM   11  C13 UNL     1      91.450 118.566   8.826  1.00  0.00     0.004 A 
HETATM   12  C3  UNL     1      90.598 116.389  10.134  1.00  0.00     0.098 A 
ATOM     13  H1  UNL     1      89.498 117.673  11.277  1.00  0.00     0.166 HD
HETATM   14  C2  UNL     1      91.489 116.206   9.092  1.00  0.00    -0.024 A 
HETATM   15  C1  UNL     1      91.986 114.885   8.674  1.00  0.00     0.051 C 
HETATM   16  C15 UNL     1      91.914 117.330   8.435  1.00  0.00     0.051 A 
HETATM   17 CL1  UNL     1      93.047 117.243   7.092  1.00  0.00    -0.083 Cl
HETATM   18  C14 UNL     1      91.915 119.801   8.106  1.00  0.00     0.054 C 
ATOM     19  H2  UNL     1      90.494 120.702   9.689  1.00  0.00     0.169 HD
ENDBRANCH   1   8
BRANCH   3  20
HETATM   20  N3  UNL     1      88.206 120.213  14.599  1.00  0.00    -0.375 N 
ATOM     21  H3  UNL     1      88.743 119.539  15.143  1.00  0.00     0.161 HD
BRANCH  20  22
HETATM   22  C8  UNL     1      87.328 121.134  15.298  1.00  0.00     0.128 C 
BRANCH  22  23
HETATM   23  C9  UNL     1      87.424 120.803  16.769  1.00  0.00     0.029 C 
HETATM   24  C10 UNL     1      87.780 119.351  17.005  1.00  0.00     0.034 C 
HETATM   25  C11 UNL     1      87.047 119.057  18.278  1.00  0.00     0.168 C 
HETATM   26  O1  UNL     1      86.143 120.054  18.509  1.00  0.00    -0.391 OA
HETATM   27  C12 UNL     1      86.024 120.831  17.380  1.00  0.00     0.173 C 
ENDBRANCH  22  23
ENDBRANCH  20  22
ENDBRANCH   3  20
TORSDOF 4
ENDMDL
MODEL 4
REMARK VINA RESULT: -8.379713147      3.916      7.712
REMARK  4 active torsions:
REMARK  status: ('A' for Active; 'I' for Inactive)
REMARK    1  A    between atoms: N2_7  and  C5_9 
REMARK    2  A    between atoms: C7_11  and  N3_12 
REMARK    3  A    between atoms: N3_12  and  C8_14 
REMARK    4  A    between atoms: C8_14  and  C9_15 
ROOT
HETATM    1  C5  UNL     1      89.334 119.215  12.772  1.00  0.00     0.125 A 
HETATM    2  C6  UNL     1      90.529 119.407  12.100  1.00  0.00     0.099 A 
HETATM    3  C7  UNL     1      90.300 120.139  10.975  1.00  0.00     0.119 A 
HETATM    4  N4  UNL     1      88.975 120.394  10.956  1.00  0.00    -0.284 N 
ATOM      5  H4  UNL     1      88.485 120.925  10.237  1.00  0.00     0.188 HD
HETATM    6  N5  UNL     1      88.409 119.838  12.033  1.00  0.00    -0.284 N 
ATOM      7  H5  UNL     1      87.415 119.883  12.258  1.00  0.00     0.188 HD
ENDROOT
BRANCH   1   8
HETATM    8  N2  UNL     1      89.114 118.509  13.988  1.00  0.00    -0.327 N 
HETATM    9  C4  UNL     1      88.477 119.061  14.968  1.00  0.00     0.114 A 
HETATM   10  N1  UNL     1      87.993 120.313  14.902  1.00  0.00    -0.351 N 
HETATM   11  C13 UNL     1      88.278 118.355  16.131  1.00  0.00     0.004 A 
HETATM   12  C3  UNL     1      87.340 120.857  15.931  1.00  0.00     0.098 A 
ATOM     13  H1  UNL     1      88.127 120.857  14.049  1.00  0.00     0.166 HD
HETATM   14  C2  UNL     1      87.119 120.179  17.118  1.00  0.00    -0.024 A 
HETATM   15  C1  UNL     1      86.402 120.763  18.263  1.00  0.00     0.051 C 
HETATM   16  C15 UNL     1      87.606 118.902  17.201  1.00  0.00     0.051 A 
HETATM   17 CL1  UNL     1      87.398 117.926  18.650  1.00  0.00    -0.083 Cl
HETATM   18  C14 UNL     1      88.813 116.953  16.221  1.00  0.00     0.054 C 
ATOM     19  H2  UNL     1      89.463 117.556  14.087  1.00  0.00     0.169 HD
ENDBRANCH   1   8
BRANCH   3  20
HETATM   20  N3  UNL     1      91.195 120.499  10.120  1.00  0.00    -0.375 N 
ATOM     21  H3  UNL     1      91.291 121.490   9.898  1.00  0.00     0.161 HD
BRANCH  20  22
HETATM   22  C8  UNL     1      92.071 119.547   9.462  1.00  0.00     0.128 C 
BRANCH  22  23
HETATM   23  C9  UNL     1      91.226 118.782   8.470  1.00  0.00     0.029 C 
HETATM   24  C10 UNL     1      90.910 117.382   8.951  1.00  0.00     0.034 C 
HETATM   25  C11 UNL     1      90.864 116.618   7.663  1.00  0.00     0.168 C 
HETATM   26  O1  UNL     1      91.425 117.379   6.677  1.00  0.00    -0.391 OA
HETATM   27  C12 UNL     1      92.072 118.452   7.242  1.00  0.00     0.173 C 
ENDBRANCH  22  23
ENDBRANCH  20  22
ENDBRANCH   3  20
TORSDOF 4
ENDMDL
MODEL 5
REMARK VINA RESULT: -8.369416673      1.204      1.398
REMARK  4 active torsions:
REMARK  status: ('A' for Active; 'I' for Inactive)
REMARK    1  A    between atoms: N2_7  and  C5_9 
REMARK    2  A    between atoms: C7_11  and  N3_12 
REMARK    3  A    between atoms: N3_12  and  C8_14 
REMARK    4  A    between atoms: C8_14  and  C9_15 
ROOT
HETATM    1  C5  UNL     1      88.741 120.885  11.091  1.00  0.00     0.125 A 
HETATM    2  C6  UNL     1      88.325 120.481  12.348  1.00  0.00     0.099 A 
HETATM    3  C7  UNL     1      87.366 121.335  12.802  1.00  0.00     0.119 A 
HETATM    4  N4  UNL     1      87.195 122.256  11.831  1.00  0.00    -0.284 N 
ATOM      5  H4  UNL     1      86.542 123.038  11.866  1.00  0.00     0.188 HD
HETATM    6  N5  UNL     1      88.019 121.978  10.816  1.00  0.00    -0.284 N 
ATOM      7  H5  UNL     1      88.089 122.522   9.955  1.00  0.00     0.188 HD
ENDROOT
BRANCH   1   8
HETATM    8  N2  UNL     1      89.723 120.284  10.255  1.00  0.00    -0.327 N 
HETATM    9  C4  UNL     1      90.147 119.085  10.487  1.00  0.00     0.114 A 
HETATM   10  N1  UNL     1      89.697 118.346  11.515  1.00  0.00    -0.351 N 
HETATM   11  C13 UNL     1      91.095 118.530   9.662  1.00  0.00     0.004 A 
HETATM   12  C3  UNL     1      90.155 117.111  11.731  1.00  0.00     0.098 A 
ATOM     13  H1  UNL     1      88.992 118.736  12.142  1.00  0.00     0.166 HD
HETATM   14  C2  UNL     1      91.108 116.516  10.922  1.00  0.00    -0.024 A 
HETATM   15  C1  UNL     1      91.625 115.156  11.145  1.00  0.00     0.051 C 
HETATM   16  C15 UNL     1      91.577 117.257   9.871  1.00  0.00     0.051 A 
HETATM   17 CL1  UNL     1      92.791 116.626   8.764  1.00  0.00    -0.083 Cl
HETATM   18  C14 UNL     1      91.609 119.344   8.507  1.00  0.00     0.054 C 
ATOM     19  H2  UNL     1      90.096 120.806   9.462  1.00  0.00     0.169 HD
ENDBRANCH   1   8
BRANCH   3  20
HETATM   20  N3  UNL     1      86.764 121.250  13.938  1.00  0.00    -0.375 N 
ATOM     21  H3  UNL     1      85.946 120.645  14.015  1.00  0.00     0.161 HD
BRANCH  20  22
HETATM   22  C8  UNL     1      87.205 121.982  15.111  1.00  0.00     0.128 C 
BRANCH  22  23
HETATM   23  C9  UNL     1      87.385 120.972  16.220  1.00  0.00     0.029 C 
HETATM   24  C10 UNL     1      86.138 120.826  17.065  1.00  0.00     0.034 C 
HETATM   25  C11 UNL     1      86.715 120.531  18.416  1.00  0.00     0.168 C 
HETATM   26  O1  UNL     1      88.048 120.829  18.403  1.00  0.00    -0.391 OA
HETATM   27  C12 UNL     1      88.343 121.541  17.264  1.00  0.00     0.173 C 
ENDBRANCH  22  23
ENDBRANCH  20  22
ENDBRANCH   3  20
TORSDOF 4
ENDMDL
