MODEL 1
REMARK VINA RESULT: -7.026249747      0.000      0.000
REMARK  10 active torsions:
REMARK  status: ('A' for Active; 'I' for Inactive)
REMARK    1  A    between atoms: C2_2  and  O1_3 
REMARK    2  A    between atoms: C3_5  and  C4_6 
REMARK    3  A    between atoms: C4_6  and  O2_7 
REMARK    4  A    between atoms: C5_10  and  O4_11 
REMARK    5  A    between atoms: O4_11  and  C6_12 
REMARK    6  A    between atoms: C8_15  and  O6_16 
REMARK    7  A    between atoms: C10_19  and  N1_20 
REMARK    8  A    between atoms: C11_24  and  O7_25 
REMARK    9  A    between atoms: C12_27  and  O8_28 
REMARK   10  A    between atoms: O8_28  and  C13_29 
ROOT
HETATM    1  C1  UNL     1       6.462   2.663  92.916  1.00  0.00     0.051 C 
HETATM    2  C2  UNL     1       6.347   3.996  92.167  1.00  0.00     0.111 C 
HETATM    3  C3  UNL     1       5.033   4.026  91.495  1.00  0.00     0.184 C 
HETATM    4  O3  UNL     1       4.865   4.985  90.533  1.00  0.00    -0.348 OA
HETATM    5  C5  UNL     1       5.963   5.799  90.326  1.00  0.00     0.294 C 
HETATM    6  C11 UNL     1       7.218   5.048  90.041  1.00  0.00     0.205 C 
HETATM    7  C12 UNL     1       7.537   4.203  91.283  1.00  0.00     0.192 C 
ENDROOT
BRANCH   5   8
HETATM    8  O4  UNL     1       5.699   6.626  89.229  1.00  0.00    -0.327 OA
BRANCH   8   9
HETATM    9  C6  UNL     1       4.640   7.473  89.418  1.00  0.00     0.293 C 
HETATM   10  O5  UNL     1       3.597   6.997  88.596  1.00  0.00    -0.357 OA
HETATM   11  C7  UNL     1       4.025   6.782  87.296  1.00  0.00     0.202 C 
HETATM   12  C8  UNL     1       4.385   8.089  86.622  1.00  0.00     0.144 C 
HETATM   13  C9  UNL     1       4.258   9.197  87.649  1.00  0.00     0.071 C 
HETATM   14  C10 UNL     1       4.978   8.841  88.934  1.00  0.00     0.240 C 
BRANCH  12  15
HETATM   15  O6  UNL     1       3.512   8.395  85.578  1.00  0.00    -0.393 OA
ATOM     16  H6  UNL     1       2.663   8.678  85.896  1.00  0.00     0.210 HD
ENDBRANCH  12  15
BRANCH  14  17
HETATM   17  N1  UNL     1       6.396   8.964  88.654  1.00  0.00    -0.070 N 
ATOM     18  H13 UNL     1       6.603   8.770  87.675  1.00  0.00     0.274 HD
ATOM     19  H12 UNL     1       6.702   9.937  88.688  1.00  0.00     0.274 HD
ATOM     20  H11 UNL     1       6.949   8.376  89.278  1.00  0.00     0.274 HD
ENDBRANCH  14  17
ENDBRANCH   8   9
ENDBRANCH   5   8
BRANCH   6  21
HETATM   21  O7  UNL     1       7.176   4.296  88.886  1.00  0.00    -0.388 OA
ATOM     22  H7  UNL     1       6.315   4.238  88.490  1.00  0.00     0.210 HD
ENDBRANCH   6  21
BRANCH   3  23
HETATM   23  C4  UNL     1       4.637   2.688  90.883  1.00  0.00     0.199 C 
BRANCH  23  24
HETATM   24  O2  UNL     1       3.428   2.810  90.171  1.00  0.00    -0.398 OA
ATOM     25  H2  UNL     1       2.687   2.715  90.757  1.00  0.00     0.209 HD
ENDBRANCH  23  24
ENDBRANCH   3  23
BRANCH   7  26
HETATM   26  O8  UNL     1       8.490   4.873  91.984  1.00  0.00    -0.375 OA
BRANCH  26  27
HETATM   27  C13 UNL     1       9.542   5.405  91.350  1.00  0.00     0.122 C 
HETATM   28  C14 UNL     1      10.391   6.382  92.089  1.00  0.00     0.032 C 
HETATM   29  C15 UNL     1      11.705   6.414  91.334  1.00  0.00     0.002 C 
HETATM   30  C16 UNL     1      11.533   5.470  90.162  1.00  0.00     0.002 C 
HETATM   31  C17 UNL     1      10.567   4.447  90.786  1.00  0.00     0.032 C 
ENDBRANCH  26  27
ENDBRANCH   7  26
BRANCH   2  32
HETATM   32  O1  UNL     1       6.316   4.972  93.193  1.00  0.00    -0.385 OA
ATOM     33  H1  UNL     1       5.513   4.787  93.668  1.00  0.00     0.210 HD
ENDBRANCH   2  32
TORSDOF 10
ENDMDL
MODEL 2
REMARK VINA RESULT: -7.014983074      2.027      6.179
REMARK  10 active torsions:
REMARK  status: ('A' for Active; 'I' for Inactive)
REMARK    1  A    between atoms: C2_2  and  O1_3 
REMARK    2  A    between atoms: C3_5  and  C4_6 
REMARK    3  A    between atoms: C4_6  and  O2_7 
REMARK    4  A    between atoms: C5_10  and  O4_11 
REMARK    5  A    between atoms: O4_11  and  C6_12 
REMARK    6  A    between atoms: C8_15  and  O6_16 
REMARK    7  A    between atoms: C10_19  and  N1_20 
REMARK    8  A    between atoms: C11_24  and  O7_25 
REMARK    9  A    between atoms: C12_27  and  O8_28 
REMARK   10  A    between atoms: O8_28  and  C13_29 
ROOT
HETATM    1  C1  UNL     1       2.661   6.478  86.872  1.00  0.00     0.051 C 
HETATM    2  C2  UNL     1       3.995   6.359  87.619  1.00  0.00     0.111 C 
HETATM    3  C3  UNL     1       4.023   5.041  88.287  1.00  0.00     0.184 C 
HETATM    4  O3  UNL     1       4.983   4.869  89.247  1.00  0.00    -0.348 OA
HETATM    5  C5  UNL     1       5.798   5.965  89.458  1.00  0.00     0.294 C 
HETATM    6  C11 UNL     1       5.049   7.220  89.748  1.00  0.00     0.205 C 
HETATM    7  C12 UNL     1       4.203   7.545  88.508  1.00  0.00     0.192 C 
ENDROOT
BRANCH   5   8
HETATM    8  O4  UNL     1       6.626   5.696  90.553  1.00  0.00    -0.327 OA
BRANCH   8   9
HETATM    9  C6  UNL     1       7.467   4.632  90.362  1.00  0.00     0.293 C 
HETATM   10  O5  UNL     1       6.981   3.589  91.179  1.00  0.00    -0.357 OA
HETATM   11  C7  UNL     1       6.765   4.012  92.480  1.00  0.00     0.202 C 
HETATM   12  C8  UNL     1       8.072   4.361  93.159  1.00  0.00     0.144 C 
HETATM   13  C9  UNL     1       9.183   4.231  92.135  1.00  0.00     0.071 C 
HETATM   14  C10 UNL     1       8.835   4.959  90.852  1.00  0.00     0.240 C 
BRANCH  12  15
HETATM   15  O6  UNL     1       8.369   3.482  94.201  1.00  0.00    -0.393 OA
ATOM     16  H6  UNL     1       9.155   2.978  94.027  1.00  0.00     0.210 HD
ENDBRANCH  12  15
BRANCH  14  17
HETATM   17  N1  UNL     1       8.967   6.375  91.138  1.00  0.00    -0.070 N 
ATOM     18  H13 UNL     1       8.150   6.736  91.631  1.00  0.00     0.274 HD
ATOM     19  H12 UNL     1       9.671   6.549  91.856  1.00  0.00     0.274 HD
ATOM     20  H11 UNL     1       9.158   6.908  90.289  1.00  0.00     0.274 HD
ENDBRANCH  14  17
ENDBRANCH   8   9
ENDBRANCH   5   8
BRANCH   6  21
HETATM   21  O7  UNL     1       4.298   7.175  90.904  1.00  0.00    -0.388 OA
ATOM     22  H7  UNL     1       3.477   7.650  90.854  1.00  0.00     0.210 HD
ENDBRANCH   6  21
BRANCH   3  23
HETATM   23  C4  UNL     1       2.685   4.645  88.898  1.00  0.00     0.199 C 
BRANCH  23  24
HETATM   24  O2  UNL     1       2.808   3.437  89.611  1.00  0.00    -0.398 OA
ATOM     25  H2  UNL     1       2.818   2.698  89.014  1.00  0.00     0.209 HD
ENDBRANCH  23  24
ENDBRANCH   3  23
BRANCH   7  26
HETATM   26  O8  UNL     1       4.875   8.500  87.811  1.00  0.00    -0.375 OA
BRANCH  26  27
HETATM   27  C13 UNL     1       5.407   9.549  88.448  1.00  0.00     0.122 C 
HETATM   28  C14 UNL     1       6.386  10.399  87.712  1.00  0.00     0.032 C 
HETATM   29  C15 UNL     1       6.420  11.710  88.471  1.00  0.00     0.002 C 
HETATM   30  C16 UNL     1       5.473  11.537  89.641  1.00  0.00     0.002 C 
HETATM   31  C17 UNL     1       4.450  10.574  89.013  1.00  0.00     0.032 C 
ENDBRANCH  26  27
ENDBRANCH   7  26
BRANCH   2  32
HETATM   32  O1  UNL     1       4.970   6.330  86.593  1.00  0.00    -0.385 OA
ATOM     33  H1  UNL     1       5.340   7.204  86.596  1.00  0.00     0.210 HD
ENDBRANCH   2  32
TORSDOF 10
ENDMDL
MODEL 3
REMARK VINA RESULT: -6.986563479      3.471      6.921
REMARK  10 active torsions:
REMARK  status: ('A' for Active; 'I' for Inactive)
REMARK    1  A    between atoms: C2_2  and  O1_3 
REMARK    2  A    between atoms: C3_5  and  C4_6 
REMARK    3  A    between atoms: C4_6  and  O2_7 
REMARK    4  A    between atoms: C5_10  and  O4_11 
REMARK    5  A    between atoms: O4_11  and  C6_12 
REMARK    6  A    between atoms: C8_15  and  O6_16 
REMARK    7  A    between atoms: C10_19  and  N1_20 
REMARK    8  A    between atoms: C11_24  and  O7_25 
REMARK    9  A    between atoms: C12_27  and  O8_28 
REMARK   10  A    between atoms: O8_28  and  C13_29 
ROOT
HETATM    1  C1  UNL     1       3.229   5.122  88.391  1.00  0.00     0.051 C 
HETATM    2  C2  UNL     1       4.264   6.221  88.127  1.00  0.00     0.111 C 
HETATM    3  C3  UNL     1       5.247   6.192  89.230  1.00  0.00     0.184 C 
HETATM    4  O3  UNL     1       6.066   7.282  89.342  1.00  0.00    -0.348 OA
HETATM    5  C5  UNL     1       5.855   8.267  88.395  1.00  0.00     0.294 C 
HETATM    6  C11 UNL     1       4.443   8.735  88.323  1.00  0.00     0.205 C 
HETATM    7  C12 UNL     1       3.585   7.535  87.894  1.00  0.00     0.192 C 
ENDROOT
BRANCH   5   8
HETATM    8  O4  UNL     1       6.656   9.368  88.717  1.00  0.00    -0.327 OA
BRANCH   8   9
HETATM    9  C6  UNL     1       6.625  10.367  87.781  1.00  0.00     0.293 C 
HETATM   10  O5  UNL     1       7.872  10.337  87.123  1.00  0.00    -0.357 OA
HETATM   11  C7  UNL     1       8.928  10.329  88.021  1.00  0.00     0.202 C 
HETATM   12  C8  UNL     1       9.003  11.639  88.777  1.00  0.00     0.144 C 
HETATM   13  C9  UNL     1       7.814  12.486  88.368  1.00  0.00     0.071 C 
HETATM   14  C10 UNL     1       6.523  11.696  88.446  1.00  0.00     0.240 C 
BRANCH  12  15
HETATM   15  O6  UNL     1      10.152  12.361  88.456  1.00  0.00    -0.393 OA
ATOM     16  H6  UNL     1      10.856  12.201  89.074  1.00  0.00     0.210 HD
ENDBRANCH  12  15
BRANCH  14  17
HETATM   17  N1  UNL     1       6.215  11.556  89.857  1.00  0.00    -0.070 N 
ATOM     18  H13 UNL     1       5.652  12.336  90.197  1.00  0.00     0.274 HD
ATOM     19  H12 UNL     1       5.552  10.800  90.023  1.00  0.00     0.274 HD
ATOM     20  H11 UNL     1       7.064  11.438  90.410  1.00  0.00     0.274 HD
ENDBRANCH  14  17
ENDBRANCH   8   9
ENDBRANCH   5   8
BRANCH   6  21
HETATM   21  O7  UNL     1       3.983   9.325  89.481  1.00  0.00    -0.388 OA
ATOM     22  H7  UNL     1       3.064   9.561  89.460  1.00  0.00     0.210 HD
ENDBRANCH   6  21
BRANCH   3  23
HETATM   23  C4  UNL     1       4.614   5.951  90.596  1.00  0.00     0.199 C 
BRANCH  23  24
HETATM   24  O2  UNL     1       4.664   7.123  91.375  1.00  0.00    -0.398 OA
ATOM     25  H2  UNL     1       4.570   6.913  92.296  1.00  0.00     0.209 HD
ENDBRANCH  23  24
ENDBRANCH   3  23
BRANCH   7  26
HETATM   26  O8  UNL     1       3.351   7.673  86.561  1.00  0.00    -0.375 OA
BRANCH  26  27
HETATM   27  C13 UNL     1       2.200   8.204  86.132  1.00  0.00     0.122 C 
HETATM   28  C14 UNL     1       2.105   8.624  84.706  1.00  0.00     0.032 C 
HETATM   29  C15 UNL     1       0.620   8.706  84.416  1.00  0.00     0.002 C 
HETATM   30  C16 UNL     1      -0.077   8.359  85.715  1.00  0.00     0.002 C 
HETATM   31  C17 UNL     1       0.947   7.375  86.309  1.00  0.00     0.032 C 
ENDBRANCH  26  27
ENDBRANCH   7  26
BRANCH   2  32
HETATM   32  O1  UNL     1       4.937   5.794  86.956  1.00  0.00    -0.385 OA
ATOM     33  H1  UNL     1       5.431   6.556  86.678  1.00  0.00     0.210 HD
ENDBRANCH   2  32
TORSDOF 10
ENDMDL
MODEL 4
REMARK VINA RESULT: -6.974351481      2.912      5.569
REMARK  10 active torsions:
REMARK  status: ('A' for Active; 'I' for Inactive)
REMARK    1  A    between atoms: C2_2  and  O1_3 
REMARK    2  A    between atoms: C3_5  and  C4_6 
REMARK    3  A    between atoms: C4_6  and  O2_7 
REMARK    4  A    between atoms: C5_10  and  O4_11 
REMARK    5  A    between atoms: O4_11  and  C6_12 
REMARK    6  A    between atoms: C8_15  and  O6_16 
REMARK    7  A    between atoms: C10_19  and  N1_20 
REMARK    8  A    between atoms: C11_24  and  O7_25 
REMARK    9  A    between atoms: C12_27  and  O8_28 
REMARK   10  A    between atoms: O8_28  and  C13_29 
ROOT
HETATM    1  C1  UNL     1       5.107   3.251  91.382  1.00  0.00     0.051 C 
HETATM    2  C2  UNL     1       6.208   4.285  91.647  1.00  0.00     0.111 C 
HETATM    3  C3  UNL     1       6.185   5.264  90.541  1.00  0.00     0.184 C 
HETATM    4  O3  UNL     1       7.278   6.080  90.432  1.00  0.00    -0.348 OA
HETATM    5  C5  UNL     1       8.259   5.870  91.383  1.00  0.00     0.294 C 
HETATM    6  C11 UNL     1       8.722   4.456  91.461  1.00  0.00     0.205 C 
HETATM    7  C12 UNL     1       7.518   3.603  91.888  1.00  0.00     0.192 C 
ENDROOT
BRANCH   5   8
HETATM    8  O4  UNL     1       9.363   6.667  91.063  1.00  0.00    -0.327 OA
BRANCH   8   9
HETATM    9  C6  UNL     1      10.363   6.628  91.998  1.00  0.00     0.293 C 
HETATM   10  O5  UNL     1      10.335   7.871  92.664  1.00  0.00    -0.357 OA
HETATM   11  C7  UNL     1      10.329   8.932  91.773  1.00  0.00     0.202 C 
HETATM   12  C8  UNL     1      11.639   9.009  91.016  1.00  0.00     0.144 C 
HETATM   13  C9  UNL     1      12.484   7.816  91.417  1.00  0.00     0.071 C 
HETATM   14  C10 UNL     1      11.691   6.527  91.332  1.00  0.00     0.240 C 
BRANCH  12  15
HETATM   15  O6  UNL     1      12.363  10.155  91.344  1.00  0.00    -0.393 OA
ATOM     16  H6  UNL     1      12.887  10.465  90.615  1.00  0.00     0.210 HD
ENDBRANCH  12  15
BRANCH  14  17
HETATM   17  N1  UNL     1      11.549   6.229  89.918  1.00  0.00    -0.070 N 
ATOM     18  H13 UNL     1      10.636   5.825  89.710  1.00  0.00     0.274 HD
ATOM     19  H12 UNL     1      11.474   7.080  89.362  1.00  0.00     0.274 HD
ATOM     20  H11 UNL     1      12.307   5.631  89.589  1.00  0.00     0.274 HD
ENDBRANCH  14  17
ENDBRANCH   8   9
ENDBRANCH   5   8
BRANCH   6  21
HETATM   21  O7  UNL     1       9.316   3.992  90.306  1.00  0.00    -0.388 OA
ATOM     22  H7  UNL     1       8.706   3.644  89.667  1.00  0.00     0.210 HD
ENDBRANCH   6  21
BRANCH   3  23
HETATM   23  C4  UNL     1       5.948   4.628  89.177  1.00  0.00     0.199 C 
BRANCH  23  24
HETATM   24  O2  UNL     1       7.126   4.666  88.405  1.00  0.00    -0.398 OA
ATOM     25  H2  UNL     1       7.179   3.902  87.843  1.00  0.00     0.209 HD
ENDBRANCH  23  24
ENDBRANCH   3  23
BRANCH   7  26
HETATM   26  O8  UNL     1       7.651   3.372  93.221  1.00  0.00    -0.375 OA
BRANCH  26  27
HETATM   27  C13 UNL     1       8.188   2.226  93.656  1.00  0.00     0.122 C 
HETATM   28  C14 UNL     1       8.608   2.140  95.083  1.00  0.00     0.032 C 
HETATM   29  C15 UNL     1       8.698   0.656  95.379  1.00  0.00     0.002 C 
HETATM   30  C16 UNL     1       8.356  -0.048  94.082  1.00  0.00     0.002 C 
HETATM   31  C17 UNL     1       7.367   0.968  93.483  1.00  0.00     0.032 C 
ENDBRANCH  26  27
ENDBRANCH   7  26
BRANCH   2  32
HETATM   32  O1  UNL     1       5.777   4.962  92.814  1.00  0.00    -0.385 OA
ATOM     33  H1  UNL     1       5.961   5.877  92.636  1.00  0.00     0.210 HD
ENDBRANCH   2  32
TORSDOF 10
ENDMDL
MODEL 5
REMARK VINA RESULT: -6.918557152      3.038      5.648
REMARK  10 active torsions:
REMARK  status: ('A' for Active; 'I' for Inactive)
REMARK    1  A    between atoms: C2_2  and  O1_3 
REMARK    2  A    between atoms: C3_5  and  C4_6 
REMARK    3  A    between atoms: C4_6  and  O2_7 
REMARK    4  A    between atoms: C5_10  and  O4_11 
REMARK    5  A    between atoms: O4_11  and  C6_12 
REMARK    6  A    between atoms: C8_15  and  O6_16 
REMARK    7  A    between atoms: C10_19  and  N1_20 
REMARK    8  A    between atoms: C11_24  and  O7_25 
REMARK    9  A    between atoms: C12_27  and  O8_28 
REMARK   10  A    between atoms: O8_28  and  C13_29 
ROOT
HETATM    1  C1  UNL     1       8.728   1.479  94.816  1.00  0.00     0.051 C 
HETATM    2  C2  UNL     1       8.079   1.735  93.451  1.00  0.00     0.111 C 
HETATM    3  C3  UNL     1       8.417   3.113  93.039  1.00  0.00     0.184 C 
HETATM    4  O3  UNL     1       7.687   3.634  92.007  1.00  0.00    -0.348 OA
HETATM    5  C5  UNL     1       6.724   2.787  91.490  1.00  0.00     0.294 C 
HETATM    6  C11 UNL     1       5.788   2.249  92.516  1.00  0.00     0.205 C 
HETATM    7  C12 UNL     1       6.619   1.408  93.496  1.00  0.00     0.192 C 
ENDROOT
BRANCH   5   8
HETATM    8  O4  UNL     1       5.969   3.497  90.550  1.00  0.00    -0.327 OA
BRANCH   8   9
HETATM    9  C6  UNL     1       5.956   4.850  90.759  1.00  0.00     0.293 C 
HETATM   10  O5  UNL     1       4.606   5.212  90.946  1.00  0.00    -0.357 OA
HETATM   11  C7  UNL     1       3.795   4.709  89.942  1.00  0.00     0.202 C 
HETATM   12  C8  UNL     1       4.114   5.360  88.612  1.00  0.00     0.144 C 
HETATM   13  C9  UNL     1       5.305   6.276  88.812  1.00  0.00     0.071 C 
HETATM   14  C10 UNL     1       6.428   5.567  89.541  1.00  0.00     0.240 C 
BRANCH  12  15
HETATM   15  O6  UNL     1       3.060   6.150  88.153  1.00  0.00    -0.393 OA
ATOM     16  H6  UNL     1       2.468   5.661  87.594  1.00  0.00     0.210 HD
ENDBRANCH  12  15
BRANCH  14  17
HETATM   17  N1  UNL     1       7.018   4.648  88.586  1.00  0.00    -0.070 N 
ATOM     18  H13 UNL     1       6.303   4.141  88.063  1.00  0.00     0.274 HD
ATOM     19  H12 UNL     1       7.456   5.144  87.810  1.00  0.00     0.274 HD
ATOM     20  H11 UNL     1       7.672   4.011  89.040  1.00  0.00     0.274 HD
ENDBRANCH  14  17
ENDBRANCH   8   9
ENDBRANCH   5   8
BRANCH   6  21
HETATM   21  O7  UNL     1       5.033   3.211  93.152  1.00  0.00    -0.388 OA
ATOM     22  H7  UNL     1       4.160   2.925  93.393  1.00  0.00     0.210 HD
ENDBRANCH   6  21
BRANCH   3  23
HETATM   23  C4  UNL     1       8.370   4.114  94.187  1.00  0.00     0.199 C 
BRANCH  23  24
HETATM   24  O2  UNL     1       7.250   4.958  94.059  1.00  0.00    -0.398 OA
ATOM     25  H2  UNL     1       7.525   5.855  93.912  1.00  0.00     0.209 HD
ENDBRANCH  23  24
ENDBRANCH   3  23
BRANCH   7  26
HETATM   26  O8  UNL     1       6.453   0.106  93.141  1.00  0.00    -0.375 OA
BRANCH  26  27
HETATM   27  C13 UNL     1       5.761  -0.724  93.930  1.00  0.00     0.122 C 
HETATM   28  C14 UNL     1       5.017  -1.847  93.294  1.00  0.00     0.032 C 
HETATM   29  C15 UNL     1       4.770  -2.841  94.411  1.00  0.00     0.002 C 
HETATM   30  C16 UNL     1       5.360  -2.218  95.659  1.00  0.00     0.002 C 
HETATM   31  C17 UNL     1       6.521  -1.424  95.034  1.00  0.00     0.032 C 
ENDBRANCH  26  27
ENDBRANCH   7  26
BRANCH   2  32
HETATM   32  O1  UNL     1       8.758   0.857  92.571  1.00  0.00    -0.385 OA
ATOM     33  H1  UNL     1       8.634   1.243  91.712  1.00  0.00     0.210 HD
ENDBRANCH   2  32
TORSDOF 10
ENDMDL
