MODEL 1
REMARK VINA RESULT: -7.298300092      0.000      0.000
REMARK  10 active torsions:
REMARK  status: ('A' for Active; 'I' for Inactive)
REMARK    1  A    between atoms: C3_4  and  O2_5 
REMARK    2  A    between atoms: O2_5  and  C4_6 
REMARK    3  A    between atoms: C7_9  and  O3_10 
REMARK    4  A    between atoms: C8_12  and  O4_13 
REMARK    5  A    between atoms: O4_13  and  C9_14 
REMARK    6  A    between atoms: C12_17  and  O5_18 
REMARK    7  A    between atoms: C13_20  and  C14_21 
REMARK    8  A    between atoms: C14_21  and  N1_22 
REMARK    9  A    between atoms: C15_27  and  N2_28 
REMARK   10  A    between atoms: C17_33  and  O7_34 
ROOT
HETATM    1  C4  UNL     1      -0.975   6.381  85.402  1.00  0.00     0.156 C 
HETATM    2  C5  UNL     1      -1.283   6.389  83.903  1.00  0.00     0.037 C 
HETATM    3  C6  UNL     1      -0.828   7.776  83.455  1.00  0.00     0.037 C 
HETATM    4  C7  UNL     1      -0.094   8.388  84.639  1.00  0.00     0.149 C 
HETATM    5  C8  UNL     1       0.322   7.123  85.392  1.00  0.00     0.182 C 
ENDROOT
BRANCH   1   6
HETATM    6  O2  UNL     1      -0.806   5.128  85.895  1.00  0.00    -0.351 OA
BRANCH   6   7
HETATM    7  C3  UNL     1      -1.700   4.763  86.898  1.00  0.00     0.291 C 
HETATM    8  O1  UNL     1      -1.181   4.060  87.930  1.00  0.00    -0.352 OA
HETATM    9  C2  UNL     1      -1.215   2.702  87.693  1.00  0.00     0.149 C 
HETATM   10  C1  UNL     1      -0.423   1.886  88.691  1.00  0.00     0.042 C 
HETATM   11  C17 UNL     1      -2.644   2.179  87.722  1.00  0.00     0.149 C 
HETATM   12  C16 UNL     1      -3.601   3.338  87.461  1.00  0.00     0.072 C 
HETATM   13  C15 UNL     1      -2.968   4.191  86.381  1.00  0.00     0.240 C 
BRANCH  11  14
HETATM   14  O7  UNL     1      -2.780   1.144  86.842  1.00  0.00    -0.393 OA
ATOM     15  H7  UNL     1      -3.110   0.377  87.293  1.00  0.00     0.210 HD
ENDBRANCH  11  14
BRANCH  13  16
HETATM   16  N2  UNL     1      -2.766   3.300  85.242  1.00  0.00    -0.070 N 
ATOM     17  H23 UNL     1      -2.559   2.351  85.554  1.00  0.00     0.274 HD
ATOM     18  H22 UNL     1      -3.644   3.127  84.753  1.00  0.00     0.274 HD
ATOM     19  H21 UNL     1      -2.050   3.637  84.598  1.00  0.00     0.274 HD
ENDBRANCH  13  16
ENDBRANCH   6   7
ENDBRANCH   1   6
BRANCH   5  20
HETATM   20  O4  UNL     1       0.846   7.402  86.621  1.00  0.00    -0.351 OA
BRANCH  20  21
HETATM   21  C9  UNL     1       2.075   6.778  86.811  1.00  0.00     0.261 C 
HETATM   22  C10 UNL     1       2.143   5.862  87.983  1.00  0.00     0.063 C 
HETATM   23  C11 UNL     1       3.424   5.064  87.858  1.00  0.00     0.039 C 
HETATM   24  C12 UNL     1       4.538   5.930  87.410  1.00  0.00     0.149 C 
HETATM   25  C13 UNL     1       4.270   7.383  87.347  1.00  0.00     0.178 C 
HETATM   26  O6  UNL     1       3.033   7.767  86.944  1.00  0.00    -0.352 OA
BRANCH  24  27
HETATM   27  O5  UNL     1       5.088   5.501  86.179  1.00  0.00    -0.393 OA
ATOM     28  H5  UNL     1       5.687   6.139  85.811  1.00  0.00     0.210 HD
ENDBRANCH  24  27
BRANCH  25  29
HETATM   29  C14 UNL     1       4.678   8.026  88.679  1.00  0.00     0.264 C 
BRANCH  29  30
HETATM   30  N1  UNL     1       6.063   7.726  88.982  1.00  0.00    -0.077 N 
ATOM     31  H13 UNL     1       6.537   7.282  88.196  1.00  0.00     0.274 HD
ATOM     32  H12 UNL     1       6.631   8.572  89.043  1.00  0.00     0.274 HD
ATOM     33  H11 UNL     1       6.128   7.163  89.831  1.00  0.00     0.274 HD
ENDBRANCH  29  30
ENDBRANCH  25  29
ENDBRANCH  20  21
ENDBRANCH   5  20
BRANCH   4  34
HETATM   34  O3  UNL     1      -1.006   9.128  85.360  1.00  0.00    -0.393 OA
ATOM     35  H3  UNL     1      -0.767   9.065  86.277  1.00  0.00     0.210 HD
ENDBRANCH   4  34
TORSDOF 10
ENDMDL
MODEL 2
REMARK VINA RESULT: -7.297465807      7.993     10.642
REMARK  10 active torsions:
REMARK  status: ('A' for Active; 'I' for Inactive)
REMARK    1  A    between atoms: C3_4  and  O2_5 
REMARK    2  A    between atoms: O2_5  and  C4_6 
REMARK    3  A    between atoms: C7_9  and  O3_10 
REMARK    4  A    between atoms: C8_12  and  O4_13 
REMARK    5  A    between atoms: O4_13  and  C9_14 
REMARK    6  A    between atoms: C12_17  and  O5_18 
REMARK    7  A    between atoms: C13_20  and  C14_21 
REMARK    8  A    between atoms: C14_21  and  N1_22 
REMARK    9  A    between atoms: C15_27  and  N2_28 
REMARK   10  A    between atoms: C17_33  and  O7_34 
ROOT
HETATM    1  C4  UNL     1       6.379  -0.942  94.377  1.00  0.00     0.156 C 
HETATM    2  C5  UNL     1       6.389  -1.247  95.877  1.00  0.00     0.037 C 
HETATM    3  C6  UNL     1       7.777  -0.793  96.321  1.00  0.00     0.037 C 
HETATM    4  C7  UNL     1       8.388  -0.062  95.134  1.00  0.00     0.149 C 
HETATM    5  C8  UNL     1       7.122   0.354  94.383  1.00  0.00     0.182 C 
ENDROOT
BRANCH   1   6
HETATM    6  O2  UNL     1       5.125  -0.772  93.886  1.00  0.00    -0.351 OA
BRANCH   6   7
HETATM    7  C3  UNL     1       4.761  -1.660  92.877  1.00  0.00     0.291 C 
HETATM    8  O1  UNL     1       4.046  -1.138  91.855  1.00  0.00    -0.352 OA
HETATM    9  C2  UNL     1       2.691  -1.186  92.101  1.00  0.00     0.149 C 
HETATM   10  C1  UNL     1       1.861  -0.392  91.116  1.00  0.00     0.042 C 
HETATM   11  C17 UNL     1       2.179  -2.620  92.062  1.00  0.00     0.149 C 
HETATM   12  C16 UNL     1       3.349  -3.569  92.307  1.00  0.00     0.072 C 
HETATM   13  C15 UNL     1       4.204  -2.938  93.386  1.00  0.00     0.240 C 
BRANCH  11  14
HETATM   14  O7  UNL     1       1.152  -2.772  92.947  1.00  0.00    -0.393 OA
ATOM     15  H7  UNL     1       1.447  -3.264  93.704  1.00  0.00     0.210 HD
ENDBRANCH  11  14
BRANCH  13  16
HETATM   16  N2  UNL     1       3.318  -2.754  94.533  1.00  0.00    -0.070 N 
ATOM     17  H23 UNL     1       3.854  -2.627  95.392  1.00  0.00     0.274 HD
ATOM     18  H22 UNL     1       2.852  -1.847  94.493  1.00  0.00     0.274 HD
ATOM     19  H21 UNL     1       2.639  -3.509  94.635  1.00  0.00     0.274 HD
ENDBRANCH  13  16
ENDBRANCH   6   7
ENDBRANCH   1   6
BRANCH   5  20
HETATM   20  O4  UNL     1       7.400   0.875  93.152  1.00  0.00    -0.351 OA
BRANCH  20  21
HETATM   21  C9  UNL     1       6.773   2.102  92.958  1.00  0.00     0.261 C 
HETATM   22  C10 UNL     1       5.853   2.161  91.789  1.00  0.00     0.063 C 
HETATM   23  C11 UNL     1       5.052   3.441  91.910  1.00  0.00     0.039 C 
HETATM   24  C12 UNL     1       5.917   4.560  92.350  1.00  0.00     0.149 C 
HETATM   25  C13 UNL     1       7.371   4.295  92.410  1.00  0.00     0.178 C 
HETATM   26  O6  UNL     1       7.759   3.061  92.818  1.00  0.00    -0.352 OA
BRANCH  24  27
HETATM   27  O5  UNL     1       5.490   5.115  93.580  1.00  0.00    -0.393 OA
ATOM     28  H5  UNL     1       6.037   4.842  94.306  1.00  0.00     0.210 HD
ENDBRANCH  24  27
BRANCH  25  29
HETATM   29  C14 UNL     1       8.009   4.698  91.074  1.00  0.00     0.264 C 
BRANCH  29  30
HETATM   30  N1  UNL     1       7.710   6.083  90.768  1.00  0.00    -0.077 N 
ATOM     31  H13 UNL     1       6.786   6.188  90.350  1.00  0.00     0.274 HD
ATOM     32  H12 UNL     1       7.557   6.634  91.613  1.00  0.00     0.274 HD
ATOM     33  H11 UNL     1       8.440   6.483  90.179  1.00  0.00     0.274 HD
ENDBRANCH  29  30
ENDBRANCH  25  29
ENDBRANCH  20  21
ENDBRANCH   5  20
BRANCH   4  34
HETATM   34  O3  UNL     1       9.125  -0.977  94.414  1.00  0.00    -0.393 OA
ATOM     35  H3  UNL     1       9.830  -0.506  93.986  1.00  0.00     0.210 HD
ENDBRANCH   4  34
TORSDOF 10
ENDMDL
MODEL 3
REMARK VINA RESULT: -7.216079629      7.111      9.845
REMARK  10 active torsions:
REMARK  status: ('A' for Active; 'I' for Inactive)
REMARK    1  A    between atoms: C3_4  and  O2_5 
REMARK    2  A    between atoms: O2_5  and  C4_6 
REMARK    3  A    between atoms: C7_9  and  O3_10 
REMARK    4  A    between atoms: C8_12  and  O4_13 
REMARK    5  A    between atoms: O4_13  and  C9_14 
REMARK    6  A    between atoms: C12_17  and  O5_18 
REMARK    7  A    between atoms: C13_20  and  C14_21 
REMARK    8  A    between atoms: C14_21  and  N1_22 
REMARK    9  A    between atoms: C15_27  and  N2_28 
REMARK   10  A    between atoms: C17_33  and  O7_34 
ROOT
HETATM    1  C4  UNL     1       5.788   3.812  91.424  1.00  0.00     0.156 C 
HETATM    2  C5  UNL     1       4.847   3.584  90.239  1.00  0.00     0.037 C 
HETATM    3  C6  UNL     1       4.645   4.987  89.671  1.00  0.00     0.037 C 
HETATM    4  C7  UNL     1       5.634   5.888  90.398  1.00  0.00     0.149 C 
HETATM    5  C8  UNL     1       6.677   4.859  90.836  1.00  0.00     0.182 C 
ENDROOT
BRANCH   1   6
HETATM    6  O2  UNL     1       6.502   2.704  91.746  1.00  0.00    -0.351 OA
BRANCH   6   7
HETATM    7  C3  UNL     1       6.293   2.222  93.036  1.00  0.00     0.291 C 
HETATM    8  O1  UNL     1       6.860   2.933  94.036  1.00  0.00    -0.352 OA
HETATM    9  C2  UNL     1       8.142   2.505  94.307  1.00  0.00     0.149 C 
HETATM   10  C1  UNL     1       8.911   3.421  95.233  1.00  0.00     0.042 C 
HETATM   11  C17 UNL     1       8.131   1.125  94.951  1.00  0.00     0.149 C 
HETATM   12  C16 UNL     1       6.817   0.430  94.610  1.00  0.00     0.072 C 
HETATM   13  C15 UNL     1       6.512   0.759  93.163  1.00  0.00     0.240 C 
BRANCH  11  14
HETATM   14  O7  UNL     1       9.239   0.425  94.571  1.00  0.00    -0.393 OA
ATOM     15  H7  UNL     1      10.002   0.749  95.035  1.00  0.00     0.210 HD
ENDBRANCH  11  14
BRANCH  13  16
HETATM   16  N2  UNL     1       7.666   0.290  92.400  1.00  0.00    -0.070 N 
ATOM     17  H23 UNL     1       8.015   1.020  91.780  1.00  0.00     0.274 HD
ATOM     18  H22 UNL     1       8.481   0.179  93.003  1.00  0.00     0.274 HD
ATOM     19  H21 UNL     1       7.475  -0.569  91.882  1.00  0.00     0.274 HD
ENDBRANCH  13  16
ENDBRANCH   6   7
ENDBRANCH   1   6
BRANCH   5  20
HETATM   20  O4  UNL     1       7.600   5.391  91.689  1.00  0.00    -0.351 OA
BRANCH  20  21
HETATM   21  C9  UNL     1       8.873   5.407  91.127  1.00  0.00     0.261 C 
HETATM   22  C10 UNL     1       9.751   4.271  91.521  1.00  0.00     0.063 C 
HETATM   23  C11 UNL     1      10.955   4.292  90.603  1.00  0.00     0.039 C 
HETATM   24  C12 UNL     1      11.428   5.679  90.392  1.00  0.00     0.149 C 
HETATM   25  C13 UNL     1      10.798   6.732  91.218  1.00  0.00     0.178 C 
HETATM   26  O6  UNL     1       9.475   6.601  91.485  1.00  0.00    -0.352 OA
BRANCH  24  27
HETATM   27  O5  UNL     1      11.380   6.060  89.030  1.00  0.00    -0.393 OA
ATOM     28  H5  UNL     1      10.521   5.922  88.649  1.00  0.00     0.210 HD
ENDBRANCH  24  27
BRANCH  25  29
HETATM   29  C14 UNL     1      11.634   6.939  92.489  1.00  0.00     0.264 C 
BRANCH  29  30
HETATM   30  N1  UNL     1      10.770   7.105  93.641  1.00  0.00    -0.077 N 
ATOM     31  H13 UNL     1      10.610   8.088  93.857  1.00  0.00     0.274 HD
ATOM     32  H12 UNL     1       9.808   6.837  93.436  1.00  0.00     0.274 HD
ATOM     33  H11 UNL     1      11.144   6.596  94.442  1.00  0.00     0.274 HD
ENDBRANCH  29  30
ENDBRANCH  25  29
ENDBRANCH  20  21
ENDBRANCH   5  20
BRANCH   4  34
HETATM   34  O3  UNL     1       4.981   6.438  91.480  1.00  0.00    -0.393 OA
ATOM     35  H3  UNL     1       5.189   5.908  92.241  1.00  0.00     0.210 HD
ENDBRANCH   4  34
TORSDOF 10
ENDMDL
MODEL 4
REMARK VINA RESULT: -7.212720922      3.525      6.322
REMARK  10 active torsions:
REMARK  status: ('A' for Active; 'I' for Inactive)
REMARK    1  A    between atoms: C3_4  and  O2_5 
REMARK    2  A    between atoms: O2_5  and  C4_6 
REMARK    3  A    between atoms: C7_9  and  O3_10 
REMARK    4  A    between atoms: C8_12  and  O4_13 
REMARK    5  A    between atoms: O4_13  and  C9_14 
REMARK    6  A    between atoms: C12_17  and  O5_18 
REMARK    7  A    between atoms: C13_20  and  C14_21 
REMARK    8  A    between atoms: C14_21  and  N1_22 
REMARK    9  A    between atoms: C15_27  and  N2_28 
REMARK   10  A    between atoms: C17_33  and  O7_34 
ROOT
HETATM    1  C4  UNL     1       3.787   5.798  88.341  1.00  0.00     0.156 C 
HETATM    2  C5  UNL     1       3.558   4.855  89.524  1.00  0.00     0.037 C 
HETATM    3  C6  UNL     1       4.961   4.649  90.090  1.00  0.00     0.037 C 
HETATM    4  C7  UNL     1       5.863   5.637  89.366  1.00  0.00     0.149 C 
HETATM    5  C8  UNL     1       4.837   6.684  88.931  1.00  0.00     0.182 C 
ENDROOT
BRANCH   1   6
HETATM    6  O2  UNL     1       2.681   6.516  88.021  1.00  0.00    -0.351 OA
BRANCH   6   7
HETATM    7  C3  UNL     1       2.196   6.310  86.732  1.00  0.00     0.291 C 
HETATM    8  O1  UNL     1       2.909   6.875  85.732  1.00  0.00    -0.352 OA
HETATM    9  C2  UNL     1       2.486   8.159  85.463  1.00  0.00     0.149 C 
HETATM   10  C1  UNL     1       3.405   8.926  84.537  1.00  0.00     0.042 C 
HETATM   11  C17 UNL     1       1.106   8.155  84.820  1.00  0.00     0.149 C 
HETATM   12  C16 UNL     1       0.405   6.843  85.161  1.00  0.00     0.072 C 
HETATM   13  C15 UNL     1       0.735   6.535  86.606  1.00  0.00     0.240 C 
BRANCH  11  14
HETATM   14  O7  UNL     1       0.411   9.266  85.202  1.00  0.00    -0.393 OA
ATOM     15  H7  UNL     1       0.772  10.036  84.779  1.00  0.00     0.210 HD
ENDBRANCH  11  14
BRANCH  13  16
HETATM   16  N2  UNL     1       0.271   7.690  87.371  1.00  0.00    -0.070 N 
ATOM     17  H23 UNL     1       0.508   7.594  88.358  1.00  0.00     0.274 HD
ATOM     18  H22 UNL     1       0.820   8.521  87.148  1.00  0.00     0.274 HD
ATOM     19  H21 UNL     1      -0.727   7.870  87.252  1.00  0.00     0.274 HD
ENDBRANCH  13  16
ENDBRANCH   6   7
ENDBRANCH   1   6
BRANCH   5  20
HETATM   20  O4  UNL     1       5.370   7.607  88.079  1.00  0.00    -0.351 OA
BRANCH  20  21
HETATM   21  C9  UNL     1       5.391   8.879  88.645  1.00  0.00     0.261 C 
HETATM   22  C10 UNL     1       4.248   9.755  88.268  1.00  0.00     0.063 C 
HETATM   23  C11 UNL     1       4.278  10.956  89.190  1.00  0.00     0.039 C 
HETATM   24  C12 UNL     1       5.667  11.432  89.384  1.00  0.00     0.149 C 
HETATM   25  C13 UNL     1       6.710  10.807  88.543  1.00  0.00     0.178 C 
HETATM   26  O6  UNL     1       6.578   9.484  88.274  1.00  0.00    -0.352 OA
BRANCH  24  27
HETATM   27  O5  UNL     1       6.065  11.381  90.741  1.00  0.00    -0.393 OA
ATOM     28  H5  UNL     1       5.537  11.946  91.292  1.00  0.00     0.210 HD
ENDBRANCH  24  27
BRANCH  25  29
HETATM   29  C14 UNL     1       6.899  11.647  87.272  1.00  0.00     0.264 C 
BRANCH  29  30
HETATM   30  N1  UNL     1       7.057  10.787  86.116  1.00  0.00    -0.077 N 
ATOM     31  H13 UNL     1       7.785  11.126  85.488  1.00  0.00     0.274 HD
ATOM     32  H12 UNL     1       7.475   9.890  86.364  1.00  0.00     0.274 HD
ATOM     33  H11 UNL     1       6.164  10.671  85.636  1.00  0.00     0.274 HD
ENDBRANCH  29  30
ENDBRANCH  25  29
ENDBRANCH  20  21
ENDBRANCH   5  20
BRANCH   4  34
HETATM   34  O3  UNL     1       6.411   4.986  88.281  1.00  0.00    -0.393 OA
ATOM     35  H3  UNL     1       7.199   4.546  88.578  1.00  0.00     0.210 HD
ENDBRANCH   4  34
TORSDOF 10
ENDMDL
MODEL 5
REMARK VINA RESULT: -7.139410177      1.381      1.605
REMARK  10 active torsions:
REMARK  status: ('A' for Active; 'I' for Inactive)
REMARK    1  A    between atoms: C3_4  and  O2_5 
REMARK    2  A    between atoms: O2_5  and  C4_6 
REMARK    3  A    between atoms: C7_9  and  O3_10 
REMARK    4  A    between atoms: C8_12  and  O4_13 
REMARK    5  A    between atoms: O4_13  and  C9_14 
REMARK    6  A    between atoms: C12_17  and  O5_18 
REMARK    7  A    between atoms: C13_20  and  C14_21 
REMARK    8  A    between atoms: C14_21  and  N1_22 
REMARK    9  A    between atoms: C15_27  and  N2_28 
REMARK   10  A    between atoms: C17_33  and  O7_34 
ROOT
HETATM    1  C4  UNL     1      -0.952   6.283  85.646  1.00  0.00     0.156 C 
HETATM    2  C5  UNL     1      -1.104   6.265  84.123  1.00  0.00     0.037 C 
HETATM    3  C6  UNL     1      -0.413   7.553  83.683  1.00  0.00     0.037 C 
HETATM    4  C7  UNL     1       0.279   8.110  84.919  1.00  0.00     0.149 C 
HETATM    5  C8  UNL     1       0.432   6.836  85.750  1.00  0.00     0.182 C 
ENDROOT
BRANCH   1   6
HETATM    6  O2  UNL     1      -1.014   5.042  86.193  1.00  0.00    -0.351 OA
BRANCH   6   7
HETATM    7  C3  UNL     1      -2.126   4.807  86.997  1.00  0.00     0.291 C 
HETATM    8  O1  UNL     1      -1.905   4.097  88.126  1.00  0.00    -0.352 OA
HETATM    9  C2  UNL     1      -2.030   2.741  87.912  1.00  0.00     0.149 C 
HETATM   10  C1  UNL     1      -1.547   1.892  89.068  1.00  0.00     0.042 C 
HETATM   11  C17 UNL     1      -3.482   2.362  87.656  1.00  0.00     0.149 C 
HETATM   12  C16 UNL     1      -4.240   3.598  87.180  1.00  0.00     0.072 C 
HETATM   13  C15 UNL     1      -3.316   4.342  86.239  1.00  0.00     0.240 C 
BRANCH  11  14
HETATM   14  O7  UNL     1      -3.542   1.311  86.786  1.00  0.00    -0.393 OA
ATOM     15  H7  UNL     1      -3.964   0.570  87.203  1.00  0.00     0.210 HD
ENDBRANCH  11  14
BRANCH  13  16
HETATM   16  N2  UNL     1      -2.979   3.390  85.183  1.00  0.00    -0.070 N 
ATOM     17  H23 UNL     1      -2.084   2.937  85.372  1.00  0.00     0.274 HD
ATOM     18  H22 UNL     1      -3.589   2.574  85.219  1.00  0.00     0.274 HD
ATOM     19  H21 UNL     1      -2.987   3.811  84.254  1.00  0.00     0.274 HD
ENDBRANCH  13  16
ENDBRANCH   6   7
ENDBRANCH   1   6
BRANCH   5  20
HETATM   20  O4  UNL     1       0.865   7.095  87.018  1.00  0.00    -0.351 OA
BRANCH  20  21
HETATM   21  C9  UNL     1       2.193   6.717  87.197  1.00  0.00     0.261 C 
HETATM   22  C10 UNL     1       2.687   5.683  86.246  1.00  0.00     0.063 C 
HETATM   23  C11 UNL     1       4.193   5.620  86.392  1.00  0.00     0.039 C 
HETATM   24  C12 UNL     1       4.584   5.698  87.818  1.00  0.00     0.149 C 
HETATM   25  C13 UNL     1       3.492   5.637  88.814  1.00  0.00     0.178 C 
HETATM   26  O6  UNL     1       2.327   6.253  88.493  1.00  0.00    -0.352 OA
BRANCH  24  27
HETATM   27  O5  UNL     1       5.403   6.820  88.088  1.00  0.00    -0.393 OA
ATOM     28  H5  UNL     1       5.571   6.927  89.016  1.00  0.00     0.210 HD
ENDBRANCH  24  27
BRANCH  25  29
HETATM   29  C14 UNL     1       3.285   4.178  89.242  1.00  0.00     0.264 C 
BRANCH  29  30
HETATM   30  N1  UNL     1       4.336   3.763  90.149  1.00  0.00    -0.077 N 
ATOM     31  H13 UNL     1       4.858   2.966  89.787  1.00  0.00     0.274 HD
ATOM     32  H12 UNL     1       5.098   4.440  90.183  1.00  0.00     0.274 HD
ATOM     33  H11 UNL     1       3.953   3.576  91.076  1.00  0.00     0.274 HD
ENDBRANCH  29  30
ENDBRANCH  25  29
ENDBRANCH  20  21
ENDBRANCH   5  20
BRANCH   4  34
HETATM   34  O3  UNL     1      -0.585   9.002  85.516  1.00  0.00    -0.393 OA
ATOM     35  H3  UNL     1      -0.427   9.857  85.132  1.00  0.00     0.210 HD
ENDBRANCH   4  34
TORSDOF 10
ENDMDL
