MODEL 1
REMARK VINA RESULT: -6.716684139      0.000      0.000
REMARK  10 active torsions:
REMARK  status: ('A' for Active; 'I' for Inactive)
REMARK    1  A    between atoms: O1_2  and  C2_3 
REMARK    2  A    between atoms: C3_4  and  O2_5 
REMARK    3  A    between atoms: C4_7  and  O3_8 
REMARK    4  A    between atoms: O3_8  and  C5_9 
REMARK    5  A    between atoms: C5_9  and  C6_10 
REMARK    6  A    between atoms: C7_12  and  S1_13 
REMARK    7  A    between atoms: C9_15  and  O5_16 
REMARK    8  A    between atoms: C10_18  and  O6_19 
REMARK    9  A    between atoms: C11_21  and  O7_22 
REMARK   10  A    between atoms: C12_24  and  O8_25 
ROOT
HETATM    1  O3  UNL     1       5.061   4.441  89.352  1.00  0.00    -0.376 OA
ENDROOT
BRANCH   1   2
HETATM    2  C4  UNL     1       4.643   5.734  89.190  1.00  0.00     0.207 C 
HETATM    3  C3  UNL     1       3.768   5.946  87.966  1.00  0.00     0.183 C 
HETATM    4  C2  UNL     1       3.198   7.325  88.086  1.00  0.00     0.186 C 
HETATM    5  C13 UNL     1       4.255   8.342  88.360  1.00  0.00     0.085 C 
HETATM    6  O9  UNL     1       5.230   7.983  89.246  1.00  0.00    -0.346 OA
HETATM    7  C14 UNL     1       4.802   8.829  87.031  1.00  0.00     0.048 C 
HETATM    8  C15 UNL     1       3.537   9.554  88.976  1.00  0.00     0.048 C 
HETATM    9  C12 UNL     1       5.774   6.734  89.063  1.00  0.00     0.289 C 
BRANCH   3  10
HETATM   10  O2  UNL     1       2.790   4.978  87.888  1.00  0.00    -0.390 OA
ATOM     11  H2  UNL     1       3.021   4.276  87.291  1.00  0.00     0.210 HD
ENDBRANCH   3  10
BRANCH   4  12
HETATM   12  O1  UNL     1       2.462   7.735  87.005  1.00  0.00    -0.385 OA
HETATM   13  C1  UNL     1       1.111   7.834  87.212  1.00  0.00     0.202 C 
ENDBRANCH   4  12
BRANCH   9  14
HETATM   14  O8  UNL     1       6.758   6.538  90.031  1.00  0.00    -0.368 OA
ATOM     15  H8  UNL     1       7.362   5.846  89.790  1.00  0.00     0.212 HD
ENDBRANCH   9  14
ENDBRANCH   1   2
BRANCH   1  16
HETATM   16  C5  UNL     1       4.526   3.815  90.467  1.00  0.00     0.203 C 
BRANCH  16  17
HETATM   17  C6  UNL     1       5.659   3.595  91.455  1.00  0.00     0.178 C 
HETATM   18  O4  UNL     1       5.745   2.250  91.834  1.00  0.00    -0.363 OA
HETATM   19  C7  UNL     1       6.969   2.054  92.426  1.00  0.00     0.214 C 
HETATM   20  C9  UNL     1       7.152   2.861  93.701  1.00  0.00     0.188 C 
HETATM   21  C10 UNL     1       6.847   4.320  93.447  1.00  0.00     0.181 C 
HETATM   22  C11 UNL     1       5.506   4.415  92.707  1.00  0.00     0.180 C 
BRANCH  19  23
HETATM   23  S1  UNL     1       7.279   0.304  92.781  1.00  0.00    -0.139 SA
HETATM   24  C8  UNL     1       5.712  -0.578  93.101  1.00  0.00     0.092 C 
ENDBRANCH  19  23
BRANCH  20  25
HETATM   25  O5  UNL     1       8.505   2.727  94.058  1.00  0.00    -0.389 OA
ATOM     26  H5  UNL     1       8.733   3.517  94.535  1.00  0.00     0.210 HD
ENDBRANCH  20  25
BRANCH  21  27
HETATM   27  O6  UNL     1       7.814   4.836  92.613  1.00  0.00    -0.390 OA
ATOM     28  H6  UNL     1       7.676   4.492  91.737  1.00  0.00     0.210 HD
ENDBRANCH  21  27
BRANCH  22  29
HETATM   29  O7  UNL     1       5.266   5.753  92.403  1.00  0.00    -0.390 OA
ATOM     30  H7  UNL     1       5.891   6.077  91.765  1.00  0.00     0.210 HD
ENDBRANCH  22  29
ENDBRANCH  16  17
ENDBRANCH   1  16
TORSDOF 10
ENDMDL
MODEL 2
REMARK VINA RESULT: -6.653625603      2.857      7.229
REMARK  10 active torsions:
REMARK  status: ('A' for Active; 'I' for Inactive)
REMARK    1  A    between atoms: O1_2  and  C2_3 
REMARK    2  A    between atoms: C3_4  and  O2_5 
REMARK    3  A    between atoms: C4_7  and  O3_8 
REMARK    4  A    between atoms: O3_8  and  C5_9 
REMARK    5  A    between atoms: C5_9  and  C6_10 
REMARK    6  A    between atoms: C7_12  and  S1_13 
REMARK    7  A    between atoms: C9_15  and  O5_16 
REMARK    8  A    between atoms: C10_18  and  O6_19 
REMARK    9  A    between atoms: C11_21  and  O7_22 
REMARK   10  A    between atoms: C12_24  and  O8_25 
ROOT
HETATM    1  O3  UNL     1       4.444   5.105  90.477  1.00  0.00    -0.376 OA
ENDROOT
BRANCH   1   2
HETATM    2  C4  UNL     1       5.714   4.634  90.668  1.00  0.00     0.207 C 
HETATM    3  C3  UNL     1       5.859   3.737  91.885  1.00  0.00     0.183 C 
HETATM    4  C2  UNL     1       7.217   3.115  91.795  1.00  0.00     0.186 C 
HETATM    5  C13 UNL     1       8.282   4.134  91.561  1.00  0.00     0.085 C 
HETATM    6  O9  UNL     1       7.986   5.133  90.680  1.00  0.00    -0.346 OA
HETATM    7  C14 UNL     1       8.753   4.645  92.910  1.00  0.00     0.048 C 
HETATM    8  C15 UNL     1       9.481   3.377  90.968  1.00  0.00     0.048 C 
HETATM    9  C12 UNL     1       6.754   5.723  90.836  1.00  0.00     0.289 C 
BRANCH   3  10
HETATM   10  O2  UNL     1       4.852   2.797  91.924  1.00  0.00    -0.390 OA
ATOM     11  H2  UNL     1       4.213   2.920  91.233  1.00  0.00     0.210 HD
ENDBRANCH   3  10
BRANCH   4  12
HETATM   12  O1  UNL     1       7.568   2.350  92.876  1.00  0.00    -0.385 OA
HETATM   13  C1  UNL     1       7.640   1.001  92.649  1.00  0.00     0.202 C 
ENDBRANCH   4  12
BRANCH   9  14
HETATM   14  O8  UNL     1       6.623   6.726  89.876  1.00  0.00    -0.368 OA
ATOM     15  H8  UNL     1       7.034   7.538  90.150  1.00  0.00     0.212 HD
ENDBRANCH   9  14
ENDBRANCH   1   2
BRANCH   1  16
HETATM   16  C5  UNL     1       3.802   4.556  89.377  1.00  0.00     0.203 C 
BRANCH  16  17
HETATM   17  C6  UNL     1       3.566   5.677  88.379  1.00  0.00     0.178 C 
HETATM   18  O4  UNL     1       2.226   5.723  87.979  1.00  0.00    -0.363 OA
HETATM   19  C7  UNL     1       2.005   6.938  87.376  1.00  0.00     0.214 C 
HETATM   20  C9  UNL     1       2.826   7.137  86.114  1.00  0.00     0.188 C 
HETATM   21  C10 UNL     1       4.289   6.874  86.392  1.00  0.00     0.181 C 
HETATM   22  C11 UNL     1       4.410   5.540  87.141  1.00  0.00     0.180 C 
BRANCH  19  23
HETATM   23  S1  UNL     1       0.253   7.197  86.993  1.00  0.00    -0.139 SA
HETATM   24  C8  UNL     1      -0.602   5.598  86.767  1.00  0.00     0.092 C 
ENDBRANCH  19  23
BRANCH  20  25
HETATM   25  O5  UNL     1       2.660   8.484  85.746  1.00  0.00    -0.389 OA
ATOM     26  H5  UNL     1       1.776   8.559  85.406  1.00  0.00     0.210 HD
ENDBRANCH  20  25
BRANCH  21  27
HETATM   27  O6  UNL     1       4.764   7.859  87.229  1.00  0.00    -0.390 OA
ATOM     28  H6  UNL     1       5.403   7.477  87.819  1.00  0.00     0.210 HD
ENDBRANCH  21  27
BRANCH  22  29
HETATM   29  O7  UNL     1       5.749   5.340  87.467  1.00  0.00    -0.390 OA
ATOM     30  H7  UNL     1       6.193   6.167  87.614  1.00  0.00     0.210 HD
ENDBRANCH  22  29
ENDBRANCH  16  17
ENDBRANCH   1  16
TORSDOF 10
ENDMDL
MODEL 3
REMARK VINA RESULT: -6.628483814      2.636      7.178
REMARK  10 active torsions:
REMARK  status: ('A' for Active; 'I' for Inactive)
REMARK    1  A    between atoms: O1_2  and  C2_3 
REMARK    2  A    between atoms: C3_4  and  O2_5 
REMARK    3  A    between atoms: C4_7  and  O3_8 
REMARK    4  A    between atoms: O3_8  and  C5_9 
REMARK    5  A    between atoms: C5_9  and  C6_10 
REMARK    6  A    between atoms: C7_12  and  S1_13 
REMARK    7  A    between atoms: C9_15  and  O5_16 
REMARK    8  A    between atoms: C10_18  and  O6_19 
REMARK    9  A    between atoms: C11_21  and  O7_22 
REMARK   10  A    between atoms: C12_24  and  O8_25 
ROOT
HETATM    1  O3  UNL     1       4.961   4.732  89.278  1.00  0.00    -0.376 OA
ENDROOT
BRANCH   1   2
HETATM    2  C4  UNL     1       5.781   4.076  90.154  1.00  0.00     0.207 C 
HETATM    3  C3  UNL     1       5.036   3.298  91.226  1.00  0.00     0.183 C 
HETATM    4  C2  UNL     1       6.056   2.450  91.920  1.00  0.00     0.186 C 
HETATM    5  C13 UNL     1       7.244   3.244  92.348  1.00  0.00     0.085 C 
HETATM    6  O9  UNL     1       7.699   4.183  91.466  1.00  0.00    -0.346 OA
HETATM    7  C14 UNL     1       6.967   3.807  93.730  1.00  0.00     0.048 C 
HETATM    8  C15 UNL     1       8.391   2.238  92.537  1.00  0.00     0.048 C 
HETATM    9  C12 UNL     1       6.739   4.985  90.898  1.00  0.00     0.289 C 
BRANCH   3  10
HETATM   10  O2  UNL     1       4.019   2.551  90.673  1.00  0.00    -0.390 OA
ATOM     11  H2  UNL     1       4.338   1.910  90.049  1.00  0.00     0.210 HD
ENDBRANCH   3  10
BRANCH   4  12
HETATM   12  O1  UNL     1       5.580   1.754  93.000  1.00  0.00    -0.385 OA
HETATM   13  C1  UNL     1       5.538   0.391  92.854  1.00  0.00     0.202 C 
ENDBRANCH   4  12
BRANCH   9  14
HETATM   14  O8  UNL     1       7.370   5.890  90.047  1.00  0.00    -0.368 OA
ATOM     15  H8  UNL     1       8.279   6.029  90.285  1.00  0.00     0.212 HD
ENDBRANCH   9  14
ENDBRANCH   1   2
BRANCH   1  16
HETATM   16  C5  UNL     1       4.147   5.682  89.877  1.00  0.00     0.203 C 
BRANCH  16  17
HETATM   17  C6  UNL     1       3.557   6.539  88.770  1.00  0.00     0.178 C 
HETATM   18  O4  UNL     1       2.539   5.858  88.091  1.00  0.00    -0.363 OA
HETATM   19  C7  UNL     1       1.823   6.779  87.366  1.00  0.00     0.214 C 
HETATM   20  C9  UNL     1       2.649   7.471  86.296  1.00  0.00     0.188 C 
HETATM   21  C10 UNL     1       3.912   8.047  86.897  1.00  0.00     0.181 C 
HETATM   22  C11 UNL     1       4.581   6.964  87.754  1.00  0.00     0.180 C 
BRANCH  19  23
HETATM   23  S1  UNL     1       0.353   6.045  86.601  1.00  0.00    -0.139 SA
HETATM   24  C8  UNL     1       0.007   4.399  87.314  1.00  0.00     0.092 C 
ENDBRANCH  19  23
BRANCH  20  25
HETATM   25  O5  UNL     1       1.853   8.518  85.801  1.00  0.00    -0.389 OA
ATOM     26  H5  UNL     1       1.845   8.422  84.856  1.00  0.00     0.210 HD
ENDBRANCH  20  25
BRANCH  21  27
HETATM   27  O6  UNL     1       3.568   9.081  87.740  1.00  0.00    -0.390 OA
ATOM     28  H6  UNL     1       4.294   9.692  87.785  1.00  0.00     0.210 HD
ENDBRANCH  21  27
BRANCH  22  29
HETATM   29  O7  UNL     1       5.699   7.520  88.371  1.00  0.00    -0.390 OA
ATOM     30  H7  UNL     1       6.493   7.066  88.115  1.00  0.00     0.210 HD
ENDBRANCH  22  29
ENDBRANCH  16  17
ENDBRANCH   1  16
TORSDOF 10
ENDMDL
MODEL 4
REMARK VINA RESULT: -6.584219531      3.832      8.286
REMARK  10 active torsions:
REMARK  status: ('A' for Active; 'I' for Inactive)
REMARK    1  A    between atoms: O1_2  and  C2_3 
REMARK    2  A    between atoms: C3_4  and  O2_5 
REMARK    3  A    between atoms: C4_7  and  O3_8 
REMARK    4  A    between atoms: O3_8  and  C5_9 
REMARK    5  A    between atoms: C5_9  and  C6_10 
REMARK    6  A    between atoms: C7_12  and  S1_13 
REMARK    7  A    between atoms: C9_15  and  O5_16 
REMARK    8  A    between atoms: C10_18  and  O6_19 
REMARK    9  A    between atoms: C11_21  and  O7_22 
REMARK   10  A    between atoms: C12_24  and  O8_25 
ROOT
HETATM    1  O3  UNL     1       2.557   6.717  86.318  1.00  0.00    -0.376 OA
ENDROOT
BRANCH   1   2
HETATM    2  C4  UNL     1       3.453   6.193  87.208  1.00  0.00     0.207 C 
HETATM    3  C3  UNL     1       2.805   5.470  88.377  1.00  0.00     0.183 C 
HETATM    4  C2  UNL     1       3.905   4.751  89.093  1.00  0.00     0.186 C 
HETATM    5  C13 UNL     1       5.056   5.651  89.394  1.00  0.00     0.085 C 
HETATM    6  O9  UNL     1       5.413   6.532  88.414  1.00  0.00    -0.346 OA
HETATM    7  C14 UNL     1       4.801   6.316  90.733  1.00  0.00     0.048 C 
HETATM    8  C15 UNL     1       6.272   4.737  89.615  1.00  0.00     0.048 C 
HETATM    9  C12 UNL     1       4.380   7.221  87.825  1.00  0.00     0.289 C 
BRANCH   3  10
HETATM   10  O2  UNL     1       1.816   4.616  87.939  1.00  0.00    -0.390 OA
ATOM     11  H2  UNL     1       1.026   4.677  88.463  1.00  0.00     0.210 HD
ENDBRANCH   3  10
BRANCH   4  12
HETATM   12  O1  UNL     1       3.520   4.126  90.250  1.00  0.00    -0.385 OA
HETATM   13  C1  UNL     1       3.460   2.758  90.193  1.00  0.00     0.202 C 
ENDBRANCH   4  12
BRANCH   9  14
HETATM   14  O8  UNL     1       4.916   8.083  86.869  1.00  0.00    -0.368 OA
ATOM     15  H8  UNL     1       4.253   8.414  86.275  1.00  0.00     0.212 HD
ENDBRANCH   9  14
ENDBRANCH   1   2
BRANCH   1  16
HETATM   16  C5  UNL     1       1.582   7.510  86.905  1.00  0.00     0.203 C 
BRANCH  16  17
HETATM   17  C6  UNL     1       0.321   7.379  86.067  1.00  0.00     0.178 C 
HETATM   18  O4  UNL     1      -0.212   6.088  86.155  1.00  0.00    -0.363 OA
HETATM   19  C7  UNL     1      -1.502   6.129  85.685  1.00  0.00     0.214 C 
HETATM   20  C9  UNL     1      -1.592   6.519  84.220  1.00  0.00     0.188 C 
HETATM   21  C10 UNL     1      -0.832   7.803  83.971  1.00  0.00     0.181 C 
HETATM   22  C11 UNL     1       0.557   7.679  84.612  1.00  0.00     0.180 C 
BRANCH  19  23
HETATM   23  S1  UNL     1      -2.366   4.555  85.935  1.00  0.00    -0.139 SA
HETATM   24  C8  UNL     1      -1.601   3.607  87.296  1.00  0.00     0.092 C 
ENDBRANCH  19  23
BRANCH  20  25
HETATM   25  O5  UNL     1      -2.956   6.730  83.953  1.00  0.00    -0.389 OA
ATOM     26  H5  UNL     1      -3.004   7.068  83.067  1.00  0.00     0.210 HD
ENDBRANCH  20  25
BRANCH  21  27
HETATM   27  O6  UNL     1      -1.487   8.835  84.607  1.00  0.00    -0.390 OA
ATOM     28  H6  UNL     1      -0.843   9.394  85.026  1.00  0.00     0.210 HD
ENDBRANCH  21  27
BRANCH  22  29
HETATM   29  O7  UNL     1       1.224   8.891  84.452  1.00  0.00    -0.390 OA
ATOM     30  H7  UNL     1       0.772   9.451  83.831  1.00  0.00     0.210 HD
ENDBRANCH  22  29
ENDBRANCH  16  17
ENDBRANCH   1  16
TORSDOF 10
ENDMDL
MODEL 5
REMARK VINA RESULT: -6.581957235      2.556      4.734
REMARK  10 active torsions:
REMARK  status: ('A' for Active; 'I' for Inactive)
REMARK    1  A    between atoms: O1_2  and  C2_3 
REMARK    2  A    between atoms: C3_4  and  O2_5 
REMARK    3  A    between atoms: C4_7  and  O3_8 
REMARK    4  A    between atoms: O3_8  and  C5_9 
REMARK    5  A    between atoms: C5_9  and  C6_10 
REMARK    6  A    between atoms: C7_12  and  S1_13 
REMARK    7  A    between atoms: C9_15  and  O5_16 
REMARK    8  A    between atoms: C10_18  and  O6_19 
REMARK    9  A    between atoms: C11_21  and  O7_22 
REMARK   10  A    between atoms: C12_24  and  O8_25 
ROOT
HETATM    1  O3  UNL     1       6.712   2.559  93.457  1.00  0.00    -0.376 OA
ENDROOT
BRANCH   1   2
HETATM    2  C4  UNL     1       6.182   3.451  92.566  1.00  0.00     0.207 C 
HETATM    3  C3  UNL     1       5.456   2.798  91.401  1.00  0.00     0.183 C 
HETATM    4  C2  UNL     1       4.731   3.893  90.685  1.00  0.00     0.186 C 
HETATM    5  C13 UNL     1       5.626   5.047  90.377  1.00  0.00     0.085 C 
HETATM    6  O9  UNL     1       6.511   5.408  91.353  1.00  0.00    -0.346 OA
HETATM    7  C14 UNL     1       6.288   4.790  89.036  1.00  0.00     0.048 C 
HETATM    8  C15 UNL     1       4.708   6.259  90.156  1.00  0.00     0.048 C 
HETATM    9  C12 UNL     1       7.205   4.379  91.943  1.00  0.00     0.289 C 
BRANCH   3  10
HETATM   10  O2  UNL     1       4.607   1.807  91.845  1.00  0.00    -0.390 OA
ATOM     11  H2  UNL     1       4.358   1.923  92.754  1.00  0.00     0.210 HD
ENDBRANCH   3  10
BRANCH   4  12
HETATM   12  O1  UNL     1       4.103   3.503  89.531  1.00  0.00    -0.385 OA
HETATM   13  C1  UNL     1       2.735   3.439  89.594  1.00  0.00     0.202 C 
ENDBRANCH   4  12
BRANCH   9  14
HETATM   14  O8  UNL     1       8.069   4.921  92.893  1.00  0.00    -0.368 OA
ATOM     15  H8  UNL     1       8.966   4.950  92.584  1.00  0.00     0.212 HD
ENDBRANCH   9  14
ENDBRANCH   1   2
BRANCH   1  16
HETATM   16  C5  UNL     1       7.505   1.585  92.869  1.00  0.00     0.203 C 
BRANCH  16  17
HETATM   17  C6  UNL     1       7.393   0.331  93.719  1.00  0.00     0.178 C 
HETATM   18  O4  UNL     1       6.107  -0.217  93.644  1.00  0.00    -0.363 OA
HETATM   19  C7  UNL     1       6.165  -1.503  94.125  1.00  0.00     0.214 C 
HETATM   20  C9  UNL     1       6.566  -1.575  95.589  1.00  0.00     0.188 C 
HETATM   21  C10 UNL     1       7.843  -0.800  95.822  1.00  0.00     0.181 C 
HETATM   22  C11 UNL     1       7.700   0.582  95.170  1.00  0.00     0.180 C 
BRANCH  19  23
HETATM   23  S1  UNL     1       4.599  -2.385  93.893  1.00  0.00    -0.139 SA
HETATM   24  C8  UNL     1       3.641  -1.652  92.521  1.00  0.00     0.092 C 
ENDBRANCH  19  23
BRANCH  20  25
HETATM   25  O5  UNL     1       6.792  -2.934  95.866  1.00  0.00    -0.389 OA
ATOM     26  H5  UNL     1       7.515  -2.962  96.482  1.00  0.00     0.210 HD
ENDBRANCH  20  25
BRANCH  21  27
HETATM   27  O6  UNL     1       8.878  -1.449  95.186  1.00  0.00    -0.390 OA
ATOM     28  H6  UNL     1       9.274  -0.853  94.562  1.00  0.00     0.210 HD
ENDBRANCH  21  27
BRANCH  22  29
HETATM   29  O7  UNL     1       8.906   1.263  95.316  1.00  0.00    -0.390 OA
ATOM     30  H7  UNL     1       9.637   0.732  95.023  1.00  0.00     0.210 HD
ENDBRANCH  22  29
ENDBRANCH  16  17
ENDBRANCH   1  16
TORSDOF 10
ENDMDL
