MODEL 1
REMARK VINA RESULT: -7.166566520      0.000      0.000
REMARK  8 active torsions:
REMARK  status: ('A' for Active; 'I' for Inactive)
REMARK    1  A    between atoms: C2_2  and  C3_3 
REMARK    2  A    between atoms: C4_8  and  C5_9 
REMARK    3  A    between atoms: C5_9  and  N3_10 
REMARK    4  A    between atoms: C8_16  and  O1_17 
REMARK    5  A    between atoms: O1_17  and  C9_18 
REMARK    6  A    between atoms: C9_18  and  N5_19 
REMARK    7  A    between atoms: C9_18  and  N6_23 
REMARK    8  A    between atoms: N8_30  and  C11_32 
ROOT
HETATM    1  N3  UNL     1      65.459  13.686  53.379  1.00  0.00    -0.219 N 
ATOM      2  H3  UNL     1      65.313  14.469  52.740  1.00  0.00     0.178 HD
HETATM    3  C6  UNL     1      64.520  12.828  53.582  1.00  0.00     0.694 A 
HETATM    4  N4  UNL     1      64.695  11.745  54.453  1.00  0.00    -0.174 N 
ATOM      5  H4  UNL     1      65.583  11.627  54.941  1.00  0.00     0.186 HD
HETATM    6  C7  UNL     1      63.647  10.811  54.663  1.00  0.00     0.158 A 
HETATM    7  C8  UNL     1      63.840   9.788  55.498  1.00  0.00     0.188 C 
HETATM    8  N7  UNL     1      62.417  10.975  53.986  1.00  0.00    -0.174 N 
ATOM      9  H7  UNL     1      61.670  10.299  54.143  1.00  0.00     0.186 HD
HETATM   10  C10 UNL     1      62.187  12.075  53.078  1.00  0.00     0.695 A 
HETATM   11  N8  UNL     1      61.054  12.156  52.507  1.00  0.00    -0.217 N 
ATOM     12  H8  UNL     1      60.376  11.427  52.734  1.00  0.00     0.178 HD
HETATM   13  N9  UNL     1      63.265  12.973  52.908  1.00  0.00    -0.022 N 
ATOM     14  H9  UNL     1      63.142  13.763  52.274  1.00  0.00     0.203 HD
ENDROOT
BRANCH   1  15
HETATM   15  C5  UNL     1      66.724  13.528  54.066  1.00  0.00     0.204 C 
BRANCH  15  16
HETATM   16  C4  UNL     1      66.821  14.570  55.151  1.00  0.00     0.086 A 
HETATM   17  N2  UNL     1      67.545  14.499  56.262  1.00  0.00    -0.296 N 
HETATM   18  N1  UNL     1      67.529  15.455  57.086  1.00  0.00    -0.297 N 
ATOM     19  H2  UNL     1      68.113  13.672  56.449  1.00  0.00     0.187 HD
HETATM   20  C3  UNL     1      66.789  16.531  56.841  1.00  0.00     0.067 A 
ATOM     21  H1  UNL     1      68.085  15.401  57.940  1.00  0.00     0.187 HD
HETATM   22  S1  UNL     1      66.091  16.102  55.326  1.00  0.00    -0.059 SA
BRANCH  20  23
HETATM   23  C2  UNL     1      66.618  17.772  57.667  1.00  0.00     0.062 C 
HETATM   24  C1  UNL     1      67.824  17.821  58.594  1.00  0.00     0.012 C 
ENDBRANCH  20  23
ENDBRANCH  15  16
ENDBRANCH   1  15
BRANCH   7  25
HETATM   25  O1  UNL     1      65.052   9.642  56.152  1.00  0.00    -0.305 OA
BRANCH  25  26
HETATM   26  C9  UNL     1      65.042   9.162  57.479  1.00  0.00     0.523 C 
BRANCH  26  27
HETATM   27  N5  UNL     1      66.401   9.259  57.977  1.00  0.00    -0.027 N 
ATOM     28  H53 UNL     1      66.704   8.425  58.479  1.00  0.00     0.279 HD
ATOM     29  H52 UNL     1      67.101   9.227  57.237  1.00  0.00     0.279 HD
ATOM     30  H51 UNL     1      66.454  10.107  58.542  1.00  0.00     0.279 HD
ENDBRANCH  26  27
BRANCH  26  31
HETATM   31  N6  UNL     1      64.111   9.906  58.288  1.00  0.00    -0.027 N 
ATOM     32  H63 UNL     1      63.167   9.871  57.903  1.00  0.00     0.279 HD
ATOM     33  H62 UNL     1      63.933   9.441  59.179  1.00  0.00     0.279 HD
ATOM     34  H61 UNL     1      64.430  10.866  58.420  1.00  0.00     0.279 HD
ENDBRANCH  26  31
ENDBRANCH  25  26
ENDBRANCH   7  25
BRANCH  11  35
HETATM   35  C11 UNL     1      60.630  13.155  51.585  1.00  0.00     0.036 C 
HETATM   36  C12 UNL     1      60.768  14.532  52.193  1.00  0.00     0.038 C 
HETATM   37  C13 UNL     1      59.122  13.002  51.282  1.00  0.00     0.038 C 
HETATM   38  C14 UNL     1      61.352  13.117  50.275  1.00  0.00     0.038 C 
ENDBRANCH  11  35
TORSDOF 8
ENDMDL
MODEL 2
REMARK VINA RESULT: -6.967913435      3.750      7.682
REMARK  8 active torsions:
REMARK  status: ('A' for Active; 'I' for Inactive)
REMARK    1  A    between atoms: C2_2  and  C3_3 
REMARK    2  A    between atoms: C4_8  and  C5_9 
REMARK    3  A    between atoms: C5_9  and  N3_10 
REMARK    4  A    between atoms: C8_16  and  O1_17 
REMARK    5  A    between atoms: O1_17  and  C9_18 
REMARK    6  A    between atoms: C9_18  and  N5_19 
REMARK    7  A    between atoms: C9_18  and  N6_23 
REMARK    8  A    between atoms: N8_30  and  C11_32 
ROOT
HETATM    1  N3  UNL     1      60.683  14.291  51.451  1.00  0.00    -0.219 N 
ATOM      2  H3  UNL     1      60.618  15.301  51.579  1.00  0.00     0.178 HD
HETATM    3  C6  UNL     1      61.670  13.634  51.956  1.00  0.00     0.694 A 
HETATM    4  N4  UNL     1      61.782  12.247  51.795  1.00  0.00    -0.174 N 
ATOM      5  H4  UNL     1      61.071  11.739  51.269  1.00  0.00     0.186 HD
HETATM    6  C7  UNL     1      62.877  11.542  52.360  1.00  0.00     0.158 A 
HETATM    7  C8  UNL     1      62.961  10.220  52.192  1.00  0.00     0.188 C 
HETATM    8  N7  UNL     1      63.862  12.246  53.089  1.00  0.00    -0.174 N 
ATOM      9  H7  UNL     1      64.645  11.731  53.491  1.00  0.00     0.186 HD
HETATM   10  C10 UNL     1      63.791  13.676  53.282  1.00  0.00     0.695 A 
HETATM   11  N8  UNL     1      64.715  14.239  53.951  1.00  0.00    -0.217 N 
ATOM     12  H8  UNL     1      65.453  13.632  54.309  1.00  0.00     0.178 HD
HETATM   13  N9  UNL     1      62.679  14.325  52.700  1.00  0.00    -0.022 N 
ATOM     14  H9  UNL     1      62.592  15.335  52.814  1.00  0.00     0.203 HD
ENDROOT
BRANCH   1  15
HETATM   15  C5  UNL     1      59.668  13.581  50.702  1.00  0.00     0.204 C 
BRANCH  15  16
HETATM   16  C4  UNL     1      58.321  13.866  51.317  1.00  0.00     0.086 A 
HETATM   17  N2  UNL     1      57.298  14.487  50.742  1.00  0.00    -0.296 N 
HETATM   18  N1  UNL     1      56.224  14.657  51.382  1.00  0.00    -0.297 N 
ATOM     19  H2  UNL     1      57.381  14.827  49.783  1.00  0.00     0.187 HD
HETATM   20  C3  UNL     1      56.118  14.213  52.630  1.00  0.00     0.067 A 
ATOM     21  H1  UNL     1      55.437  15.134  50.941  1.00  0.00     0.187 HD
HETATM   22  S1  UNL     1      57.677  13.518  52.857  1.00  0.00    -0.059 SA
BRANCH  20  23
HETATM   23  C2  UNL     1      54.952  14.301  53.572  1.00  0.00     0.062 C 
HETATM   24  C1  UNL     1      55.364  15.297  54.647  1.00  0.00     0.012 C 
ENDBRANCH  20  23
ENDBRANCH  15  16
ENDBRANCH   1  15
BRANCH   7  25
HETATM   25  O1  UNL     1      61.986   9.546  51.474  1.00  0.00    -0.305 OA
BRANCH  25  26
HETATM   26  C9  UNL     1      62.371   8.414  50.726  1.00  0.00     0.523 C 
BRANCH  26  27
HETATM   27  N5  UNL     1      63.315   8.868  49.722  1.00  0.00    -0.027 N 
ATOM     28  H53 UNL     1      62.933   9.589  49.110  1.00  0.00     0.279 HD
ATOM     29  H52 UNL     1      64.079   9.418  50.112  1.00  0.00     0.279 HD
ATOM     30  H51 UNL     1      63.634   8.041  49.216  1.00  0.00     0.279 HD
ENDBRANCH  26  27
BRANCH  26  31
HETATM   31  N6  UNL     1      62.929   7.398  51.580  1.00  0.00    -0.027 N 
ATOM     32  H63 UNL     1      62.361   7.254  52.415  1.00  0.00     0.279 HD
ATOM     33  H62 UNL     1      62.838   6.469  51.168  1.00  0.00     0.279 HD
ATOM     34  H61 UNL     1      63.898   7.613  51.815  1.00  0.00     0.279 HD
ENDBRANCH  26  31
ENDBRANCH  25  26
ENDBRANCH   7  25
BRANCH  11  35
HETATM   35  C11 UNL     1      64.829  15.626  54.252  1.00  0.00     0.036 C 
HETATM   36  C12 UNL     1      66.251  15.973  54.628  1.00  0.00     0.038 C 
HETATM   37  C13 UNL     1      63.991  15.974  55.503  1.00  0.00     0.038 C 
HETATM   38  C14 UNL     1      64.373  16.527  53.148  1.00  0.00     0.038 C 
ENDBRANCH  11  35
TORSDOF 8
ENDMDL
MODEL 3
REMARK VINA RESULT: -6.950509740      1.448      1.742
REMARK  8 active torsions:
REMARK  status: ('A' for Active; 'I' for Inactive)
REMARK    1  A    between atoms: C2_2  and  C3_3 
REMARK    2  A    between atoms: C4_8  and  C5_9 
REMARK    3  A    between atoms: C5_9  and  N3_10 
REMARK    4  A    between atoms: C8_16  and  O1_17 
REMARK    5  A    between atoms: O1_17  and  C9_18 
REMARK    6  A    between atoms: C9_18  and  N5_19 
REMARK    7  A    between atoms: C9_18  and  N6_23 
REMARK    8  A    between atoms: N8_30  and  C11_32 
ROOT
HETATM    1  N3  UNL     1      65.323  14.820  53.039  1.00  0.00    -0.219 N 
ATOM      2  H3  UNL     1      64.922  15.585  52.496  1.00  0.00     0.178 HD
HETATM    3  C6  UNL     1      64.630  13.761  53.281  1.00  0.00     0.694 A 
HETATM    4  N4  UNL     1      65.157  12.696  54.023  1.00  0.00    -0.174 N 
ATOM      5  H4  UNL     1      66.111  12.753  54.382  1.00  0.00     0.186 HD
HETATM    6  C7  UNL     1      64.376  11.539  54.279  1.00  0.00     0.158 A 
HETATM    7  C8  UNL     1      64.902  10.538  54.988  1.00  0.00     0.188 C 
HETATM    8  N7  UNL     1      63.056  11.461  53.780  1.00  0.00    -0.174 N 
ATOM      9  H7  UNL     1      62.503  10.625  53.969  1.00  0.00     0.186 HD
HETATM   10  C10 UNL     1      62.467  12.533  53.011  1.00  0.00     0.695 A 
HETATM   11  N8  UNL     1      61.273  12.389  52.597  1.00  0.00    -0.217 N 
ATOM     12  H8  UNL     1      60.808  11.514  52.841  1.00  0.00     0.178 HD
HETATM   13  N9  UNL     1      63.290  13.659  52.787  1.00  0.00    -0.022 N 
ATOM     14  H9  UNL     1      62.911  14.437  52.246  1.00  0.00     0.203 HD
ENDROOT
BRANCH   1  15
HETATM   15  C5  UNL     1      66.677  14.911  53.544  1.00  0.00     0.204 C 
BRANCH  15  16
HETATM   16  C4  UNL     1      66.655  15.633  54.867  1.00  0.00     0.086 A 
HETATM   17  N2  UNL     1      65.821  16.601  55.232  1.00  0.00    -0.296 N 
HETATM   18  N1  UNL     1      65.920  17.118  56.379  1.00  0.00    -0.297 N 
ATOM     19  H2  UNL     1      65.102  16.926  54.585  1.00  0.00     0.187 HD
HETATM   20  C3  UNL     1      66.857  16.692  57.220  1.00  0.00     0.067 A 
ATOM     21  H1  UNL     1      65.281  17.861  56.661  1.00  0.00     0.187 HD
HETATM   22  S1  UNL     1      67.618  15.478  56.265  1.00  0.00    -0.059 SA
BRANCH  20  23
HETATM   23  C2  UNL     1      67.158  17.153  58.617  1.00  0.00     0.062 C 
HETATM   24  C1  UNL     1      67.726  18.557  58.475  1.00  0.00     0.012 C 
ENDBRANCH  20  23
ENDBRANCH  15  16
ENDBRANCH   1  15
BRANCH   7  25
HETATM   25  O1  UNL     1      66.199  10.631  55.469  1.00  0.00    -0.305 OA
BRANCH  25  26
HETATM   26  C9  UNL     1      66.887   9.438  55.770  1.00  0.00     0.523 C 
BRANCH  26  27
HETATM   27  N5  UNL     1      66.994   9.362  57.215  1.00  0.00    -0.027 N 
ATOM     28  H53 UNL     1      66.749   8.444  57.586  1.00  0.00     0.279 HD
ATOM     29  H52 UNL     1      67.959   9.383  57.545  1.00  0.00     0.279 HD
ATOM     30  H51 UNL     1      66.423  10.114  57.598  1.00  0.00     0.279 HD
ENDBRANCH  26  27
BRANCH  26  31
HETATM   31  N6  UNL     1      66.207   8.297  55.214  1.00  0.00    -0.027 N 
ATOM     32  H63 UNL     1      66.489   7.430  55.671  1.00  0.00     0.279 HD
ATOM     33  H62 UNL     1      65.218   8.289  55.464  1.00  0.00     0.279 HD
ATOM     34  H61 UNL     1      66.341   8.251  54.203  1.00  0.00     0.279 HD
ENDBRANCH  26  31
ENDBRANCH  25  26
ENDBRANCH   7  25
BRANCH  11  35
HETATM   35  C11 UNL     1      60.517  13.319  51.828  1.00  0.00     0.036 C 
HETATM   36  C12 UNL     1      59.057  12.930  51.808  1.00  0.00     0.038 C 
HETATM   37  C13 UNL     1      60.960  13.279  50.348  1.00  0.00     0.038 C 
HETATM   38  C14 UNL     1      60.646  14.736  52.292  1.00  0.00     0.038 C 
ENDBRANCH  11  35
TORSDOF 8
ENDMDL
MODEL 4
REMARK VINA RESULT: -6.872496387      3.674      4.852
REMARK  8 active torsions:
REMARK  status: ('A' for Active; 'I' for Inactive)
REMARK    1  A    between atoms: C2_2  and  C3_3 
REMARK    2  A    between atoms: C4_8  and  C5_9 
REMARK    3  A    between atoms: C5_9  and  N3_10 
REMARK    4  A    between atoms: C8_16  and  O1_17 
REMARK    5  A    between atoms: O1_17  and  C9_18 
REMARK    6  A    between atoms: C9_18  and  N5_19 
REMARK    7  A    between atoms: C9_18  and  N6_23 
REMARK    8  A    between atoms: N8_30  and  C11_32 
ROOT
HETATM    1  N3  UNL     1      61.830  14.759  53.081  1.00  0.00    -0.219 N 
ATOM      2  H3  UNL     1      61.475  15.464  53.728  1.00  0.00     0.178 HD
HETATM    3  C6  UNL     1      61.068  13.801  52.679  1.00  0.00     0.694 A 
HETATM    4  N4  UNL     1      61.531  12.822  51.791  1.00  0.00    -0.174 N 
ATOM      5  H4  UNL     1      62.492  12.862  51.450  1.00  0.00     0.186 HD
HETATM    6  C7  UNL     1      60.675  11.775  51.361  1.00  0.00     0.158 A 
HETATM    7  C8  UNL     1      61.141  10.854  50.514  1.00  0.00     0.188 C 
HETATM    8  N7  UNL     1      59.343  11.720  51.834  1.00  0.00    -0.174 N 
ATOM      9  H7  UNL     1      58.736  10.964  51.519  1.00  0.00     0.186 HD
HETATM   10  C10 UNL     1      58.819  12.706  52.750  1.00  0.00     0.695 A 
HETATM   11  N8  UNL     1      57.611  12.590  53.130  1.00  0.00    -0.217 N 
ATOM     12  H8  UNL     1      57.090  11.797  52.756  1.00  0.00     0.178 HD
HETATM   13  N9  UNL     1      59.715  13.725  53.143  1.00  0.00    -0.022 N 
ATOM     14  H9  UNL     1      59.383  14.441  53.789  1.00  0.00     0.203 HD
ENDROOT
BRANCH   1  15
HETATM   15  C5  UNL     1      63.195  14.826  52.603  1.00  0.00     0.204 C 
BRANCH  15  16
HETATM   16  C4  UNL     1      64.087  15.253  53.741  1.00  0.00     0.086 A 
HETATM   17  N2  UNL     1      63.712  15.542  54.982  1.00  0.00    -0.296 N 
HETATM   18  N1  UNL     1      64.575  15.889  55.836  1.00  0.00    -0.297 N 
ATOM     19  H2  UNL     1      62.728  15.484  55.245  1.00  0.00     0.187 HD
HETATM   20  C3  UNL     1      65.857  15.963  55.492  1.00  0.00     0.067 A 
ATOM     21  H1  UNL     1      64.289  16.111  56.789  1.00  0.00     0.187 HD
HETATM   22  S1  UNL     1      65.772  15.500  53.835  1.00  0.00    -0.059 SA
BRANCH  20  23
HETATM   23  C2  UNL     1      67.042  16.347  56.328  1.00  0.00     0.062 C 
HETATM   24  C1  UNL     1      66.484  17.163  57.486  1.00  0.00     0.012 C 
ENDBRANCH  20  23
ENDBRANCH  15  16
ENDBRANCH   1  15
BRANCH   7  25
HETATM   25  O1  UNL     1      62.448  10.923  50.061  1.00  0.00    -0.305 OA
BRANCH  25  26
HETATM   26  C9  UNL     1      63.230   9.750  50.094  1.00  0.00     0.523 C 
BRANCH  26  27
HETATM   27  N5  UNL     1      62.335   8.635  49.843  1.00  0.00    -0.027 N 
ATOM     28  H53 UNL     1      61.578   8.569  50.524  1.00  0.00     0.279 HD
ATOM     29  H52 UNL     1      61.756   8.766  49.015  1.00  0.00     0.279 HD
ATOM     30  H51 UNL     1      62.910   7.793  49.802  1.00  0.00     0.279 HD
ENDBRANCH  26  27
BRANCH  26  31
HETATM   31  N6  UNL     1      64.299   9.817  49.131  1.00  0.00    -0.027 N 
ATOM     32  H63 UNL     1      64.760   8.914  49.017  1.00  0.00     0.279 HD
ATOM     33  H62 UNL     1      63.944   9.930  48.181  1.00  0.00     0.279 HD
ATOM     34  H61 UNL     1      64.963  10.551  49.376  1.00  0.00     0.279 HD
ENDBRANCH  26  31
ENDBRANCH  25  26
ENDBRANCH   7  25
BRANCH  11  35
HETATM   35  C11 UNL     1      56.910  13.449  54.023  1.00  0.00     0.036 C 
HETATM   36  C12 UNL     1      57.816  13.906  55.144  1.00  0.00     0.038 C 
HETATM   37  C13 UNL     1      55.768  12.679  54.724  1.00  0.00     0.038 C 
HETATM   38  C14 UNL     1      56.298  14.644  53.362  1.00  0.00     0.038 C 
ENDBRANCH  11  35
TORSDOF 8
ENDMDL
MODEL 5
REMARK VINA RESULT: -6.857189358      2.797      5.992
REMARK  8 active torsions:
REMARK  status: ('A' for Active; 'I' for Inactive)
REMARK    1  A    between atoms: C2_2  and  C3_3 
REMARK    2  A    between atoms: C4_8  and  C5_9 
REMARK    3  A    between atoms: C5_9  and  N3_10 
REMARK    4  A    between atoms: C8_16  and  O1_17 
REMARK    5  A    between atoms: O1_17  and  C9_18 
REMARK    6  A    between atoms: C9_18  and  N5_19 
REMARK    7  A    between atoms: C9_18  and  N6_23 
REMARK    8  A    between atoms: N8_30  and  C11_32 
ROOT
HETATM    1  N3  UNL     1      65.136  11.013  54.615  1.00  0.00    -0.219 N 
ATOM      2  H3  UNL     1      64.329  10.393  54.537  1.00  0.00     0.178 HD
HETATM    3  C6  UNL     1      65.067  12.227  54.191  1.00  0.00     0.694 A 
HETATM    4  N4  UNL     1      66.160  13.099  54.287  1.00  0.00    -0.174 N 
ATOM      5  H4  UNL     1      67.033  12.771  54.701  1.00  0.00     0.186 HD
HETATM    6  C7  UNL     1      66.062  14.433  53.814  1.00  0.00     0.158 A 
HETATM    7  C8  UNL     1      67.118  15.243  53.917  1.00  0.00     0.188 C 
HETATM    8  N7  UNL     1      64.851  14.886  53.241  1.00  0.00    -0.174 N 
ATOM      9  H7  UNL     1      64.791  15.846  52.904  1.00  0.00     0.186 HD
HETATM   10  C10 UNL     1      63.697  14.026  53.119  1.00  0.00     0.695 A 
HETATM   11  N8  UNL     1      62.644  14.506  52.593  1.00  0.00    -0.217 N 
ATOM     12  H8  UNL     1      62.689  15.479  52.288  1.00  0.00     0.178 HD
HETATM   13  N9  UNL     1      63.851  12.709  53.608  1.00  0.00    -0.022 N 
ATOM     14  H9  UNL     1      63.058  12.071  53.541  1.00  0.00     0.203 HD
ENDROOT
BRANCH   1  15
HETATM   15  C5  UNL     1      66.371  10.537  55.204  1.00  0.00     0.204 C 
BRANCH  15  16
HETATM   16  C4  UNL     1      66.049   9.445  56.192  1.00  0.00     0.086 A 
HETATM   17  N2  UNL     1      65.457   9.587  57.372  1.00  0.00    -0.296 N 
HETATM   18  N1  UNL     1      65.249   8.575  58.098  1.00  0.00    -0.297 N 
ATOM     19  H2  UNL     1      65.170  10.513  57.692  1.00  0.00     0.187 HD
HETATM   20  C3  UNL     1      65.623   7.371  57.680  1.00  0.00     0.067 A 
ATOM     21  H1  UNL     1      64.795   8.683  59.006  1.00  0.00     0.187 HD
HETATM   22  S1  UNL     1      66.308   7.760  56.149  1.00  0.00    -0.059 SA
BRANCH  20  23
HETATM   23  C2  UNL     1      65.480   6.043  58.366  1.00  0.00     0.062 C 
HETATM   24  C1  UNL     1      66.868   5.695  58.887  1.00  0.00     0.012 C 
ENDBRANCH  20  23
ENDBRANCH  15  16
ENDBRANCH   1  15
BRANCH   7  25
HETATM   25  O1  UNL     1      68.296  14.782  54.481  1.00  0.00    -0.305 OA
BRANCH  25  26
HETATM   26  C9  UNL     1      68.715  15.344  55.705  1.00  0.00     0.523 C 
BRANCH  26  27
HETATM   27  N5  UNL     1      67.782  14.896  56.721  1.00  0.00    -0.027 N 
ATOM     28  H53 UNL     1      67.429  15.655  57.303  1.00  0.00     0.279 HD
ATOM     29  H52 UNL     1      66.886  14.597  56.337  1.00  0.00     0.279 HD
ATOM     30  H51 UNL     1      68.251  14.166  57.259  1.00  0.00     0.279 HD
ENDBRANCH  26  27
BRANCH  26  31
HETATM   31  N6  UNL     1      70.072  14.966  56.007  1.00  0.00    -0.027 N 
ATOM     32  H63 UNL     1      70.375  15.336  56.908  1.00  0.00     0.279 HD
ATOM     33  H62 UNL     1      70.148  13.970  56.215  1.00  0.00     0.279 HD
ATOM     34  H61 UNL     1      70.703  15.243  55.254  1.00  0.00     0.279 HD
ENDBRANCH  26  31
ENDBRANCH  25  26
ENDBRANCH   7  25
BRANCH  11  35
HETATM   35  C11 UNL     1      61.408  13.829  52.383  1.00  0.00     0.036 C 
HETATM   36  C12 UNL     1      61.558  12.769  51.316  1.00  0.00     0.038 C 
HETATM   37  C13 UNL     1      60.348  14.807  51.826  1.00  0.00     0.038 C 
HETATM   38  C14 UNL     1      60.837  13.211  53.620  1.00  0.00     0.038 C 
ENDBRANCH  11  35
TORSDOF 8
ENDMDL
