MODEL 1
REMARK VINA RESULT: -7.124424692      0.000      0.000
REMARK  7 active torsions:
REMARK  status: ('A' for Active; 'I' for Inactive)
REMARK    1  A    between atoms: C2_2  and  C3_3 
REMARK    2  A    between atoms: N2_6  and  C4_7 
REMARK    3  A    between atoms: C6_13  and  N5_14 
REMARK    4  A    between atoms: C7_17  and  C8_18 
REMARK    5  A    between atoms: C8_18  and  C9_19 
REMARK    6  A    between atoms: C9_19  and  O1_20 
REMARK    7  A    between atoms: C15_29  and  N7_30 
ROOT
HETATM    1  C3  UNL     1      62.060  13.534  52.275  1.00  0.00     0.034 A 
HETATM    2  N1  UNL     1      62.899  14.520  52.598  1.00  0.00    -0.296 N 
ATOM      3  H1  UNL     1      62.800  15.486  52.284  1.00  0.00     0.187 HD
HETATM    4  N2  UNL     1      63.868  14.088  53.373  1.00  0.00    -0.236 N 
HETATM    5  C10 UNL     1      63.654  12.746  53.568  1.00  0.00     0.097 A 
HETATM    6  C11 UNL     1      62.521  12.358  52.890  1.00  0.00    -0.003 A 
HETATM    7  C12 UNL     1      61.971  10.978  52.871  1.00  0.00     0.049 A 
HETATM    8  C13 UNL     1      62.749   9.984  53.629  1.00  0.00     0.065 A 
HETATM    9  C14 UNL     1      63.951  10.456  54.322  1.00  0.00     0.057 A 
HETATM   10  N6  UNL     1      64.653   9.528  55.011  1.00  0.00    -0.192 N 
ATOM     11  H6  UNL     1      64.340   8.558  55.033  1.00  0.00     0.184 HD
HETATM   12  C15 UNL     1      65.764   9.896  55.665  1.00  0.00     0.690 A 
HETATM   13  N8  UNL     1      66.166  11.171  55.631  1.00  0.00    -0.132 N 
ATOM     14  H8  UNL     1      67.014  11.425  56.138  1.00  0.00     0.205 HD
HETATM   15  N9  UNL     1      65.514  12.130  54.969  1.00  0.00    -0.282 N 
ATOM     16  H9  UNL     1      65.841  13.096  54.958  1.00  0.00     0.187 HD
HETATM   17  C16 UNL     1      64.402  11.747  54.318  1.00  0.00     0.101 A 
ENDROOT
BRANCH   4  18
HETATM   18  C4  UNL     1      64.982  14.764  53.952  1.00  0.00     0.138 A 
HETATM   19  N3  UNL     1      66.205  14.642  53.334  1.00  0.00    -0.337 N 
HETATM   20  C5  UNL     1      67.292  15.216  53.852  1.00  0.00     0.183 A 
ATOM     21  H3  UNL     1      66.281  14.105  52.470  1.00  0.00     0.168 HD
HETATM   22  N4  UNL     1      67.167  15.911  54.982  1.00  0.00    -0.338 N 
HETATM   23  C6  UNL     1      66.007  16.069  55.633  1.00  0.00     0.109 A 
ATOM     24  H4  UNL     1      68.002  16.346  55.374  1.00  0.00     0.168 HD
HETATM   25  C7  UNL     1      64.860  15.476  55.105  1.00  0.00     0.033 A 
BRANCH  23  26
HETATM   26  N5  UNL     1      65.939  16.751  56.717  1.00  0.00    -0.385 N 
ATOM     27  H52 UNL     1      66.163  17.746  56.712  1.00  0.00     0.157 HD
ATOM     28  H51 UNL     1      65.665  16.319  57.600  1.00  0.00     0.157 HD
ENDBRANCH  23  26
BRANCH  25  29
HETATM   29  C8  UNL     1      63.594  15.714  55.816  1.00  0.00     0.072 C 
BRANCH  29  30
HETATM   30  C9  UNL     1      63.166  14.483  56.537  1.00  0.00     0.169 C 
BRANCH  30  31
HETATM   31  O1  UNL     1      61.834  14.121  56.212  1.00  0.00    -0.401 OA
ATOM     32  H1  UNL     1      61.202  14.668  56.664  1.00  0.00     0.209 HD
ENDBRANCH  30  31
ENDBRANCH  29  30
ENDBRANCH  25  29
ENDBRANCH   4  18
BRANCH   1  33
HETATM   33  C2  UNL     1      60.839  13.555  51.434  1.00  0.00     0.055 C 
HETATM   34  C1  UNL     1      59.875  14.647  51.827  1.00  0.00     0.011 C 
ENDBRANCH   1  33
BRANCH  12  35
HETATM   35  N7  UNL     1      66.422   8.978  56.318  1.00  0.00    -0.233 N 
ATOM     36  H72 UNL     1      66.480   8.014  55.990  1.00  0.00     0.174 HD
ATOM     37  H71 UNL     1      66.888   9.248  57.184  1.00  0.00     0.174 HD
ENDBRANCH  12  35
TORSDOF 7
ENDMDL
MODEL 2
REMARK VINA RESULT: -7.041814678      2.342      3.280
REMARK  7 active torsions:
REMARK  status: ('A' for Active; 'I' for Inactive)
REMARK    1  A    between atoms: C2_2  and  C3_3 
REMARK    2  A    between atoms: N2_6  and  C4_7 
REMARK    3  A    between atoms: C6_13  and  N5_14 
REMARK    4  A    between atoms: C7_17  and  C8_18 
REMARK    5  A    between atoms: C8_18  and  C9_19 
REMARK    6  A    between atoms: C9_19  and  O1_20 
REMARK    7  A    between atoms: C15_29  and  N7_30 
ROOT
HETATM    1  C3  UNL     1      60.727  13.730  51.278  1.00  0.00     0.034 A 
HETATM    2  N1  UNL     1      60.999  14.317  52.445  1.00  0.00    -0.296 N 
ATOM      3  H1  UNL     1      60.718  15.266  52.692  1.00  0.00     0.187 HD
HETATM    4  N2  UNL     1      61.675  13.515  53.236  1.00  0.00    -0.236 N 
HETATM    5  C10 UNL     1      61.856  12.340  52.552  1.00  0.00     0.097 A 
HETATM    6  C11 UNL     1      61.272  12.436  51.310  1.00  0.00    -0.003 A 
HETATM    7  C12 UNL     1      61.261  11.357  50.288  1.00  0.00     0.049 A 
HETATM    8  C13 UNL     1      61.964  10.122  50.675  1.00  0.00     0.065 A 
HETATM    9  C14 UNL     1      62.574  10.084  52.007  1.00  0.00     0.057 A 
HETATM   10  N6  UNL     1      63.216   8.942  52.342  1.00  0.00    -0.192 N 
ATOM     11  H6  UNL     1      63.258   8.163  51.685  1.00  0.00     0.184 HD
HETATM   12  C15 UNL     1      63.798   8.844  53.546  1.00  0.00     0.690 A 
HETATM   13  N8  UNL     1      63.737   9.871  54.401  1.00  0.00    -0.132 N 
ATOM     14  H8  UNL     1      64.187   9.770  55.310  1.00  0.00     0.205 HD
HETATM   15  N9  UNL     1      63.117  11.021  54.125  1.00  0.00    -0.282 N 
ATOM     16  H9  UNL     1      63.085  11.790  54.794  1.00  0.00     0.187 HD
HETATM   17  C16 UNL     1      62.539  11.105  52.915  1.00  0.00     0.101 A 
ENDROOT
BRANCH   4  18
HETATM   18  C4  UNL     1      62.186  13.705  54.555  1.00  0.00     0.138 A 
HETATM   19  N3  UNL     1      61.366  13.399  55.616  1.00  0.00    -0.337 N 
HETATM   20  C5  UNL     1      61.772  13.595  56.871  1.00  0.00     0.183 A 
ATOM     21  H3  UNL     1      60.436  13.018  55.441  1.00  0.00     0.168 HD
HETATM   22  N4  UNL     1      62.990  14.096  57.075  1.00  0.00    -0.338 N 
HETATM   23  C6  UNL     1      63.837  14.414  56.087  1.00  0.00     0.109 A 
ATOM     24  H4  UNL     1      63.294  14.245  58.037  1.00  0.00     0.168 HD
HETATM   25  C7  UNL     1      63.429  14.214  54.769  1.00  0.00     0.033 A 
BRANCH  23  26
HETATM   26  N5  UNL     1      65.002  14.890  56.337  1.00  0.00    -0.385 N 
ATOM     27  H52 UNL     1      65.135  15.897  56.433  1.00  0.00     0.157 HD
ATOM     28  H51 UNL     1      65.813  14.280  56.441  1.00  0.00     0.157 HD
ENDBRANCH  23  26
BRANCH  25  29
HETATM   29  C8  UNL     1      64.404  14.524  53.710  1.00  0.00     0.072 C 
BRANCH  29  30
HETATM   30  C9  UNL     1      64.156  15.887  53.163  1.00  0.00     0.169 C 
BRANCH  30  31
HETATM   31  O1  UNL     1      64.877  16.108  51.962  1.00  0.00    -0.401 OA
ATOM     32  H1  UNL     1      65.638  15.543  51.901  1.00  0.00     0.209 HD
ENDBRANCH  30  31
ENDBRANCH  29  30
ENDBRANCH  25  29
ENDBRANCH   4  18
BRANCH   1  33
HETATM   33  C2  UNL     1      59.995  14.246  50.097  1.00  0.00     0.055 C 
HETATM   34  C1  UNL     1      58.499  14.254  50.290  1.00  0.00     0.011 C 
ENDBRANCH   1  33
BRANCH  12  35
HETATM   35  N7  UNL     1      64.413   7.732  53.840  1.00  0.00    -0.233 N 
ATOM     36  H72 UNL     1      64.700   7.064  53.124  1.00  0.00     0.174 HD
ATOM     37  H71 UNL     1      64.606   7.536  54.823  1.00  0.00     0.174 HD
ENDBRANCH  12  35
TORSDOF 7
ENDMDL
MODEL 3
REMARK VINA RESULT: -6.862612139      2.693      4.130
REMARK  7 active torsions:
REMARK  status: ('A' for Active; 'I' for Inactive)
REMARK    1  A    between atoms: C2_2  and  C3_3 
REMARK    2  A    between atoms: N2_6  and  C4_7 
REMARK    3  A    between atoms: C6_13  and  N5_14 
REMARK    4  A    between atoms: C7_17  and  C8_18 
REMARK    5  A    between atoms: C8_18  and  C9_19 
REMARK    6  A    between atoms: C9_19  and  O1_20 
REMARK    7  A    between atoms: C15_29  and  N7_30 
ROOT
HETATM    1  C3  UNL     1      58.940  14.226  51.839  1.00  0.00     0.034 A 
HETATM    2  N1  UNL     1      59.916  14.680  52.627  1.00  0.00    -0.296 N 
ATOM      3  H1  UNL     1      59.844  15.515  53.209  1.00  0.00     0.187 HD
HETATM    4  N2  UNL     1      60.981  13.914  52.559  1.00  0.00    -0.236 N 
HETATM    5  C10 UNL     1      60.688  12.903  51.678  1.00  0.00     0.097 A 
HETATM    6  C11 UNL     1      59.409  13.065  51.201  1.00  0.00    -0.003 A 
HETATM    7  C12 UNL     1      58.741  12.160  50.229  1.00  0.00     0.049 A 
HETATM    8  C13 UNL     1      59.565  11.036  49.753  1.00  0.00     0.065 A 
HETATM    9  C14 UNL     1      60.923  10.922  50.291  1.00  0.00     0.057 A 
HETATM   10  N6  UNL     1      61.664   9.885  49.841  1.00  0.00    -0.192 N 
ATOM     11  H6  UNL     1      61.274   9.229  49.164  1.00  0.00     0.184 HD
HETATM   12  C15 UNL     1      62.917   9.726  50.292  1.00  0.00     0.690 A 
HETATM   13  N8  UNL     1      63.419  10.590  51.181  1.00  0.00    -0.132 N 
ATOM     14  H8  UNL     1      64.373  10.447  51.509  1.00  0.00     0.205 HD
HETATM   15  N9  UNL     1      62.735  11.632  51.660  1.00  0.00    -0.282 N 
ATOM     16  H9  UNL     1      63.141  12.278  52.337  1.00  0.00     0.187 HD
HETATM   17  C16 UNL     1      61.481  11.779  51.199  1.00  0.00     0.101 A 
ENDROOT
BRANCH   4  18
HETATM   18  C4  UNL     1      62.249  14.006  53.205  1.00  0.00     0.138 A 
HETATM   19  N3  UNL     1      63.213  14.798  52.626  1.00  0.00    -0.337 N 
HETATM   20  C5  UNL     1      64.432  14.891  53.160  1.00  0.00     0.183 A 
ATOM     21  H3  UNL     1      62.993  15.320  51.778  1.00  0.00     0.168 HD
HETATM   22  N4  UNL     1      64.695  14.197  54.267  1.00  0.00    -0.338 N 
HETATM   23  C6  UNL     1      63.803  13.409  54.881  1.00  0.00     0.109 A 
ATOM     24  H4  UNL     1      65.630  14.271  54.670  1.00  0.00     0.168 HD
HETATM   25  C7  UNL     1      62.523  13.302  54.336  1.00  0.00     0.033 A 
BRANCH  23  26
HETATM   26  N5  UNL     1      64.106  12.765  55.948  1.00  0.00    -0.385 N 
ATOM     27  H52 UNL     1      65.071  12.486  56.122  1.00  0.00     0.157 HD
ATOM     28  H51 UNL     1      63.396  12.518  56.638  1.00  0.00     0.157 HD
ENDBRANCH  23  26
BRANCH  25  29
HETATM   29  C8  UNL     1      61.552  12.470  55.065  1.00  0.00     0.072 C 
BRANCH  29  30
HETATM   30  C9  UNL     1      60.805  13.294  56.055  1.00  0.00     0.169 C 
BRANCH  30  31
HETATM   31  O1  UNL     1      59.564  13.741  55.534  1.00  0.00    -0.401 OA
ATOM     32  H1  UNL     1      58.846  13.183  55.811  1.00  0.00     0.209 HD
ENDBRANCH  30  31
ENDBRANCH  29  30
ENDBRANCH  25  29
ENDBRANCH   4  18
BRANCH   1  33
HETATM   33  C2  UNL     1      57.578  14.759  51.599  1.00  0.00     0.055 C 
HETATM   34  C1  UNL     1      56.589  14.340  52.657  1.00  0.00     0.011 C 
ENDBRANCH   1  33
BRANCH  12  35
HETATM   35  N7  UNL     1      63.609   8.718  49.838  1.00  0.00    -0.233 N 
ATOM     36  H72 UNL     1      63.304   8.168  49.033  1.00  0.00     0.174 HD
ATOM     37  H71 UNL     1      64.480   8.481  50.313  1.00  0.00     0.174 HD
ENDBRANCH  12  35
TORSDOF 7
ENDMDL
MODEL 4
REMARK VINA RESULT: -6.795160931      1.773      4.444
REMARK  7 active torsions:
REMARK  status: ('A' for Active; 'I' for Inactive)
REMARK    1  A    between atoms: C2_2  and  C3_3 
REMARK    2  A    between atoms: N2_6  and  C4_7 
REMARK    3  A    between atoms: C6_13  and  N5_14 
REMARK    4  A    between atoms: C7_17  and  C8_18 
REMARK    5  A    between atoms: C8_18  and  C9_19 
REMARK    6  A    between atoms: C9_19  and  O1_20 
REMARK    7  A    between atoms: C15_29  and  N7_30 
ROOT
HETATM    1  C3  UNL     1      62.063  14.230  52.764  1.00  0.00     0.034 A 
HETATM    2  N1  UNL     1      62.045  13.034  53.355  1.00  0.00    -0.296 N 
ATOM      3  H1  UNL     1      61.272  12.371  53.288  1.00  0.00     0.187 HD
HETATM    4  N2  UNL     1      63.149  12.819  54.033  1.00  0.00    -0.236 N 
HETATM    5  C10 UNL     1      63.934  13.934  53.880  1.00  0.00     0.097 A 
HETATM    6  C11 UNL     1      63.284  14.849  53.085  1.00  0.00    -0.003 A 
HETATM    7  C12 UNL     1      63.826  16.176  52.695  1.00  0.00     0.049 A 
HETATM    8  C13 UNL     1      65.153  16.496  53.248  1.00  0.00     0.065 A 
HETATM    9  C14 UNL     1      65.791  15.486  54.095  1.00  0.00     0.057 A 
HETATM   10  N6  UNL     1      67.007  15.800  54.595  1.00  0.00    -0.192 N 
ATOM     11  H6  UNL     1      67.437  16.699  54.377  1.00  0.00     0.184 HD
HETATM   12  C15 UNL     1      67.644  14.918  55.380  1.00  0.00     0.690 A 
HETATM   13  N8  UNL     1      67.073  13.741  55.658  1.00  0.00    -0.132 N 
ATOM     14  H8  UNL     1      67.578  13.088  56.257  1.00  0.00     0.205 HD
HETATM   15  N9  UNL     1      65.876  13.377  55.194  1.00  0.00    -0.282 N 
ATOM     16  H9  UNL     1      65.461  12.473  55.422  1.00  0.00     0.187 HD
HETATM   17  C16 UNL     1      65.249  14.270  54.409  1.00  0.00     0.101 A 
ENDROOT
BRANCH   4  18
HETATM   18  C4  UNL     1      63.568  11.705  54.819  1.00  0.00     0.138 A 
HETATM   19  N3  UNL     1      64.329  10.734  54.210  1.00  0.00    -0.337 N 
HETATM   20  C5  UNL     1      64.716   9.648  54.882  1.00  0.00     0.183 A 
ATOM     21  H3  UNL     1      64.601  10.846  53.233  1.00  0.00     0.168 HD
HETATM   22  N4  UNL     1      64.348   9.524  56.156  1.00  0.00    -0.338 N 
HETATM   23  C6  UNL     1      63.609  10.431  56.808  1.00  0.00     0.109 A 
ATOM     24  H4  UNL     1      64.645   8.691  56.664  1.00  0.00     0.168 HD
HETATM   25  C7  UNL     1      63.197  11.573  56.121  1.00  0.00     0.033 A 
BRANCH  23  26
HETATM   26  N5  UNL     1      63.283  10.266  58.038  1.00  0.00    -0.385 N 
ATOM     27  H52 UNL     1      63.992  10.015  58.727  1.00  0.00     0.157 HD
ATOM     28  H51 UNL     1      62.319  10.378  58.351  1.00  0.00     0.157 HD
ENDBRANCH  23  26
BRANCH  25  29
HETATM   29  C8  UNL     1      62.432  12.574  56.882  1.00  0.00     0.072 C 
BRANCH  29  30
HETATM   30  C9  UNL     1      60.975  12.429  56.608  1.00  0.00     0.169 C 
BRANCH  30  31
HETATM   31  O1  UNL     1      60.458  13.553  55.915  1.00  0.00    -0.401 OA
ATOM     32  H1  UNL     1      60.283  14.278  56.504  1.00  0.00     0.209 HD
ENDBRANCH  30  31
ENDBRANCH  29  30
ENDBRANCH  25  29
ENDBRANCH   4  18
BRANCH   1  33
HETATM   33  C2  UNL     1      61.049  14.889  51.908  1.00  0.00     0.055 C 
HETATM   34  C1  UNL     1      59.671  14.297  52.068  1.00  0.00     0.011 C 
ENDBRANCH   1  33
BRANCH  12  35
HETATM   35  N7  UNL     1      68.814  15.250  55.850  1.00  0.00    -0.233 N 
ATOM     36  H72 UNL     1      69.301  16.094  55.548  1.00  0.00     0.174 HD
ATOM     37  H71 UNL     1      69.246  14.635  56.540  1.00  0.00     0.174 HD
ENDBRANCH  12  35
TORSDOF 7
ENDMDL
MODEL 5
REMARK VINA RESULT: -6.764834754      2.675      4.490
REMARK  7 active torsions:
REMARK  status: ('A' for Active; 'I' for Inactive)
REMARK    1  A    between atoms: C2_2  and  C3_3 
REMARK    2  A    between atoms: N2_6  and  C4_7 
REMARK    3  A    between atoms: C6_13  and  N5_14 
REMARK    4  A    between atoms: C7_17  and  C8_18 
REMARK    5  A    between atoms: C8_18  and  C9_19 
REMARK    6  A    between atoms: C9_19  and  O1_20 
REMARK    7  A    between atoms: C15_29  and  N7_30 
ROOT
HETATM    1  C3  UNL     1      61.513  13.900  57.098  1.00  0.00     0.034 A 
HETATM    2  N1  UNL     1      62.841  13.916  56.973  1.00  0.00    -0.296 N 
ATOM      3  H1  UNL     1      63.483  14.236  57.697  1.00  0.00     0.187 HD
HETATM    4  N2  UNL     1      63.215  13.467  55.796  1.00  0.00    -0.236 N 
HETATM    5  C10 UNL     1      62.071  13.139  55.113  1.00  0.00     0.097 A 
HETATM    6  C11 UNL     1      60.974  13.398  55.901  1.00  0.00    -0.003 A 
HETATM    7  C12 UNL     1      59.563  13.164  55.500  1.00  0.00     0.049 A 
HETATM    8  C13 UNL     1      59.379  12.638  54.137  1.00  0.00     0.065 A 
HETATM    9  C14 UNL     1      60.585  12.391  53.343  1.00  0.00     0.057 A 
HETATM   10  N6  UNL     1      60.395  11.910  52.093  1.00  0.00    -0.192 N 
ATOM     11  H6  UNL     1      59.452  11.735  51.747  1.00  0.00     0.184 HD
HETATM   12  C15 UNL     1      61.459  11.665  51.314  1.00  0.00     0.690 A 
HETATM   13  N8  UNL     1      62.692  11.896  51.778  1.00  0.00    -0.132 N 
ATOM     14  H8  UNL     1      63.483  11.700  51.166  1.00  0.00     0.205 HD
HETATM   15  N9  UNL     1      62.940  12.370  53.001  1.00  0.00    -0.282 N 
ATOM     16  H9  UNL     1      63.890  12.538  53.332  1.00  0.00     0.187 HD
HETATM   17  C16 UNL     1      61.865  12.611  53.771  1.00  0.00     0.101 A 
ENDROOT
BRANCH   4  18
HETATM   18  C4  UNL     1      64.509  13.311  55.217  1.00  0.00     0.138 A 
HETATM   19  N3  UNL     1      65.129  12.089  55.341  1.00  0.00    -0.337 N 
HETATM   20  C5  UNL     1      66.357  11.894  54.857  1.00  0.00     0.183 A 
ATOM     21  H3  UNL     1      64.644  11.323  55.809  1.00  0.00     0.168 HD
HETATM   22  N4  UNL     1      66.970  12.910  54.252  1.00  0.00    -0.338 N 
HETATM   23  C6  UNL     1      66.424  14.123  54.098  1.00  0.00     0.109 A 
ATOM     24  H4  UNL     1      67.910  12.755  53.886  1.00  0.00     0.168 HD
HETATM   25  C7  UNL     1      65.140  14.343  54.597  1.00  0.00     0.033 A 
BRANCH  23  26
HETATM   26  N5  UNL     1      67.056  15.068  53.503  1.00  0.00    -0.385 N 
ATOM     27  H52 UNL     1      68.020  15.280  53.759  1.00  0.00     0.157 HD
ATOM     28  H51 UNL     1      66.613  15.623  52.771  1.00  0.00     0.157 HD
ENDBRANCH  23  26
BRANCH  25  29
HETATM   29  C8  UNL     1      64.549  15.671  54.363  1.00  0.00     0.072 C 
BRANCH  29  30
HETATM   30  C9  UNL     1      63.859  15.705  53.044  1.00  0.00     0.169 C 
BRANCH  30  31
HETATM   31  O1  UNL     1      64.735  16.107  52.004  1.00  0.00    -0.401 OA
ATOM     32  H1  UNL     1      64.932  15.389  51.415  1.00  0.00     0.209 HD
ENDBRANCH  30  31
ENDBRANCH  29  30
ENDBRANCH  25  29
ENDBRANCH   4  18
BRANCH   1  33
HETATM   33  C2  UNL     1      60.655  14.309  58.236  1.00  0.00     0.055 C 
HETATM   34  C1  UNL     1      60.952  13.542  59.500  1.00  0.00     0.011 C 
ENDBRANCH   1  33
BRANCH  12  35
HETATM   35  N7  UNL     1      61.245  11.204  50.113  1.00  0.00    -0.233 N 
ATOM     36  H72 UNL     1      61.727  10.380  49.753  1.00  0.00     0.174 HD
ATOM     37  H71 UNL     1      60.572  11.695  49.524  1.00  0.00     0.174 HD
ENDBRANCH  12  35
TORSDOF 7
ENDMDL
