MODEL 1
REMARK VINA RESULT: -7.151649718      0.000      0.000
REMARK  7 active torsions:
REMARK  status: ('A' for Active; 'I' for Inactive)
REMARK    1  A    between atoms: C2_2  and  N1_4 
REMARK    2  A    between atoms: N1_4  and  C4_5 
REMARK    3  A    between atoms: N1_4  and  S1_14 
REMARK    4  A    between atoms: C4_5  and  O1_6 
REMARK    5  A    between atoms: C4_5  and  C5_8 
REMARK    6  A    between atoms: S1_14  and  C11_17 
REMARK    7  A    between atoms: C14_20  and  N2_21 
REMARK       I    between atoms: N2_21  and  C15_23 
ROOT
HETATM    1  S1  UNL     1     -26.299  45.422  12.103  1.00  0.00     0.267 S 
HETATM    2  O2  UNL     1     -25.913  46.406  13.126  1.00  0.00    -0.200 OA
HETATM    3  O3  UNL     1     -27.144  44.339  12.699  1.00  0.00    -0.200 OA
ENDROOT
BRANCH   1   4
HETATM    4  N1  UNL     1     -27.266  46.163  10.787  1.00  0.00    -0.246 N 
BRANCH   4   5
HETATM    5  C2  UNL     1     -28.460  45.411  10.512  1.00  0.00     0.096 C 
HETATM    6  C1  UNL     1     -28.349  44.466   9.339  1.00  0.00     0.033 C 
HETATM    7  C3  UNL     1     -29.738  46.212  10.560  1.00  0.00     0.033 C 
ENDBRANCH   4   5
BRANCH   4   8
HETATM    8  C4  UNL     1     -26.727  47.311  10.260  1.00  0.00     0.162 C 
BRANCH   8   9
HETATM    9  O1  UNL     1     -26.491  48.229  11.203  1.00  0.00    -0.345 OA
ATOM     10  H1  UNL     1     -26.089  47.848  11.975  1.00  0.00     0.219 HD
ENDBRANCH   8   9
BRANCH   8  11
HETATM   11  C5  UNL     1     -26.349  47.786   8.950  1.00  0.00     0.015 A 
HETATM   12  C6  UNL     1     -27.322  47.831   7.923  1.00  0.00     0.016 A 
HETATM   13  C7  UNL     1     -27.081  48.260   6.652  1.00  0.00     0.001 A 
HETATM   14  C8  UNL     1     -25.828  48.683   6.308  1.00  0.00     0.000 A 
HETATM   15  C9  UNL     1     -24.840  48.664   7.258  1.00  0.00     0.001 A 
HETATM   16  C10 UNL     1     -25.119  48.216   8.560  1.00  0.00     0.016 A 
ENDBRANCH   8  11
ENDBRANCH   4   8
ENDBRANCH   1   4
BRANCH   1  17
HETATM   17  C11 UNL     1     -24.877  44.644  11.424  1.00  0.00     0.080 A 
HETATM   18  C12 UNL     1     -24.339  44.988  10.212  1.00  0.00     0.027 A 
HETATM   19  C13 UNL     1     -23.228  44.353   9.725  1.00  0.00     0.031 A 
HETATM   20  C14 UNL     1     -22.588  43.338  10.411  1.00  0.00     0.034 A 
HETATM   21  C16 UNL     1     -23.124  42.987  11.631  1.00  0.00     0.031 A 
HETATM   22  C17 UNL     1     -24.243  43.623  12.130  1.00  0.00     0.027 A 
BRANCH  20  23
HETATM   23  N2  UNL     1     -21.446  42.715   9.861  1.00  0.00    -0.331 N 
HETATM   24  C15 UNL     1     -20.294  43.477   9.598  1.00  0.00     0.186 C 
HETATM   25  N3  UNL     1     -19.404  43.658  10.523  1.00  0.00    -0.373 N 
HETATM   26  N4  UNL     1     -20.041  44.080   8.334  1.00  0.00    -0.064 NA
ATOM     27  H32 UNL     1     -19.585  43.225  11.429  1.00  0.00     0.158 HD
ATOM     28  H31 UNL     1     -18.569  44.211  10.332  1.00  0.00     0.158 HD
ATOM     29  H2  UNL     1     -21.457  41.716   9.656  1.00  0.00     0.168 HD
ENDBRANCH  20  23
ENDBRANCH   1  17
TORSDOF 7
ENDMDL
MODEL 2
REMARK VINA RESULT: -6.995333481      3.318      6.505
REMARK  7 active torsions:
REMARK  status: ('A' for Active; 'I' for Inactive)
REMARK    1  A    between atoms: C2_2  and  N1_4 
REMARK    2  A    between atoms: N1_4  and  C4_5 
REMARK    3  A    between atoms: N1_4  and  S1_14 
REMARK    4  A    between atoms: C4_5  and  O1_6 
REMARK    5  A    between atoms: C4_5  and  C5_8 
REMARK    6  A    between atoms: S1_14  and  C11_17 
REMARK    7  A    between atoms: C14_20  and  N2_21 
REMARK       I    between atoms: N2_21  and  C15_23 
ROOT
HETATM    1  S1  UNL     1     -28.690  45.639  12.296  1.00  0.00     0.267 S 
HETATM    2  O2  UNL     1     -28.334  45.063  13.603  1.00  0.00    -0.200 OA
HETATM    3  O3  UNL     1     -29.662  46.767  12.460  1.00  0.00    -0.200 OA
ENDROOT
BRANCH   1   4
HETATM    4  N1  UNL     1     -27.262  46.312  11.446  1.00  0.00    -0.246 N 
BRANCH   4   5
HETATM    5  C2  UNL     1     -27.636  47.302  10.473  1.00  0.00     0.096 C 
HETATM    6  C1  UNL     1     -27.876  46.757   9.085  1.00  0.00     0.033 C 
HETATM    7  C3  UNL     1     -26.827  48.574  10.520  1.00  0.00     0.033 C 
ENDBRANCH   4   5
BRANCH   4   8
HETATM    8  C4  UNL     1     -26.058  45.788  11.850  1.00  0.00     0.162 C 
BRANCH   8   9
HETATM    9  O1  UNL     1     -25.765  46.129  13.109  1.00  0.00    -0.345 OA
ATOM     10  H1  UNL     1     -26.083  46.999  13.324  1.00  0.00     0.219 HD
ENDBRANCH   8   9
BRANCH   8  11
HETATM   11  C5  UNL     1     -25.023  44.966  11.268  1.00  0.00     0.015 A 
HETATM   12  C6  UNL     1     -24.510  43.874  12.007  1.00  0.00     0.016 A 
HETATM   13  C7  UNL     1     -23.536  43.032  11.561  1.00  0.00     0.001 A 
HETATM   14  C8  UNL     1     -22.993  43.223  10.321  1.00  0.00     0.000 A 
HETATM   15  C9  UNL     1     -23.448  44.264   9.555  1.00  0.00     0.001 A 
HETATM   16  C10 UNL     1     -24.454  45.116  10.042  1.00  0.00     0.016 A 
ENDBRANCH   8  11
ENDBRANCH   4   8
ENDBRANCH   1   4
BRANCH   1  17
HETATM   17  C11 UNL     1     -29.470  44.437  11.281  1.00  0.00     0.080 A 
HETATM   18  C12 UNL     1     -29.049  43.136  11.198  1.00  0.00     0.027 A 
HETATM   19  C13 UNL     1     -29.691  42.235  10.391  1.00  0.00     0.031 A 
HETATM   20  C14 UNL     1     -30.787  42.572   9.620  1.00  0.00     0.034 A 
HETATM   21  C16 UNL     1     -31.216  43.879   9.699  1.00  0.00     0.031 A 
HETATM   22  C17 UNL     1     -30.575  44.794  10.510  1.00  0.00     0.027 A 
BRANCH  20  23
HETATM   23  N2  UNL     1     -31.411  41.602   8.804  1.00  0.00    -0.331 N 
HETATM   24  C15 UNL     1     -31.062  41.501   7.446  1.00  0.00     0.186 C 
HETATM   25  N3  UNL     1     -30.063  40.759   7.081  1.00  0.00    -0.373 N 
HETATM   26  N4  UNL     1     -31.763  42.189   6.417  1.00  0.00    -0.064 NA
ATOM     27  H32 UNL     1     -29.560  40.266   7.819  1.00  0.00     0.158 HD
ATOM     28  H31 UNL     1     -29.809  40.687   6.096  1.00  0.00     0.158 HD
ATOM     29  H2  UNL     1     -32.112  40.976   9.200  1.00  0.00     0.168 HD
ENDBRANCH  20  23
ENDBRANCH   1  17
TORSDOF 7
ENDMDL
MODEL 3
REMARK VINA RESULT: -6.970911069      2.965      5.698
REMARK  7 active torsions:
REMARK  status: ('A' for Active; 'I' for Inactive)
REMARK    1  A    between atoms: C2_2  and  N1_4 
REMARK    2  A    between atoms: N1_4  and  C4_5 
REMARK    3  A    between atoms: N1_4  and  S1_14 
REMARK    4  A    between atoms: C4_5  and  O1_6 
REMARK    5  A    between atoms: C4_5  and  C5_8 
REMARK    6  A    between atoms: S1_14  and  C11_17 
REMARK    7  A    between atoms: C14_20  and  N2_21 
REMARK       I    between atoms: N2_21  and  C15_23 
ROOT
HETATM    1  S1  UNL     1     -28.589  47.061   9.967  1.00  0.00     0.267 S 
HETATM    2  O2  UNL     1     -29.801  46.994   9.134  1.00  0.00    -0.200 OA
HETATM    3  O3  UNL     1     -28.828  47.896  11.187  1.00  0.00    -0.200 OA
ENDROOT
BRANCH   1   4
HETATM    4  N1  UNL     1     -28.079  45.443  10.544  1.00  0.00    -0.246 N 
BRANCH   4   5
HETATM    5  C2  UNL     1     -29.025  44.422  10.182  1.00  0.00     0.096 C 
HETATM    6  C1  UNL     1     -29.204  43.338  11.219  1.00  0.00     0.033 C 
HETATM    7  C3  UNL     1     -28.909  43.925   8.763  1.00  0.00     0.033 C 
ENDBRANCH   4   5
BRANCH   4   8
HETATM    8  C4  UNL     1     -26.886  45.429  11.225  1.00  0.00     0.162 C 
BRANCH   8   9
HETATM    9  O1  UNL     1     -26.968  46.092  12.384  1.00  0.00    -0.345 OA
ATOM     10  H1  UNL     1     -27.285  46.980  12.262  1.00  0.00     0.219 HD
ENDBRANCH   8   9
BRANCH   8  11
HETATM   11  C5  UNL     1     -25.565  44.886  11.016  1.00  0.00     0.015 A 
HETATM   12  C6  UNL     1     -25.057  43.931  11.929  1.00  0.00     0.016 A 
HETATM   13  C7  UNL     1     -23.827  43.351  11.833  1.00  0.00     0.001 A 
HETATM   14  C8  UNL     1     -23.000  43.691  10.799  1.00  0.00     0.000 A 
HETATM   15  C9  UNL     1     -23.433  44.610   9.881  1.00  0.00     0.001 A 
HETATM   16  C10 UNL     1     -24.706  45.191  10.006  1.00  0.00     0.016 A 
ENDBRANCH   8  11
ENDBRANCH   4   8
ENDBRANCH   1   4
BRANCH   1  17
HETATM   17  C11 UNL     1     -27.272  47.816   9.084  1.00  0.00     0.080 A 
HETATM   18  C12 UNL     1     -26.257  48.507   9.694  1.00  0.00     0.027 A 
HETATM   19  C13 UNL     1     -25.250  49.077   8.962  1.00  0.00     0.031 A 
HETATM   20  C14 UNL     1     -25.193  48.998   7.583  1.00  0.00     0.034 A 
HETATM   21  C16 UNL     1     -26.209  48.305   6.964  1.00  0.00     0.031 A 
HETATM   22  C17 UNL     1     -27.228  47.726   7.694  1.00  0.00     0.027 A 
BRANCH  20  23
HETATM   23  N2  UNL     1     -24.131  49.607   6.878  1.00  0.00    -0.331 N 
HETATM   24  C15 UNL     1     -24.285  49.918   5.515  1.00  0.00     0.186 C 
HETATM   25  N3  UNL     1     -24.801  51.052   5.157  1.00  0.00    -0.373 N 
HETATM   26  N4  UNL     1     -23.895  49.031   4.474  1.00  0.00    -0.064 NA
ATOM     27  H32 UNL     1     -25.081  51.688   5.904  1.00  0.00     0.158 HD
ATOM     28  H31 UNL     1     -24.913  51.277   4.169  1.00  0.00     0.158 HD
ATOM     29  H2  UNL     1     -23.256  49.821   7.356  1.00  0.00     0.168 HD
ENDBRANCH  20  23
ENDBRANCH   1  17
TORSDOF 7
ENDMDL
MODEL 4
REMARK VINA RESULT: -6.962324452      1.290      3.097
REMARK  7 active torsions:
REMARK  status: ('A' for Active; 'I' for Inactive)
REMARK    1  A    between atoms: C2_2  and  N1_4 
REMARK    2  A    between atoms: N1_4  and  C4_5 
REMARK    3  A    between atoms: N1_4  and  S1_14 
REMARK    4  A    between atoms: C4_5  and  O1_6 
REMARK    5  A    between atoms: C4_5  and  C5_8 
REMARK    6  A    between atoms: S1_14  and  C11_17 
REMARK    7  A    between atoms: C14_20  and  N2_21 
REMARK       I    between atoms: N2_21  and  C15_23 
ROOT
HETATM    1  S1  UNL     1     -26.296  45.493  11.954  1.00  0.00     0.267 S 
HETATM    2  O2  UNL     1     -25.944  46.393  13.064  1.00  0.00    -0.200 OA
HETATM    3  O3  UNL     1     -27.230  44.418  12.416  1.00  0.00    -0.200 OA
ENDROOT
BRANCH   1   4
HETATM    4  N1  UNL     1     -27.129  46.359  10.624  1.00  0.00    -0.246 N 
BRANCH   4   5
HETATM    5  C2  UNL     1     -26.390  47.514  10.191  1.00  0.00     0.096 C 
HETATM    6  C1  UNL     1     -26.969  48.834  10.644  1.00  0.00     0.033 C 
HETATM    7  C3  UNL     1     -25.948  47.481   8.749  1.00  0.00     0.033 C 
ENDBRANCH   4   5
BRANCH   4   8
HETATM    8  C4  UNL     1     -28.319  45.795  10.231  1.00  0.00     0.162 C 
BRANCH   8   9
HETATM    9  O1  UNL     1     -29.243  45.862  11.195  1.00  0.00    -0.345 OA
ATOM     10  H1  UNL     1     -29.181  45.128  11.796  1.00  0.00     0.219 HD
ENDBRANCH   8   9
BRANCH   8  11
HETATM   11  C5  UNL     1     -28.831  45.146   9.048  1.00  0.00     0.015 A 
HETATM   12  C6  UNL     1     -28.894  43.732   9.007  1.00  0.00     0.016 A 
HETATM   13  C7  UNL     1     -29.358  43.012   7.946  1.00  0.00     0.001 A 
HETATM   14  C8  UNL     1     -29.800  43.664   6.829  1.00  0.00     0.000 A 
HETATM   15  C9  UNL     1     -29.765  45.034   6.806  1.00  0.00     0.001 A 
HETATM   16  C10 UNL     1     -29.282  45.749   7.915  1.00  0.00     0.016 A 
ENDBRANCH   8  11
ENDBRANCH   4   8
ENDBRANCH   1   4
BRANCH   1  17
HETATM   17  C11 UNL     1     -24.864  44.690  11.329  1.00  0.00     0.080 A 
HETATM   18  C12 UNL     1     -24.274  45.026  10.138  1.00  0.00     0.027 A 
HETATM   19  C13 UNL     1     -23.157  44.371   9.693  1.00  0.00     0.031 A 
HETATM   20  C14 UNL     1     -22.561  43.344  10.403  1.00  0.00     0.034 A 
HETATM   21  C16 UNL     1     -23.149  43.003  11.601  1.00  0.00     0.031 A 
HETATM   22  C17 UNL     1     -24.275  43.658  12.057  1.00  0.00     0.027 A 
BRANCH  20  23
HETATM   23  N2  UNL     1     -21.410  42.702   9.895  1.00  0.00    -0.331 N 
HETATM   24  C15 UNL     1     -20.256  43.455   9.616  1.00  0.00     0.186 C 
HETATM   25  N3  UNL     1     -19.379  43.677  10.546  1.00  0.00    -0.373 N 
HETATM   26  N4  UNL     1     -19.986  44.004   8.332  1.00  0.00    -0.064 NA
ATOM     27  H32 UNL     1     -19.572  43.283  11.467  1.00  0.00     0.158 HD
ATOM     28  H31 UNL     1     -18.543  44.224  10.343  1.00  0.00     0.158 HD
ATOM     29  H2  UNL     1     -21.416  41.695   9.733  1.00  0.00     0.168 HD
ENDBRANCH  20  23
ENDBRANCH   1  17
TORSDOF 7
ENDMDL
MODEL 5
REMARK VINA RESULT: -6.858482678      2.735      5.739
REMARK  7 active torsions:
REMARK  status: ('A' for Active; 'I' for Inactive)
REMARK    1  A    between atoms: C2_2  and  N1_4 
REMARK    2  A    between atoms: N1_4  and  C4_5 
REMARK    3  A    between atoms: N1_4  and  S1_14 
REMARK    4  A    between atoms: C4_5  and  O1_6 
REMARK    5  A    between atoms: C4_5  and  C5_8 
REMARK    6  A    between atoms: S1_14  and  C11_17 
REMARK    7  A    between atoms: C14_20  and  N2_21 
REMARK       I    between atoms: N2_21  and  C15_23 
ROOT
HETATM    1  S1  UNL     1     -26.958  46.506  11.615  1.00  0.00     0.267 S 
HETATM    2  O2  UNL     1     -28.349  46.806  11.989  1.00  0.00    -0.200 OA
HETATM    3  O3  UNL     1     -26.055  46.607  12.806  1.00  0.00    -0.200 OA
ENDROOT
BRANCH   1   4
HETATM    4  N1  UNL     1     -26.777  44.842  10.973  1.00  0.00    -0.246 N 
BRANCH   4   5
HETATM    5  C2  UNL     1     -27.894  44.461  10.153  1.00  0.00     0.096 C 
HETATM    6  C1  UNL     1     -28.446  45.572   9.290  1.00  0.00     0.033 C 
HETATM    7  C3  UNL     1     -28.939  43.626  10.852  1.00  0.00     0.033 C 
ENDBRANCH   4   5
BRANCH   4   8
HETATM    8  C4  UNL     1     -25.622  44.205  11.355  1.00  0.00     0.162 C 
BRANCH   8   9
HETATM    9  O1  UNL     1     -25.757  43.595  12.537  1.00  0.00    -0.345 OA
ATOM     10  H1  UNL     1     -25.054  42.977  12.699  1.00  0.00     0.219 HD
ENDBRANCH   8   9
BRANCH   8  11
HETATM   11  C5  UNL     1     -24.296  44.023  10.812  1.00  0.00     0.015 A 
HETATM   12  C6  UNL     1     -23.418  43.098  11.427  1.00  0.00     0.016 A 
HETATM   13  C7  UNL     1     -22.148  42.844  11.003  1.00  0.00     0.001 A 
HETATM   14  C8  UNL     1     -21.653  43.507   9.915  1.00  0.00     0.000 A 
HETATM   15  C9  UNL     1     -22.454  44.416   9.275  1.00  0.00     0.001 A 
HETATM   16  C10 UNL     1     -23.760  44.657   9.735  1.00  0.00     0.016 A 
ENDBRANCH   8  11
ENDBRANCH   4   8
ENDBRANCH   1   4
BRANCH   1  17
HETATM   17  C11 UNL     1     -26.371  47.663  10.431  1.00  0.00     0.080 A 
HETATM   18  C12 UNL     1     -26.776  48.972  10.395  1.00  0.00     0.027 A 
HETATM   19  C13 UNL     1     -26.289  49.837   9.451  1.00  0.00     0.031 A 
HETATM   20  C14 UNL     1     -25.374  49.454   8.489  1.00  0.00     0.034 A 
HETATM   21  C16 UNL     1     -24.962  48.140   8.520  1.00  0.00     0.031 A 
HETATM   22  C17 UNL     1     -25.448  47.261   9.468  1.00  0.00     0.027 A 
BRANCH  20  23
HETATM   23  N2  UNL     1     -24.905  50.389   7.539  1.00  0.00    -0.331 N 
HETATM   24  C15 UNL     1     -25.138  50.168   6.170  1.00  0.00     0.186 C 
HETATM   25  N3  UNL     1     -26.236  50.581   5.618  1.00  0.00    -0.373 N 
HETATM   26  N4  UNL     1     -24.207  49.498   5.328  1.00  0.00    -0.064 NA
ATOM     27  H32 UNL     1     -26.904  51.062   6.222  1.00  0.00     0.158 HD
ATOM     28  H31 UNL     1     -26.405  50.421   4.625  1.00  0.00     0.158 HD
ATOM     29  H2  UNL     1     -24.401  51.220   7.845  1.00  0.00     0.168 HD
ENDBRANCH  20  23
ENDBRANCH   1  17
TORSDOF 7
ENDMDL
