MODEL 1
REMARK VINA RESULT: -7.531339079      0.000      0.000
REMARK  4 active torsions:
REMARK  status: ('A' for Active; 'I' for Inactive)
REMARK    1  A    between atoms: C2_2  and  C3_3 
REMARK    2  A    between atoms: C3_3  and  N1_4 
REMARK    3  A    between atoms: N1_4  and  C4_6 
REMARK    4  A    between atoms: C11_17  and  N4_18 
REMARK       I    between atoms: N4_18  and  C12_20 
ROOT
HETATM    1  C4  UNL     1      -7.032  -8.954  13.572  1.00  0.00     0.146 A 
HETATM    2  N2  UNL     1      -7.587  -7.833  13.074  1.00  0.00    -0.338 N 
ATOM      3  H2  UNL     1      -8.557  -7.622  13.312  1.00  0.00     0.167 HD
HETATM    4  C5  UNL     1      -6.918  -6.976  12.274  1.00  0.00     0.061 A 
HETATM    5  C6  UNL     1      -7.496  -5.828  11.768  1.00  0.00     0.042 A 
HETATM    6  C7  UNL     1      -6.835  -4.941  10.952  1.00  0.00    -0.013 A 
HETATM    7  C8  UNL     1      -5.525  -5.214  10.623  1.00  0.00    -0.013 A 
HETATM    8  C9  UNL     1      -4.932  -6.354  11.120  1.00  0.00     0.042 A 
HETATM    9  C10 UNL     1      -5.605  -7.245  11.943  1.00  0.00     0.061 A 
HETATM   10  N3  UNL     1      -5.016  -8.358  12.422  1.00  0.00    -0.337 N 
ATOM     11  H3  UNL     1      -4.046  -8.567  12.182  1.00  0.00     0.167 HD
HETATM   12  C11 UNL     1      -5.711  -9.194  13.219  1.00  0.00     0.153 A 
HETATM   13  C14 UNL     1      -5.096  -4.099   9.752  1.00  0.00     0.083 C 
HETATM   14  C15 UNL     1      -4.147  -3.150  10.409  1.00  0.00     0.051 C 
HETATM   15  C16 UNL     1      -4.422  -4.705   8.538  1.00  0.00     0.051 C 
HETATM   16  O2  UNL     1      -6.226  -3.422   9.363  1.00  0.00    -0.361 OA
HETATM   17  C17 UNL     1      -7.221  -3.655  10.284  1.00  0.00     0.083 C 
HETATM   18  C18 UNL     1      -7.304  -2.619  11.372  1.00  0.00     0.051 C 
HETATM   19  C19 UNL     1      -8.550  -3.767   9.581  1.00  0.00     0.051 C 
ENDROOT
BRANCH   1  20
HETATM   20  N1  UNL     1      -7.674  -9.773  14.338  1.00  0.00    -0.373 N 
ATOM     21  H1  UNL     1      -7.261 -10.110  15.208  1.00  0.00     0.161 HD
BRANCH  20  22
HETATM   22  C3  UNL     1      -8.991 -10.198  13.929  1.00  0.00     0.121 C 
BRANCH  22  23
HETATM   23  C2  UNL     1      -8.922 -11.562  13.263  1.00  0.00     0.015 C 
HETATM   24  C1  UNL     1      -9.254 -11.511  11.803  1.00  0.00     0.006 C 
ENDBRANCH  22  23
ENDBRANCH  20  22
ENDBRANCH   1  20
BRANCH  12  25
HETATM   25  N4  UNL     1      -5.170 -10.260  13.688  1.00  0.00    -0.310 N 
HETATM   26  C12 UNL     1      -4.137 -10.973  13.044  1.00  0.00     0.219 C 
HETATM   27  C13 UNL     1      -4.495 -12.268  12.398  1.00  0.00     0.117 C 
HETATM   28  O1  UNL     1      -2.982 -10.507  13.036  1.00  0.00    -0.274 OA
ATOM     29  H4  UNL     1      -5.510 -10.613  14.582  1.00  0.00     0.170 HD
ENDBRANCH  12  25
TORSDOF 4
ENDMDL
MODEL 2
REMARK VINA RESULT: -7.478003721      2.882      3.412
REMARK  4 active torsions:
REMARK  status: ('A' for Active; 'I' for Inactive)
REMARK    1  A    between atoms: C2_2  and  C3_3 
REMARK    2  A    between atoms: C3_3  and  N1_4 
REMARK    3  A    between atoms: N1_4  and  C4_6 
REMARK    4  A    between atoms: C11_17  and  N4_18 
REMARK       I    between atoms: N4_18  and  C12_20 
ROOT
HETATM    1  C4  UNL     1      -8.884  -7.569  12.492  1.00  0.00     0.146 A 
HETATM    2  N2  UNL     1      -8.910  -6.828  11.367  1.00  0.00    -0.338 N 
ATOM      3  H2  UNL     1      -9.389  -7.201  10.548  1.00  0.00     0.167 HD
HETATM    4  C5  UNL     1      -8.331  -5.612  11.277  1.00  0.00     0.061 A 
HETATM    5  C6  UNL     1      -8.363  -4.858  10.120  1.00  0.00     0.042 A 
HETATM    6  C7  UNL     1      -7.780  -3.619  10.004  1.00  0.00    -0.013 A 
HETATM    7  C8  UNL     1      -7.130  -3.102  11.105  1.00  0.00    -0.013 A 
HETATM    8  C9  UNL     1      -7.089  -3.839  12.267  1.00  0.00     0.042 A 
HETATM    9  C10 UNL     1      -7.679  -5.090  12.377  1.00  0.00     0.061 A 
HETATM   10  N3  UNL     1      -7.632  -5.803  13.519  1.00  0.00    -0.337 N 
ATOM     11  H3  UNL     1      -7.153  -5.426  14.337  1.00  0.00     0.167 HD
HETATM   12  C11 UNL     1      -8.221  -7.014  13.578  1.00  0.00     0.153 A 
HETATM   13  C14 UNL     1      -6.618  -1.782  10.676  1.00  0.00     0.083 C 
HETATM   14  C15 UNL     1      -7.358  -0.627  11.269  1.00  0.00     0.051 C 
HETATM   15  C16 UNL     1      -5.165  -1.702  11.095  1.00  0.00     0.051 C 
HETATM   16  O2  UNL     1      -6.708  -1.730   9.307  1.00  0.00    -0.361 OA
HETATM   17  C17 UNL     1      -7.672  -2.620   8.891  1.00  0.00     0.083 C 
HETATM   18  C18 UNL     1      -9.038  -2.011   8.731  1.00  0.00     0.051 C 
HETATM   19  C19 UNL     1      -7.245  -3.267   7.598  1.00  0.00     0.051 C 
ENDROOT
BRANCH   1  20
HETATM   20  N1  UNL     1      -9.440  -8.732  12.576  1.00  0.00    -0.373 N 
ATOM     21  H1  UNL     1     -10.221  -8.895  13.212  1.00  0.00     0.161 HD
BRANCH  20  22
HETATM   22  C3  UNL     1      -8.926  -9.795  11.746  1.00  0.00     0.121 C 
BRANCH  22  23
HETATM   23  C2  UNL     1      -8.570 -11.003  12.597  1.00  0.00     0.015 C 
HETATM   24  C1  UNL     1      -9.287 -12.246  12.168  1.00  0.00     0.006 C 
ENDBRANCH  22  23
ENDBRANCH  20  22
ENDBRANCH   1  20
BRANCH  12  25
HETATM   25  N4  UNL     1      -8.190  -7.711  14.655  1.00  0.00    -0.310 N 
HETATM   26  C12 UNL     1      -7.433  -7.372  15.797  1.00  0.00     0.219 C 
HETATM   27  C13 UNL     1      -6.201  -8.167  16.066  1.00  0.00     0.117 C 
HETATM   28  O1  UNL     1      -7.810  -6.436  16.528  1.00  0.00    -0.274 OA
ATOM     29  H4  UNL     1      -8.748  -8.564  14.687  1.00  0.00     0.170 HD
ENDBRANCH  12  25
TORSDOF 4
ENDMDL
MODEL 3
REMARK VINA RESULT: -6.825178588      2.857      3.495
REMARK  4 active torsions:
REMARK  status: ('A' for Active; 'I' for Inactive)
REMARK    1  A    between atoms: C2_2  and  C3_3 
REMARK    2  A    between atoms: C3_3  and  N1_4 
REMARK    3  A    between atoms: N1_4  and  C4_6 
REMARK    4  A    between atoms: C11_17  and  N4_18 
REMARK       I    between atoms: N4_18  and  C12_20 
ROOT
HETATM    1  C4  UNL     1      -8.444  -7.636  13.782  1.00  0.00     0.146 A 
HETATM    2  N2  UNL     1      -8.567  -7.018  12.591  1.00  0.00    -0.338 N 
ATOM      3  H2  UNL     1      -9.036  -7.512  11.831  1.00  0.00     0.167 HD
HETATM    4  C5  UNL     1      -8.098  -5.774  12.359  1.00  0.00     0.061 A 
HETATM    5  C6  UNL     1      -8.229  -5.148  11.134  1.00  0.00     0.042 A 
HETATM    6  C7  UNL     1      -7.759  -3.883  10.874  1.00  0.00    -0.013 A 
HETATM    7  C8  UNL     1      -7.125  -3.204  11.892  1.00  0.00    -0.013 A 
HETATM    8  C9  UNL     1      -6.986  -3.812  13.120  1.00  0.00     0.042 A 
HETATM    9  C10 UNL     1      -7.462  -5.090  13.376  1.00  0.00     0.061 A 
HETATM   10  N3  UNL     1      -7.321  -5.676  14.581  1.00  0.00    -0.337 N 
ATOM     11  H3  UNL     1      -6.852  -5.179  15.338  1.00  0.00     0.167 HD
HETATM   12  C11 UNL     1      -7.800  -6.919  14.781  1.00  0.00     0.153 A 
HETATM   13  C14 UNL     1      -6.742  -1.897  11.316  1.00  0.00     0.083 C 
HETATM   14  C15 UNL     1      -7.561  -0.752  11.818  1.00  0.00     0.051 C 
HETATM   15  C16 UNL     1      -5.289  -1.653  11.670  1.00  0.00     0.051 C 
HETATM   16  O2  UNL     1      -6.875  -1.993   9.953  1.00  0.00    -0.361 OA
HETATM   17  C17 UNL     1      -7.770  -2.997   9.664  1.00  0.00     0.083 C 
HETATM   18  C18 UNL     1      -9.189  -2.523   9.496  1.00  0.00     0.051 C 
HETATM   19  C19 UNL     1      -7.327  -3.735   8.426  1.00  0.00     0.051 C 
ENDROOT
BRANCH   1  20
HETATM   20  N1  UNL     1      -8.894  -8.827  14.002  1.00  0.00    -0.373 N 
ATOM     21  H1  UNL     1      -9.682  -8.981  14.632  1.00  0.00     0.161 HD
BRANCH  20  22
HETATM   22  C3  UNL     1      -8.253  -9.932  13.333  1.00  0.00     0.121 C 
BRANCH  22  23
HETATM   23  C2  UNL     1      -9.094 -11.191  13.469  1.00  0.00     0.015 C 
HETATM   24  C1  UNL     1      -9.152 -11.990  12.203  1.00  0.00     0.006 C 
ENDBRANCH  22  23
ENDBRANCH  20  22
ENDBRANCH   1  20
BRANCH  12  25
HETATM   25  N4  UNL     1      -7.677  -7.498  15.921  1.00  0.00    -0.310 N 
HETATM   26  C12 UNL     1      -6.900  -6.995  16.985  1.00  0.00     0.219 C 
HETATM   27  C13 UNL     1      -5.607  -7.676  17.275  1.00  0.00     0.117 C 
HETATM   28  O1  UNL     1      -7.310  -6.015  17.636  1.00  0.00    -0.274 OA
ATOM     29  H4  UNL     1      -8.173  -8.378  16.065  1.00  0.00     0.170 HD
ENDBRANCH  12  25
TORSDOF 4
ENDMDL
MODEL 4
REMARK VINA RESULT: -6.789603686      2.542      7.454
REMARK  4 active torsions:
REMARK  status: ('A' for Active; 'I' for Inactive)
REMARK    1  A    between atoms: C2_2  and  C3_3 
REMARK    2  A    between atoms: C3_3  and  N1_4 
REMARK    3  A    between atoms: N1_4  and  C4_6 
REMARK    4  A    between atoms: C11_17  and  N4_18 
REMARK       I    between atoms: N4_18  and  C12_20 
ROOT
HETATM    1  C4  UNL     1      -5.945  -3.652  10.923  1.00  0.00     0.146 A 
HETATM    2  N2  UNL     1      -5.405  -4.822  11.314  1.00  0.00    -0.338 N 
ATOM      3  H2  UNL     1      -4.389  -4.914  11.315  1.00  0.00     0.167 HD
HETATM    4  C5  UNL     1      -6.148  -5.879  11.704  1.00  0.00     0.061 A 
HETATM    5  C6  UNL     1      -5.585  -7.076  12.103  1.00  0.00     0.042 A 
HETATM    6  C7  UNL     1      -6.320  -8.166  12.504  1.00  0.00    -0.013 A 
HETATM    7  C8  UNL     1      -7.695  -8.055  12.507  1.00  0.00    -0.013 A 
HETATM    8  C9  UNL     1      -8.274  -6.869  12.113  1.00  0.00     0.042 A 
HETATM    9  C10 UNL     1      -7.525  -5.773  11.710  1.00  0.00     0.061 A 
HETATM   10  N3  UNL     1      -8.101  -4.618  11.325  1.00  0.00    -0.337 N 
ATOM     11  H3  UNL     1      -9.118  -4.529  11.325  1.00  0.00     0.167 HD
HETATM   12  C11 UNL     1      -7.332  -3.580  10.941  1.00  0.00     0.153 A 
HETATM   13  C14 UNL     1      -8.194  -9.365  12.978  1.00  0.00     0.083 C 
HETATM   14  C15 UNL     1      -8.748  -9.336  14.366  1.00  0.00     0.051 C 
HETATM   15  C16 UNL     1      -9.285  -9.804  12.024  1.00  0.00     0.051 C 
HETATM   16  O2  UNL     1      -7.147 -10.250  12.921  1.00  0.00    -0.361 OA
HETATM   17  C17 UNL     1      -5.966  -9.545  12.973  1.00  0.00     0.083 C 
HETATM   18  C18 UNL     1      -5.405  -9.392  14.360  1.00  0.00     0.051 C 
HETATM   19  C19 UNL     1      -4.944 -10.196  12.075  1.00  0.00     0.051 C 
ENDROOT
BRANCH   1  20
HETATM   20  N1  UNL     1      -5.232  -2.641  10.551  1.00  0.00    -0.373 N 
ATOM     21  H1  UNL     1      -5.406  -1.710  10.927  1.00  0.00     0.161 HD
BRANCH  20  22
HETATM   22  C3  UNL     1      -4.182  -2.867   9.587  1.00  0.00     0.121 C 
BRANCH  22  23
HETATM   23  C2  UNL     1      -4.674  -3.774   8.472  1.00  0.00     0.015 C 
HETATM   24  C1  UNL     1      -3.639  -4.762   8.028  1.00  0.00     0.006 C 
ENDBRANCH  22  23
ENDBRANCH  20  22
ENDBRANCH   1  20
BRANCH  12  25
HETATM   25  N4  UNL     1      -7.859  -2.470  10.571  1.00  0.00    -0.310 N 
HETATM   26  C12 UNL     1      -8.624  -2.308   9.397  1.00  0.00     0.219 C 
HETATM   27  C13 UNL     1      -7.988  -1.592   8.254  1.00  0.00     0.117 C 
HETATM   28  O1  UNL     1      -9.783  -2.762   9.352  1.00  0.00    -0.274 OA
ATOM     29  H4  UNL     1      -7.714  -1.652  11.164  1.00  0.00     0.170 HD
ENDBRANCH  12  25
TORSDOF 4
ENDMDL
MODEL 5
REMARK VINA RESULT: -6.764136254      1.080      1.655
REMARK  4 active torsions:
REMARK  status: ('A' for Active; 'I' for Inactive)
REMARK    1  A    between atoms: C2_2  and  C3_3 
REMARK    2  A    between atoms: C3_3  and  N1_4 
REMARK    3  A    between atoms: N1_4  and  C4_6 
REMARK    4  A    between atoms: C11_17  and  N4_18 
REMARK       I    between atoms: N4_18  and  C12_20 
ROOT
HETATM    1  C4  UNL     1      -6.891  -8.919  13.326  1.00  0.00     0.146 A 
HETATM    2  N2  UNL     1      -7.456  -7.805  12.823  1.00  0.00    -0.338 N 
ATOM      3  H2  UNL     1      -8.434  -7.612  13.043  1.00  0.00     0.167 HD
HETATM    4  C5  UNL     1      -6.787  -6.932  12.041  1.00  0.00     0.061 A 
HETATM    5  C6  UNL     1      -7.375  -5.791  11.530  1.00  0.00     0.042 A 
HETATM    6  C7  UNL     1      -6.714  -4.888  10.732  1.00  0.00    -0.013 A 
HETATM    7  C8  UNL     1      -5.392  -5.136  10.428  1.00  0.00    -0.013 A 
HETATM    8  C9  UNL     1      -4.789  -6.268  10.930  1.00  0.00     0.042 A 
HETATM    9  C10 UNL     1      -5.463  -7.176  11.735  1.00  0.00     0.061 A 
HETATM   10  N3  UNL     1      -4.864  -8.280  12.220  1.00  0.00    -0.337 N 
ATOM     11  H3  UNL     1      -3.886  -8.471  11.998  1.00  0.00     0.167 HD
HETATM   12  C11 UNL     1      -5.559  -9.133  12.998  1.00  0.00     0.153 A 
HETATM   13  C14 UNL     1      -4.966  -4.008   9.572  1.00  0.00     0.083 C 
HETATM   14  C15 UNL     1      -4.047  -3.046  10.253  1.00  0.00     0.051 C 
HETATM   15  C16 UNL     1      -4.258  -4.595   8.368  1.00  0.00     0.051 C 
HETATM   16  O2  UNL     1      -6.100  -3.349   9.165  1.00  0.00    -0.361 OA
HETATM   17  C17 UNL     1      -7.109  -3.605  10.064  1.00  0.00     0.083 C 
HETATM   18  C18 UNL     1      -7.232  -2.577  11.155  1.00  0.00     0.051 C 
HETATM   19  C19 UNL     1      -8.422  -3.736   9.333  1.00  0.00     0.051 C 
ENDROOT
BRANCH   1  20
HETATM   20  N1  UNL     1      -7.534  -9.753  14.074  1.00  0.00    -0.373 N 
ATOM     21  H1  UNL     1      -7.534 -10.752  13.865  1.00  0.00     0.161 HD
BRANCH  20  22
HETATM   22  C3  UNL     1      -8.250  -9.235  15.214  1.00  0.00     0.121 C 
BRANCH  22  23
HETATM   23  C2  UNL     1      -7.277  -8.829  16.309  1.00  0.00     0.015 C 
HETATM   24  C1  UNL     1      -7.362  -7.373  16.650  1.00  0.00     0.006 C 
ENDBRANCH  22  23
ENDBRANCH  20  22
ENDBRANCH   1  20
BRANCH  12  25
HETATM   25  N4  UNL     1      -5.009 -10.192  13.472  1.00  0.00    -0.310 N 
HETATM   26  C12 UNL     1      -4.124 -11.018  12.746  1.00  0.00     0.219 C 
HETATM   27  C13 UNL     1      -4.642 -12.332  12.273  1.00  0.00     0.117 C 
HETATM   28  O1  UNL     1      -2.961 -10.628  12.528  1.00  0.00    -0.274 OA
ATOM     29  H4  UNL     1      -5.227 -10.453  14.434  1.00  0.00     0.170 HD
ENDBRANCH  12  25
TORSDOF 4
ENDMDL
