MODEL 1
REMARK VINA RESULT: -7.398235638      0.000      0.000
REMARK  7 active torsions:
REMARK  status: ('A' for Active; 'I' for Inactive)
REMARK    1  A    between atoms: C2_2  and  C3_3 
REMARK    2  A    between atoms: C3_3  and  C4_4 
REMARK    3  A    between atoms: C4_4  and  C5_5 
REMARK    4  A    between atoms: C5_5  and  C6_6 
REMARK    5  A    between atoms: C6_6  and  C7_7 
REMARK    6  A    between atoms: C7_7  and  C8_8 
REMARK    7  A    between atoms: C17_17  and  O1_18 
ROOT
HETATM    1  C8  UNL     1      58.883   2.153  19.597  1.00  0.00    -0.006 C 
HETATM    2  C9  UNL     1      57.889   2.983  20.312  1.00  0.00     0.006 C 
HETATM    3  C10 UNL     1      57.067   3.739  19.290  1.00  0.00     0.006 C 
HETATM    4  C11 UNL     1      57.610   3.353  17.955  1.00  0.00    -0.002 C 
HETATM    5  C12 UNL     1      57.619   4.550  17.049  1.00  0.00    -0.005 C 
HETATM    6  C13 UNL     1      56.248   5.120  16.928  1.00  0.00     0.006 C 
HETATM    7  C14 UNL     1      56.139   6.538  16.560  1.00  0.00     0.012 C 
HETATM    8  C15 UNL     1      57.277   7.436  16.766  1.00  0.00    -0.014 C 
HETATM    9  C16 UNL     1      57.077   8.244  18.050  1.00  0.00     0.018 C 
HETATM   10  C17 UNL     1      57.462   8.458  15.660  1.00  0.00     0.126 C 
HETATM   11  C18 UNL     1      58.842   8.243  15.076  1.00  0.00     0.033 C 
HETATM   12  C19 UNL     1      59.097   6.793  15.438  1.00  0.00     0.008 C 
HETATM   13  C20 UNL     1      58.628   6.801  16.879  1.00  0.00     0.001 C 
HETATM   14  C21 UNL     1      58.657   5.484  17.545  1.00  0.00    -0.005 C 
HETATM   15  C22 UNL     1      59.993   4.806  17.264  1.00  0.00     0.006 C 
HETATM   16  C23 UNL     1      60.142   3.491  17.901  1.00  0.00     0.010 C 
HETATM   17  C24 UNL     1      58.922   2.666  18.150  1.00  0.00    -0.036 C 
HETATM   18  C25 UNL     1      58.951   1.534  17.147  1.00  0.00     0.016 C 
ENDROOT
BRANCH   1  19
HETATM   19  C7  UNL     1      58.923   0.715  19.790  1.00  0.00     0.005 C 
BRANCH  19  20
HETATM   20  C6  UNL     1      59.808   0.008  20.716  1.00  0.00     0.000 C 
BRANCH  20  21
HETATM   21  C5  UNL     1      61.115   0.638  21.093  1.00  0.00     0.000 C 
BRANCH  21  22
HETATM   22  C4  UNL     1      62.295  -0.036  20.404  1.00  0.00     0.004 C 
BRANCH  22  23
HETATM   23  C3  UNL     1      61.999  -0.368  18.972  1.00  0.00     0.026 C 
BRANCH  23  24
HETATM   24  C2  UNL     1      62.413   0.749  18.088  1.00  0.00    -0.037 C 
HETATM   25  C1  UNL     1      63.036   1.790  18.617  1.00  0.00     0.007 C 
ENDBRANCH  23  24
ENDBRANCH  22  23
ENDBRANCH  21  22
ENDBRANCH  20  21
ENDBRANCH  19  20
ENDBRANCH   1  19
BRANCH  10  26
HETATM   26  O1  UNL     1      56.563   8.277  14.612  1.00  0.00    -0.395 OA
ATOM     27  H1  UNL     1      56.033   9.048  14.450  1.00  0.00     0.210 HD
ENDBRANCH  10  26
TORSDOF 7
ENDMDL
MODEL 2
REMARK VINA RESULT: -7.123790861      4.324      6.386
REMARK  7 active torsions:
REMARK  status: ('A' for Active; 'I' for Inactive)
REMARK    1  A    between atoms: C2_2  and  C3_3 
REMARK    2  A    between atoms: C3_3  and  C4_4 
REMARK    3  A    between atoms: C4_4  and  C5_5 
REMARK    4  A    between atoms: C5_5  and  C6_6 
REMARK    5  A    between atoms: C6_6  and  C7_7 
REMARK    6  A    between atoms: C7_7  and  C8_8 
REMARK    7  A    between atoms: C17_17  and  O1_18 
ROOT
HETATM    1  C8  UNL     1      60.530   2.780  12.898  1.00  0.00    -0.006 C 
HETATM    2  C9  UNL     1      59.499   1.845  13.400  1.00  0.00     0.006 C 
HETATM    3  C10 UNL     1      58.500   2.627  14.227  1.00  0.00     0.006 C 
HETATM    4  C11 UNL     1      58.975   4.041  14.221  1.00  0.00    -0.002 C 
HETATM    5  C12 UNL     1      58.749   4.655  15.573  1.00  0.00    -0.005 C 
HETATM    6  C13 UNL     1      57.309   4.573  15.945  1.00  0.00     0.006 C 
HETATM    7  C14 UNL     1      56.982   4.606  17.377  1.00  0.00     0.012 C 
HETATM    8  C15 UNL     1      58.004   4.265  18.369  1.00  0.00    -0.014 C 
HETATM    9  C16 UNL     1      57.808   2.823  18.843  1.00  0.00     0.018 C 
HETATM   10  C17 UNL     1      57.958   5.122  19.619  1.00  0.00     0.126 C 
HETATM   11  C18 UNL     1      59.301   5.811  19.742  1.00  0.00     0.033 C 
HETATM   12  C19 UNL     1      59.775   5.798  18.302  1.00  0.00     0.008 C 
HETATM   13  C20 UNL     1      59.432   4.368  17.932  1.00  0.00     0.001 C 
HETATM   14  C21 UNL     1      59.691   4.017  16.521  1.00  0.00    -0.005 C 
HETATM   15  C22 UNL     1      61.077   4.513  16.125  1.00  0.00     0.006 C 
HETATM   16  C23 UNL     1      61.452   4.197  14.740  1.00  0.00     0.010 C 
HETATM   17  C24 UNL     1      60.378   4.075  13.710  1.00  0.00    -0.036 C 
HETATM   18  C25 UNL     1      60.473   5.307  12.836  1.00  0.00     0.016 C 
ENDROOT
BRANCH   1  19
HETATM   19  C7  UNL     1      60.777   2.917  11.475  1.00  0.00     0.005 C 
BRANCH  19  20
HETATM   20  C6  UNL     1      59.854   2.519  10.412  1.00  0.00     0.000 C 
BRANCH  20  21
HETATM   21  C5  UNL     1      60.156   1.286   9.614  1.00  0.00     0.000 C 
BRANCH  21  22
HETATM   22  C4  UNL     1      58.903   0.470   9.324  1.00  0.00     0.004 C 
BRANCH  22  23
HETATM   23  C3  UNL     1      59.017  -0.940   9.820  1.00  0.00     0.026 C 
BRANCH  23  24
HETATM   24  C2  UNL     1      60.058  -1.032  10.874  1.00  0.00    -0.037 C 
HETATM   25  C1  UNL     1      59.967  -1.987  11.785  1.00  0.00     0.007 C 
ENDBRANCH  23  24
ENDBRANCH  22  23
ENDBRANCH  21  22
ENDBRANCH  20  21
ENDBRANCH  19  20
ENDBRANCH   1  19
BRANCH  10  26
HETATM   26  O1  UNL     1      57.006   6.134  19.536  1.00  0.00    -0.395 OA
ATOM     27  H1  UNL     1      56.984   6.678  20.316  1.00  0.00     0.210 HD
ENDBRANCH  10  26
TORSDOF 7
ENDMDL
MODEL 3
REMARK VINA RESULT: -7.113741199      2.509      6.879
REMARK  7 active torsions:
REMARK  status: ('A' for Active; 'I' for Inactive)
REMARK    1  A    between atoms: C2_2  and  C3_3 
REMARK    2  A    between atoms: C3_3  and  C4_4 
REMARK    3  A    between atoms: C4_4  and  C5_5 
REMARK    4  A    between atoms: C5_5  and  C6_6 
REMARK    5  A    between atoms: C6_6  and  C7_7 
REMARK    6  A    between atoms: C7_7  and  C8_8 
REMARK    7  A    between atoms: C17_17  and  O1_18 
ROOT
HETATM    1  C8  UNL     1      58.049   6.438  18.667  1.00  0.00    -0.006 C 
HETATM    2  C9  UNL     1      59.510   6.592  18.490  1.00  0.00     0.006 C 
HETATM    3  C10 UNL     1      60.049   5.345  17.822  1.00  0.00     0.006 C 
HETATM    4  C11 UNL     1      58.878   4.441  17.627  1.00  0.00    -0.002 C 
HETATM    5  C12 UNL     1      59.290   3.019  17.884  1.00  0.00    -0.005 C 
HETATM    6  C13 UNL     1      60.420   2.637  16.990  1.00  0.00     0.006 C 
HETATM    7  C14 UNL     1      61.290   1.542  17.438  1.00  0.00     0.012 C 
HETATM    8  C15 UNL     1      61.337   1.178  18.856  1.00  0.00    -0.014 C 
HETATM    9  C16 UNL     1      62.576   1.795  19.510  1.00  0.00     0.018 C 
HETATM   10  C17 UNL     1      61.439  -0.315  19.104  1.00  0.00     0.126 C 
HETATM   11  C18 UNL     1      60.234  -0.715  19.930  1.00  0.00     0.033 C 
HETATM   12  C19 UNL     1      59.254   0.389  19.584  1.00  0.00     0.008 C 
HETATM   13  C20 UNL     1      60.171   1.591  19.700  1.00  0.00     0.001 C 
HETATM   14  C21 UNL     1      59.550   2.879  19.336  1.00  0.00    -0.005 C 
HETATM   15  C22 UNL     1      58.187   2.990  20.012  1.00  0.00     0.006 C 
HETATM   16  C23 UNL     1      57.484   4.250  19.736  1.00  0.00     0.010 C 
HETATM   17  C24 UNL     1      57.736   4.951  18.442  1.00  0.00    -0.036 C 
HETATM   18  C25 UNL     1      56.499   4.754  17.594  1.00  0.00     0.016 C 
ENDROOT
BRANCH   1  19
HETATM   19  C7  UNL     1      57.128   7.402  18.094  1.00  0.00     0.005 C 
BRANCH  19  20
HETATM   20  C6  UNL     1      57.415   8.278  16.958  1.00  0.00     0.000 C 
BRANCH  20  21
HETATM   21  C5  UNL     1      57.343   7.712  15.571  1.00  0.00     0.000 C 
BRANCH  21  22
HETATM   22  C4  UNL     1      58.697   7.206  15.089  1.00  0.00     0.004 C 
BRANCH  22  23
HETATM   23  C3  UNL     1      58.666   5.747  14.746  1.00  0.00     0.026 C 
BRANCH  23  24
HETATM   24  C2  UNL     1      60.016   5.285  14.339  1.00  0.00    -0.037 C 
HETATM   25  C1  UNL     1      60.132   4.152  13.666  1.00  0.00     0.007 C 
ENDBRANCH  23  24
ENDBRANCH  22  23
ENDBRANCH  21  22
ENDBRANCH  20  21
ENDBRANCH  19  20
ENDBRANCH   1  19
BRANCH  10  26
HETATM   26  O1  UNL     1      61.369  -1.056  17.929  1.00  0.00    -0.395 OA
ATOM     27  H1  UNL     1      60.477  -1.174  17.624  1.00  0.00     0.210 HD
ENDBRANCH  10  26
TORSDOF 7
ENDMDL
MODEL 4
REMARK VINA RESULT: -7.033134379      5.204      6.703
REMARK  7 active torsions:
REMARK  status: ('A' for Active; 'I' for Inactive)
REMARK    1  A    between atoms: C2_2  and  C3_3 
REMARK    2  A    between atoms: C3_3  and  C4_4 
REMARK    3  A    between atoms: C4_4  and  C5_5 
REMARK    4  A    between atoms: C5_5  and  C6_6 
REMARK    5  A    between atoms: C6_6  and  C7_7 
REMARK    6  A    between atoms: C7_7  and  C8_8 
REMARK    7  A    between atoms: C17_17  and  O1_18 
ROOT
HETATM    1  C8  UNL     1      59.032   4.617  15.139  1.00  0.00    -0.006 C 
HETATM    2  C9  UNL     1      57.944   3.702  14.728  1.00  0.00     0.006 C 
HETATM    3  C10 UNL     1      58.539   2.589  13.893  1.00  0.00     0.006 C 
HETATM    4  C11 UNL     1      60.001   2.877  13.801  1.00  0.00    -0.002 C 
HETATM    5  C12 UNL     1      60.497   2.536  12.425  1.00  0.00    -0.005 C 
HETATM    6  C13 UNL     1      60.208   1.109  12.108  1.00  0.00     0.006 C 
HETATM    7  C14 UNL     1      60.112   0.742  10.688  1.00  0.00     0.012 C 
HETATM    8  C15 UNL     1      59.844   1.773   9.683  1.00  0.00    -0.014 C 
HETATM    9  C16 UNL     1      58.363   1.752   9.299  1.00  0.00     0.018 C 
HETATM   10  C17 UNL     1      60.609   1.582   8.388  1.00  0.00     0.126 C 
HETATM   11  C18 UNL     1      61.456   2.821   8.180  1.00  0.00     0.033 C 
HETATM   12  C19 UNL     1      61.592   3.331   9.601  1.00  0.00     0.008 C 
HETATM   13  C20 UNL     1      60.156   3.187  10.064  1.00  0.00     0.001 C 
HETATM   14  C21 UNL     1      59.927   3.527  11.482  1.00  0.00    -0.005 C 
HETATM   15  C22 UNL     1      60.620   4.847  11.801  1.00  0.00     0.006 C 
HETATM   16  C23 UNL     1      60.440   5.297  13.188  1.00  0.00     0.010 C 
HETATM   17  C24 UNL     1      60.245   4.276  14.260  1.00  0.00    -0.036 C 
HETATM   18  C25 UNL     1      61.530   4.234  15.058  1.00  0.00     0.016 C 
ENDROOT
BRANCH   1  19
HETATM   19  C7  UNL     1      59.287   4.882  16.543  1.00  0.00     0.005 C 
BRANCH  19  20
HETATM   20  C6  UNL     1      58.544   4.304  17.663  1.00  0.00     0.000 C 
BRANCH  20  21
HETATM   21  C5  UNL     1      59.187   3.220  18.475  1.00  0.00     0.000 C 
BRANCH  21  22
HETATM   22  C4  UNL     1      59.158   1.876  17.758  1.00  0.00     0.004 C 
BRANCH  22  23
HETATM   23  C3  UNL     1      60.524   1.436  17.325  1.00  0.00     0.026 C 
BRANCH  23  24
HETATM   24  C2  UNL     1      61.567   2.185  18.069  1.00  0.00    -0.037 C 
HETATM   25  C1  UNL     1      62.535   1.513  18.670  1.00  0.00     0.007 C 
ENDBRANCH  23  24
ENDBRANCH  22  23
ENDBRANCH  21  22
ENDBRANCH  20  21
ENDBRANCH  19  20
ENDBRANCH   1  19
BRANCH  10  26
HETATM   26  O1  UNL     1      61.495   0.510   8.446  1.00  0.00    -0.395 OA
ATOM     27  H1  UNL     1      61.724   0.179   7.584  1.00  0.00     0.210 HD
ENDBRANCH  10  26
TORSDOF 7
ENDMDL
MODEL 5
REMARK VINA RESULT: -6.971183642      5.629      7.747
REMARK  7 active torsions:
REMARK  status: ('A' for Active; 'I' for Inactive)
REMARK    1  A    between atoms: C2_2  and  C3_3 
REMARK    2  A    between atoms: C3_3  and  C4_4 
REMARK    3  A    between atoms: C4_4  and  C5_5 
REMARK    4  A    between atoms: C5_5  and  C6_6 
REMARK    5  A    between atoms: C6_6  and  C7_7 
REMARK    6  A    between atoms: C7_7  and  C8_8 
REMARK    7  A    between atoms: C17_17  and  O1_18 
ROOT
HETATM    1  C8  UNL     1      61.275   2.499  10.064  1.00  0.00    -0.006 C 
HETATM    2  C9  UNL     1      61.769   1.489  11.026  1.00  0.00     0.006 C 
HETATM    3  C10 UNL     1      60.817   1.436  12.202  1.00  0.00     0.006 C 
HETATM    4  C11 UNL     1      59.761   2.453  11.924  1.00  0.00    -0.002 C 
HETATM    5  C12 UNL     1      59.383   3.150  13.200  1.00  0.00    -0.005 C 
HETATM    6  C13 UNL     1      58.924   2.160  14.214  1.00  0.00     0.006 C 
HETATM    7  C14 UNL     1      59.034   2.546  15.628  1.00  0.00     0.012 C 
HETATM    8  C15 UNL     1      59.958   3.611  16.025  1.00  0.00    -0.014 C 
HETATM    9  C16 UNL     1      61.245   3.001  16.583  1.00  0.00     0.018 C 
HETATM   10  C17 UNL     1      59.420   4.514  17.118  1.00  0.00     0.126 C 
HETATM   11  C18 UNL     1      59.396   5.924  16.565  1.00  0.00     0.033 C 
HETATM   12  C19 UNL     1      59.328   5.658  15.074  1.00  0.00     0.008 C 
HETATM   13  C20 UNL     1      60.380   4.573  14.958  1.00  0.00     0.001 C 
HETATM   14  C21 UNL     1      60.528   3.997  13.607  1.00  0.00    -0.005 C 
HETATM   15  C22 UNL     1      60.592   5.125  12.583  1.00  0.00     0.006 C 
HETATM   16  C23 UNL     1      60.762   4.667  11.198  1.00  0.00     0.010 C 
HETATM   17  C24 UNL     1      60.220   3.331  10.807  1.00  0.00    -0.036 C 
HETATM   18  C25 UNL     1      58.999   3.592   9.953  1.00  0.00     0.016 C 
ENDROOT
BRANCH   1  19
HETATM   19  C7  UNL     1      60.982   2.133   8.691  1.00  0.00     0.005 C 
BRANCH  19  20
HETATM   20  C6  UNL     1      60.997   0.772   8.153  1.00  0.00     0.000 C 
BRANCH  20  21
HETATM   21  C5  UNL     1      59.691   0.068   7.929  1.00  0.00     0.000 C 
BRANCH  21  22
HETATM   22  C4  UNL     1      58.837   0.032   9.190  1.00  0.00     0.004 C 
BRANCH  22  23
HETATM   23  C3  UNL     1      58.747  -1.346   9.773  1.00  0.00     0.026 C 
BRANCH  23  24
HETATM   24  C2  UNL     1      59.986  -1.670  10.522  1.00  0.00    -0.037 C 
HETATM   25  C1  UNL     1      59.891  -2.047  11.787  1.00  0.00     0.007 C 
ENDBRANCH  23  24
ENDBRANCH  22  23
ENDBRANCH  21  22
ENDBRANCH  20  21
ENDBRANCH  19  20
ENDBRANCH   1  19
BRANCH  10  26
HETATM   26  O1  UNL     1      58.107   4.209  17.464  1.00  0.00    -0.395 OA
ATOM     27  H1  UNL     1      58.043   3.782  18.311  1.00  0.00     0.210 HD
ENDBRANCH  10  26
TORSDOF 7
ENDMDL
