MODEL 1
REMARK VINA RESULT: -6.035890518      0.000      0.000
REMARK  2 active torsions:
REMARK  status: ('A' for Active; 'I' for Inactive)
REMARK    1  A    between atoms: C3_3  and  N1_4 
REMARK    2  A    between atoms: N1_4  and  C4_6 
ROOT
HETATM    1  C4  UNL     1      30.495  18.297  17.102  1.00  0.00     0.080 C 
HETATM    2  C5  UNL     1      29.316  17.433  16.698  1.00  0.00     0.052 C 
HETATM    3  C6  UNL     1      29.130  16.393  17.783  1.00  0.00     0.234 C 
HETATM    4  N2  UNL     1      29.849  16.750  18.984  1.00  0.00    -0.075 N 
ATOM      5  H21 UNL     1      30.846  16.556  18.890  1.00  0.00     0.277 HD
ATOM      6  H22 UNL     1      29.633  16.111  19.749  1.00  0.00     0.277 HD
HETATM    7  C7  UNL     1      29.613  18.132  19.367  1.00  0.00     0.234 C 
HETATM    8  C8  UNL     1      30.039  19.106  18.288  1.00  0.00     0.052 C 
ENDROOT
BRANCH   1   9
HETATM    9  N1  UNL     1      30.959  19.034  16.008  1.00  0.00    -0.413 N 
ATOM     10  H1  UNL     1      30.787  18.699  15.060  1.00  0.00     0.154 HD
BRANCH   9  11
HETATM   11  C3  UNL     1      31.664  20.238  16.211  1.00  0.00     0.077 C 
HETATM   12  C2  UNL     1      33.177  19.977  16.054  1.00  0.00     0.025 C 
HETATM   13  C1  UNL     1      33.265  21.399  15.540  1.00  0.00     0.004 C 
HETATM   14  C9  UNL     1      31.799  21.226  15.105  1.00  0.00     0.025 C 
ENDBRANCH   9  11
ENDBRANCH   1   9
TORSDOF 2
ENDMDL
MODEL 2
REMARK VINA RESULT: -5.846756648      1.415      2.073
REMARK  2 active torsions:
REMARK  status: ('A' for Active; 'I' for Inactive)
REMARK    1  A    between atoms: C3_3  and  N1_4 
REMARK    2  A    between atoms: N1_4  and  C4_6 
ROOT
HETATM    1  C4  UNL     1      29.834  17.893  17.017  1.00  0.00     0.080 C 
HETATM    2  C5  UNL     1      30.055  17.287  18.389  1.00  0.00     0.052 C 
HETATM    3  C6  UNL     1      28.800  17.543  19.198  1.00  0.00     0.234 C 
HETATM    4  N2  UNL     1      27.697  17.933  18.352  1.00  0.00    -0.075 N 
ATOM      5  H21 UNL     1      27.778  18.908  18.063  1.00  0.00     0.277 HD
ATOM      6  H22 UNL     1      26.827  17.995  18.881  1.00  0.00     0.277 HD
HETATM    7  C7  UNL     1      27.556  17.052  17.204  1.00  0.00     0.234 C 
HETATM    8  C8  UNL     1      28.797  17.037  16.338  1.00  0.00     0.052 C 
ENDROOT
BRANCH   1   9
HETATM    9  N1  UNL     1      31.051  18.025  16.339  1.00  0.00    -0.413 N 
ATOM     10  H1  UNL     1      31.426  17.238  15.810  1.00  0.00     0.154 HD
BRANCH   9  11
HETATM   11  C3  UNL     1      31.760  19.243  16.386  1.00  0.00     0.077 C 
HETATM   12  C2  UNL     1      31.511  20.031  15.083  1.00  0.00     0.025 C 
HETATM   13  C1  UNL     1      31.667  21.278  15.927  1.00  0.00     0.004 C 
HETATM   14  C9  UNL     1      31.196  20.415  17.112  1.00  0.00     0.025 C 
ENDBRANCH   9  11
ENDBRANCH   1   9
TORSDOF 2
ENDMDL
MODEL 3
REMARK VINA RESULT: -5.703540253      1.493      4.862
REMARK  2 active torsions:
REMARK  status: ('A' for Active; 'I' for Inactive)
REMARK    1  A    between atoms: C3_3  and  N1_4 
REMARK    2  A    between atoms: N1_4  and  C4_6 
ROOT
HETATM    1  C4  UNL     1      31.171  18.899  16.598  1.00  0.00     0.080 C 
HETATM    2  C5  UNL     1      30.473  19.918  17.478  1.00  0.00     0.052 C 
HETATM    3  C6  UNL     1      31.348  21.154  17.511  1.00  0.00     0.234 C 
HETATM    4  N2  UNL     1      32.336  21.129  16.458  1.00  0.00    -0.075 N 
ATOM      5  H21 UNL     1      33.110  20.506  16.690  1.00  0.00     0.277 HD
ATOM      6  H22 UNL     1      32.849  22.010  16.409  1.00  0.00     0.277 HD
HETATM    7  C7  UNL     1      31.750  20.786  15.172  1.00  0.00     0.234 C 
HETATM    8  C8  UNL     1      31.086  19.426  15.190  1.00  0.00     0.052 C 
ENDROOT
BRANCH   1   9
HETATM    9  N1  UNL     1      30.631  17.624  16.803  1.00  0.00    -0.413 N 
ATOM     10  H1  UNL     1      31.184  16.797  16.581  1.00  0.00     0.154 HD
BRANCH   9  11
HETATM   11  C3  UNL     1      29.325  17.482  17.315  1.00  0.00     0.077 C 
HETATM   12  C2  UNL     1      28.380  17.025  16.185  1.00  0.00     0.025 C 
HETATM   13  C1  UNL     1      27.604  16.300  17.265  1.00  0.00     0.004 C 
HETATM   14  C9  UNL     1      28.933  16.240  18.040  1.00  0.00     0.025 C 
ENDBRANCH   9  11
ENDBRANCH   1   9
TORSDOF 2
ENDMDL
MODEL 4
REMARK VINA RESULT: -5.701560778      1.332      2.063
REMARK  2 active torsions:
REMARK  status: ('A' for Active; 'I' for Inactive)
REMARK    1  A    between atoms: C3_3  and  N1_4 
REMARK    2  A    between atoms: N1_4  and  C4_6 
ROOT
HETATM    1  C4  UNL     1      29.582  18.652  17.569  1.00  0.00     0.080 C 
HETATM    2  C5  UNL     1      29.463  17.895  18.878  1.00  0.00     0.052 C 
HETATM    3  C6  UNL     1      28.043  17.373  18.965  1.00  0.00     0.234 C 
HETATM    4  N2  UNL     1      27.382  17.428  17.682  1.00  0.00    -0.075 N 
ATOM      5  H21 UNL     1      27.079  18.377  17.462  1.00  0.00     0.277 HD
ATOM      6  H22 UNL     1      26.469  16.973  17.715  1.00  0.00     0.277 HD
HETATM    7  C7  UNL     1      28.209  16.877  16.621  1.00  0.00     0.234 C 
HETATM    8  C8  UNL     1      29.522  17.617  16.476  1.00  0.00     0.052 C 
ENDROOT
BRANCH   1   9
HETATM    9  N1  UNL     1      30.722  19.463  17.576  1.00  0.00    -0.413 N 
ATOM     10  H1  UNL     1      31.167  19.706  18.460  1.00  0.00     0.154 HD
BRANCH   9  11
HETATM   11  C3  UNL     1      31.257  19.944  16.363  1.00  0.00     0.077 C 
HETATM   12  C2  UNL     1      31.634  21.431  16.525  1.00  0.00     0.025 C 
HETATM   13  C1  UNL     1      32.737  21.156  15.526  1.00  0.00     0.004 C 
HETATM   14  C9  UNL     1      32.686  19.699  16.022  1.00  0.00     0.025 C 
ENDBRANCH   9  11
ENDBRANCH   1   9
TORSDOF 2
ENDMDL
MODEL 5
REMARK VINA RESULT: -5.649148931      1.409      2.253
REMARK  2 active torsions:
REMARK  status: ('A' for Active; 'I' for Inactive)
REMARK    1  A    between atoms: C3_3  and  N1_4 
REMARK    2  A    between atoms: N1_4  and  C4_6 
ROOT
HETATM    1  C4  UNL     1      29.670  17.538  17.517  1.00  0.00     0.080 C 
HETATM    2  C5  UNL     1      29.901  17.130  18.960  1.00  0.00     0.052 C 
HETATM    3  C6  UNL     1      28.551  17.135  19.647  1.00  0.00     0.234 C 
HETATM    4  N2  UNL     1      27.471  17.159  18.689  1.00  0.00    -0.075 N 
ATOM      5  H21 UNL     1      27.340  18.094  18.302  1.00  0.00     0.277 HD
ATOM      6  H22 UNL     1      26.566  17.048  19.147  1.00  0.00     0.277 HD
HETATM    7  C7  UNL     1      27.656  16.173  17.637  1.00  0.00     0.234 C 
HETATM    8  C8  UNL     1      28.940  16.393  16.866  1.00  0.00     0.052 C 
ENDROOT
BRANCH   1   9
HETATM    9  N1  UNL     1      30.877  17.910  16.915  1.00  0.00    -0.413 N 
ATOM     10  H1  UNL     1      31.672  17.272  16.935  1.00  0.00     0.154 HD
BRANCH   9  11
HETATM   11  C3  UNL     1      30.996  19.163  16.281  1.00  0.00     0.077 C 
HETATM   12  C2  UNL     1      30.840  20.284  17.330  1.00  0.00     0.025 C 
HETATM   13  C1  UNL     1      31.787  21.088  16.464  1.00  0.00     0.004 C 
HETATM   14  C9  UNL     1      32.341  19.732  15.987  1.00  0.00     0.025 C 
ENDBRANCH   9  11
ENDBRANCH   1   9
TORSDOF 2
ENDMDL
