MODEL 1
REMARK VINA RESULT: -6.142890847      0.000      0.000
REMARK  3 active torsions:
REMARK  status: ('A' for Active; 'I' for Inactive)
REMARK    1  A    between atoms: N1_1  and  C1_5 
REMARK    2  A    between atoms: C1_5  and  C2_6 
REMARK    3  A    between atoms: C1_5  and  C5_9 
ROOT
HETATM    1  C5  UNL     1      30.031  18.509  16.853  1.00  0.00     0.216 C 
HETATM    2  C6  UNL     1      30.082  19.260  18.121  1.00  0.00     0.035 C 
HETATM    3  C7  UNL     1      29.744  18.550  19.364  1.00  0.00     0.004 C 
HETATM    4  C8  UNL     1      29.700  17.058  19.289  1.00  0.00     0.027 C 
HETATM    5  C9  UNL     1      29.083  16.684  17.943  1.00  0.00     0.233 C 
HETATM    6  N2  UNL     1      30.083  17.080  16.966  1.00  0.00    -0.069 N 
ATOM      7  H21 UNL     1      31.015  16.733  17.188  1.00  0.00     0.277 HD
ATOM      8  H22 UNL     1      29.974  16.606  16.070  1.00  0.00     0.277 HD
ENDROOT
BRANCH   1   9
HETATM    9  C1  UNL     1      31.152  19.035  15.950  1.00  0.00     0.218 C 
BRANCH   9  10
HETATM   10  N1  UNL     1      32.181  18.011  15.960  1.00  0.00    -0.073 N 
ATOM     11  H13 UNL     1      33.104  18.428  16.080  1.00  0.00     0.274 HD
ATOM     12  H12 UNL     1      32.133  17.458  16.815  1.00  0.00     0.274 HD
ATOM     13  H11 UNL     1      32.160  17.408  15.137  1.00  0.00     0.274 HD
ENDBRANCH   9  10
BRANCH   9  14
HETATM   14  C2  UNL     1      31.645  20.372  16.375  1.00  0.00     0.018 A 
HETATM   15  C3  UNL     1      32.980  20.888  16.037  1.00  0.00     0.007 A 
HETATM   16  C4  UNL     1      31.845  21.353  15.208  1.00  0.00     0.007 A 
ENDBRANCH   9  14
ENDBRANCH   1   9
TORSDOF 3
ENDMDL
MODEL 2
REMARK VINA RESULT: -5.655490891      1.838      4.715
REMARK  3 active torsions:
REMARK  status: ('A' for Active; 'I' for Inactive)
REMARK    1  A    between atoms: N1_1  and  C1_5 
REMARK    2  A    between atoms: C1_5  and  C2_6 
REMARK    3  A    between atoms: C1_5  and  C5_9 
ROOT
HETATM    1  C5  UNL     1      29.672  17.728  17.032  1.00  0.00     0.216 C 
HETATM    2  C6  UNL     1      29.538  18.792  18.045  1.00  0.00     0.035 C 
HETATM    3  C7  UNL     1      30.442  19.949  17.961  1.00  0.00     0.004 C 
HETATM    4  C8  UNL     1      31.193  20.117  16.679  1.00  0.00     0.027 C 
HETATM    5  C9  UNL     1      31.603  18.726  16.200  1.00  0.00     0.233 C 
HETATM    6  N2  UNL     1      30.351  18.092  15.823  1.00  0.00    -0.069 N 
ATOM      7  H21 UNL     1      29.782  18.671  15.207  1.00  0.00     0.277 HD
ATOM      8  H22 UNL     1      30.479  17.306  15.186  1.00  0.00     0.277 HD
ENDROOT
BRANCH   1   9
HETATM    9  C1  UNL     1      28.270  17.181  16.738  1.00  0.00     0.218 C 
BRANCH   9  10
HETATM   10  N1  UNL     1      27.365  17.937  17.585  1.00  0.00    -0.073 N 
ATOM     11  H13 UNL     1      26.402  17.833  17.267  1.00  0.00     0.274 HD
ATOM     12  H12 UNL     1      27.287  17.506  18.506  1.00  0.00     0.274 HD
ATOM     13  H11 UNL     1      27.616  18.923  17.666  1.00  0.00     0.274 HD
ENDBRANCH   9  10
BRANCH   9  14
HETATM   14  C2  UNL     1      28.178  15.711  16.941  1.00  0.00     0.018 A 
HETATM   15  C3  UNL     1      26.905  14.988  17.069  1.00  0.00     0.007 A 
HETATM   16  C4  UNL     1      27.567  14.962  15.745  1.00  0.00     0.007 A 
ENDBRANCH   9  14
ENDBRANCH   1   9
TORSDOF 3
ENDMDL
MODEL 3
REMARK VINA RESULT: -5.649954836      2.363      3.561
REMARK  3 active torsions:
REMARK  status: ('A' for Active; 'I' for Inactive)
REMARK    1  A    between atoms: N1_1  and  C1_5 
REMARK    2  A    between atoms: C1_5  and  C2_6 
REMARK    3  A    between atoms: C1_5  and  C5_9 
ROOT
HETATM    1  C5  UNL     1      28.971  16.471  18.711  1.00  0.00     0.216 C 
HETATM    2  C6  UNL     1      28.754  16.252  17.269  1.00  0.00     0.035 C 
HETATM    3  C7  UNL     1      27.420  15.821  16.824  1.00  0.00     0.004 C 
HETATM    4  C8  UNL     1      26.310  15.958  17.816  1.00  0.00     0.027 C 
HETATM    5  C9  UNL     1      26.871  15.589  19.188  1.00  0.00     0.233 C 
HETATM    6  N2  UNL     1      27.791  16.668  19.502  1.00  0.00    -0.069 N 
ATOM      7  H21 UNL     1      27.379  17.592  19.377  1.00  0.00     0.277 HD
ATOM      8  H22 UNL     1      27.989  16.745  20.499  1.00  0.00     0.277 HD
ENDROOT
BRANCH   1   9
HETATM    9  C1  UNL     1      29.945  17.644  18.867  1.00  0.00     0.218 C 
BRANCH   9  10
HETATM   10  N1  UNL     1      29.866  18.042  20.260  1.00  0.00    -0.073 N 
ATOM     11  H13 UNL     1      29.579  19.017  20.342  1.00  0.00     0.274 HD
ATOM     12  H12 UNL     1      29.074  17.594  20.720  1.00  0.00     0.274 HD
ATOM     13  H11 UNL     1      30.728  17.873  20.779  1.00  0.00     0.274 HD
ENDBRANCH   9  10
BRANCH   9  14
HETATM   14  C2  UNL     1      29.657  18.753  17.919  1.00  0.00     0.018 A 
HETATM   15  C3  UNL     1      30.317  20.065  17.982  1.00  0.00     0.007 A 
HETATM   16  C4  UNL     1      30.836  19.093  16.993  1.00  0.00     0.007 A 
ENDBRANCH   9  14
ENDBRANCH   1   9
TORSDOF 3
ENDMDL
MODEL 4
REMARK VINA RESULT: -5.568644933      2.101      3.107
REMARK  3 active torsions:
REMARK  status: ('A' for Active; 'I' for Inactive)
REMARK    1  A    between atoms: N1_1  and  C1_5 
REMARK    2  A    between atoms: C1_5  and  C2_6 
REMARK    3  A    between atoms: C1_5  and  C5_9 
ROOT
HETATM    1  C5  UNL     1      29.201  16.841  18.067  1.00  0.00     0.216 C 
HETATM    2  C6  UNL     1      27.914  17.388  17.598  1.00  0.00     0.035 C 
HETATM    3  C7  UNL     1      26.702  16.578  17.794  1.00  0.00     0.004 C 
HETATM    4  C8  UNL     1      26.815  15.426  18.740  1.00  0.00     0.027 C 
HETATM    5  C9  UNL     1      28.191  14.797  18.535  1.00  0.00     0.233 C 
HETATM    6  N2  UNL     1      29.121  15.792  19.042  1.00  0.00    -0.069 N 
ATOM      7  H21 UNL     1      28.873  16.131  19.971  1.00  0.00     0.277 HD
ATOM      8  H22 UNL     1      30.031  15.400  19.281  1.00  0.00     0.277 HD
ENDROOT
BRANCH   1   9
HETATM    9  C1  UNL     1      30.049  18.010  18.580  1.00  0.00     0.218 C 
BRANCH   9  10
HETATM   10  N1  UNL     1      29.726  18.146  19.988  1.00  0.00    -0.073 N 
ATOM     11  H13 UNL     1      29.546  19.122  20.225  1.00  0.00     0.274 HD
ATOM     12  H12 UNL     1      28.806  17.752  20.188  1.00  0.00     0.274 HD
ATOM     13  H11 UNL     1      30.432  17.747  20.606  1.00  0.00     0.274 HD
ENDBRANCH   9  10
BRANCH   9  14
HETATM   14  C2  UNL     1      29.830  19.257  17.800  1.00  0.00     0.018 A 
HETATM   15  C3  UNL     1      30.593  20.495  18.020  1.00  0.00     0.007 A 
HETATM   16  C4  UNL     1      31.013  19.632  16.893  1.00  0.00     0.007 A 
ENDBRANCH   9  14
ENDBRANCH   1   9
TORSDOF 3
ENDMDL
MODEL 5
REMARK VINA RESULT: -5.470397952      1.437      4.446
REMARK  3 active torsions:
REMARK  status: ('A' for Active; 'I' for Inactive)
REMARK    1  A    between atoms: N1_1  and  C1_5 
REMARK    2  A    between atoms: C1_5  and  C2_6 
REMARK    3  A    between atoms: C1_5  and  C5_9 
ROOT
HETATM    1  C5  UNL     1      30.400  18.247  17.603  1.00  0.00     0.216 C 
HETATM    2  C6  UNL     1      30.285  19.679  17.937  1.00  0.00     0.035 C 
HETATM    3  C7  UNL     1      31.068  20.642  17.148  1.00  0.00     0.004 C 
HETATM    4  C8  UNL     1      31.655  20.136  15.870  1.00  0.00     0.027 C 
HETATM    5  C9  UNL     1      32.132  18.706  16.117  1.00  0.00     0.233 C 
HETATM    6  N2  UNL     1      30.907  17.945  16.296  1.00  0.00    -0.069 N 
ATOM      7  H21 UNL     1      30.225  18.110  15.557  1.00  0.00     0.277 HD
ATOM      8  H22 UNL     1      31.034  16.945  16.139  1.00  0.00     0.277 HD
ENDROOT
BRANCH   1   9
HETATM    9  C1  UNL     1      29.029  17.601  17.828  1.00  0.00     0.218 C 
BRANCH   9  10
HETATM   10  N1  UNL     1      28.841  17.562  19.267  1.00  0.00    -0.073 N 
ATOM     11  H13 UNL     1      28.253  18.335  19.576  1.00  0.00     0.274 HD
ATOM     12  H12 UNL     1      28.245  16.779  19.534  1.00  0.00     0.274 HD
ATOM     13  H11 UNL     1      29.718  17.542  19.789  1.00  0.00     0.274 HD
ENDBRANCH   9  10
BRANCH   9  14
HETATM   14  C2  UNL     1      28.915  16.266  17.182  1.00  0.00     0.018 A 
HETATM   15  C3  UNL     1      27.803  15.337  17.430  1.00  0.00     0.007 A 
HETATM   16  C4  UNL     1      27.738  16.156  16.199  1.00  0.00     0.007 A 
ENDBRANCH   9  14
ENDBRANCH   1   9
TORSDOF 3
ENDMDL
