MODEL 1
REMARK VINA RESULT: -5.470548061      0.000      0.000
REMARK  3 active torsions:
REMARK  status: ('A' for Active; 'I' for Inactive)
REMARK    1  A    between atoms: C2_2  and  C3_3 
REMARK    2  A    between atoms: C3_3  and  N1_4 
REMARK    3  A    between atoms: C3_3  and  C4_8 
ROOT
HETATM    1  C4  UNL     1      29.288  18.288  18.209  1.00  0.00     0.125 C 
HETATM    2  C5  UNL     1      30.012  19.662  18.496  1.00  0.00     0.107 C 
HETATM    3  C6  UNL     1      30.778  19.927  17.345  1.00  0.00    -0.181 C 
HETATM    4  C7  UNL     1      31.526  20.074  16.170  1.00  0.00     0.085 C 
HETATM    5  C8  UNL     1      31.154  18.861  15.249  1.00  0.00     0.055 C 
HETATM    6  C9  UNL     1      30.451  17.757  16.058  1.00  0.00     0.057 C 
HETATM    7  N2  UNL     1      29.335  17.982  16.797  1.00  0.00    -0.394 N 
ATOM      8  H2  UNL     1      28.442  17.930  16.308  1.00  0.00     0.159 HD
ENDROOT
BRANCH   1   9
HETATM    9  C3  UNL     1      29.906  17.232  19.064  1.00  0.00     0.228 C 
BRANCH   9  10
HETATM   10  C2  UNL     1      29.070  16.030  19.008  1.00  0.00    -0.003 C 
HETATM   11  C1  UNL     1      28.877  15.289  20.089  1.00  0.00     0.009 C 
ENDBRANCH   9  10
BRANCH   9  12
HETATM   12  N1  UNL     1      29.968  17.687  20.429  1.00  0.00    -0.070 N 
ATOM     13  H13 UNL     1      29.150  17.409  20.972  1.00  0.00     0.275 HD
ATOM     14  H12 UNL     1      30.673  17.191  20.974  1.00  0.00     0.275 HD
ATOM     15  H11 UNL     1      30.113  18.697  20.431  1.00  0.00     0.275 HD
ENDBRANCH   9  12
ENDBRANCH   1   9
TORSDOF 3
ENDMDL
MODEL 2
REMARK VINA RESULT: -5.458369144      1.684      4.146
REMARK  3 active torsions:
REMARK  status: ('A' for Active; 'I' for Inactive)
REMARK    1  A    between atoms: C2_2  and  C3_3 
REMARK    2  A    between atoms: C3_3  and  N1_4 
REMARK    3  A    between atoms: C3_3  and  C4_8 
ROOT
HETATM    1  C4  UNL     1      30.377  17.973  17.679  1.00  0.00     0.125 C 
HETATM    2  C5  UNL     1      29.630  18.006  19.070  1.00  0.00     0.107 C 
HETATM    3  C6  UNL     1      28.415  17.330  18.857  1.00  0.00    -0.181 C 
HETATM    4  C7  UNL     1      27.224  16.670  18.526  1.00  0.00     0.085 C 
HETATM    5  C8  UNL     1      27.361  16.226  17.028  1.00  0.00     0.055 C 
HETATM    6  C9  UNL     1      28.513  16.979  16.339  1.00  0.00     0.057 C 
HETATM    7  N2  UNL     1      29.784  16.978  16.815  1.00  0.00    -0.394 N 
ATOM      8  H2  UNL     1      30.378  16.198  16.536  1.00  0.00     0.159 HD
ENDROOT
BRANCH   1   9
HETATM    9  C3  UNL     1      30.366  19.346  17.095  1.00  0.00     0.228 C 
BRANCH   9  10
HETATM   10  C2  UNL     1      31.502  19.480  16.180  1.00  0.00    -0.003 C 
HETATM   11  C1  UNL     1      31.797  20.650  15.635  1.00  0.00     0.009 C 
ENDBRANCH   9  10
BRANCH   9  12
HETATM   12  N1  UNL     1      30.503  20.322  18.145  1.00  0.00    -0.070 N 
ATOM     13  H13 UNL     1      31.000  19.956  18.958  1.00  0.00     0.275 HD
ATOM     14  H12 UNL     1      31.157  21.067  17.903  1.00  0.00     0.275 HD
ATOM     15  H11 UNL     1      29.577  20.678  18.383  1.00  0.00     0.275 HD
ENDBRANCH   9  12
ENDBRANCH   1   9
TORSDOF 3
ENDMDL
MODEL 3
REMARK VINA RESULT: -5.412160187      1.995      4.620
REMARK  3 active torsions:
REMARK  status: ('A' for Active; 'I' for Inactive)
REMARK    1  A    between atoms: C2_2  and  C3_3 
REMARK    2  A    between atoms: C3_3  and  N1_4 
REMARK    3  A    between atoms: C3_3  and  C4_8 
ROOT
HETATM    1  C4  UNL     1      28.459  17.993  17.064  1.00  0.00     0.125 C 
HETATM    2  C5  UNL     1      28.352  16.824  16.008  1.00  0.00     0.107 C 
HETATM    3  C6  UNL     1      27.576  15.829  16.630  1.00  0.00    -0.181 C 
HETATM    4  C7  UNL     1      26.824  14.895  17.355  1.00  0.00     0.085 C 
HETATM    5  C8  UNL     1      26.471  15.572  18.725  1.00  0.00     0.055 C 
HETATM    6  C9  UNL     1      27.362  16.802  18.971  1.00  0.00     0.057 C 
HETATM    7  N2  UNL     1      27.457  17.832  18.093  1.00  0.00    -0.394 N 
ATOM      8  H2  UNL     1      26.752  18.564  18.166  1.00  0.00     0.159 HD
ENDROOT
BRANCH   1   9
HETATM    9  C3  UNL     1      29.853  18.033  17.596  1.00  0.00     0.228 C 
BRANCH   9  10
HETATM   10  C2  UNL     1      30.202  19.422  17.903  1.00  0.00    -0.003 C 
HETATM   11  C1  UNL     1      31.000  20.112  17.102  1.00  0.00     0.009 C 
ENDBRANCH   9  10
BRANCH   9  12
HETATM   12  N1  UNL     1      30.768  17.537  16.600  1.00  0.00    -0.070 N 
ATOM     13  H13 UNL     1      30.361  16.795  16.030  1.00  0.00     0.275 HD
ATOM     14  H12 UNL     1      30.936  18.212  15.854  1.00  0.00     0.275 HD
ATOM     15  H11 UNL     1      31.629  17.245  17.064  1.00  0.00     0.275 HD
ENDBRANCH   9  12
ENDBRANCH   1   9
TORSDOF 3
ENDMDL
MODEL 4
REMARK VINA RESULT: -5.291357658      2.164      4.479
REMARK  3 active torsions:
REMARK  status: ('A' for Active; 'I' for Inactive)
REMARK    1  A    between atoms: C2_2  and  C3_3 
REMARK    2  A    between atoms: C3_3  and  N1_4 
REMARK    3  A    between atoms: C3_3  and  C4_8 
ROOT
HETATM    1  C4  UNL     1      28.328  17.547  17.587  1.00  0.00     0.125 C 
HETATM    2  C5  UNL     1      28.282  17.029  16.096  1.00  0.00     0.107 C 
HETATM    3  C6  UNL     1      27.785  15.715  16.174  1.00  0.00    -0.181 C 
HETATM    4  C7  UNL     1      27.315  14.409  16.370  1.00  0.00     0.085 C 
HETATM    5  C8  UNL     1      27.041  14.259  17.907  1.00  0.00     0.055 C 
HETATM    6  C9  UNL     1      27.729  15.386  18.696  1.00  0.00     0.057 C 
HETATM    7  N2  UNL     1      27.521  16.702  18.437  1.00  0.00    -0.394 N 
ATOM      8  H2  UNL     1      26.715  17.136  18.886  1.00  0.00     0.159 HD
ENDROOT
BRANCH   1   9
HETATM    9  C3  UNL     1      29.753  17.636  18.022  1.00  0.00     0.228 C 
BRANCH   9  10
HETATM   10  C2  UNL     1      29.971  18.931  18.670  1.00  0.00    -0.003 C 
HETATM   11  C1  UNL     1      30.341  19.988  17.963  1.00  0.00     0.009 C 
ENDBRANCH   9  10
BRANCH   9  12
HETATM   12  N1  UNL     1      30.618  17.544  16.873  1.00  0.00    -0.070 N 
ATOM     13  H13 UNL     1      31.354  18.251  16.881  1.00  0.00     0.275 HD
ATOM     14  H12 UNL     1      31.216  16.718  16.900  1.00  0.00     0.275 HD
ATOM     15  H11 UNL     1      30.046  17.585  16.030  1.00  0.00     0.275 HD
ENDBRANCH   9  12
ENDBRANCH   1   9
TORSDOF 3
ENDMDL
MODEL 5
REMARK VINA RESULT: -5.283436274      1.247      4.544
REMARK  3 active torsions:
REMARK  status: ('A' for Active; 'I' for Inactive)
REMARK    1  A    between atoms: C2_2  and  C3_3 
REMARK    2  A    between atoms: C3_3  and  N1_4 
REMARK    3  A    between atoms: C3_3  and  C4_8 
ROOT
HETATM    1  C4  UNL     1      29.476  18.459  17.580  1.00  0.00     0.125 C 
HETATM    2  C5  UNL     1      28.789  17.300  16.756  1.00  0.00     0.107 C 
HETATM    3  C6  UNL     1      28.613  16.246  17.671  1.00  0.00    -0.181 C 
HETATM    4  C7  UNL     1      28.517  15.253  18.654  1.00  0.00     0.085 C 
HETATM    5  C8  UNL     1      29.062  15.885  19.982  1.00  0.00     0.055 C 
HETATM    6  C9  UNL     1      29.857  17.169  19.689  1.00  0.00     0.057 C 
HETATM    7  N2  UNL     1      29.339  18.215  18.997  1.00  0.00    -0.394 N 
ATOM      8  H2  UNL     1      28.800  18.896  19.531  1.00  0.00     0.159 HD
ENDROOT
BRANCH   1   9
HETATM    9  C3  UNL     1      30.895  18.587  17.136  1.00  0.00     0.228 C 
BRANCH   9  10
HETATM   10  C2  UNL     1      31.137  19.970  16.717  1.00  0.00    -0.003 C 
HETATM   11  C1  UNL     1      31.572  20.241  15.496  1.00  0.00     0.009 C 
ENDBRANCH   9  10
BRANCH   9  12
HETATM   12  N1  UNL     1      31.134  17.717  16.013  1.00  0.00    -0.070 N 
ATOM     13  H13 UNL     1      30.272  17.438  15.544  1.00  0.00     0.275 HD
ATOM     14  H12 UNL     1      31.570  18.203  15.229  1.00  0.00     0.275 HD
ATOM     15  H11 UNL     1      31.682  16.917  16.330  1.00  0.00     0.275 HD
ENDBRANCH   9  12
ENDBRANCH   1   9
TORSDOF 3
ENDMDL
