MODEL 1
REMARK VINA RESULT: -3.678099963      0.000      0.000
REMARK  3 active torsions:
REMARK  status: ('A' for Active; 'I' for Inactive)
REMARK    1  A    between atoms: C1_4  and  C2_6 
REMARK    2  A    between atoms: C2_6  and  N3_7 
REMARK    3  A    between atoms: C2_6  and  C3_11 
ROOT
HETATM    1  C2  UNL     1      27.208 136.969 146.992  1.00  0.00     0.277 C 
ENDROOT
BRANCH   1   2
HETATM    2  C1  UNL     1      28.198 137.969 147.490  1.00  0.00     0.119 C 
HETATM    3  N1  UNL     1      27.950 139.219 147.344  1.00  0.00    -0.389 N 
ATOM      4  H12 UNL     1      28.626 139.902 147.685  1.00  0.00     0.157 HD
ATOM      5  H11 UNL     1      27.083 139.508 146.891  1.00  0.00     0.157 HD
HETATM    6  N2  UNL     1      29.402 137.568 148.120  1.00  0.00    -0.086 NA
ENDBRANCH   1   2
BRANCH   1   7
HETATM    7  N3  UNL     1      26.216 136.792 148.013  1.00  0.00    -0.067 N 
ATOM      8  H33 UNL     1      26.616 136.748 148.951  1.00  0.00     0.275 HD
ATOM      9  H32 UNL     1      25.638 137.621 148.152  1.00  0.00     0.275 HD
ATOM     10  H31 UNL     1      25.671 135.964 147.775  1.00  0.00     0.275 HD
ENDBRANCH   1   7
BRANCH   1  11
HETATM   11  C3  UNL     1      27.991 135.679 146.731  1.00  0.00     0.224 C 
HETATM   12  C4  UNL     1      27.188 134.573 146.124  1.00  0.00     0.063 C 
HETATM   13  C5  UNL     1      27.808 134.925 144.812  1.00  0.00     0.235 C 
HETATM   14  N4  UNL     1      28.692 135.820 145.483  1.00  0.00    -0.068 N 
ATOM     15  H42 UNL     1      28.832 136.755 145.099  1.00  0.00     0.277 HD
ATOM     16  H41 UNL     1      29.695 135.635 145.457  1.00  0.00     0.277 HD
ENDBRANCH   1  11
TORSDOF 3
ENDMDL
MODEL 2
REMARK VINA RESULT: -3.665649723      1.991      3.962
REMARK  3 active torsions:
REMARK  status: ('A' for Active; 'I' for Inactive)
REMARK    1  A    between atoms: C1_4  and  C2_6 
REMARK    2  A    between atoms: C2_6  and  N3_7 
REMARK    3  A    between atoms: C2_6  and  C3_11 
ROOT
HETATM    1  C2  UNL     1      28.054 137.880 148.032  1.00  0.00     0.277 C 
ENDROOT
BRANCH   1   2
HETATM    2  C1  UNL     1      28.134 136.733 147.081  1.00  0.00     0.119 C 
HETATM    3  N1  UNL     1      29.093 136.696 146.228  1.00  0.00    -0.389 N 
ATOM      4  H12 UNL     1      29.148 135.912 145.578  1.00  0.00     0.157 HD
ATOM      5  H11 UNL     1      29.780 137.449 146.215  1.00  0.00     0.157 HD
HETATM    6  N2  UNL     1      27.179 135.688 147.099  1.00  0.00    -0.086 NA
ENDBRANCH   1   2
BRANCH   1   7
HETATM    7  N3  UNL     1      28.298 139.082 147.287  1.00  0.00    -0.067 N 
ATOM      8  H33 UNL     1      28.706 138.903 146.369  1.00  0.00     0.275 HD
ATOM      9  H32 UNL     1      27.440 139.532 146.968  1.00  0.00     0.275 HD
ATOM     10  H31 UNL     1      28.875 139.693 147.865  1.00  0.00     0.275 HD
ENDBRANCH   1   7
BRANCH   1  11
HETATM   11  C3  UNL     1      29.133 137.640 149.091  1.00  0.00     0.224 C 
HETATM   12  C4  UNL     1      28.935 138.395 150.367  1.00  0.00     0.063 C 
HETATM   13  C5  UNL     1      28.413 137.129 150.964  1.00  0.00     0.235 C 
HETATM   14  N4  UNL     1      28.815 136.424 149.792  1.00  0.00    -0.068 N 
ATOM     15  H42 UNL     1      28.164 135.764 149.365  1.00  0.00     0.277 HD
ATOM     16  H41 UNL     1      29.530 135.701 149.872  1.00  0.00     0.277 HD
ENDBRANCH   1  11
TORSDOF 3
ENDMDL
MODEL 3
REMARK VINA RESULT: -3.563875013      2.264      3.967
REMARK  3 active torsions:
REMARK  status: ('A' for Active; 'I' for Inactive)
REMARK    1  A    between atoms: C1_4  and  C2_6 
REMARK    2  A    between atoms: C2_6  and  N3_7 
REMARK    3  A    between atoms: C2_6  and  C3_11 
ROOT
HETATM    1  C2  UNL     1      28.619 137.777 147.939  1.00  0.00     0.277 C 
ENDROOT
BRANCH   1   2
HETATM    2  C1  UNL     1      29.491 137.073 146.953  1.00  0.00     0.119 C 
HETATM    3  N1  UNL     1      28.950 136.322 146.064  1.00  0.00    -0.389 N 
ATOM      4  H12 UNL     1      29.545 135.841 145.391  1.00  0.00     0.157 HD
ATOM      5  H11 UNL     1      27.935 136.219 146.047  1.00  0.00     0.157 HD
HETATM    6  N2  UNL     1      30.900 137.216 146.976  1.00  0.00    -0.086 NA
ENDBRANCH   1   2
BRANCH   1   7
HETATM    7  N3  UNL     1      28.200 139.014 147.344  1.00  0.00    -0.067 N 
ATOM      8  H33 UNL     1      28.486 139.101 146.368  1.00  0.00     0.275 HD
ATOM      9  H32 UNL     1      27.192 139.060 147.193  1.00  0.00     0.275 HD
ATOM     10  H31 UNL     1      28.548 139.772 147.929  1.00  0.00     0.275 HD
ENDBRANCH   1   7
BRANCH   1  11
HETATM   11  C3  UNL     1      29.476 138.009 149.186  1.00  0.00     0.224 C 
HETATM   12  C4  UNL     1      28.706 138.383 150.412  1.00  0.00     0.063 C 
HETATM   13  C5  UNL     1      28.860 136.969 150.867  1.00  0.00     0.235 C 
HETATM   14  N4  UNL     1      29.757 136.730 149.785  1.00  0.00    -0.068 N 
ATOM     15  H42 UNL     1      29.639 135.886 149.224  1.00  0.00     0.277 HD
ATOM     16  H41 UNL     1      30.725 136.485 149.991  1.00  0.00     0.277 HD
ENDBRANCH   1  11
TORSDOF 3
ENDMDL
MODEL 4
REMARK VINA RESULT: -3.551973572      2.023      3.398
REMARK  3 active torsions:
REMARK  status: ('A' for Active; 'I' for Inactive)
REMARK    1  A    between atoms: C1_4  and  C2_6 
REMARK    2  A    between atoms: C2_6  and  N3_7 
REMARK    3  A    between atoms: C2_6  and  C3_11 
ROOT
HETATM    1  C2  UNL     1      28.780 137.402 148.209  1.00  0.00     0.277 C 
ENDROOT
BRANCH   1   2
HETATM    2  C1  UNL     1      27.664 137.271 147.226  1.00  0.00     0.119 C 
HETATM    3  N1  UNL     1      26.693 138.110 147.269  1.00  0.00    -0.389 N 
ATOM      4  H12 UNL     1      25.931 138.021 146.597  1.00  0.00     0.157 HD
ATOM      5  H11 UNL     1      26.700 138.848 147.972  1.00  0.00     0.157 HD
HETATM    6  N2  UNL     1      27.653 136.246 146.249  1.00  0.00    -0.086 NA
ENDBRANCH   1   2
BRANCH   1   7
HETATM    7  N3  UNL     1      28.220 137.876 149.442  1.00  0.00    -0.067 N 
ATOM      8  H33 UNL     1      28.386 137.241 150.223  1.00  0.00     0.275 HD
ATOM      9  H32 UNL     1      28.717 138.684 149.818  1.00  0.00     0.275 HD
ATOM     10  H31 UNL     1      27.230 138.059 149.282  1.00  0.00     0.275 HD
ENDBRANCH   1   7
BRANCH   1  11
HETATM   11  C3  UNL     1      29.768 138.406 147.610  1.00  0.00     0.224 C 
HETATM   12  C4  UNL     1      31.119 138.411 148.252  1.00  0.00     0.063 C 
HETATM   13  C5  UNL     1      31.607 137.610 147.089  1.00  0.00     0.235 C 
HETATM   14  N4  UNL     1      30.356 137.816 146.437  1.00  0.00    -0.068 N 
ATOM     15  H42 UNL     1      29.891 137.021 145.998  1.00  0.00     0.277 HD
ATOM     16  H41 UNL     1      30.337 138.338 145.561  1.00  0.00     0.277 HD
ENDBRANCH   1  11
TORSDOF 3
ENDMDL
MODEL 5
REMARK VINA RESULT: -3.536316236      2.119      4.040
REMARK  3 active torsions:
REMARK  status: ('A' for Active; 'I' for Inactive)
REMARK    1  A    between atoms: C1_4  and  C2_6 
REMARK    2  A    between atoms: C2_6  and  N3_7 
REMARK    3  A    between atoms: C2_6  and  C3_11 
ROOT
HETATM    1  C2  UNL     1      28.995 137.924 147.647  1.00  0.00     0.277 C 
ENDROOT
BRANCH   1   2
HETATM    2  C1  UNL     1      27.597 137.463 147.397  1.00  0.00     0.119 C 
HETATM    3  N1  UNL     1      26.678 138.335 147.195  1.00  0.00    -0.389 N 
ATOM      4  H12 UNL     1      25.724 138.020 147.024  1.00  0.00     0.157 HD
ATOM      5  H11 UNL     1      26.917 139.326 147.211  1.00  0.00     0.157 HD
HETATM    6  N2  UNL     1      27.265 136.086 147.375  1.00  0.00    -0.086 NA
ENDBRANCH   1   2
BRANCH   1   7
HETATM    7  N3  UNL     1      29.806 137.468 146.555  1.00  0.00    -0.067 N 
ATOM      8  H33 UNL     1      30.761 137.243 146.837  1.00  0.00     0.275 HD
ATOM      9  H32 UNL     1      29.541 136.540 146.225  1.00  0.00     0.275 HD
ATOM     10  H31 UNL     1      29.765 138.176 145.823  1.00  0.00     0.275 HD
ENDBRANCH   1   7
BRANCH   1  11
HETATM   11  C3  UNL     1      29.425 137.296 148.975  1.00  0.00     0.224 C 
HETATM   12  C4  UNL     1      30.272 138.176 149.838  1.00  0.00     0.063 C 
HETATM   13  C5  UNL     1      29.048 138.456 150.648  1.00  0.00     0.235 C 
HETATM   14  N4  UNL     1      28.349 137.450 149.918  1.00  0.00    -0.068 N 
ATOM     15  H42 UNL     1      27.413 137.656 149.569  1.00  0.00     0.277 HD
ATOM     16  H41 UNL     1      28.007 136.628 150.415  1.00  0.00     0.277 HD
ENDBRANCH   1  11
TORSDOF 3
ENDMDL
