MODEL 1
REMARK VINA RESULT: -8.795390851      0.000      0.000
REMARK  3 active torsions:
REMARK  status: ('A' for Active; 'I' for Inactive)
REMARK    1  A    between atoms: C2_2  and  C3_3 
REMARK    2  A    between atoms: N1_6  and  C6_7 
REMARK    3  A    between atoms: C6_7  and  C7_8 
ROOT
HETATM    1  C3  UNL     1      11.633  -7.733  -4.185  1.00  0.00     0.017 C 
HETATM    2  C4  UNL     1      10.629  -6.935  -5.035  1.00  0.00     0.039 C 
HETATM    3  C5  UNL     1      10.135  -7.743  -6.199  1.00  0.00     0.273 C 
HETATM    4  N1  UNL     1       9.390  -8.915  -5.783  1.00  0.00     0.090 N 
HETATM    5  C11 UNL     1       9.627  -9.120  -4.397  1.00  0.00     0.273 C 
HETATM    6  C12 UNL     1      11.086  -9.091  -4.001  1.00  0.00     0.039 C 
ENDROOT
BRANCH   1   7
HETATM    7  C2  UNL     1      11.914  -6.976  -2.943  1.00  0.00    -0.079 C 
HETATM    8  C1  UNL     1      12.199  -5.687  -3.065  1.00  0.00    -0.017 C 
HETATM    9  C17 UNL     1      12.506  -4.770  -1.932  1.00  0.00     0.026 C 
HETATM   10  C16 UNL     1      13.985  -4.502  -1.941  1.00  0.00     0.122 C 
HETATM   11  C18 UNL     1      12.221  -5.433  -0.590  1.00  0.00     0.016 C 
HETATM   12  N2  UNL     1      14.801  -5.557  -1.473  1.00  0.00    -0.420 N 
HETATM   13  C15 UNL     1      14.175  -6.830  -1.314  1.00  0.00     0.118 C 
ATOM     14  H2  UNL     1      15.788  -5.415  -1.260  1.00  0.00     0.153 HD
HETATM   15  C14 UNL     1      12.823  -6.817  -0.707  1.00  0.00     0.007 C 
HETATM   16  C13 UNL     1      11.886  -7.603  -1.594  1.00  0.00     0.040 C 
ENDBRANCH   1   7
BRANCH   4  17
HETATM   17  C6  UNL     1       9.729  -9.992  -6.643  1.00  0.00     0.304 C 
BRANCH  17  18
HETATM   18  C7  UNL     1       9.882 -11.320  -5.961  1.00  0.00     0.154 C 
HETATM   19  C8  UNL     1       8.782 -12.282  -6.273  1.00  0.00     0.060 C 
HETATM   20  C9  UNL     1       8.908 -12.965  -7.595  1.00  0.00     0.173 C 
HETATM   21  O1  UNL     1      10.196 -13.548  -7.645  1.00  0.00    -0.367 OA
HETATM   22  C10 UNL     1      11.084 -12.450  -7.590  1.00  0.00     0.338 C 
HETATM   23  O2  UNL     1      11.101 -11.871  -6.348  1.00  0.00    -0.360 OA
ENDBRANCH  17  18
ENDBRANCH   4  17
TORSDOF 3
ENDMDL
MODEL 2
REMARK VINA RESULT: -8.497808005      0.889      1.505
REMARK  3 active torsions:
REMARK  status: ('A' for Active; 'I' for Inactive)
REMARK    1  A    between atoms: C2_2  and  C3_3 
REMARK    2  A    between atoms: N1_6  and  C6_7 
REMARK    3  A    between atoms: C6_7  and  C7_8 
ROOT
HETATM    1  C3  UNL     1      11.767  -7.463  -4.706  1.00  0.00     0.017 C 
HETATM    2  C4  UNL     1      10.523  -6.770  -5.292  1.00  0.00     0.039 C 
HETATM    3  C5  UNL     1       9.794  -7.671  -6.245  1.00  0.00     0.273 C 
HETATM    4  N1  UNL     1       9.263  -8.852  -5.593  1.00  0.00     0.090 N 
HETATM    5  C11 UNL     1       9.870  -8.960  -4.312  1.00  0.00     0.273 C 
HETATM    6  C12 UNL     1      11.377  -8.833  -4.323  1.00  0.00     0.039 C 
ENDROOT
BRANCH   1   7
HETATM    7  C2  UNL     1      12.315  -6.619  -3.620  1.00  0.00    -0.079 C 
HETATM    8  C1  UNL     1      13.435  -7.025  -3.037  1.00  0.00    -0.017 C 
HETATM    9  C17 UNL     1      14.130  -6.308  -1.932  1.00  0.00     0.026 C 
HETATM   10  C16 UNL     1      13.878  -7.065  -0.658  1.00  0.00     0.122 C 
HETATM   11  C18 UNL     1      13.532  -4.924  -1.707  1.00  0.00     0.016 C 
HETATM   12  N2  UNL     1      12.585  -6.922  -0.106  1.00  0.00    -0.420 N 
HETATM   13  C15 UNL     1      11.595  -6.321  -0.940  1.00  0.00     0.118 C 
ATOM     14  H2  UNL     1      12.371  -7.233   0.841  1.00  0.00     0.153 HD
HETATM   15  C14 UNL     1      12.035  -5.143  -1.724  1.00  0.00     0.007 C 
HETATM   16  C13 UNL     1      11.663  -5.358  -3.173  1.00  0.00     0.040 C 
ENDBRANCH   1   7
BRANCH   4  17
HETATM   17  C6  UNL     1       9.433  -9.961  -6.463  1.00  0.00     0.304 C 
BRANCH  17  18
HETATM   18  C7  UNL     1       9.634 -11.279  -5.775  1.00  0.00     0.154 C 
HETATM   19  C8  UNL     1       8.636 -12.318  -6.170  1.00  0.00     0.060 C 
HETATM   20  C9  UNL     1       8.912 -12.979  -7.481  1.00  0.00     0.173 C 
HETATM   21  O1  UNL     1      10.240 -13.463  -7.434  1.00  0.00    -0.367 OA
HETATM   22  C10 UNL     1      11.036 -12.302  -7.310  1.00  0.00     0.338 C 
HETATM   23  O2  UNL     1      10.916 -11.733  -6.069  1.00  0.00    -0.360 OA
ENDBRANCH  17  18
ENDBRANCH   4  17
TORSDOF 3
ENDMDL
MODEL 3
REMARK VINA RESULT: -7.832138729      4.349      8.214
REMARK  3 active torsions:
REMARK  status: ('A' for Active; 'I' for Inactive)
REMARK    1  A    between atoms: C2_2  and  C3_3 
REMARK    2  A    between atoms: N1_6  and  C6_7 
REMARK    3  A    between atoms: C6_7  and  C7_8 
ROOT
HETATM    1  C3  UNL     1      10.605 -13.589  -4.280  1.00  0.00     0.017 C 
HETATM    2  C4  UNL     1       9.297 -13.078  -4.910  1.00  0.00     0.039 C 
HETATM    3  C5  UNL     1       9.333 -11.593  -5.118  1.00  0.00     0.273 C 
HETATM    4  N1  UNL     1      10.358 -11.192  -6.062  1.00  0.00     0.090 N 
HETATM    5  C11 UNL     1      11.231 -12.296  -6.262  1.00  0.00     0.273 C 
HETATM    6  C12 UNL     1      11.725 -12.939  -4.987  1.00  0.00     0.039 C 
ENDROOT
BRANCH   1   7
HETATM    7  C2  UNL     1      10.598 -15.070  -4.302  1.00  0.00    -0.079 C 
HETATM    8  C1  UNL     1      10.521 -15.698  -3.136  1.00  0.00    -0.017 C 
HETATM    9  C17 UNL     1      10.501 -17.177  -2.964  1.00  0.00     0.026 C 
HETATM   10  C16 UNL     1      11.846 -17.600  -2.443  1.00  0.00     0.122 C 
HETATM   11  C18 UNL     1      10.341 -17.888  -4.301  1.00  0.00     0.016 C 
HETATM   12  N2  UNL     1      12.896 -17.598  -3.388  1.00  0.00    -0.420 N 
HETATM   13  C15 UNL     1      12.641 -16.943  -4.630  1.00  0.00     0.118 C 
ATOM     14  H2  UNL     1      13.793 -18.044  -3.192  1.00  0.00     0.153 HD
HETATM   15  C14 UNL     1      11.308 -17.188  -5.231  1.00  0.00     0.007 C 
HETATM   16  C13 UNL     1      10.674 -15.856  -5.563  1.00  0.00     0.040 C 
ENDBRANCH   1   7
BRANCH   4  17
HETATM   17  C6  UNL     1      10.958  -9.994  -5.594  1.00  0.00     0.304 C 
BRANCH  17  18
HETATM   18  C7  UNL     1      10.023  -9.048  -4.899  1.00  0.00     0.154 C 
HETATM   19  C8  UNL     1      10.692  -8.189  -3.878  1.00  0.00     0.060 C 
HETATM   20  C9  UNL     1      11.433  -7.018  -4.438  1.00  0.00     0.173 C 
HETATM   21  O1  UNL     1      10.532  -6.310  -5.266  1.00  0.00    -0.367 OA
HETATM   22  C10 UNL     1      10.219  -7.216  -6.304  1.00  0.00     0.338 C 
HETATM   23  O2  UNL     1       9.424  -8.241  -5.862  1.00  0.00    -0.360 OA
ENDBRANCH  17  18
ENDBRANCH   4  17
TORSDOF 3
ENDMDL
MODEL 4
REMARK VINA RESULT: -7.681083976      4.370      8.442
REMARK  3 active torsions:
REMARK  status: ('A' for Active; 'I' for Inactive)
REMARK    1  A    between atoms: C2_2  and  C3_3 
REMARK    2  A    between atoms: N1_6  and  C6_7 
REMARK    3  A    between atoms: C6_7  and  C7_8 
ROOT
HETATM    1  C3  UNL     1      11.163 -13.812  -4.565  1.00  0.00     0.017 C 
HETATM    2  C4  UNL     1       9.687 -13.425  -4.767  1.00  0.00     0.039 C 
HETATM    3  C5  UNL     1       9.524 -11.939  -4.894  1.00  0.00     0.273 C 
HETATM    4  N1  UNL     1      10.190 -11.408  -6.068  1.00  0.00     0.090 N 
HETATM    5  C11 UNL     1      11.066 -12.409  -6.569  1.00  0.00     0.273 C 
HETATM    6  C12 UNL     1      11.966 -13.030  -5.525  1.00  0.00     0.039 C 
ENDROOT
BRANCH   1   7
HETATM    7  C2  UNL     1      11.288 -15.284  -4.666  1.00  0.00    -0.079 C 
HETATM    8  C1  UNL     1      10.186 -15.974  -4.928  1.00  0.00    -0.017 C 
HETATM    9  C17 UNL     1      10.120 -17.456  -5.066  1.00  0.00     0.026 C 
HETATM   10  C16 UNL     1       9.474 -18.008  -3.827  1.00  0.00     0.122 C 
HETATM   11  C18 UNL     1      11.513 -18.071  -5.107  1.00  0.00     0.016 C 
HETATM   12  N2  UNL     1      10.284 -18.026  -2.670  1.00  0.00    -0.420 N 
HETATM   13  C15 UNL     1      11.500 -17.279  -2.727  1.00  0.00     0.118 C 
ATOM     14  H2  UNL     1      10.014 -18.547  -1.836  1.00  0.00     0.153 HD
HETATM   15  C14 UNL     1      12.270 -17.389  -3.988  1.00  0.00     0.007 C 
HETATM   16  C13 UNL     1      12.582 -15.996  -4.487  1.00  0.00     0.040 C 
ENDBRANCH   1   7
BRANCH   4  17
HETATM   17  C6  UNL     1      10.786 -10.167  -5.724  1.00  0.00     0.304 C 
BRANCH  17  18
HETATM   18  C7  UNL     1       9.887  -9.215  -4.991  1.00  0.00     0.154 C 
HETATM   19  C8  UNL     1      10.608  -8.340  -4.019  1.00  0.00     0.060 C 
HETATM   20  C9  UNL     1      11.312  -7.175  -4.634  1.00  0.00     0.173 C 
HETATM   21  O1  UNL     1      10.364  -6.480  -5.420  1.00  0.00    -0.367 OA
HETATM   22  C10 UNL     1       9.997  -7.400  -6.428  1.00  0.00     0.338 C 
HETATM   23  O2  UNL     1       9.232  -8.423  -5.929  1.00  0.00    -0.360 OA
ENDBRANCH  17  18
ENDBRANCH   4  17
TORSDOF 3
ENDMDL
MODEL 5
REMARK VINA RESULT: -7.582611278      2.856      7.541
REMARK  3 active torsions:
REMARK  status: ('A' for Active; 'I' for Inactive)
REMARK    1  A    between atoms: C2_2  and  C3_3 
REMARK    2  A    between atoms: N1_6  and  C6_7 
REMARK    3  A    between atoms: C6_7  and  C7_8 
ROOT
HETATM    1  C3  UNL     1       9.648  -9.256  -4.807  1.00  0.00     0.017 C 
HETATM    2  C4  UNL     1       9.790  -8.157  -5.875  1.00  0.00     0.039 C 
HETATM    3  C5  UNL     1      10.341  -6.892  -5.288  1.00  0.00     0.273 C 
HETATM    4  N1  UNL     1      11.688  -7.060  -4.776  1.00  0.00     0.090 N 
HETATM    5  C11 UNL     1      11.958  -8.453  -4.695  1.00  0.00     0.273 C 
HETATM    6  C12 UNL     1      10.882  -9.258  -4.000  1.00  0.00     0.039 C 
ENDROOT
BRANCH   1   7
HETATM    7  C2  UNL     1       9.312 -10.533  -5.478  1.00  0.00    -0.079 C 
HETATM    8  C1  UNL     1       9.215 -11.615  -4.718  1.00  0.00    -0.017 C 
HETATM    9  C17 UNL     1       8.886 -12.980  -5.215  1.00  0.00     0.026 C 
HETATM   10  C16 UNL     1      10.149 -13.794  -5.202  1.00  0.00     0.122 C 
HETATM   11  C18 UNL     1       8.438 -12.946  -6.671  1.00  0.00     0.016 C 
HETATM   12  N2  UNL     1      11.073 -13.506  -6.231  1.00  0.00    -0.420 N 
HETATM   13  C15 UNL     1      10.846 -12.313  -6.982  1.00  0.00     0.118 C 
ATOM     14  H2  UNL     1      11.864 -14.119  -6.427  1.00  0.00     0.153 HD
HETATM   15  C14 UNL     1       9.439 -12.045  -7.362  1.00  0.00     0.007 C 
HETATM   16  C13 UNL     1       9.084 -10.636  -6.945  1.00  0.00     0.040 C 
ENDBRANCH   1   7
BRANCH   4  17
HETATM   17  C6  UNL     1      11.805  -6.327  -3.568  1.00  0.00     0.304 C 
BRANCH  17  18
HETATM   18  C7  UNL     1      13.013  -6.658  -2.742  1.00  0.00     0.154 C 
HETATM   19  C8  UNL     1      13.781  -5.457  -2.296  1.00  0.00     0.060 C 
HETATM   20  C9  UNL     1      13.195  -4.744  -1.122  1.00  0.00     0.173 C 
HETATM   21  O1  UNL     1      13.008  -5.703  -0.100  1.00  0.00    -0.367 OA
HETATM   22  C10 UNL     1      12.059  -6.606  -0.630  1.00  0.00     0.338 C 
HETATM   23  O2  UNL     1      12.595  -7.379  -1.627  1.00  0.00    -0.360 OA
ENDBRANCH  17  18
ENDBRANCH   4  17
TORSDOF 3
ENDMDL
