MODEL 1
REMARK VINA RESULT: -10.561884005      0.000      0.000
REMARK  6 active torsions:
REMARK  status: ('A' for Active; 'I' for Inactive)
REMARK    1  A    between atoms: C2_2  and  C3_3 
REMARK    2  A    between atoms: C3_3  and  C4_4 
REMARK    3  A    between atoms: C4_4  and  C5_5 
REMARK       I    between atoms: C5_5  and  N1_7 
REMARK    4  A    between atoms: C11_13  and  C12_14 
REMARK    5  A    between atoms: C12_14  and  O2_15 
REMARK    6  A    between atoms: C12_14  and  N2_17 
ROOT
HETATM    1  C5  UNL     1       0.348  11.707 -60.448  1.00  0.00     0.251 C 
HETATM    2  O1  UNL     1      -0.022  11.891 -61.622  1.00  0.00    -0.268 OA
HETATM    3  N1  UNL     1       0.794  12.737 -59.603  1.00  0.00    -0.342 N 
HETATM    4  C6  UNL     1       1.282  12.886 -58.263  1.00  0.00     0.133 C 
HETATM    5  C7  UNL     1       0.854  14.318 -58.252  1.00  0.00     0.031 C 
HETATM    6  C8  UNL     1      -0.549  14.669 -57.992  1.00  0.00    -0.002 C 
HETATM    7  C9  UNL     1      -1.223  14.915 -59.356  1.00  0.00     0.013 C 
HETATM    8  C10 UNL     1      -0.294  14.806 -60.263  1.00  0.00     0.022 C 
HETATM    9  C11 UNL     1      -0.680  15.142 -61.788  1.00  0.00     0.076 C 
HETATM   10  C16 UNL     1      -1.188  16.449 -61.223  1.00  0.00     0.093 C 
HETATM   11  C17 UNL     1      -1.471  17.167 -60.419  1.00  0.00    -0.181 C 
HETATM   12  C18 UNL     1      -1.747  17.798 -59.199  1.00  0.00     0.089 C 
HETATM   13  C19 UNL     1      -1.076  17.294 -57.942  1.00  0.00    -0.027 C 
HETATM   14  C20 UNL     1       0.253  18.186 -58.065  1.00  0.00     0.017 C 
HETATM   15  C21 UNL     1      -1.816  18.120 -56.834  1.00  0.00    -0.001 A 
HETATM   16  C22 UNL     1      -3.045  17.687 -56.218  1.00  0.00     0.011 A 
HETATM   17  C23 UNL     1      -1.697  17.299 -55.637  1.00  0.00    -0.009 A 
HETATM   18  C24 UNL     1      -1.331  15.877 -56.019  1.00  0.00     0.011 C 
HETATM   19  C25 UNL     1      -0.665  16.094 -57.381  1.00  0.00    -0.000 C 
HETATM   20  C26 UNL     1       0.909  14.209 -59.748  1.00  0.00     0.098 C 
ENDROOT
BRANCH   9  21
HETATM   21  C12 UNL     1       0.561  15.302 -62.519  1.00  0.00     0.122 C 
BRANCH  21  22
HETATM   22  O2  UNL     1       1.394  16.149 -61.970  1.00  0.00    -0.349 OA
ATOM     23  H2  UNL     1       1.247  17.052 -62.226  1.00  0.00     0.219 HD
ENDBRANCH  21  22
BRANCH  21  24
HETATM   24  N2  UNL     1       1.004  14.719 -63.677  1.00  0.00    -0.325 N 
HETATM   25  C13 UNL     1       0.401  13.909 -64.442  1.00  0.00     0.122 A 
HETATM   26  C14 UNL     1      -0.846  13.328 -64.424  1.00  0.00     0.068 A 
HETATM   27  N4  UNL     1       0.978  13.421 -65.588  1.00  0.00    -0.286 N 
HETATM   28  C15 UNL     1      -0.995  12.535 -65.510  1.00  0.00     0.111 A 
HETATM   29  N3  UNL     1       0.146  12.613 -66.207  1.00  0.00    -0.310 N 
ATOM     30  H3  UNL     1       0.339  12.123 -67.081  1.00  0.00     0.186 HD
ATOM     31  H4  UNL     1       1.917  13.652 -65.912  1.00  0.00     0.188 HD
ATOM     32  H2  UNL     1       1.950  14.972 -63.963  1.00  0.00     0.169 HD
ENDBRANCH  21  24
ENDBRANCH   9  21
BRANCH   1  33
HETATM   33  C4  UNL     1       0.287  10.288 -59.972  1.00  0.00     0.129 C 
BRANCH  33  34
HETATM   34  C3  UNL     1      -0.712   9.818 -59.415  1.00  0.00    -0.123 C 
BRANCH  34  35
HETATM   35  C2  UNL     1      -1.819   9.298 -58.799  1.00  0.00     0.045 C 
HETATM   36  C1  UNL     1      -2.805   8.664 -59.500  1.00  0.00     0.020 C 
ENDBRANCH  34  35
ENDBRANCH  33  34
ENDBRANCH   1  33
TORSDOF 6
ENDMDL
MODEL 2
REMARK VINA RESULT: -10.524843526      1.721      2.847
REMARK  6 active torsions:
REMARK  status: ('A' for Active; 'I' for Inactive)
REMARK    1  A    between atoms: C2_2  and  C3_3 
REMARK    2  A    between atoms: C3_3  and  C4_4 
REMARK    3  A    between atoms: C4_4  and  C5_5 
REMARK       I    between atoms: C5_5  and  N1_7 
REMARK    4  A    between atoms: C11_13  and  C12_14 
REMARK    5  A    between atoms: C12_14  and  O2_15 
REMARK    6  A    between atoms: C12_14  and  N2_17 
ROOT
HETATM    1  C5  UNL     1       0.373  11.856 -60.497  1.00  0.00     0.251 C 
HETATM    2  O1  UNL     1       0.010  12.064 -61.669  1.00  0.00    -0.268 OA
HETATM    3  N1  UNL     1       0.782  12.873 -59.618  1.00  0.00    -0.342 N 
HETATM    4  C6  UNL     1       1.251  12.996 -58.269  1.00  0.00     0.133 C 
HETATM    5  C7  UNL     1       0.786  14.415 -58.223  1.00  0.00     0.031 C 
HETATM    6  C8  UNL     1      -0.629  14.723 -57.970  1.00  0.00    -0.002 C 
HETATM    7  C9  UNL     1      -1.294  14.989 -59.334  1.00  0.00     0.013 C 
HETATM    8  C10 UNL     1      -0.353  14.931 -60.233  1.00  0.00     0.022 C 
HETATM    9  C11 UNL     1      -0.731  15.299 -61.752  1.00  0.00     0.076 C 
HETATM   10  C16 UNL     1      -1.279  16.576 -61.157  1.00  0.00     0.093 C 
HETATM   11  C17 UNL     1      -1.590  17.264 -60.337  1.00  0.00    -0.181 C 
HETATM   12  C18 UNL     1      -1.895  17.853 -59.103  1.00  0.00     0.089 C 
HETATM   13  C19 UNL     1      -1.225  17.331 -57.853  1.00  0.00    -0.027 C 
HETATM   14  C20 UNL     1       0.081  18.260 -57.935  1.00  0.00     0.017 C 
HETATM   15  C21 UNL     1      -1.998  18.106 -56.731  1.00  0.00    -0.001 A 
HETATM   16  C22 UNL     1      -3.222  17.624 -56.141  1.00  0.00     0.011 A 
HETATM   17  C23 UNL     1      -1.871  17.254 -55.556  1.00  0.00    -0.009 A 
HETATM   18  C24 UNL     1      -1.463  15.854 -55.973  1.00  0.00     0.011 C 
HETATM   19  C25 UNL     1      -0.789  16.126 -57.321  1.00  0.00    -0.000 C 
HETATM   20  C26 UNL     1       0.860  14.351 -59.720  1.00  0.00     0.098 C 
ENDROOT
BRANCH   9  21
HETATM   21  C12 UNL     1       0.514  15.512 -62.464  1.00  0.00     0.122 C 
BRANCH  21  22
HETATM   22  O2  UNL     1       1.071  14.411 -62.899  1.00  0.00    -0.349 OA
ATOM     23  H2  UNL     1       0.606  14.005 -63.621  1.00  0.00     0.219 HD
ENDBRANCH  21  22
BRANCH  21  24
HETATM   24  N2  UNL     1       1.198  16.664 -62.754  1.00  0.00    -0.325 N 
HETATM   25  C13 UNL     1       1.870  17.408 -61.980  1.00  0.00     0.122 A 
HETATM   26  C14 UNL     1       2.163  17.369 -60.635  1.00  0.00     0.068 A 
HETATM   27  N4  UNL     1       2.518  18.531 -62.428  1.00  0.00    -0.286 N 
HETATM   28  C15 UNL     1       2.949  18.421 -60.311  1.00  0.00     0.111 A 
HETATM   29  N3  UNL     1       3.150  19.118 -61.436  1.00  0.00    -0.310 N 
ATOM     30  H3  UNL     1       3.705  19.971 -61.511  1.00  0.00     0.186 HD
ATOM     31  H4  UNL     1       2.511  18.862 -63.392  1.00  0.00     0.188 HD
ATOM     32  H2  UNL     1       1.162  16.963 -63.728  1.00  0.00     0.169 HD
ENDBRANCH  21  24
ENDBRANCH   9  21
BRANCH   1  33
HETATM   33  C4  UNL     1       0.344  10.423 -60.061  1.00  0.00     0.129 C 
BRANCH  33  34
HETATM   34  C3  UNL     1      -0.630   9.925 -59.484  1.00  0.00    -0.123 C 
BRANCH  34  35
HETATM   35  C2  UNL     1      -1.707   9.372 -58.845  1.00  0.00     0.045 C 
HETATM   36  C1  UNL     1      -2.628   8.611 -59.508  1.00  0.00     0.020 C 
ENDBRANCH  34  35
ENDBRANCH  33  34
ENDBRANCH   1  33
TORSDOF 6
ENDMDL
MODEL 3
REMARK VINA RESULT: -9.663504615      2.821      5.195
REMARK  6 active torsions:
REMARK  status: ('A' for Active; 'I' for Inactive)
REMARK    1  A    between atoms: C2_2  and  C3_3 
REMARK    2  A    between atoms: C3_3  and  C4_4 
REMARK    3  A    between atoms: C4_4  and  C5_5 
REMARK       I    between atoms: C5_5  and  N1_7 
REMARK    4  A    between atoms: C11_13  and  C12_14 
REMARK    5  A    between atoms: C12_14  and  O2_15 
REMARK    6  A    between atoms: C12_14  and  N2_17 
ROOT
HETATM    1  C5  UNL     1       0.311  15.538 -63.713  1.00  0.00     0.251 C 
HETATM    2  O1  UNL     1       0.025  16.732 -63.917  1.00  0.00    -0.268 OA
HETATM    3  N1  UNL     1       0.761  15.047 -62.477  1.00  0.00    -0.342 N 
HETATM    4  C6  UNL     1       1.172  13.797 -61.907  1.00  0.00     0.133 C 
HETATM    5  C7  UNL     1       0.827  14.291 -60.540  1.00  0.00     0.031 C 
HETATM    6  C8  UNL     1      -0.568  14.271 -60.076  1.00  0.00    -0.002 C 
HETATM    7  C9  UNL     1      -1.141  15.687 -60.276  1.00  0.00     0.013 C 
HETATM    8  C10 UNL     1      -0.165  16.434 -60.710  1.00  0.00     0.022 C 
HETATM    9  C11 UNL     1      -0.436  18.009 -60.887  1.00  0.00     0.076 C 
HETATM   10  C16 UNL     1      -0.903  17.946 -59.451  1.00  0.00     0.093 C 
HETATM   11  C17 UNL     1      -1.195  17.448 -58.497  1.00  0.00    -0.181 C 
HETATM   12  C18 UNL     1      -1.509  16.529 -57.488  1.00  0.00     0.089 C 
HETATM   13  C19 UNL     1      -0.948  15.128 -57.568  1.00  0.00    -0.027 C 
HETATM   14  C20 UNL     1       0.435  15.435 -56.811  1.00  0.00     0.017 C 
HETATM   15  C21 UNL     1      -1.707  14.414 -56.397  1.00  0.00    -0.001 A 
HETATM   16  C22 UNL     1      -2.995  13.787 -56.560  1.00  0.00     0.011 A 
HETATM   17  C23 UNL     1      -1.710  13.009 -56.778  1.00  0.00    -0.009 A 
HETATM   18  C24 UNL     1      -1.402  12.872 -58.256  1.00  0.00     0.011 C 
HETATM   19  C25 UNL     1      -0.641  14.173 -58.527  1.00  0.00    -0.000 C 
HETATM   20  C26 UNL     1       0.968  15.659 -61.141  1.00  0.00     0.098 C 
ENDROOT
BRANCH   9  21
HETATM   21  C12 UNL     1       0.856  18.653 -61.020  1.00  0.00     0.122 C 
BRANCH  21  22
HETATM   22  O2  UNL     1       1.302  18.698 -62.249  1.00  0.00    -0.349 OA
ATOM     23  H2  UNL     1       1.827  17.945 -62.494  1.00  0.00     0.219 HD
ENDBRANCH  21  22
BRANCH  21  24
HETATM   24  N2  UNL     1       1.679  19.218 -60.081  1.00  0.00    -0.325 N 
HETATM   25  C13 UNL     1       2.844  18.868 -59.729  1.00  0.00     0.122 A 
HETATM   26  C14 UNL     1       3.693  17.854 -60.113  1.00  0.00     0.068 A 
HETATM   27  N4  UNL     1       3.555  19.552 -58.776  1.00  0.00    -0.286 N 
HETATM   28  C15 UNL     1       4.850  17.942 -59.417  1.00  0.00     0.111 A 
HETATM   29  N3  UNL     1       4.734  18.997 -58.601  1.00  0.00    -0.310 N 
ATOM     30  H3  UNL     1       5.448  19.319 -57.947  1.00  0.00     0.186 HD
ATOM     31  H4  UNL     1       3.218  20.373 -58.275  1.00  0.00     0.188 HD
ATOM     32  H2  UNL     1       1.302  20.034 -59.600  1.00  0.00     0.169 HD
ENDBRANCH  21  24
ENDBRANCH   9  21
BRANCH   1  33
HETATM   33  C4  UNL     1       0.140  14.628 -64.891  1.00  0.00     0.129 C 
BRANCH  33  34
HETATM   34  C3  UNL     1      -0.454  13.547 -64.812  1.00  0.00    -0.123 C 
BRANCH  34  35
HETATM   35  C2  UNL     1      -1.112  12.349 -64.724  1.00  0.00     0.045 C 
HETATM   36  C1  UNL     1      -1.788  11.816 -65.785  1.00  0.00     0.020 C 
ENDBRANCH  34  35
ENDBRANCH  33  34
ENDBRANCH   1  33
TORSDOF 6
ENDMDL
MODEL 4
REMARK VINA RESULT: -9.642054032      3.854      5.937
REMARK  6 active torsions:
REMARK  status: ('A' for Active; 'I' for Inactive)
REMARK    1  A    between atoms: C2_2  and  C3_3 
REMARK    2  A    between atoms: C3_3  and  C4_4 
REMARK    3  A    between atoms: C4_4  and  C5_5 
REMARK       I    between atoms: C5_5  and  N1_7 
REMARK    4  A    between atoms: C11_13  and  C12_14 
REMARK    5  A    between atoms: C12_14  and  O2_15 
REMARK    6  A    between atoms: C12_14  and  N2_17 
ROOT
HETATM    1  C5  UNL     1       0.492  16.187 -58.155  1.00  0.00     0.251 C 
HETATM    2  O1  UNL     1      -0.553  16.578 -58.706  1.00  0.00    -0.268 OA
HETATM    3  N1  UNL     1       1.766  16.300 -58.733  1.00  0.00    -0.342 N 
HETATM    4  C6  UNL     1       3.122  15.968 -58.409  1.00  0.00     0.133 C 
HETATM    5  C7  UNL     1       3.619  17.025 -59.341  1.00  0.00     0.031 C 
HETATM    6  C8  UNL     1       3.653  18.432 -58.915  1.00  0.00    -0.002 C 
HETATM    7  C9  UNL     1       2.393  19.115 -59.481  1.00  0.00     0.013 C 
HETATM    8  C10 UNL     1       1.776  18.229 -60.211  1.00  0.00     0.022 C 
HETATM    9  C11 UNL     1       0.482  18.699 -61.042  1.00  0.00     0.076 C 
HETATM   10  C16 UNL     1       1.395  19.777 -61.580  1.00  0.00     0.093 C 
HETATM   11  C17 UNL     1       2.328  20.384 -61.638  1.00  0.00    -0.181 C 
HETATM   12  C18 UNL     1       3.593  20.949 -61.432  1.00  0.00     0.089 C 
HETATM   13  C19 UNL     1       4.652  20.144 -60.715  1.00  0.00    -0.027 C 
HETATM   14  C20 UNL     1       5.233  19.397 -62.012  1.00  0.00     0.017 C 
HETATM   15  C21 UNL     1       5.787  21.208 -60.525  1.00  0.00    -0.001 A 
HETATM   16  C22 UNL     1       5.851  22.095 -59.390  1.00  0.00     0.011 A 
HETATM   17  C23 UNL     1       6.527  20.736 -59.363  1.00  0.00    -0.009 A 
HETATM   18  C24 UNL     1       5.695  19.731 -58.591  1.00  0.00     0.011 C 
HETATM   19  C25 UNL     1       4.749  19.222 -59.682  1.00  0.00    -0.000 C 
HETATM   20  C26 UNL     1       2.274  16.897 -59.994  1.00  0.00     0.098 C 
ENDROOT
BRANCH   9  21
HETATM   21  C12 UNL     1       0.207  17.669 -62.024  1.00  0.00     0.122 C 
BRANCH  21  22
HETATM   22  O2  UNL     1       0.312  18.076 -63.263  1.00  0.00    -0.349 OA
ATOM     23  H2  UNL     1      -0.423  17.829 -63.812  1.00  0.00     0.219 HD
ENDBRANCH  21  22
BRANCH  21  24
HETATM   24  N2  UNL     1      -0.142  16.352 -61.873  1.00  0.00    -0.325 N 
HETATM   25  C13 UNL     1       0.021  15.387 -62.676  1.00  0.00     0.122 A 
HETATM   26  C14 UNL     1       0.570  15.274 -63.934  1.00  0.00     0.068 A 
HETATM   27  N4  UNL     1      -0.371  14.108 -62.370  1.00  0.00    -0.286 N 
HETATM   28  C15 UNL     1       0.504  13.988 -64.345  1.00  0.00     0.111 A 
HETATM   29  N3  UNL     1      -0.081  13.294 -63.361  1.00  0.00    -0.310 N 
ATOM     30  H3  UNL     1      -0.272  12.291 -63.377  1.00  0.00     0.186 HD
ATOM     31  H4  UNL     1      -0.822  13.830 -61.499  1.00  0.00     0.188 HD
ATOM     32  H2  UNL     1      -0.595  16.117 -60.989  1.00  0.00     0.169 HD
ENDBRANCH  21  24
ENDBRANCH   9  21
BRANCH   1  33
HETATM   33  C4  UNL     1       0.310  15.575 -56.799  1.00  0.00     0.129 C 
BRANCH  33  34
HETATM   34  C3  UNL     1       0.087  16.253 -55.790  1.00  0.00    -0.123 C 
BRANCH  34  35
HETATM   35  C2  UNL     1      -0.160  17.004 -54.671  1.00  0.00     0.045 C 
HETATM   36  C1  UNL     1       0.766  17.143 -53.676  1.00  0.00     0.020 C 
ENDBRANCH  34  35
ENDBRANCH  33  34
ENDBRANCH   1  33
TORSDOF 6
ENDMDL
MODEL 5
REMARK VINA RESULT: -9.564119219      3.534      8.110
REMARK  6 active torsions:
REMARK  status: ('A' for Active; 'I' for Inactive)
REMARK    1  A    between atoms: C2_2  and  C3_3 
REMARK    2  A    between atoms: C3_3  and  C4_4 
REMARK    3  A    between atoms: C4_4  and  C5_5 
REMARK       I    between atoms: C5_5  and  N1_7 
REMARK    4  A    between atoms: C11_13  and  C12_14 
REMARK    5  A    between atoms: C12_14  and  O2_15 
REMARK    6  A    between atoms: C12_14  and  N2_17 
ROOT
HETATM    1  C5  UNL     1       0.213  18.604 -59.648  1.00  0.00     0.251 C 
HETATM    2  O1  UNL     1      -0.818  18.954 -59.044  1.00  0.00    -0.268 OA
HETATM    3  N1  UNL     1       1.000  17.505 -59.270  1.00  0.00    -0.342 N 
HETATM    4  C6  UNL     1       2.198  16.847 -59.704  1.00  0.00     0.133 C 
HETATM    5  C7  UNL     1       1.755  15.579 -59.049  1.00  0.00     0.031 C 
HETATM    6  C8  UNL     1       0.790  14.697 -59.721  1.00  0.00    -0.002 C 
HETATM    7  C9  UNL     1      -0.600  14.997 -59.127  1.00  0.00     0.013 C 
HETATM    8  C10 UNL     1      -0.426  15.870 -58.176  1.00  0.00     0.022 C 
HETATM    9  C11 UNL     1      -1.698  16.281 -57.282  1.00  0.00     0.076 C 
HETATM   10  C16 UNL     1      -1.851  14.793 -57.070  1.00  0.00     0.093 C 
HETATM   11  C17 UNL     1      -1.634  13.713 -57.243  1.00  0.00    -0.181 C 
HETATM   12  C18 UNL     1      -1.146  12.486 -57.710  1.00  0.00     0.089 C 
HETATM   13  C19 UNL     1       0.196  12.443 -58.402  1.00  0.00    -0.027 C 
HETATM   14  C20 UNL     1       1.087  12.256 -57.080  1.00  0.00     0.017 C 
HETATM   15  C21 UNL     1       0.236  10.966 -58.927  1.00  0.00    -0.001 A 
HETATM   16  C22 UNL     1      -0.309  10.568 -60.201  1.00  0.00     0.011 A 
HETATM   17  C23 UNL     1       1.135  11.018 -60.071  1.00  0.00    -0.009 A 
HETATM   18  C24 UNL     1       1.301  12.452 -60.536  1.00  0.00     0.011 C 
HETATM   19  C25 UNL     1       0.961  13.223 -59.257  1.00  0.00    -0.000 C 
HETATM   20  C26 UNL     1       0.881  16.469 -58.214  1.00  0.00     0.098 C 
ENDROOT
BRANCH   9  21
HETATM   21  C12 UNL     1      -1.192  16.957 -56.103  1.00  0.00     0.122 C 
BRANCH  21  22
HETATM   22  O2  UNL     1      -2.087  17.684 -55.484  1.00  0.00    -0.349 OA
ATOM     23  H2  UNL     1      -2.974  17.549 -55.796  1.00  0.00     0.219 HD
ENDBRANCH  21  22
BRANCH  21  24
HETATM   24  N2  UNL     1       0.055  16.962 -55.536  1.00  0.00    -0.325 N 
HETATM   25  C13 UNL     1       0.387  17.234 -54.344  1.00  0.00     0.122 A 
HETATM   26  C14 UNL     1      -0.314  17.608 -53.220  1.00  0.00     0.068 A 
HETATM   27  N4  UNL     1       1.690  17.178 -53.919  1.00  0.00    -0.286 N 
HETATM   28  C15 UNL     1       0.540  17.763 -52.182  1.00  0.00     0.111 A 
HETATM   29  N3  UNL     1       1.767  17.492 -52.644  1.00  0.00    -0.310 N 
ATOM     30  H3  UNL     1       2.626  17.523 -52.094  1.00  0.00     0.186 HD
ATOM     31  H4  UNL     1       2.485  16.928 -54.507  1.00  0.00     0.188 HD
ATOM     32  H2  UNL     1       0.823  16.712 -56.159  1.00  0.00     0.169 HD
ENDBRANCH  21  24
ENDBRANCH   9  21
BRANCH   1  33
HETATM   33  C4  UNL     1       0.575  19.442 -60.837  1.00  0.00     0.129 C 
BRANCH  33  34
HETATM   34  C3  UNL     1       1.725  19.850 -61.035  1.00  0.00    -0.123 C 
BRANCH  34  35
HETATM   35  C2  UNL     1       2.999  20.303 -61.255  1.00  0.00     0.045 C 
HETATM   36  C1  UNL     1       3.992  20.143 -60.331  1.00  0.00     0.020 C 
ENDBRANCH  34  35
ENDBRANCH  33  34
ENDBRANCH   1  33
TORSDOF 6
ENDMDL
