MODEL 1
REMARK VINA RESULT: -7.022749100      0.000      0.000
REMARK  5 active torsions:
REMARK  status: ('A' for Active; 'I' for Inactive)
REMARK    1  A    between atoms: O1_1  and  C1_3 
REMARK    2  A    between atoms: C1_3  and  S1_8 
REMARK    3  A    between atoms: N1_4  and  O2_6 
REMARK    4  A    between atoms: S1_8  and  C2_9 
REMARK    5  A    between atoms: C2_9  and  C3_10 
ROOT
HETATM    1  S1  UNL     1       6.036   9.264  44.176  1.00  0.00    -0.056 SA
ENDROOT
BRANCH   1   2
HETATM    2  C1  UNL     1       7.263   8.265  45.001  1.00  0.00     0.204 C 
HETATM    3  N1  UNL     1       7.652   7.156  44.499  1.00  0.00    -0.241 N 
ATOM      4  H1  UNL     1       7.254   6.839  43.615  1.00  0.00     0.197 HD
BRANCH   2   5
HETATM    5  O1  UNL     1       7.800   8.691  46.195  1.00  0.00    -0.339 OA
ATOM      6  H1  UNL     1       8.692   9.017  46.214  1.00  0.00     0.220 HD
ENDBRANCH   2   5
BRANCH   3   7
HETATM    7  O2  UNL     1       8.596   6.383  45.130  1.00  0.00    -0.287 OA
ATOM      8  H2  UNL     1       9.519   6.464  44.918  1.00  0.00     0.244 HD
ENDBRANCH   3   7
ENDBRANCH   1   2
BRANCH   1   9
HETATM    9  C2  UNL     1       5.188  10.414  44.955  1.00  0.00     0.068 C 
BRANCH   9  10
HETATM   10  C3  UNL     1       4.526  11.504  44.259  1.00  0.00     0.009 A 
HETATM   11  C4  UNL     1       4.834  11.852  42.958  1.00  0.00     0.015 A 
HETATM   12  C5  UNL     1       4.192  12.887  42.329  1.00  0.00     0.001 A 
HETATM   13  C6  UNL     1       3.211  13.593  43.028  1.00  0.00     0.003 A 
HETATM   14  C7  UNL     1       2.903  13.244  44.326  1.00  0.00     0.043 A 
HETATM   15  C8  UNL     1       3.559  12.208  44.931  1.00  0.00     0.127 A 
HETATM   16  F1  UNL     1       3.230  11.885  46.225  1.00  0.00    -0.205 F 
ENDBRANCH   9  10
ENDBRANCH   1   9
TORSDOF 5
ENDMDL
MODEL 2
REMARK VINA RESULT: -6.969845843      1.652      2.109
REMARK  5 active torsions:
REMARK  status: ('A' for Active; 'I' for Inactive)
REMARK    1  A    between atoms: O1_1  and  C1_3 
REMARK    2  A    between atoms: C1_3  and  S1_8 
REMARK    3  A    between atoms: N1_4  and  O2_6 
REMARK    4  A    between atoms: S1_8  and  C2_9 
REMARK    5  A    between atoms: C2_9  and  C3_10 
ROOT
HETATM    1  S1  UNL     1       5.372   9.275  43.715  1.00  0.00    -0.056 SA
ENDROOT
BRANCH   1   2
HETATM    2  C1  UNL     1       6.520   8.553  44.874  1.00  0.00     0.204 C 
HETATM    3  N1  UNL     1       7.346   7.650  44.504  1.00  0.00    -0.241 N 
ATOM      4  H1  UNL     1       7.346   7.340  43.532  1.00  0.00     0.197 HD
BRANCH   2   5
HETATM    5  O1  UNL     1       6.520   8.970  46.186  1.00  0.00    -0.339 OA
ATOM      6  H1  UNL     1       5.729   8.881  46.704  1.00  0.00     0.220 HD
ENDBRANCH   2   5
BRANCH   3   7
HETATM    7  O2  UNL     1       8.231   7.090  45.392  1.00  0.00    -0.287 OA
ATOM      8  H2  UNL     1       9.120   6.879  45.132  1.00  0.00     0.244 HD
ENDBRANCH   3   7
ENDBRANCH   1   2
BRANCH   1   9
HETATM    9  C2  UNL     1       5.488  10.825  43.233  1.00  0.00     0.068 C 
BRANCH   9  10
HETATM   10  C3  UNL     1       4.501  11.831  43.588  1.00  0.00     0.009 A 
HETATM   11  C4  UNL     1       3.870  11.853  44.817  1.00  0.00     0.015 A 
HETATM   12  C5  UNL     1       2.943  12.815  45.122  1.00  0.00     0.001 A 
HETATM   13  C6  UNL     1       2.640  13.784  44.163  1.00  0.00     0.003 A 
HETATM   14  C7  UNL     1       3.270  13.762  42.937  1.00  0.00     0.043 A 
HETATM   15  C8  UNL     1       4.192  12.791  42.658  1.00  0.00     0.127 A 
HETATM   16  F1  UNL     1       4.803  12.796  41.427  1.00  0.00    -0.205 F 
ENDBRANCH   9  10
ENDBRANCH   1   9
TORSDOF 5
ENDMDL
MODEL 3
REMARK VINA RESULT: -6.932111267      1.046      1.301
REMARK  5 active torsions:
REMARK  status: ('A' for Active; 'I' for Inactive)
REMARK    1  A    between atoms: O1_1  and  C1_3 
REMARK    2  A    between atoms: C1_3  and  S1_8 
REMARK    3  A    between atoms: N1_4  and  O2_6 
REMARK    4  A    between atoms: S1_8  and  C2_9 
REMARK    5  A    between atoms: C2_9  and  C3_10 
ROOT
HETATM    1  S1  UNL     1       5.589   9.387  43.735  1.00  0.00    -0.056 SA
ENDROOT
BRANCH   1   2
HETATM    2  C1  UNL     1       6.666   8.542  44.880  1.00  0.00     0.204 C 
HETATM    3  N1  UNL     1       7.434   7.600  44.485  1.00  0.00    -0.241 N 
ATOM      4  H1  UNL     1       7.431   7.330  43.501  1.00  0.00     0.197 HD
BRANCH   2   5
HETATM    5  O1  UNL     1       6.672   8.905  46.208  1.00  0.00    -0.339 OA
ATOM      6  H1  UNL     1       6.959   9.777  46.451  1.00  0.00     0.220 HD
ENDBRANCH   2   5
BRANCH   3   7
HETATM    7  O2  UNL     1       8.265   6.946  45.362  1.00  0.00    -0.287 OA
ATOM      8  H2  UNL     1       9.204   7.087  45.346  1.00  0.00     0.244 HD
ENDBRANCH   3   7
ENDBRANCH   1   2
BRANCH   1   9
HETATM    9  C2  UNL     1       4.883  10.808  44.098  1.00  0.00     0.068 C 
BRANCH   9  10
HETATM   10  C3  UNL     1       4.465  11.755  43.080  1.00  0.00     0.009 A 
HETATM   11  C4  UNL     1       4.842  11.640  41.756  1.00  0.00     0.015 A 
HETATM   12  C5  UNL     1       4.430  12.552  40.819  1.00  0.00     0.001 A 
HETATM   13  C6  UNL     1       3.617  13.612  41.224  1.00  0.00     0.003 A 
HETATM   14  C7  UNL     1       3.240  13.727  42.545  1.00  0.00     0.043 A 
HETATM   15  C8  UNL     1       3.664  12.803  43.461  1.00  0.00     0.127 A 
HETATM   16  F1  UNL     1       3.272  12.945  44.770  1.00  0.00    -0.205 F 
ENDBRANCH   9  10
ENDBRANCH   1   9
TORSDOF 5
ENDMDL
MODEL 4
REMARK VINA RESULT: -6.901458069      1.100      1.179
REMARK  5 active torsions:
REMARK  status: ('A' for Active; 'I' for Inactive)
REMARK    1  A    between atoms: O1_1  and  C1_3 
REMARK    2  A    between atoms: C1_3  and  S1_8 
REMARK    3  A    between atoms: N1_4  and  O2_6 
REMARK    4  A    between atoms: S1_8  and  C2_9 
REMARK    5  A    between atoms: C2_9  and  C3_10 
ROOT
HETATM    1  S1  UNL     1       5.575   9.650  43.683  1.00  0.00    -0.056 SA
ENDROOT
BRANCH   1   2
HETATM    2  C1  UNL     1       6.960   8.647  44.192  1.00  0.00     0.204 C 
HETATM    3  N1  UNL     1       7.134   8.345  45.422  1.00  0.00    -0.241 N 
ATOM      4  H1  UNL     1       6.471   8.684  46.119  1.00  0.00     0.197 HD
BRANCH   2   5
HETATM    5  O1  UNL     1       7.855   8.190  43.252  1.00  0.00    -0.339 OA
ATOM      6  H1  UNL     1       8.263   8.808  42.657  1.00  0.00     0.220 HD
ENDBRANCH   2   5
BRANCH   3   7
HETATM    7  O2  UNL     1       8.198   7.574  45.820  1.00  0.00    -0.287 OA
ATOM      8  H2  UNL     1       9.023   7.969  46.077  1.00  0.00     0.244 HD
ENDBRANCH   3   7
ENDBRANCH   1   2
BRANCH   1   9
HETATM    9  C2  UNL     1       4.857  10.711  44.686  1.00  0.00     0.068 C 
BRANCH   9  10
HETATM   10  C3  UNL     1       4.146  11.883  44.206  1.00  0.00     0.009 A 
HETATM   11  C4  UNL     1       4.332  12.400  42.939  1.00  0.00     0.015 A 
HETATM   12  C5  UNL     1       3.645  13.509  42.516  1.00  0.00     0.001 A 
HETATM   13  C6  UNL     1       2.745  14.116  43.393  1.00  0.00     0.003 A 
HETATM   14  C7  UNL     1       2.559  13.600  44.658  1.00  0.00     0.043 A 
HETATM   15  C8  UNL     1       3.257  12.493  45.055  1.00  0.00     0.127 A 
HETATM   16  F1  UNL     1       3.050  12.003  46.322  1.00  0.00    -0.205 F 
ENDBRANCH   9  10
ENDBRANCH   1   9
TORSDOF 5
ENDMDL
MODEL 5
REMARK VINA RESULT: -6.822390003      1.823      2.262
REMARK  5 active torsions:
REMARK  status: ('A' for Active; 'I' for Inactive)
REMARK    1  A    between atoms: O1_1  and  C1_3 
REMARK    2  A    between atoms: C1_3  and  S1_8 
REMARK    3  A    between atoms: N1_4  and  O2_6 
REMARK    4  A    between atoms: S1_8  and  C2_9 
REMARK    5  A    between atoms: C2_9  and  C3_10 
ROOT
HETATM    1  S1  UNL     1       5.812   9.791  44.651  1.00  0.00    -0.056 SA
ENDROOT
BRANCH   1   2
HETATM    2  C1  UNL     1       7.097   8.564  44.487  1.00  0.00     0.204 C 
HETATM    3  N1  UNL     1       7.503   7.899  45.500  1.00  0.00    -0.241 N 
ATOM      4  H1  UNL     1       7.085   8.074  46.414  1.00  0.00     0.197 HD
BRANCH   2   5
HETATM    5  O1  UNL     1       7.662   8.326  43.254  1.00  0.00    -0.339 OA
ATOM      6  H1  UNL     1       7.352   7.595  42.732  1.00  0.00     0.220 HD
ENDBRANCH   2   5
BRANCH   3   7
HETATM    7  O2  UNL     1       8.492   6.953  45.380  1.00  0.00    -0.287 OA
ATOM      8  H2  UNL     1       8.354   6.059  45.670  1.00  0.00     0.244 HD
ENDBRANCH   3   7
ENDBRANCH   1   2
BRANCH   1   9
HETATM    9  C2  UNL     1       5.132  10.512  43.360  1.00  0.00     0.068 C 
BRANCH   9  10
HETATM   10  C3  UNL     1       4.327  11.715  43.470  1.00  0.00     0.009 A 
HETATM   11  C4  UNL     1       3.664  12.064  44.631  1.00  0.00     0.015 A 
HETATM   12  C5  UNL     1       2.911  13.207  44.703  1.00  0.00     0.001 A 
HETATM   13  C6  UNL     1       2.821  14.024  43.575  1.00  0.00     0.003 A 
HETATM   14  C7  UNL     1       3.483  13.677  42.417  1.00  0.00     0.043 A 
HETATM   15  C8  UNL     1       4.228  12.531  42.371  1.00  0.00     0.127 A 
HETATM   16  F1  UNL     1       4.875  12.212  41.202  1.00  0.00    -0.205 F 
ENDBRANCH   9  10
ENDBRANCH   1   9
TORSDOF 5
ENDMDL
