MODEL 1
REMARK VINA RESULT: -8.008319754      0.000      0.000
REMARK  10 active torsions:
REMARK  status: ('A' for Active; 'I' for Inactive)
REMARK    1  A    between atoms: O1_2  and  C2_3 
REMARK    2  A    between atoms: C4_5  and  C5_6 
REMARK    3  A    between atoms: C6_7  and  C7_8 
REMARK    4  A    between atoms: C9_11  and  O3_12 
REMARK    5  A    between atoms: C10_14  and  O4_15 
REMARK    6  A    between atoms: N1_17  and  C11_18 
REMARK    7  A    between atoms: C11_18  and  C12_19 
REMARK    8  A    between atoms: C12_19  and  C13_20 
REMARK    9  A    between atoms: C20_28  and  O5_29 
REMARK   10  A    between atoms: C22_31  and  O6_32 
ROOT
HETATM    1  C5  UNL     1      12.902  42.741  56.608  1.00  0.00     0.065 A 
HETATM    2  C6  UNL     1      12.872  44.149  56.494  1.00  0.00     0.075 A 
HETATM    3  C9  UNL     1      13.403  44.616  57.677  1.00  0.00     0.133 A 
HETATM    4  C10 UNL     1      13.753  43.528  58.504  1.00  0.00     0.178 A 
HETATM    5  N1  UNL     1      13.430  42.429  57.806  1.00  0.00    -0.324 N 
ENDROOT
BRANCH   1   6
HETATM    6  C4  UNL     1      12.520  41.847  55.532  1.00  0.00     0.019 A 
HETATM    7  C3  UNL     1      13.458  41.435  54.579  1.00  0.00     0.055 A 
HETATM    8  C2  UNL     1      13.142  40.640  53.505  1.00  0.00     0.105 A 
HETATM    9  C22 UNL     1      11.830  40.231  53.367  1.00  0.00     0.136 A 
HETATM   10  C20 UNL     1      10.858  40.616  54.289  1.00  0.00     0.127 A 
HETATM   11  C19 UNL     1      11.235  41.423  55.355  1.00  0.00     0.083 A 
HETATM   12 CL1  UNL     1       9.956  41.959  56.410  1.00  0.00    -0.080 Cl
BRANCH   8  13
HETATM   13  O1  UNL     1      14.051  40.219  52.551  1.00  0.00    -0.353 OA
HETATM   14  C1  UNL     1      14.367  40.952  51.393  1.00  0.00     0.210 C 
ENDBRANCH   8  13
BRANCH   9  15
HETATM   15  O6  UNL     1      11.473  39.435  52.310  1.00  0.00    -0.351 OA
HETATM   16  C23 UNL     1      11.592  38.023  52.398  1.00  0.00     0.210 C 
ENDBRANCH   9  15
BRANCH  10  17
HETATM   17  O5  UNL     1       9.541  40.223  54.175  1.00  0.00    -0.351 OA
HETATM   18  C21 UNL     1       9.002  39.077  54.773  1.00  0.00     0.210 C 
ENDBRANCH  10  17
ENDBRANCH   1   6
BRANCH   2  19
HETATM   19  C7  UNL     1      12.359  44.900  55.367  1.00  0.00     0.160 C 
HETATM   20  C8  UNL     1      13.249  45.460  54.329  1.00  0.00     0.097 C 
HETATM   21  O2  UNL     1      11.123  45.131  55.190  1.00  0.00    -0.293 OA
ENDBRANCH   2  19
BRANCH   5  22
HETATM   22  C11 UNL     1      13.722  41.083  58.266  1.00  0.00     0.132 C 
BRANCH  22  23
HETATM   23  C12 UNL     1      12.861  40.791  59.500  1.00  0.00     0.025 C 
BRANCH  23  24
HETATM   24  C13 UNL     1      11.418  40.655  59.136  1.00  0.00    -0.013 C 
HETATM   25  C14 UNL     1      10.603  41.318  60.225  1.00  0.00     0.005 C 
HETATM   26  C15 UNL     1       9.121  41.300  59.888  1.00  0.00     0.000 C 
HETATM   27  C16 UNL     1       8.684  39.862  59.845  1.00  0.00     0.000 C 
HETATM   28  C17 UNL     1       9.829  38.890  59.953  1.00  0.00     0.000 C 
HETATM   29  C18 UNL     1      10.959  39.231  59.010  1.00  0.00     0.005 C 
ENDBRANCH  23  24
ENDBRANCH  22  23
ENDBRANCH   5  22
BRANCH   3  30
HETATM   30  O3  UNL     1      13.618  45.894  58.120  1.00  0.00    -0.356 OA
ATOM     31  H3  UNL     1      13.239  46.372  58.848  1.00  0.00     0.218 HD
ENDBRANCH   3  30
BRANCH   4  32
HETATM   32  O4  UNL     1      14.309  43.586  59.763  1.00  0.00    -0.344 OA
ATOM     33  H4  UNL     1      14.274  42.918  60.437  1.00  0.00     0.219 HD
ENDBRANCH   4  32
TORSDOF 10
ENDMDL
MODEL 2
REMARK VINA RESULT: -7.926578134      2.634      4.674
REMARK  10 active torsions:
REMARK  status: ('A' for Active; 'I' for Inactive)
REMARK    1  A    between atoms: O1_2  and  C2_3 
REMARK    2  A    between atoms: C4_5  and  C5_6 
REMARK    3  A    between atoms: C6_7  and  C7_8 
REMARK    4  A    between atoms: C9_11  and  O3_12 
REMARK    5  A    between atoms: C10_14  and  O4_15 
REMARK    6  A    between atoms: N1_17  and  C11_18 
REMARK    7  A    between atoms: C11_18  and  C12_19 
REMARK    8  A    between atoms: C12_19  and  C13_20 
REMARK    9  A    between atoms: C20_28  and  O5_29 
REMARK   10  A    between atoms: C22_31  and  O6_32 
ROOT
HETATM    1  C5  UNL     1      10.581  41.240  59.034  1.00  0.00     0.065 A 
HETATM    2  C6  UNL     1      11.781  41.514  59.727  1.00  0.00     0.075 A 
HETATM    3  C9  UNL     1      11.543  41.120  61.027  1.00  0.00     0.133 A 
HETATM    4  C10 UNL     1      10.230  40.615  61.138  1.00  0.00     0.178 A 
HETATM    5  N1  UNL     1       9.704  40.712  59.908  1.00  0.00    -0.324 N 
ENDROOT
BRANCH   1   6
HETATM    6  C4  UNL     1      10.431  41.416  57.602  1.00  0.00     0.019 A 
HETATM    7  C3  UNL     1      10.022  42.645  57.073  1.00  0.00     0.055 A 
HETATM    8  C2  UNL     1       9.804  42.853  55.733  1.00  0.00     0.105 A 
HETATM    9  C22 UNL     1      10.000  41.791  54.873  1.00  0.00     0.136 A 
HETATM   10  C20 UNL     1      10.406  40.546  55.352  1.00  0.00     0.127 A 
HETATM   11  C19 UNL     1      10.609  40.393  56.717  1.00  0.00     0.083 A 
HETATM   12 CL1  UNL     1      11.009  38.787  57.264  1.00  0.00    -0.080 Cl
BRANCH   8  13
HETATM   13  O1  UNL     1       9.401  44.058  55.187  1.00  0.00    -0.353 OA
HETATM   14  C1  UNL     1       9.645  45.310  55.782  1.00  0.00     0.210 C 
ENDBRANCH   8  13
BRANCH   9  15
HETATM   15  O6  UNL     1       9.796  41.958  53.529  1.00  0.00    -0.351 OA
HETATM   16  C23 UNL     1      10.881  42.263  52.666  1.00  0.00     0.210 C 
ENDBRANCH   9  15
BRANCH  10  17
HETATM   17  O5  UNL     1      10.610  39.469  54.516  1.00  0.00    -0.351 OA
HETATM   18  C21 UNL     1       9.587  38.663  53.999  1.00  0.00     0.210 C 
ENDBRANCH  10  17
ENDBRANCH   1   6
BRANCH   2  19
HETATM   19  C7  UNL     1      12.974  42.107  59.160  1.00  0.00     0.160 C 
HETATM   20  C8  UNL     1      13.985  41.302  58.445  1.00  0.00     0.097 C 
HETATM   21  O2  UNL     1      13.238  43.347  59.235  1.00  0.00    -0.293 OA
ENDBRANCH   2  19
BRANCH   5  22
HETATM   22  C11 UNL     1       8.387  40.205  59.567  1.00  0.00     0.132 C 
BRANCH  22  23
HETATM   23  C12 UNL     1       8.194  38.847  60.252  1.00  0.00     0.025 C 
BRANCH  23  24
HETATM   24  C13 UNL     1       7.909  37.771  59.255  1.00  0.00    -0.013 C 
HETATM   25  C14 UNL     1       7.744  38.428  57.901  1.00  0.00     0.005 C 
HETATM   26  C15 UNL     1       7.536  37.391  56.811  1.00  0.00     0.000 C 
HETATM   27  C16 UNL     1       6.242  36.681  57.101  1.00  0.00     0.000 C 
HETATM   28  C17 UNL     1       5.647  37.054  58.433  1.00  0.00     0.000 C 
HETATM   29  C18 UNL     1       6.662  36.990  59.550  1.00  0.00     0.005 C 
ENDBRANCH  23  24
ENDBRANCH  22  23
ENDBRANCH   5  22
BRANCH   3  30
HETATM   30  O3  UNL     1      12.348  41.151  62.135  1.00  0.00    -0.356 OA
ATOM     31  H3  UNL     1      12.693  41.883  62.632  1.00  0.00     0.218 HD
ENDBRANCH   3  30
BRANCH   4  32
HETATM   32  O4  UNL     1       9.621  40.128  62.273  1.00  0.00    -0.344 OA
ATOM     33  H4  UNL     1       8.765  39.721  62.335  1.00  0.00     0.219 HD
ENDBRANCH   4  32
TORSDOF 10
ENDMDL
MODEL 3
REMARK VINA RESULT: -7.907975649      1.188      2.523
REMARK  10 active torsions:
REMARK  status: ('A' for Active; 'I' for Inactive)
REMARK    1  A    between atoms: O1_2  and  C2_3 
REMARK    2  A    between atoms: C4_5  and  C5_6 
REMARK    3  A    between atoms: C6_7  and  C7_8 
REMARK    4  A    between atoms: C9_11  and  O3_12 
REMARK    5  A    between atoms: C10_14  and  O4_15 
REMARK    6  A    between atoms: N1_17  and  C11_18 
REMARK    7  A    between atoms: C11_18  and  C12_19 
REMARK    8  A    between atoms: C12_19  and  C13_20 
REMARK    9  A    between atoms: C20_28  and  O5_29 
REMARK   10  A    between atoms: C22_31  and  O6_32 
ROOT
HETATM    1  C5  UNL     1      13.148  42.731  56.559  1.00  0.00     0.065 A 
HETATM    2  C6  UNL     1      12.983  44.130  56.457  1.00  0.00     0.075 A 
HETATM    3  C9  UNL     1      13.417  44.631  57.665  1.00  0.00     0.133 A 
HETATM    4  C10 UNL     1      13.841  43.572  58.495  1.00  0.00     0.178 A 
HETATM    5  N1  UNL     1      13.657  42.456  57.774  1.00  0.00    -0.324 N 
ENDROOT
BRANCH   1   6
HETATM    6  C4  UNL     1      12.899  41.818  55.459  1.00  0.00     0.019 A 
HETATM    7  C3  UNL     1      11.790  40.965  55.476  1.00  0.00     0.055 A 
HETATM    8  C2  UNL     1      11.537  40.038  54.494  1.00  0.00     0.105 A 
HETATM    9  C22 UNL     1      12.428  39.952  53.442  1.00  0.00     0.136 A 
HETATM   10  C20 UNL     1      13.548  40.779  53.380  1.00  0.00     0.127 A 
HETATM   11  C19 UNL     1      13.754  41.696  54.403  1.00  0.00     0.083 A 
HETATM   12 CL1  UNL     1      15.228  42.624  54.324  1.00  0.00    -0.080 Cl
BRANCH   8  13
HETATM   13  O1  UNL     1      10.449  39.185  54.489  1.00  0.00    -0.353 OA
HETATM   14  C1  UNL     1       9.753  38.795  55.647  1.00  0.00     0.210 C 
ENDBRANCH   8  13
BRANCH   9  15
HETATM   15  O6  UNL     1      12.210  39.042  52.441  1.00  0.00    -0.351 OA
HETATM   16  C23 UNL     1      12.834  37.768  52.475  1.00  0.00     0.210 C 
ENDBRANCH   9  15
BRANCH  10  17
HETATM   17  O5  UNL     1      14.453  40.714  52.341  1.00  0.00    -0.351 OA
HETATM   18  C21 UNL     1      14.308  41.385  51.121  1.00  0.00     0.210 C 
ENDBRANCH  10  17
ENDBRANCH   1   6
BRANCH   2  19
HETATM   19  C7  UNL     1      12.443  44.842  55.317  1.00  0.00     0.160 C 
HETATM   20  C8  UNL     1      13.301  45.627  54.406  1.00  0.00     0.097 C 
HETATM   21  O2  UNL     1      11.208  44.847  55.021  1.00  0.00    -0.293 OA
ENDBRANCH   2  19
BRANCH   5  22
HETATM   22  C11 UNL     1      14.062  41.139  58.233  1.00  0.00     0.132 C 
BRANCH  22  23
HETATM   23  C12 UNL     1      13.108  40.694  59.346  1.00  0.00     0.025 C 
BRANCH  23  24
HETATM   24  C13 UNL     1      11.724  40.483  58.824  1.00  0.00    -0.013 C 
HETATM   25  C14 UNL     1      10.789  41.364  59.625  1.00  0.00     0.005 C 
HETATM   26  C15 UNL     1       9.367  41.273  59.099  1.00  0.00     0.000 C 
HETATM   27  C16 UNL     1       8.898  39.858  59.302  1.00  0.00     0.000 C 
HETATM   28  C17 UNL     1       9.990  38.933  59.770  1.00  0.00     0.000 C 
HETATM   29  C18 UNL     1      11.245  39.065  58.941  1.00  0.00     0.005 C 
ENDBRANCH  23  24
ENDBRANCH  22  23
ENDBRANCH   5  22
BRANCH   3  30
HETATM   30  O3  UNL     1      13.487  45.918  58.129  1.00  0.00    -0.356 OA
ATOM     31  H3  UNL     1      14.208  46.536  58.142  1.00  0.00     0.218 HD
ENDBRANCH   3  30
BRANCH   4  32
HETATM   32  O4  UNL     1      14.338  43.668  59.777  1.00  0.00    -0.344 OA
ATOM     33  H4  UNL     1      14.276  44.414  60.361  1.00  0.00     0.219 HD
ENDBRANCH   4  32
TORSDOF 10
ENDMDL
MODEL 4
REMARK VINA RESULT: -7.892719933      2.213      3.326
REMARK  10 active torsions:
REMARK  status: ('A' for Active; 'I' for Inactive)
REMARK    1  A    between atoms: O1_2  and  C2_3 
REMARK    2  A    between atoms: C4_5  and  C5_6 
REMARK    3  A    between atoms: C6_7  and  C7_8 
REMARK    4  A    between atoms: C9_11  and  O3_12 
REMARK    5  A    between atoms: C10_14  and  O4_15 
REMARK    6  A    between atoms: N1_17  and  C11_18 
REMARK    7  A    between atoms: C11_18  and  C12_19 
REMARK    8  A    between atoms: C12_19  and  C13_20 
REMARK    9  A    between atoms: C20_28  and  O5_29 
REMARK   10  A    between atoms: C22_31  and  O6_32 
ROOT
HETATM    1  C5  UNL     1      12.474  42.998  56.302  1.00  0.00     0.065 A 
HETATM    2  C6  UNL     1      13.659  43.701  55.991  1.00  0.00     0.075 A 
HETATM    3  C9  UNL     1      14.480  43.521  57.083  1.00  0.00     0.133 A 
HETATM    4  C10 UNL     1      13.823  42.726  58.047  1.00  0.00     0.178 A 
HETATM    5  N1  UNL     1      12.623  42.442  57.518  1.00  0.00    -0.324 N 
ENDROOT
BRANCH   1   6
HETATM    6  C4  UNL     1      11.371  42.847  55.372  1.00  0.00     0.019 A 
HETATM    7  C3  UNL     1      10.323  43.775  55.351  1.00  0.00     0.055 A 
HETATM    8  C2  UNL     1       9.225  43.652  54.536  1.00  0.00     0.105 A 
HETATM    9  C22 UNL     1       9.159  42.554  53.700  1.00  0.00     0.136 A 
HETATM   10  C20 UNL     1      10.177  41.602  53.686  1.00  0.00     0.127 A 
HETATM   11  C19 UNL     1      11.263  41.777  54.533  1.00  0.00     0.083 A 
HETATM   12 CL1  UNL     1      12.447  40.498  54.547  1.00  0.00    -0.080 Cl
BRANCH   8  13
HETATM   13  O1  UNL     1       8.178  44.555  54.496  1.00  0.00    -0.353 OA
HETATM   14  C1  UNL     1       7.950  45.534  55.481  1.00  0.00     0.210 C 
ENDBRANCH   8  13
BRANCH   9  15
HETATM   15  O6  UNL     1       8.081  42.396  52.870  1.00  0.00    -0.351 OA
HETATM   16  C23 UNL     1       8.226  42.523  51.464  1.00  0.00     0.210 C 
ENDBRANCH   9  15
BRANCH  10  17
HETATM   17  O5  UNL     1      10.137  40.497  52.862  1.00  0.00    -0.351 OA
HETATM   18  C21 UNL     1       9.446  39.315  53.155  1.00  0.00     0.210 C 
ENDBRANCH  10  17
ENDBRANCH   1   6
BRANCH   2  19
HETATM   19  C7  UNL     1      13.906  44.460  54.782  1.00  0.00     0.160 C 
HETATM   20  C8  UNL     1      13.497  45.872  54.646  1.00  0.00     0.097 C 
HETATM   21  O2  UNL     1      14.483  43.972  53.762  1.00  0.00    -0.293 OA
ENDBRANCH   2  19
BRANCH   5  22
HETATM   22  C11 UNL     1      11.666  41.557  58.156  1.00  0.00     0.132 C 
BRANCH  22  23
HETATM   23  C12 UNL     1      12.202  40.123  58.083  1.00  0.00     0.025 C 
BRANCH  23  24
HETATM   24  C13 UNL     1      11.099  39.123  58.204  1.00  0.00    -0.013 C 
HETATM   25  C14 UNL     1      10.020  39.504  57.213  1.00  0.00     0.005 C 
HETATM   26  C15 UNL     1       8.894  38.484  57.210  1.00  0.00     0.000 C 
HETATM   27  C16 UNL     1       8.252  38.514  58.570  1.00  0.00     0.000 C 
HETATM   28  C17 UNL     1       8.999  39.369  59.560  1.00  0.00     0.000 C 
HETATM   29  C18 UNL     1      10.479  39.070  59.571  1.00  0.00     0.005 C 
ENDBRANCH  23  24
ENDBRANCH  22  23
ENDBRANCH   5  22
BRANCH   3  30
HETATM   30  O3  UNL     1      15.748  43.973  57.337  1.00  0.00    -0.356 OA
ATOM     31  H3  UNL     1      16.270  43.949  58.130  1.00  0.00     0.218 HD
ENDBRANCH   3  30
BRANCH   4  32
HETATM   32  O4  UNL     1      14.314  42.329  59.271  1.00  0.00    -0.344 OA
ATOM     33  H4  UNL     1      14.400  41.439  59.593  1.00  0.00     0.219 HD
ENDBRANCH   4  32
TORSDOF 10
ENDMDL
MODEL 5
REMARK VINA RESULT: -7.868297035      1.734      2.444
REMARK  10 active torsions:
REMARK  status: ('A' for Active; 'I' for Inactive)
REMARK    1  A    between atoms: O1_2  and  C2_3 
REMARK    2  A    between atoms: C4_5  and  C5_6 
REMARK    3  A    between atoms: C6_7  and  C7_8 
REMARK    4  A    between atoms: C9_11  and  O3_12 
REMARK    5  A    between atoms: C10_14  and  O4_15 
REMARK    6  A    between atoms: N1_17  and  C11_18 
REMARK    7  A    between atoms: C11_18  and  C12_19 
REMARK    8  A    between atoms: C12_19  and  C13_20 
REMARK    9  A    between atoms: C20_28  and  O5_29 
REMARK   10  A    between atoms: C22_31  and  O6_32 
ROOT
HETATM    1  C5  UNL     1      12.633  42.150  57.461  1.00  0.00     0.065 A 
HETATM    2  C6  UNL     1      13.266  43.288  58.010  1.00  0.00     0.075 A 
HETATM    3  C9  UNL     1      13.507  42.963  59.328  1.00  0.00     0.133 A 
HETATM    4  C10 UNL     1      13.037  41.660  59.591  1.00  0.00     0.178 A 
HETATM    5  N1  UNL     1      12.524  41.223  58.430  1.00  0.00    -0.324 N 
ENDROOT
BRANCH   1   6
HETATM    6  C4  UNL     1      12.291  42.030  56.057  1.00  0.00     0.019 A 
HETATM    7  C3  UNL     1      13.176  41.426  55.156  1.00  0.00     0.055 A 
HETATM    8  C2  UNL     1      12.934  41.338  53.807  1.00  0.00     0.105 A 
HETATM    9  C22 UNL     1      11.756  41.874  53.324  1.00  0.00     0.136 A 
HETATM   10  C20 UNL     1      10.843  42.487  54.182  1.00  0.00     0.127 A 
HETATM   11  C19 UNL     1      11.142  42.549  55.537  1.00  0.00     0.083 A 
HETATM   12 CL1  UNL     1      10.014  43.423  56.538  1.00  0.00    -0.080 Cl
BRANCH   8  13
HETATM   13  O1  UNL     1      13.792  40.746  52.898  1.00  0.00    -0.353 OA
HETATM   14  C1  UNL     1      13.637  39.434  52.413  1.00  0.00     0.210 C 
ENDBRANCH   8  13
BRANCH   9  15
HETATM   15  O6  UNL     1      11.476  41.805  51.985  1.00  0.00    -0.351 OA
HETATM   16  C23 UNL     1      11.879  42.845  51.108  1.00  0.00     0.210 C 
ENDBRANCH   9  15
BRANCH  10  17
HETATM   17  O5  UNL     1       9.660  43.031  53.727  1.00  0.00    -0.351 OA
HETATM   18  C21 UNL     1       8.590  42.286  53.217  1.00  0.00     0.210 C 
ENDBRANCH  10  17
ENDBRANCH   1   6
BRANCH   2  19
HETATM   19  C7  UNL     1      13.557  44.521  57.308  1.00  0.00     0.160 C 
HETATM   20  C8  UNL     1      14.094  44.531  55.933  1.00  0.00     0.097 C 
HETATM   21  O2  UNL     1      13.376  45.670  57.817  1.00  0.00    -0.293 OA
ENDBRANCH   2  19
BRANCH   5  22
HETATM   22  C11 UNL     1      12.017  39.875  58.245  1.00  0.00     0.132 C 
BRANCH  22  23
HETATM   23  C12 UNL     1      10.490  39.938  58.130  1.00  0.00     0.025 C 
BRANCH  23  24
HETATM   24  C13 UNL     1       9.843  38.790  58.834  1.00  0.00    -0.013 C 
HETATM   25  C14 UNL     1       8.354  38.866  58.570  1.00  0.00     0.005 C 
HETATM   26  C15 UNL     1       7.629  37.679  59.182  1.00  0.00     0.000 C 
HETATM   27  C16 UNL     1       7.802  37.762  60.673  1.00  0.00     0.000 C 
HETATM   28  C17 UNL     1       8.763  38.841  61.100  1.00  0.00     0.000 C 
HETATM   29  C18 UNL     1      10.055  38.796  60.320  1.00  0.00     0.005 C 
ENDBRANCH  23  24
ENDBRANCH  22  23
ENDBRANCH   5  22
BRANCH   3  30
HETATM   30  O3  UNL     1      14.096  43.681  60.335  1.00  0.00    -0.356 OA
ATOM     31  H3  UNL     1      14.080  43.560  61.276  1.00  0.00     0.218 HD
ENDBRANCH   3  30
BRANCH   4  32
HETATM   32  O4  UNL     1      13.092  40.982  60.789  1.00  0.00    -0.344 OA
ATOM     33  H4  UNL     1      13.646  40.240  61.003  1.00  0.00     0.219 HD
ENDBRANCH   4  32
TORSDOF 10
ENDMDL
