MODEL 1
REMARK VINA RESULT: -7.489527880      0.000      0.000
REMARK  8 active torsions:
REMARK  status: ('A' for Active; 'I' for Inactive)
REMARK    1  A    between atoms: C2_2  and  O1_3 
REMARK    2  A    between atoms: O1_3  and  C3_4 
REMARK    3  A    between atoms: C3_4  and  C4_6 
REMARK    4  A    between atoms: N3_11  and  C5_12 
REMARK    5  A    between atoms: C5_12  and  C6_13 
REMARK    6  A    between atoms: C6_13  and  O3_14 
REMARK    7  A    between atoms: C8_16  and  S1_17 
REMARK    8  A    between atoms: S1_17  and  C9_18 
ROOT
HETATM    1  C4  UNL     1     -54.045   1.611 -17.907  1.00  0.00     0.160 A 
HETATM    2  N1  UNL     1     -54.949   2.513 -18.321  1.00  0.00    -0.278 N 
ATOM      3  H1  UNL     1     -55.565   3.060 -17.719  1.00  0.00     0.189 HD
HETATM    4  N2  UNL     1     -54.906   2.573 -19.664  1.00  0.00    -0.239 N 
ATOM      5  H2  UNL     1     -55.490   3.177 -20.243  1.00  0.00     0.208 HD
HETATM    6  N3  UNL     1     -54.005   1.740 -20.119  1.00  0.00    -0.267 N 
HETATM    7  C8  UNL     1     -53.456   1.132 -19.057  1.00  0.00     0.130 A 
ENDROOT
BRANCH   7   8
HETATM    8  S1  UNL     1     -52.172  -0.101 -19.113  1.00  0.00    -0.042 SA
BRANCH   8   9
HETATM    9  C9  UNL     1     -52.432  -1.200 -20.493  1.00  0.00     0.135 A 
HETATM   10  N4  UNL     1     -53.396  -1.975 -20.758  1.00  0.00    -0.287 N 
HETATM   11  N5  UNL     1     -53.385  -2.729 -21.876  1.00  0.00    -0.292 N 
ATOM     12  H4  UNL     1     -54.190  -2.030 -20.120  1.00  0.00     0.188 HD
HETATM   13  C10 UNL     1     -52.261  -2.610 -22.717  1.00  0.00     0.093 A 
ATOM     14  H5  UNL     1     -54.156  -3.358 -22.102  1.00  0.00     0.187 HD
HETATM   15  C11 UNL     1     -52.048  -3.244 -23.839  1.00  0.00    -0.045 C 
HETATM   16  S2  UNL     1     -51.272  -1.401 -21.840  1.00  0.00    -0.044 SA
HETATM   17  C12 UNL     1     -53.145  -4.153 -24.178  1.00  0.00     0.037 C 
HETATM   18  C18 UNL     1     -50.724  -2.819 -24.415  1.00  0.00     0.037 C 
HETATM   19  C13 UNL     1     -52.937  -4.879 -25.487  1.00  0.00     0.004 C 
HETATM   20  C14 UNL     1     -53.156  -3.995 -26.677  1.00  0.00     0.000 C 
HETATM   21  C15 UNL     1     -51.904  -3.929 -27.498  1.00  0.00     0.000 C 
HETATM   22  C16 UNL     1     -50.685  -3.521 -26.747  1.00  0.00     0.000 C 
HETATM   23  C17 UNL     1     -50.871  -2.353 -25.833  1.00  0.00     0.004 C 
ENDBRANCH   8   9
ENDBRANCH   7   8
BRANCH   1  24
HETATM   24  C3  UNL     1     -53.718   1.195 -16.554  1.00  0.00     0.314 C 
HETATM   25  O2  UNL     1     -52.630   1.563 -16.021  1.00  0.00    -0.257 OA
BRANCH  24  26
HETATM   26  O1  UNL     1     -54.549   0.398 -15.799  1.00  0.00    -0.317 OA
BRANCH  26  27
HETATM   27  C2  UNL     1     -54.085  -0.386 -14.699  1.00  0.00     0.175 C 
HETATM   28  C1  UNL     1     -53.734  -1.752 -15.215  1.00  0.00     0.034 C 
ENDBRANCH  26  27
ENDBRANCH  24  26
ENDBRANCH   1  24
BRANCH   6  29
HETATM   29  C5  UNL     1     -53.656   1.511 -21.518  1.00  0.00     0.177 C 
BRANCH  29  30
HETATM   30  C6  UNL     1     -54.839   0.922 -22.248  1.00  0.00     0.189 C 
BRANCH  30  31
HETATM   31  O3  UNL     1     -54.547  -0.073 -23.130  1.00  0.00    -0.394 OA
HETATM   32  C7  UNL     1     -53.761   0.360 -24.181  1.00  0.00     0.201 C 
ENDBRANCH  30  31
ENDBRANCH  29  30
ENDBRANCH   6  29
TORSDOF 8
ENDMDL
MODEL 2
REMARK VINA RESULT: -7.464981391      1.408      4.724
REMARK  8 active torsions:
REMARK  status: ('A' for Active; 'I' for Inactive)
REMARK    1  A    between atoms: C2_2  and  O1_3 
REMARK    2  A    between atoms: O1_3  and  C3_4 
REMARK    3  A    between atoms: C3_4  and  C4_6 
REMARK    4  A    between atoms: N3_11  and  C5_12 
REMARK    5  A    between atoms: C5_12  and  C6_13 
REMARK    6  A    between atoms: C6_13  and  O3_14 
REMARK    7  A    between atoms: C8_16  and  S1_17 
REMARK    8  A    between atoms: S1_17  and  C9_18 
ROOT
HETATM    1  C4  UNL     1     -53.985   1.396 -21.181  1.00  0.00     0.160 A 
HETATM    2  N1  UNL     1     -54.904   1.966 -20.387  1.00  0.00    -0.278 N 
ATOM      3  H1  UNL     1     -55.693   2.533 -20.699  1.00  0.00     0.189 HD
HETATM    4  N2  UNL     1     -54.610   1.665 -19.110  1.00  0.00    -0.239 N 
ATOM      5  H2  UNL     1     -55.144   1.971 -18.297  1.00  0.00     0.208 HD
HETATM    6  N3  UNL     1     -53.534   0.920 -19.065  1.00  0.00    -0.267 N 
HETATM    7  C8  UNL     1     -53.125   0.737 -20.329  1.00  0.00     0.130 A 
ENDROOT
BRANCH   7   8
HETATM    8  S1  UNL     1     -51.700  -0.203 -20.835  1.00  0.00    -0.042 SA
BRANCH   8   9
HETATM    9  C9  UNL     1     -52.086  -1.183 -22.273  1.00  0.00     0.135 A 
HETATM   10  N4  UNL     1     -53.098  -1.895 -22.537  1.00  0.00    -0.287 N 
HETATM   11  N5  UNL     1     -53.184  -2.562 -23.705  1.00  0.00    -0.292 N 
ATOM     12  H4  UNL     1     -53.858  -1.963 -21.860  1.00  0.00     0.188 HD
HETATM   13  C10 UNL     1     -52.103  -2.429 -24.599  1.00  0.00     0.093 A 
ATOM     14  H5  UNL     1     -53.995  -3.139 -23.932  1.00  0.00     0.187 HD
HETATM   15  C11 UNL     1     -51.982  -2.985 -25.775  1.00  0.00    -0.045 C 
HETATM   16  S2  UNL     1     -51.012  -1.332 -23.697  1.00  0.00    -0.044 SA
HETATM   17  C12 UNL     1     -53.137  -3.819 -26.115  1.00  0.00     0.037 C 
HETATM   18  C18 UNL     1     -50.673  -2.575 -26.394  1.00  0.00     0.037 C 
HETATM   19  C13 UNL     1     -53.035  -4.453 -27.482  1.00  0.00     0.004 C 
HETATM   20  C14 UNL     1     -53.277  -3.473 -28.591  1.00  0.00     0.000 C 
HETATM   21  C15 UNL     1     -52.070  -3.400 -29.476  1.00  0.00     0.000 C 
HETATM   22  C16 UNL     1     -50.794  -3.102 -28.770  1.00  0.00     0.000 C 
HETATM   23  C17 UNL     1     -50.875  -1.999 -27.764  1.00  0.00     0.004 C 
ENDBRANCH   8   9
ENDBRANCH   7   8
BRANCH   1  24
HETATM   24  C3  UNL     1     -53.874   1.431 -22.629  1.00  0.00     0.314 C 
HETATM   25  O2  UNL     1     -53.008   2.173 -23.183  1.00  0.00    -0.257 OA
BRANCH  24  26
HETATM   26  O1  UNL     1     -54.682   0.684 -23.456  1.00  0.00    -0.317 OA
BRANCH  26  27
HETATM   27  C2  UNL     1     -55.030   1.093 -24.780  1.00  0.00     0.175 C 
HETATM   28  C1  UNL     1     -54.212   0.287 -25.748  1.00  0.00     0.034 C 
ENDBRANCH  26  27
ENDBRANCH  24  26
ENDBRANCH   1  24
BRANCH   6  29
HETATM   29  C5  UNL     1     -52.894   0.385 -17.866  1.00  0.00     0.177 C 
BRANCH  29  30
HETATM   30  C6  UNL     1     -53.370   1.145 -16.652  1.00  0.00     0.189 C 
BRANCH  30  31
HETATM   31  O3  UNL     1     -54.491   0.652 -16.056  1.00  0.00    -0.394 OA
HETATM   32  C7  UNL     1     -54.205  -0.172 -14.983  1.00  0.00     0.201 C 
ENDBRANCH  30  31
ENDBRANCH  29  30
ENDBRANCH   6  29
TORSDOF 8
ENDMDL
MODEL 3
REMARK VINA RESULT: -7.344377579      5.095      9.114
REMARK  8 active torsions:
REMARK  status: ('A' for Active; 'I' for Inactive)
REMARK    1  A    between atoms: C2_2  and  O1_3 
REMARK    2  A    between atoms: O1_3  and  C3_4 
REMARK    3  A    between atoms: C3_4  and  C4_6 
REMARK    4  A    between atoms: N3_11  and  C5_12 
REMARK    5  A    between atoms: C5_12  and  C6_13 
REMARK    6  A    between atoms: C6_13  and  O3_14 
REMARK    7  A    between atoms: C8_16  and  S1_17 
REMARK    8  A    between atoms: S1_17  and  C9_18 
ROOT
HETATM    1  C4  UNL     1     -50.880  -4.965 -28.331  1.00  0.00     0.160 A 
HETATM    2  N1  UNL     1     -50.342  -4.585 -29.501  1.00  0.00    -0.278 N 
ATOM      3  H1  UNL     1     -49.407  -4.820 -29.832  1.00  0.00     0.189 HD
HETATM    4  N2  UNL     1     -51.246  -3.840 -30.162  1.00  0.00    -0.239 N 
ATOM      5  H2  UNL     1     -51.100  -3.419 -31.080  1.00  0.00     0.208 HD
HETATM    6  N3  UNL     1     -52.341  -3.735 -29.453  1.00  0.00    -0.267 N 
HETATM    7  C8  UNL     1     -52.145  -4.419 -28.316  1.00  0.00     0.130 A 
ENDROOT
BRANCH   7   8
HETATM    8  S1  UNL     1     -53.324  -4.598 -26.994  1.00  0.00    -0.042 SA
BRANCH   8   9
HETATM    9  C9  UNL     1     -53.469  -3.071 -26.085  1.00  0.00     0.135 A 
HETATM   10  N4  UNL     1     -53.962  -1.955 -26.423  1.00  0.00    -0.287 N 
HETATM   11  N5  UNL     1     -53.967  -0.917 -25.563  1.00  0.00    -0.292 N 
ATOM     12  H4  UNL     1     -54.359  -1.841 -27.356  1.00  0.00     0.188 HD
HETATM   13  C10 UNL     1     -53.404  -1.137 -24.291  1.00  0.00     0.093 A 
ATOM     14  H5  UNL     1     -54.362  -0.012 -25.823  1.00  0.00     0.187 HD
HETATM   15  C11 UNL     1     -53.306  -0.275 -23.315  1.00  0.00    -0.045 C 
HETATM   16  S2  UNL     1     -52.894  -2.850 -24.406  1.00  0.00    -0.044 SA
HETATM   17  C12 UNL     1     -53.866   1.031 -23.671  1.00  0.00     0.037 C 
HETATM   18  C18 UNL     1     -52.640  -0.925 -22.133  1.00  0.00     0.037 C 
HETATM   19  C13 UNL     1     -53.791   2.040 -22.549  1.00  0.00     0.004 C 
HETATM   20  C14 UNL     1     -54.800   1.779 -21.471  1.00  0.00     0.000 C 
HETATM   21  C15 UNL     1     -54.100   1.551 -20.165  1.00  0.00     0.000 C 
HETATM   22  C16 UNL     1     -53.059   0.487 -20.192  1.00  0.00     0.000 C 
HETATM   23  C17 UNL     1     -53.465  -0.772 -20.890  1.00  0.00     0.004 C 
ENDBRANCH   8   9
ENDBRANCH   7   8
BRANCH   1  24
HETATM   24  C3  UNL     1     -50.299  -5.775 -27.274  1.00  0.00     0.314 C 
HETATM   25  O2  UNL     1     -49.874  -6.941 -27.528  1.00  0.00    -0.257 OA
BRANCH  24  26
HETATM   26  O1  UNL     1     -50.182  -5.333 -25.976  1.00  0.00    -0.317 OA
BRANCH  26  27
HETATM   27  C2  UNL     1     -50.567  -6.123 -24.849  1.00  0.00     0.175 C 
HETATM   28  C1  UNL     1     -50.160  -5.388 -23.604  1.00  0.00     0.034 C 
ENDBRANCH  26  27
ENDBRANCH  24  26
ENDBRANCH   1  24
BRANCH   6  29
HETATM   29  C5  UNL     1     -53.554  -3.010 -29.824  1.00  0.00     0.177 C 
BRANCH  29  30
HETATM   30  C6  UNL     1     -53.289  -1.524 -29.787  1.00  0.00     0.189 C 
BRANCH  30  31
HETATM   31  O3  UNL     1     -51.977  -1.163 -29.793  1.00  0.00    -0.394 OA
HETATM   32  C7  UNL     1     -51.600  -0.505 -28.637  1.00  0.00     0.201 C 
ENDBRANCH  30  31
ENDBRANCH  29  30
ENDBRANCH   6  29
TORSDOF 8
ENDMDL
MODEL 4
REMARK VINA RESULT: -7.336950016      1.681      2.024
REMARK  8 active torsions:
REMARK  status: ('A' for Active; 'I' for Inactive)
REMARK    1  A    between atoms: C2_2  and  O1_3 
REMARK    2  A    between atoms: O1_3  and  C3_4 
REMARK    3  A    between atoms: C3_4  and  C4_6 
REMARK    4  A    between atoms: N3_11  and  C5_12 
REMARK    5  A    between atoms: C5_12  and  C6_13 
REMARK    6  A    between atoms: C6_13  and  O3_14 
REMARK    7  A    between atoms: C8_16  and  S1_17 
REMARK    8  A    between atoms: S1_17  and  C9_18 
ROOT
HETATM    1  C4  UNL     1     -53.380   0.961 -19.066  1.00  0.00     0.160 A 
HETATM    2  N1  UNL     1     -54.491   1.713 -19.103  1.00  0.00    -0.278 N 
ATOM      3  H1  UNL     1     -55.024   2.030 -18.293  1.00  0.00     0.189 HD
HETATM    4  N2  UNL     1     -54.784   1.977 -20.389  1.00  0.00    -0.239 N 
ATOM      5  H2  UNL     1     -55.580   2.529 -20.708  1.00  0.00     0.208 HD
HETATM    6  N3  UNL     1     -53.895   1.420 -21.172  1.00  0.00    -0.267 N 
HETATM    7  C8  UNL     1     -53.015   0.785 -20.383  1.00  0.00     0.130 A 
ENDROOT
BRANCH   7   8
HETATM    8  S1  UNL     1     -51.599  -0.141 -20.940  1.00  0.00    -0.042 SA
BRANCH   8   9
HETATM    9  C9  UNL     1     -52.026  -1.125 -22.364  1.00  0.00     0.135 A 
HETATM   10  N4  UNL     1     -53.069  -1.796 -22.619  1.00  0.00    -0.287 N 
HETATM   11  N5  UNL     1     -53.182  -2.477 -23.776  1.00  0.00    -0.292 N 
ATOM     12  H4  UNL     1     -53.831  -1.821 -21.941  1.00  0.00     0.188 HD
HETATM   13  C10 UNL     1     -52.097  -2.404 -24.671  1.00  0.00     0.093 A 
ATOM     14  H5  UNL     1     -54.017  -3.021 -23.995  1.00  0.00     0.187 HD
HETATM   15  C11 UNL     1     -51.999  -2.983 -25.838  1.00  0.00    -0.045 C 
HETATM   16  S2  UNL     1     -50.960  -1.342 -23.784  1.00  0.00    -0.044 SA
HETATM   17  C12 UNL     1     -53.189  -3.771 -26.167  1.00  0.00     0.037 C 
HETATM   18  C18 UNL     1     -50.673  -2.639 -26.462  1.00  0.00     0.037 C 
HETATM   19  C13 UNL     1     -53.114  -4.429 -27.524  1.00  0.00     0.004 C 
HETATM   20  C14 UNL     1     -53.313  -3.457 -28.648  1.00  0.00     0.000 C 
HETATM   21  C15 UNL     1     -52.103  -3.449 -29.533  1.00  0.00     0.000 C 
HETATM   22  C16 UNL     1     -50.816  -3.196 -28.830  1.00  0.00     0.000 C 
HETATM   23  C17 UNL     1     -50.850  -2.075 -27.840  1.00  0.00     0.004 C 
ENDBRANCH   8   9
ENDBRANCH   7   8
BRANCH   1  24
HETATM   24  C3  UNL     1     -52.673   0.425 -17.916  1.00  0.00     0.314 C 
HETATM   25  O2  UNL     1     -51.841   1.145 -17.288  1.00  0.00    -0.257 OA
BRANCH  24  26
HETATM   26  O1  UNL     1     -52.862  -0.860 -17.459  1.00  0.00    -0.317 OA
BRANCH  26  27
HETATM   27  C2  UNL     1     -51.846  -1.863 -17.517  1.00  0.00     0.175 C 
HETATM   28  C1  UNL     1     -52.337  -2.974 -18.401  1.00  0.00     0.034 C 
ENDBRANCH  26  27
ENDBRANCH  24  26
ENDBRANCH   1  24
BRANCH   6  29
HETATM   29  C5  UNL     1     -53.861   1.475 -22.631  1.00  0.00     0.177 C 
BRANCH  29  30
HETATM   30  C6  UNL     1     -55.271   1.482 -23.172  1.00  0.00     0.189 C 
BRANCH  30  31
HETATM   31  O3  UNL     1     -55.379   1.349 -24.523  1.00  0.00    -0.394 OA
HETATM   32  C7  UNL     1     -54.215   0.887 -25.108  1.00  0.00     0.201 C 
ENDBRANCH  30  31
ENDBRANCH  29  30
ENDBRANCH   6  29
TORSDOF 8
ENDMDL
MODEL 5
REMARK VINA RESULT: -7.331590741      3.834      5.716
REMARK  8 active torsions:
REMARK  status: ('A' for Active; 'I' for Inactive)
REMARK    1  A    between atoms: C2_2  and  O1_3 
REMARK    2  A    between atoms: O1_3  and  C3_4 
REMARK    3  A    between atoms: C3_4  and  C4_6 
REMARK    4  A    between atoms: N3_11  and  C5_12 
REMARK    5  A    between atoms: C5_12  and  C6_13 
REMARK    6  A    between atoms: C6_13  and  O3_14 
REMARK    7  A    between atoms: C8_16  and  S1_17 
REMARK    8  A    between atoms: S1_17  and  C9_18 
ROOT
HETATM    1  C4  UNL     1     -50.979  -2.925 -19.289  1.00  0.00     0.160 A 
HETATM    2  N1  UNL     1     -50.142  -1.949 -18.904  1.00  0.00    -0.278 N 
ATOM      3  H1  UNL     1     -50.410  -1.087 -18.428  1.00  0.00     0.189 HD
HETATM    4  N2  UNL     1     -48.891  -2.299 -19.253  1.00  0.00    -0.239 N 
ATOM      5  H2  UNL     1     -48.056  -1.738 -19.082  1.00  0.00     0.208 HD
HETATM    6  N3  UNL     1     -48.903  -3.465 -19.845  1.00  0.00    -0.267 N 
HETATM    7  C8  UNL     1     -50.179  -3.878 -19.883  1.00  0.00     0.130 A 
ENDROOT
BRANCH   7   8
HETATM    8  S1  UNL     1     -50.757  -5.408 -20.586  1.00  0.00    -0.042 SA
BRANCH   8   9
HETATM    9  C9  UNL     1     -51.404  -5.130 -22.224  1.00  0.00     0.135 A 
HETATM   10  N4  UNL     1     -52.512  -5.457 -22.738  1.00  0.00    -0.287 N 
HETATM   11  N5  UNL     1     -52.798  -5.140 -24.017  1.00  0.00    -0.292 N 
ATOM     12  H4  UNL     1     -53.197  -5.966 -22.179  1.00  0.00     0.188 HD
HETATM   13  C10 UNL     1     -51.812  -4.437 -24.737  1.00  0.00     0.093 A 
ATOM     14  H5  UNL     1     -53.688  -5.397 -24.444  1.00  0.00     0.187 HD
HETATM   15  C11 UNL     1     -51.882  -4.035 -25.978  1.00  0.00    -0.045 C 
HETATM   16  S2  UNL     1     -50.514  -4.268 -23.515  1.00  0.00    -0.044 SA
HETATM   17  C12 UNL     1     -53.153  -4.398 -26.607  1.00  0.00     0.037 C 
HETATM   18  C18 UNL     1     -50.610  -3.321 -26.349  1.00  0.00     0.037 C 
HETATM   19  C13 UNL     1     -53.272  -3.920 -28.036  1.00  0.00     0.004 C 
HETATM   20  C14 UNL     1     -53.520  -2.445 -28.131  1.00  0.00     0.000 C 
HETATM   21  C15 UNL     1     -52.416  -1.792 -28.905  1.00  0.00     0.000 C 
HETATM   22  C16 UNL     1     -51.045  -2.071 -28.395  1.00  0.00     0.000 C 
HETATM   23  C17 UNL     1     -50.892  -1.960 -26.911  1.00  0.00     0.004 C 
ENDBRANCH   8   9
ENDBRANCH   7   8
BRANCH   1  24
HETATM   24  C3  UNL     1     -52.421  -3.011 -19.136  1.00  0.00     0.314 C 
HETATM   25  O2  UNL     1     -52.923  -3.379 -18.033  1.00  0.00    -0.257 OA
BRANCH  24  26
HETATM   26  O1  UNL     1     -53.297  -2.707 -20.154  1.00  0.00    -0.317 OA
BRANCH  26  27
HETATM   27  C2  UNL     1     -53.183  -1.526 -20.950  1.00  0.00     0.175 C 
HETATM   28  C1  UNL     1     -53.398  -1.910 -22.387  1.00  0.00     0.034 C 
ENDBRANCH  26  27
ENDBRANCH  24  26
ENDBRANCH   1  24
BRANCH   6  29
HETATM   29  C5  UNL     1     -47.749  -4.189 -20.371  1.00  0.00     0.177 C 
BRANCH  29  30
HETATM   30  C6  UNL     1     -46.549  -3.944 -19.487  1.00  0.00     0.189 C 
BRANCH  30  31
HETATM   31  O3  UNL     1     -45.832  -2.822 -19.772  1.00  0.00    -0.394 OA
HETATM   32  C7  UNL     1     -45.258  -2.256 -18.649  1.00  0.00     0.201 C 
ENDBRANCH  30  31
ENDBRANCH  29  30
ENDBRANCH   6  29
TORSDOF 8
ENDMDL
