MODEL 1
REMARK VINA RESULT: -7.513358474      0.000      0.000
REMARK  1 active torsions:
REMARK  status: ('A' for Active; 'I' for Inactive)
REMARK    1  A    between atoms: N2_7  and  N3_9 
ROOT
HETATM    1  N3  UNL     1      11.499   7.392  21.752  1.00  0.00    -0.306 N 
ATOM      2  H3  UNL     1      11.712   7.465  20.757  1.00  0.00     0.186 HD
HETATM    3  C5  UNL     1      12.011   6.404  22.443  1.00  0.00     0.007 C 
HETATM    4  C6  UNL     1      12.881   5.428  21.751  1.00  0.00     0.059 C 
HETATM    5  C7  UNL     1      13.061   4.192  22.605  1.00  0.00    -0.003 C 
HETATM    6  C8  UNL     1      11.688   3.846  23.186  1.00  0.00     0.049 C 
HETATM    7  C9  UNL     1      12.013   4.821  24.296  1.00  0.00     0.109 C 
HETATM    8  F1  UNL     1      11.635   4.461  25.547  1.00  0.00    -0.243 F 
HETATM    9  C10 UNL     1      11.743   6.244  23.884  1.00  0.00     0.097 C 
HETATM   10  C11 UNL     1      13.492   4.534  24.015  1.00  0.00     0.049 C 
ENDROOT
BRANCH   1  11
HETATM   11  N2  UNL     1      10.679   8.340  22.336  1.00  0.00    -0.265 N 
HETATM   12  C4  UNL     1       9.705   8.926  21.773  1.00  0.00     0.243 A 
HETATM   13  N1  UNL     1       9.292   8.736  20.513  1.00  0.00    -0.329 N 
HETATM   14  O1  UNL     1       8.919   9.822  22.303  1.00  0.00    -0.282 OA
HETATM   15  C3  UNL     1       8.225   9.541  20.277  1.00  0.00     0.124 A 
ATOM     16  H1  UNL     1       9.710   8.092  19.842  1.00  0.00     0.168 HD
HETATM   17  C2  UNL     1       8.015  10.220  21.442  1.00  0.00     0.068 A 
HETATM   18  C1  UNL     1       6.950  11.219  21.657  1.00  0.00     0.078 C 
ATOM     19  H2  UNL     1      10.874   8.590  23.306  1.00  0.00     0.190 HD
ENDBRANCH   1  11
TORSDOF 1
ENDMDL
MODEL 2
REMARK VINA RESULT: -7.412283059      1.128      1.165
REMARK  1 active torsions:
REMARK  status: ('A' for Active; 'I' for Inactive)
REMARK    1  A    between atoms: N2_7  and  N3_9 
ROOT
HETATM    1  N3  UNL     1      12.287   8.350  22.941  1.00  0.00    -0.306 N 
ATOM      2  H3  UNL     1      12.987   8.916  22.459  1.00  0.00     0.186 HD
HETATM    3  C5  UNL     1      12.531   7.081  23.156  1.00  0.00     0.007 C 
HETATM    4  C6  UNL     1      13.816   6.514  22.689  1.00  0.00     0.059 C 
HETATM    5  C7  UNL     1      13.751   5.003  22.693  1.00  0.00    -0.003 C 
HETATM    6  C8  UNL     1      12.389   4.612  22.115  1.00  0.00     0.049 C 
HETATM    7  C9  UNL     1      11.849   4.769  23.519  1.00  0.00     0.109 C 
HETATM    8  F1  UNL     1      10.935   3.853  23.921  1.00  0.00    -0.243 F 
HETATM    9  C10 UNL     1      11.562   6.211  23.846  1.00  0.00     0.097 C 
HETATM   10  C11 UNL     1      13.264   4.458  24.018  1.00  0.00     0.049 C 
ENDROOT
BRANCH   1  11
HETATM   11  N2  UNL     1      11.108   8.944  23.351  1.00  0.00    -0.265 N 
HETATM   12  C4  UNL     1      10.068   9.095  22.640  1.00  0.00     0.243 A 
HETATM   13  N1  UNL     1       9.919   8.708  21.367  1.00  0.00    -0.329 N 
HETATM   14  O1  UNL     1       8.946   9.652  23.005  1.00  0.00    -0.282 OA
HETATM   15  C3  UNL     1       8.671   9.041  20.951  1.00  0.00     0.124 A 
ATOM     16  H1  UNL     1      10.628   8.240  20.803  1.00  0.00     0.168 HD
HETATM   17  C2  UNL     1       8.077   9.642  22.023  1.00  0.00     0.068 A 
HETATM   18  C1  UNL     1       6.701  10.175  22.039  1.00  0.00     0.078 C 
ATOM     19  H2  UNL     1      11.070   9.292  24.310  1.00  0.00     0.190 HD
ENDBRANCH   1  11
TORSDOF 1
ENDMDL
MODEL 3
REMARK VINA RESULT: -7.294900109      1.840      2.391
REMARK  1 active torsions:
REMARK  status: ('A' for Active; 'I' for Inactive)
REMARK    1  A    between atoms: N2_7  and  N3_9 
ROOT
HETATM    1  N3  UNL     1      11.766   7.053  23.441  1.00  0.00    -0.306 N 
ATOM      2  H3  UNL     1      11.769   7.315  24.427  1.00  0.00     0.186 HD
HETATM    3  C5  UNL     1      12.198   5.866  23.096  1.00  0.00     0.007 C 
HETATM    4  C6  UNL     1      12.674   4.947  24.153  1.00  0.00     0.059 C 
HETATM    5  C7  UNL     1      13.458   3.807  23.540  1.00  0.00    -0.003 C 
HETATM    6  C8  UNL     1      14.366   4.415  22.469  1.00  0.00     0.049 C 
HETATM    7  C9  UNL     1      13.189   4.286  21.527  1.00  0.00     0.109 C 
HETATM    8  F1  UNL     1      13.468   3.891  20.260  1.00  0.00    -0.243 F 
HETATM    9  C10 UNL     1      12.219   5.427  21.689  1.00  0.00     0.097 C 
HETATM   10  C11 UNL     1      12.699   3.138  22.414  1.00  0.00     0.049 C 
ENDROOT
BRANCH   1  11
HETATM   11  N2  UNL     1      11.307   7.961  22.505  1.00  0.00    -0.265 N 
HETATM   12  C4  UNL     1      10.152   8.485  22.485  1.00  0.00     0.243 A 
HETATM   13  N1  UNL     1       9.167   8.258  23.362  1.00  0.00    -0.329 N 
HETATM   14  O1  UNL     1       9.698   9.342  21.612  1.00  0.00    -0.282 OA
HETATM   15  C3  UNL     1       8.087   9.000  23.010  1.00  0.00     0.124 A 
ATOM     16  H1  UNL     1       9.220   7.631  24.164  1.00  0.00     0.168 HD
HETATM   17  C2  UNL     1       8.462   9.680  21.888  1.00  0.00     0.068 A 
HETATM   18  C1  UNL     1       7.602  10.620  21.142  1.00  0.00     0.078 C 
ATOM     19  H2  UNL     1      11.955   8.234  21.765  1.00  0.00     0.190 HD
ENDBRANCH   1  11
TORSDOF 1
ENDMDL
MODEL 4
REMARK VINA RESULT: -7.153366980      2.969      3.354
REMARK  1 active torsions:
REMARK  status: ('A' for Active; 'I' for Inactive)
REMARK    1  A    between atoms: N2_7  and  N3_9 
ROOT
HETATM    1  N3  UNL     1      11.248   6.417  24.127  1.00  0.00    -0.306 N 
ATOM      2  H3  UNL     1      11.552   7.390  24.179  1.00  0.00     0.186 HD
HETATM    3  C5  UNL     1      12.072   5.518  23.649  1.00  0.00     0.007 C 
HETATM    4  C6  UNL     1      13.414   5.948  23.202  1.00  0.00     0.059 C 
HETATM    5  C7  UNL     1      14.056   4.867  22.361  1.00  0.00    -0.003 C 
HETATM    6  C8  UNL     1      12.975   4.334  21.418  1.00  0.00     0.049 C 
HETATM    7  C9  UNL     1      12.578   3.405  22.544  1.00  0.00     0.109 C 
HETATM    8  F1  UNL     1      12.239   2.141  22.193  1.00  0.00    -0.243 F 
HETATM    9  C10 UNL     1      11.694   4.096  23.549  1.00  0.00     0.097 C 
HETATM   10  C11 UNL     1      14.020   3.518  23.047  1.00  0.00     0.049 C 
ENDROOT
BRANCH   1  11
HETATM   11  N2  UNL     1       9.979   6.084  24.563  1.00  0.00    -0.265 N 
HETATM   12  C4  UNL     1       9.018   6.894  24.736  1.00  0.00     0.243 A 
HETATM   13  N1  UNL     1       9.053   8.216  24.529  1.00  0.00    -0.329 N 
HETATM   14  O1  UNL     1       7.815   6.602  25.147  1.00  0.00    -0.282 OA
HETATM   15  C3  UNL     1       7.835   8.738  24.823  1.00  0.00     0.124 A 
ATOM     16  H1  UNL     1       9.863   8.744  24.204  1.00  0.00     0.168 HD
HETATM   17  C2  UNL     1       7.069   7.678  25.214  1.00  0.00     0.068 A 
HETATM   18  C1  UNL     1       5.657   7.765  25.633  1.00  0.00     0.078 C 
ATOM     19  H2  UNL     1       9.800   5.100  24.764  1.00  0.00     0.190 HD
ENDBRANCH   1  11
TORSDOF 1
ENDMDL
MODEL 5
REMARK VINA RESULT: -7.078772877      4.384      6.446
REMARK  1 active torsions:
REMARK  status: ('A' for Active; 'I' for Inactive)
REMARK    1  A    between atoms: N2_7  and  N3_9 
ROOT
HETATM    1  N3  UNL     1      10.772   5.347  24.832  1.00  0.00    -0.306 N 
ATOM      2  H3  UNL     1      10.445   5.895  24.036  1.00  0.00     0.186 HD
HETATM    3  C5  UNL     1      10.062   5.336  25.933  1.00  0.00     0.007 C 
HETATM    4  C6  UNL     1       8.808   6.121  25.979  1.00  0.00     0.059 C 
HETATM    5  C7  UNL     1       8.344   6.278  27.410  1.00  0.00    -0.003 C 
HETATM    6  C8  UNL     1       9.582   6.602  28.249  1.00  0.00     0.049 C 
HETATM    7  C9  UNL     1       9.797   5.107  28.345  1.00  0.00     0.109 C 
HETATM    8  F1  UNL     1      10.216   4.633  29.543  1.00  0.00    -0.243 F 
HETATM    9  C10 UNL     1      10.479   4.564  27.118  1.00  0.00     0.097 C 
HETATM   10  C11 UNL     1       8.287   4.952  28.138  1.00  0.00     0.049 C 
ENDROOT
BRANCH   1  11
HETATM   11  N2  UNL     1      11.952   4.636  24.721  1.00  0.00    -0.265 N 
HETATM   12  C4  UNL     1      13.009   5.040  24.146  1.00  0.00     0.243 A 
HETATM   13  N1  UNL     1      13.178   6.224  23.545  1.00  0.00    -0.329 N 
HETATM   14  O1  UNL     1      14.132   4.387  24.029  1.00  0.00    -0.282 OA
HETATM   15  C3  UNL     1      14.440   6.288  23.050  1.00  0.00     0.124 A 
ATOM     16  H1  UNL     1      12.473   6.957  23.471  1.00  0.00     0.168 HD
HETATM   17  C2  UNL     1      15.021   5.097  23.378  1.00  0.00     0.068 A 
HETATM   18  C1  UNL     1      16.406   4.712  23.041  1.00  0.00     0.078 C 
ATOM     19  H2  UNL     1      11.976   3.705  25.136  1.00  0.00     0.190 HD
ENDBRANCH   1  11
TORSDOF 1
ENDMDL
