MODEL 1
REMARK VINA RESULT: -4.734448833      0.000      0.000
REMARK  2 active torsions:
REMARK  status: ('A' for Active; 'I' for Inactive)
REMARK    1  A    between atoms: C1_2  and  C2_7 
REMARK    2  A    between atoms: N2_3  and  O1_5 
ROOT
HETATM    1  C2  UNL     1      -6.235 -32.045 -19.630  1.00  0.00     0.165 C 
HETATM    2  C3  UNL     1      -5.155 -32.983 -19.242  1.00  0.00     0.034 C 
HETATM    3  C4  UNL     1      -4.420 -32.623 -17.991  1.00  0.00     0.004 C 
HETATM    4  C5  UNL     1      -5.372 -32.881 -16.837  1.00  0.00     0.021 C 
HETATM    5  C6  UNL     1      -6.069 -31.576 -16.569  1.00  0.00     0.139 C 
HETATM    6  N3  UNL     1      -7.129 -31.301 -17.465  1.00  0.00    -0.340 N 
ATOM      7  H3  UNL     1      -7.984 -30.888 -17.092  1.00  0.00     0.179 HD
HETATM    8  N4  UNL     1      -7.071 -31.536 -18.671  1.00  0.00    -0.329 N 
ATOM      9  H4  UNL     1      -7.949 -31.255 -19.108  1.00  0.00     0.180 HD
ENDROOT
BRANCH   1  10
HETATM   10  C1  UNL     1      -5.606 -30.892 -20.347  1.00  0.00     0.137 C 
HETATM   11  N1  UNL     1      -5.720 -29.622 -19.718  1.00  0.00    -0.083 NA
HETATM   12  N2  UNL     1      -4.995 -31.037 -21.473  1.00  0.00    -0.257 N 
ATOM     13  H2  UNL     1      -4.923 -31.955 -21.910  1.00  0.00     0.195 HD
BRANCH  12  14
HETATM   14  O1  UNL     1      -4.450 -29.946 -22.065  1.00  0.00    -0.289 OA
ATOM     15  H1  UNL     1      -3.509 -29.821 -22.015  1.00  0.00     0.244 HD
ENDBRANCH  12  14
ENDBRANCH   1  10
TORSDOF 2
ENDMDL
MODEL 2
REMARK VINA RESULT: -4.365483519      2.129      2.660
REMARK  2 active torsions:
REMARK  status: ('A' for Active; 'I' for Inactive)
REMARK    1  A    between atoms: C1_2  and  C2_7 
REMARK    2  A    between atoms: N2_3  and  O1_5 
ROOT
HETATM    1  C2  UNL     1      -4.758 -31.489 -19.890  1.00  0.00     0.165 C 
HETATM    2  C3  UNL     1      -5.947 -30.628 -19.688  1.00  0.00     0.034 C 
HETATM    3  C4  UNL     1      -7.055 -31.252 -18.901  1.00  0.00     0.004 C 
HETATM    4  C5  UNL     1      -6.580 -31.325 -17.462  1.00  0.00     0.021 C 
HETATM    5  C6  UNL     1      -5.960 -32.685 -17.294  1.00  0.00     0.139 C 
HETATM    6  N3  UNL     1      -4.642 -32.778 -17.801  1.00  0.00    -0.340 N 
ATOM      7  H3  UNL     1      -3.954 -33.306 -17.265  1.00  0.00     0.179 HD
HETATM    8  N4  UNL     1      -4.286 -32.252 -18.855  1.00  0.00    -0.329 N 
ATOM      9  H4  UNL     1      -3.299 -32.456 -19.012  1.00  0.00     0.180 HD
ENDROOT
BRANCH   1  10
HETATM   10  C1  UNL     1      -5.042 -32.402 -21.040  1.00  0.00     0.137 C 
HETATM   11  N1  UNL     1      -4.563 -33.736 -20.917  1.00  0.00    -0.083 NA
HETATM   12  N2  UNL     1      -5.682 -32.008 -22.087  1.00  0.00    -0.257 N 
ATOM     13  H2  UNL     1      -6.018 -31.047 -22.158  1.00  0.00     0.195 HD
BRANCH  12  14
HETATM   14  O1  UNL     1      -5.903 -32.892 -23.090  1.00  0.00    -0.289 OA
ATOM     15  H1  UNL     1      -6.408 -32.611 -23.844  1.00  0.00     0.244 HD
ENDBRANCH  12  14
ENDBRANCH   1  10
TORSDOF 2
ENDMDL
MODEL 3
REMARK VINA RESULT: -3.952754304      2.474      3.045
REMARK  2 active torsions:
REMARK  status: ('A' for Active; 'I' for Inactive)
REMARK    1  A    between atoms: C1_2  and  C2_7 
REMARK    2  A    between atoms: N2_3  and  O1_5 
ROOT
HETATM    1  C2  UNL     1      -4.672 -31.810 -20.199  1.00  0.00     0.165 C 
HETATM    2  C3  UNL     1      -5.897 -30.980 -20.272  1.00  0.00     0.034 C 
HETATM    3  C4  UNL     1      -7.035 -31.452 -19.424  1.00  0.00     0.004 C 
HETATM    4  C5  UNL     1      -6.652 -31.166 -17.984  1.00  0.00     0.021 C 
HETATM    5  C6  UNL     1      -6.004 -32.420 -17.466  1.00  0.00     0.139 C 
HETATM    6  N3  UNL     1      -4.654 -32.569 -17.861  1.00  0.00    -0.340 N 
ATOM      7  H3  UNL     1      -3.986 -32.927 -17.179  1.00  0.00     0.179 HD
HETATM    8  N4  UNL     1      -4.246 -32.289 -18.988  1.00  0.00    -0.329 N 
ATOM      9  H4  UNL     1      -3.245 -32.479 -19.037  1.00  0.00     0.180 HD
ENDROOT
BRANCH   1  10
HETATM   10  C1  UNL     1      -4.853 -32.978 -21.116  1.00  0.00     0.137 C 
HETATM   11  N1  UNL     1      -5.638 -32.749 -22.279  1.00  0.00    -0.083 NA
HETATM   12  N2  UNL     1      -4.330 -34.130 -20.869  1.00  0.00    -0.257 N 
ATOM     13  H2  UNL     1      -3.769 -34.276 -20.029  1.00  0.00     0.195 HD
BRANCH  12  14
HETATM   14  O1  UNL     1      -4.536 -35.143 -21.745  1.00  0.00    -0.289 OA
ATOM     15  H1  UNL     1      -3.812 -35.721 -21.955  1.00  0.00     0.244 HD
ENDBRANCH  12  14
ENDBRANCH   1  10
TORSDOF 2
ENDMDL
MODEL 4
REMARK VINA RESULT: -3.748116467      9.036      9.895
REMARK  2 active torsions:
REMARK  status: ('A' for Active; 'I' for Inactive)
REMARK    1  A    between atoms: C1_2  and  C2_7 
REMARK    2  A    between atoms: N2_3  and  O1_5 
ROOT
HETATM    1  C2  UNL     1      -8.779 -31.610 -27.243  1.00  0.00     0.165 C 
HETATM    2  C3  UNL     1      -8.630 -32.863 -26.465  1.00  0.00     0.034 C 
HETATM    3  C4  UNL     1      -7.936 -33.977 -27.182  1.00  0.00     0.004 C 
HETATM    4  C5  UNL     1      -6.472 -33.590 -27.274  1.00  0.00     0.021 C 
HETATM    5  C6  UNL     1      -6.304 -32.898 -28.598  1.00  0.00     0.139 C 
HETATM    6  N3  UNL     1      -6.725 -31.547 -28.592  1.00  0.00    -0.340 N 
ATOM      7  H3  UNL     1      -6.161 -30.862 -29.095  1.00  0.00     0.179 HD
HETATM    8  N4  UNL     1      -7.737 -31.158 -28.011  1.00  0.00    -0.329 N 
ATOM      9  H4  UNL     1      -7.835 -30.152 -28.148  1.00  0.00     0.180 HD
ENDROOT
BRANCH   1  10
HETATM   10  C1  UNL     1      -9.971 -31.762 -28.134  1.00  0.00     0.137 C 
HETATM   11  N1  UNL     1      -9.724 -31.697 -29.533  1.00  0.00    -0.083 NA
HETATM   12  N2  UNL     1     -11.158 -31.941 -27.665  1.00  0.00    -0.257 N 
ATOM     13  H2  UNL     1     -11.318 -31.984 -26.658  1.00  0.00     0.195 HD
BRANCH  12  14
HETATM   14  O1  UNL     1     -12.192 -32.070 -28.532  1.00  0.00    -0.289 OA
ATOM     15  H1  UNL     1     -12.871 -32.706 -28.343  1.00  0.00     0.244 HD
ENDBRANCH  12  14
ENDBRANCH   1  10
TORSDOF 2
ENDMDL
MODEL 5
REMARK VINA RESULT: -3.654841459     10.632     11.386
REMARK  2 active torsions:
REMARK  status: ('A' for Active; 'I' for Inactive)
REMARK    1  A    between atoms: C1_2  and  C2_7 
REMARK    2  A    between atoms: N2_3  and  O1_5 
ROOT
HETATM    1  C2  UNL     1     -11.482 -25.635 -27.365  1.00  0.00     0.165 C 
HETATM    2  C3  UNL     1     -10.170 -24.957 -27.253  1.00  0.00     0.034 C 
HETATM    3  C4  UNL     1      -9.005 -25.863 -27.015  1.00  0.00     0.004 C 
HETATM    4  C5  UNL     1      -8.764 -26.612 -28.312  1.00  0.00     0.021 C 
HETATM    5  C6  UNL     1      -9.535 -27.899 -28.202  1.00  0.00     0.139 C 
HETATM    6  N3  UNL     1     -10.918 -27.759 -28.467  1.00  0.00    -0.340 N 
ATOM      7  H3  UNL     1     -11.383 -28.486 -29.009  1.00  0.00     0.179 HD
HETATM    8  N4  UNL     1     -11.586 -26.803 -28.075  1.00  0.00    -0.329 N 
ATOM      9  H4  UNL     1     -12.551 -26.921 -28.385  1.00  0.00     0.180 HD
ENDROOT
BRANCH   1  10
HETATM   10  C1  UNL     1     -11.985 -25.895 -25.980  1.00  0.00     0.137 C 
HETATM   11  N1  UNL     1     -12.398 -27.227 -25.700  1.00  0.00    -0.083 NA
HETATM   12  N2  UNL     1     -12.044 -24.967 -25.088  1.00  0.00    -0.257 N 
ATOM     13  H2  UNL     1     -11.743 -24.017 -25.306  1.00  0.00     0.195 HD
BRANCH  12  14
HETATM   14  O1  UNL     1     -12.511 -25.276 -23.853  1.00  0.00    -0.289 OA
ATOM     15  H1  UNL     1     -12.813 -24.574 -23.289  1.00  0.00     0.244 HD
ENDBRANCH  12  14
ENDBRANCH   1  10
TORSDOF 2
ENDMDL
