MODEL 1
REMARK VINA RESULT: -6.086409084      0.000      0.000
REMARK  2 active torsions:
REMARK  status: ('A' for Active; 'I' for Inactive)
REMARK    1  A    between atoms: C2_2  and  C3_3 
REMARK    2  A    between atoms: C3_3  and  N1_4 
ROOT
HETATM    1  C3  UNL     1      93.090  13.503 132.789  1.00  0.00     0.125 C 
HETATM    2  C4  UNL     1      92.863  12.611 131.632  1.00  0.00     0.039 C 
HETATM    3  C5  UNL     1      92.535  13.260 130.339  1.00  0.00     0.004 C 
HETATM    4  C6  UNL     1      93.432  14.373 129.926  1.00  0.00     0.019 C 
HETATM    5  C7  UNL     1      92.656  15.657 129.942  1.00  0.00     0.113 C 
HETATM    6  N2  UNL     1      93.005  16.554 130.987  1.00  0.00    -0.421 N 
ATOM      7  H2  UNL     1      93.002  17.566 130.860  1.00  0.00     0.153 HD
HETATM    8  C8  UNL     1      93.362  15.938 132.230  1.00  0.00     0.116 C 
HETATM    9  C9  UNL     1      92.432  14.855 132.674  1.00  0.00     0.057 C 
ENDROOT
BRANCH   1  10
HETATM   10  C2  UNL     1      92.598  12.896 134.110  1.00  0.00     0.034 C 
HETATM   11  C1  UNL     1      92.011  13.900 135.024  1.00  0.00     0.007 C 
ENDBRANCH   1  10
BRANCH   1  12
HETATM   12  N1  UNL     1      94.547  13.637 132.963  1.00  0.00    -0.070 N 
ATOM     13  H13 UNL     1      94.835  14.504 133.416  1.00  0.00     0.275 HD
ATOM     14  H12 UNL     1      94.942  13.007 133.662  1.00  0.00     0.275 HD
ATOM     15  H11 UNL     1      94.930  13.511 132.026  1.00  0.00     0.275 HD
ENDBRANCH   1  12
TORSDOF 2
ENDMDL
MODEL 2
REMARK VINA RESULT: -5.797239414      1.553      3.967
REMARK  2 active torsions:
REMARK  status: ('A' for Active; 'I' for Inactive)
REMARK    1  A    between atoms: C2_2  and  C3_3 
REMARK    2  A    between atoms: C3_3  and  N1_4 
ROOT
HETATM    1  C3  UNL     1      93.032  13.864 132.446  1.00  0.00     0.125 C 
HETATM    2  C4  UNL     1      93.004  15.338 132.353  1.00  0.00     0.039 C 
HETATM    3  C5  UNL     1      92.330  16.066 133.458  1.00  0.00     0.004 C 
HETATM    4  C6  UNL     1      92.735  15.673 134.835  1.00  0.00     0.019 C 
HETATM    5  C7  UNL     1      91.568  15.023 135.519  1.00  0.00     0.113 C 
HETATM    6  N2  UNL     1      91.696  13.622 135.720  1.00  0.00    -0.421 N 
ATOM      7  H2  UNL     1      91.328  13.155 136.549  1.00  0.00     0.153 HD
HETATM    8  C8  UNL     1      92.378  12.913 134.679  1.00  0.00     0.116 C 
HETATM    9  C9  UNL     1      91.938  13.269 133.296  1.00  0.00     0.057 C 
ENDROOT
BRANCH   1  10
HETATM   10  C2  UNL     1      92.929  13.183 131.074  1.00  0.00     0.034 C 
HETATM   11  C1  UNL     1      93.021  14.138 129.948  1.00  0.00     0.007 C 
ENDBRANCH   1  10
BRANCH   1  12
HETATM   12  N1  UNL     1      94.362  13.479 132.951  1.00  0.00    -0.070 N 
ATOM     13  H13 UNL     1      94.337  12.900 133.791  1.00  0.00     0.275 HD
ATOM     14  H12 UNL     1      94.851  12.805 132.363  1.00  0.00     0.275 HD
ATOM     15  H11 UNL     1      94.856  14.364 133.070  1.00  0.00     0.275 HD
ENDBRANCH   1  12
TORSDOF 2
ENDMDL
MODEL 3
REMARK VINA RESULT: -5.631256028      1.431      2.681
REMARK  2 active torsions:
REMARK  status: ('A' for Active; 'I' for Inactive)
REMARK    1  A    between atoms: C2_2  and  C3_3 
REMARK    2  A    between atoms: C3_3  and  N1_4 
ROOT
HETATM    1  C3  UNL     1      93.185  13.760 132.083  1.00  0.00     0.125 C 
HETATM    2  C4  UNL     1      93.251  14.529 130.822  1.00  0.00     0.039 C 
HETATM    3  C5  UNL     1      92.866  15.961 130.889  1.00  0.00     0.004 C 
HETATM    4  C6  UNL     1      93.502  16.753 131.976  1.00  0.00     0.019 C 
HETATM    5  C7  UNL     1      92.447  17.169 132.957  1.00  0.00     0.113 C 
HETATM    6  N2  UNL     1      92.505  16.510 134.215  1.00  0.00    -0.421 N 
ATOM      7  H2  UNL     1      92.273  16.981 135.089  1.00  0.00     0.153 HD
HETATM    8  C8  UNL     1      92.913  15.137 134.168  1.00  0.00     0.116 C 
HETATM    9  C9  UNL     1      92.237  14.326 133.111  1.00  0.00     0.057 C 
ENDROOT
BRANCH   1  10
HETATM   10  C2  UNL     1      92.762  12.301 131.864  1.00  0.00     0.034 C 
HETATM   11  C1  UNL     1      92.194  12.060 130.520  1.00  0.00     0.007 C 
ENDBRANCH   1  10
BRANCH   1  12
HETATM   12  N1  UNL     1      94.555  13.673 132.618  1.00  0.00    -0.070 N 
ATOM     13  H13 UNL     1      95.137  12.972 132.159  1.00  0.00     0.275 HD
ATOM     14  H12 UNL     1      95.142  14.475 132.390  1.00  0.00     0.275 HD
ATOM     15  H11 UNL     1      94.430  13.520 133.619  1.00  0.00     0.275 HD
ENDBRANCH   1  12
TORSDOF 2
ENDMDL
MODEL 4
REMARK VINA RESULT: -5.207245955      1.229      1.856
REMARK  2 active torsions:
REMARK  status: ('A' for Active; 'I' for Inactive)
REMARK    1  A    between atoms: C2_2  and  C3_3 
REMARK    2  A    between atoms: C3_3  and  N1_4 
ROOT
HETATM    1  C3  UNL     1      93.042  13.528 132.462  1.00  0.00     0.125 C 
HETATM    2  C4  UNL     1      92.908  13.572 130.991  1.00  0.00     0.039 C 
HETATM    3  C5  UNL     1      92.510  14.871 130.393  1.00  0.00     0.004 C 
HETATM    4  C6  UNL     1      93.285  16.058 130.846  1.00  0.00     0.019 C 
HETATM    5  C7  UNL     1      92.378  16.962 131.628  1.00  0.00     0.113 C 
HETATM    6  N2  UNL     1      92.633  17.004 133.025  1.00  0.00    -0.421 N 
ATOM      7  H2  UNL     1      92.524  17.856 133.574  1.00  0.00     0.153 HD
HETATM    8  C8  UNL     1      93.055  15.765 133.608  1.00  0.00     0.116 C 
HETATM    9  C9  UNL     1      92.246  14.579 133.195  1.00  0.00     0.057 C 
ENDROOT
BRANCH   1  10
HETATM   10  C2  UNL     1      92.619  12.176 133.054  1.00  0.00     0.034 C 
HETATM   11  C1  UNL     1      92.515  11.108 132.037  1.00  0.00     0.007 C 
ENDBRANCH   1  10
BRANCH   1  12
HETATM   12  N1  UNL     1      94.478  13.637 132.777  1.00  0.00    -0.070 N 
ATOM     13  H13 UNL     1      94.862  12.824 133.258  1.00  0.00     0.275 HD
ATOM     14  H12 UNL     1      95.087  13.585 131.961  1.00  0.00     0.275 HD
ATOM     15  H11 UNL     1      94.559  14.508 133.302  1.00  0.00     0.275 HD
ENDBRANCH   1  12
TORSDOF 2
ENDMDL
MODEL 5
REMARK VINA RESULT: -5.193258679      1.346      3.720
REMARK  2 active torsions:
REMARK  status: ('A' for Active; 'I' for Inactive)
REMARK    1  A    between atoms: C2_2  and  C3_3 
REMARK    2  A    between atoms: C3_3  and  N1_4 
ROOT
HETATM    1  C3  UNL     1      93.129  14.289 131.214  1.00  0.00     0.125 C 
HETATM    2  C4  UNL     1      92.700  12.876 131.150  1.00  0.00     0.039 C 
HETATM    3  C5  UNL     1      92.561  12.159 132.442  1.00  0.00     0.004 C 
HETATM    4  C6  UNL     1      91.772  12.860 133.491  1.00  0.00     0.019 C 
HETATM    5  C7  UNL     1      92.685  13.230 134.622  1.00  0.00     0.113 C 
HETATM    6  N2  UNL     1      92.960  14.620 134.739  1.00  0.00    -0.421 N 
ATOM      7  H2  UNL     1      93.078  15.078 135.643  1.00  0.00     0.153 HD
HETATM    8  C8  UNL     1      93.058  15.332 133.500  1.00  0.00     0.116 C 
HETATM    9  C9  UNL     1      93.893  14.655 132.462  1.00  0.00     0.057 C 
ENDROOT
BRANCH   1  10
HETATM   10  C2  UNL     1      94.020  14.691 130.030  1.00  0.00     0.034 C 
HETATM   11  C1  UNL     1      93.253  15.234 128.889  1.00  0.00     0.007 C 
ENDBRANCH   1  10
BRANCH   1  12
HETATM   12  N1  UNL     1      91.923  15.123 131.070  1.00  0.00    -0.070 N 
ATOM     13  H13 UNL     1      92.114  16.093 130.818  1.00  0.00     0.275 HD
ATOM     14  H12 UNL     1      91.360  14.902 130.248  1.00  0.00     0.275 HD
ATOM     15  H11 UNL     1      91.427  15.013 131.954  1.00  0.00     0.275 HD
ENDBRANCH   1  12
TORSDOF 2
ENDMDL
