MODEL 1
REMARK VINA RESULT: -5.590850184      0.000      0.000
REMARK  5 active torsions:
REMARK  status: ('A' for Active; 'I' for Inactive)
REMARK       I    between atoms: C2_2  and  N1_4 
REMARK    1  A    between atoms: N1_4  and  C3_6 
REMARK    2  A    between atoms: C8_11  and  C9_12 
REMARK    3  A    between atoms: C9_12  and  N2_13 
REMARK    4  A    between atoms: N2_13  and  N3_14 
REMARK    5  A    between atoms: N3_14  and  C10_16 
ROOT
HETATM    1  C3  UNL     1      17.065  15.844  31.816  1.00  0.00     0.042 A 
HETATM    2  C4  UNL     1      16.101  15.295  31.013  1.00  0.00     0.030 A 
HETATM    3  C5  UNL     1      14.839  15.893  30.824  1.00  0.00     0.002 A 
HETATM    4  C6  UNL     1      14.592  17.070  31.482  1.00  0.00     0.001 A 
HETATM    5  C7  UNL     1      15.543  17.658  32.303  1.00  0.00     0.011 A 
HETATM    6  C8  UNL     1      16.760  17.054  32.467  1.00  0.00    -0.015 A 
ENDROOT
BRANCH   6   7
HETATM    7  C9  UNL     1      17.784  17.637  33.328  1.00  0.00     0.175 C 
BRANCH   7   8
HETATM    8  N2  UNL     1      17.917  16.852  34.530  1.00  0.00    -0.141 NA
BRANCH   8   9
HETATM    9  N3  UNL     1      18.832  17.353  35.426  1.00  0.00    -0.335 N 
ATOM     10  H3  UNL     1      18.704  18.266  35.863  1.00  0.00     0.176 HD
BRANCH   9  11
HETATM   11  C10 UNL     1      19.951  16.553  35.712  1.00  0.00     0.087 C 
HETATM   12  C11 UNL     1      19.557  15.091  35.522  1.00  0.00     0.033 C 
HETATM   13  C12 UNL     1      21.086  16.838  34.756  1.00  0.00     0.033 C 
ENDBRANCH   9  11
ENDBRANCH   8   9
ENDBRANCH   7   8
ENDBRANCH   6   7
BRANCH   1  14
HETATM   14  N1  UNL     1      18.329  15.301  32.041  1.00  0.00    -0.327 N 
HETATM   15  C2  UNL     1      18.724  13.968  31.891  1.00  0.00     0.218 C 
HETATM   16  C1  UNL     1      20.132  13.517  32.171  1.00  0.00     0.117 C 
HETATM   17  O1  UNL     1      17.962  13.069  31.522  1.00  0.00    -0.274 OA
ATOM     18  H1  UNL     1      19.050  15.952  32.351  1.00  0.00     0.169 HD
ENDBRANCH   1  14
TORSDOF 5
ENDMDL
MODEL 2
REMARK VINA RESULT: -5.571874855      3.677      5.609
REMARK  5 active torsions:
REMARK  status: ('A' for Active; 'I' for Inactive)
REMARK       I    between atoms: C2_2  and  N1_4 
REMARK    1  A    between atoms: N1_4  and  C3_6 
REMARK    2  A    between atoms: C8_11  and  C9_12 
REMARK    3  A    between atoms: C9_12  and  N2_13 
REMARK    4  A    between atoms: N2_13  and  N3_14 
REMARK    5  A    between atoms: N3_14  and  C10_16 
ROOT
HETATM    1  C3  UNL     1      11.559  14.968  30.907  1.00  0.00     0.042 A 
HETATM    2  C4  UNL     1      10.595  15.463  31.744  1.00  0.00     0.030 A 
HETATM    3  C5  UNL     1      10.497  16.833  32.061  1.00  0.00     0.002 A 
HETATM    4  C6  UNL     1      11.414  17.681  31.496  1.00  0.00     0.001 A 
HETATM    5  C7  UNL     1      12.404  17.218  30.643  1.00  0.00     0.011 A 
HETATM    6  C8  UNL     1      12.476  15.882  30.354  1.00  0.00    -0.015 A 
ENDROOT
BRANCH   6   7
HETATM    7  C9  UNL     1      13.507  15.354  29.466  1.00  0.00     0.175 C 
BRANCH   7   8
HETATM    8  N2  UNL     1      14.810  15.753  29.941  1.00  0.00    -0.141 NA
BRANCH   8   9
HETATM    9  N3  UNL     1      15.327  14.925  30.911  1.00  0.00    -0.335 N 
ATOM     10  H3  UNL     1      15.148  13.921  30.904  1.00  0.00     0.176 HD
BRANCH   9  11
HETATM   11  C10 UNL     1      16.111  15.523  31.910  1.00  0.00     0.087 C 
HETATM   12  C11 UNL     1      17.568  15.503  31.454  1.00  0.00     0.033 C 
HETATM   13  C12 UNL     1      15.727  16.970  32.115  1.00  0.00     0.033 C 
ENDBRANCH   9  11
ENDBRANCH   8   9
ENDBRANCH   7   8
ENDBRANCH   6   7
BRANCH   1  14
HETATM   14  N1  UNL     1      11.707  13.627  30.556  1.00  0.00    -0.327 N 
HETATM   15  C2  UNL     1      12.527  12.671  31.164  1.00  0.00     0.218 C 
HETATM   16  C1  UNL     1      12.590  11.248  30.678  1.00  0.00     0.117 C 
HETATM   17  O1  UNL     1      13.254  12.914  32.133  1.00  0.00    -0.274 OA
ATOM     18  H1  UNL     1      11.152  13.305  29.763  1.00  0.00     0.169 HD
ENDBRANCH   1  14
TORSDOF 5
ENDMDL
MODEL 3
REMARK VINA RESULT: -5.523819182      1.428      1.756
REMARK  5 active torsions:
REMARK  status: ('A' for Active; 'I' for Inactive)
REMARK       I    between atoms: C2_2  and  N1_4 
REMARK    1  A    between atoms: N1_4  and  C3_6 
REMARK    2  A    between atoms: C8_11  and  C9_12 
REMARK    3  A    between atoms: C9_12  and  N2_13 
REMARK    4  A    between atoms: N2_13  and  N3_14 
REMARK    5  A    between atoms: N3_14  and  C10_16 
ROOT
HETATM    1  C3  UNL     1      15.542  15.800  30.936  1.00  0.00     0.042 A 
HETATM    2  C4  UNL     1      14.507  15.377  30.146  1.00  0.00     0.030 A 
HETATM    3  C5  UNL     1      13.268  16.046  30.096  1.00  0.00     0.002 A 
HETATM    4  C6  UNL     1      13.119  17.161  30.880  1.00  0.00     0.001 A 
HETATM    5  C7  UNL     1      14.144  17.621  31.693  1.00  0.00     0.011 A 
HETATM    6  C8  UNL     1      15.337  16.950  31.721  1.00  0.00    -0.015 A 
ENDROOT
BRANCH   6   7
HETATM    7  C9  UNL     1      16.437  17.399  32.568  1.00  0.00     0.175 C 
BRANCH   7   8
HETATM    8  N2  UNL     1      16.518  16.567  33.743  1.00  0.00    -0.141 NA
BRANCH   8   9
HETATM    9  N3  UNL     1      17.803  16.349  34.184  1.00  0.00    -0.335 N 
ATOM     10  H3  UNL     1      18.293  15.477  33.986  1.00  0.00     0.176 HD
BRANCH   9  11
HETATM   11  C10 UNL     1      18.410  17.381  34.919  1.00  0.00     0.087 C 
HETATM   12  C11 UNL     1      18.529  16.929  36.373  1.00  0.00     0.033 C 
HETATM   13  C12 UNL     1      19.809  17.657  34.421  1.00  0.00     0.033 C 
ENDBRANCH   9  11
ENDBRANCH   8   9
ENDBRANCH   7   8
ENDBRANCH   6   7
BRANCH   1  14
HETATM   14  N1  UNL     1      16.788  15.182  31.027  1.00  0.00    -0.327 N 
HETATM   15  C2  UNL     1      17.108  14.000  31.704  1.00  0.00     0.218 C 
HETATM   16  C1  UNL     1      18.506  13.443  31.719  1.00  0.00     0.117 C 
HETATM   17  O1  UNL     1      16.282  13.331  32.332  1.00  0.00    -0.274 OA
ATOM     18  H1  UNL     1      17.558  15.646  30.544  1.00  0.00     0.169 HD
ENDBRANCH   1  14
TORSDOF 5
ENDMDL
MODEL 4
REMARK VINA RESULT: -5.501451563      2.817      5.722
REMARK  5 active torsions:
REMARK  status: ('A' for Active; 'I' for Inactive)
REMARK       I    between atoms: C2_2  and  N1_4 
REMARK    1  A    between atoms: N1_4  and  C3_6 
REMARK    2  A    between atoms: C8_11  and  C9_12 
REMARK    3  A    between atoms: C9_12  and  N2_13 
REMARK    4  A    between atoms: N2_13  and  N3_14 
REMARK    5  A    between atoms: N3_14  and  C10_16 
ROOT
HETATM    1  C3  UNL     1      15.842  15.538  33.299  1.00  0.00     0.042 A 
HETATM    2  C4  UNL     1      16.894  15.577  34.174  1.00  0.00     0.030 A 
HETATM    3  C5  UNL     1      17.779  16.670  34.249  1.00  0.00     0.002 A 
HETATM    4  C6  UNL     1      17.557  17.724  33.400  1.00  0.00     0.001 A 
HETATM    5  C7  UNL     1      16.502  17.723  32.500  1.00  0.00     0.011 A 
HETATM    6  C8  UNL     1      15.658  16.647  32.450  1.00  0.00    -0.015 A 
ENDROOT
BRANCH   6   7
HETATM    7  C9  UNL     1      14.540  16.604  31.512  1.00  0.00     0.175 C 
BRANCH   7   8
HETATM    8  N2  UNL     1      14.917  15.859  30.337  1.00  0.00    -0.141 NA
BRANCH   8   9
HETATM    9  N3  UNL     1      13.907  15.079  29.824  1.00  0.00    -0.335 N 
ATOM     10  H3  UNL     1      14.106  14.248  29.267  1.00  0.00     0.176 HD
BRANCH   9  11
HETATM   11  C10 UNL     1      12.588  15.478  30.099  1.00  0.00     0.087 C 
HETATM   12  C11 UNL     1      11.924  15.878  28.784  1.00  0.00     0.033 C 
HETATM   13  C12 UNL     1      11.783  14.340  30.680  1.00  0.00     0.033 C 
ENDBRANCH   9  11
ENDBRANCH   8   9
ENDBRANCH   7   8
ENDBRANCH   6   7
BRANCH   1  14
HETATM   14  N1  UNL     1      14.933  14.488  33.179  1.00  0.00    -0.327 N 
HETATM   15  C2  UNL     1      15.183  13.193  32.713  1.00  0.00     0.218 C 
HETATM   16  C1  UNL     1      14.100  12.150  32.636  1.00  0.00     0.117 C 
HETATM   17  O1  UNL     1      16.293  12.807  32.334  1.00  0.00    -0.274 OA
ATOM     18  H1  UNL     1      13.974  14.686  33.464  1.00  0.00     0.169 HD
ENDBRANCH   1  14
TORSDOF 5
ENDMDL
MODEL 5
REMARK VINA RESULT: -5.481885404      2.458      5.329
REMARK  5 active torsions:
REMARK  status: ('A' for Active; 'I' for Inactive)
REMARK       I    between atoms: C2_2  and  N1_4 
REMARK    1  A    between atoms: N1_4  and  C3_6 
REMARK    2  A    between atoms: C8_11  and  C9_12 
REMARK    3  A    between atoms: C9_12  and  N2_13 
REMARK    4  A    between atoms: N2_13  and  N3_14 
REMARK    5  A    between atoms: N3_14  and  C10_16 
ROOT
HETATM    1  C3  UNL     1      16.888  15.171  33.183  1.00  0.00     0.042 A 
HETATM    2  C4  UNL     1      18.098  15.728  33.501  1.00  0.00     0.030 A 
HETATM    3  C5  UNL     1      18.341  17.113  33.416  1.00  0.00     0.002 A 
HETATM    4  C6  UNL     1      17.310  17.912  32.994  1.00  0.00     0.001 A 
HETATM    5  C7  UNL     1      16.071  17.385  32.663  1.00  0.00     0.011 A 
HETATM    6  C8  UNL     1      15.863  16.036  32.756  1.00  0.00    -0.015 A 
ENDROOT
BRANCH   6   7
HETATM    7  C9  UNL     1      14.576  15.442  32.410  1.00  0.00     0.175 C 
BRANCH   7   8
HETATM    8  N2  UNL     1      14.582  15.035  31.026  1.00  0.00    -0.141 NA
BRANCH   8   9
HETATM    9  N3  UNL     1      13.980  15.935  30.178  1.00  0.00    -0.335 N 
ATOM     10  H3  UNL     1      14.524  16.484  29.511  1.00  0.00     0.176 HD
BRANCH   9  11
HETATM   11  C10 UNL     1      12.584  16.065  30.269  1.00  0.00     0.087 C 
HETATM   12  C11 UNL     1      12.265  17.478  30.751  1.00  0.00     0.033 C 
HETATM   13  C12 UNL     1      11.930  15.895  28.918  1.00  0.00     0.033 C 
ENDBRANCH   9  11
ENDBRANCH   8   9
ENDBRANCH   7   8
ENDBRANCH   6   7
BRANCH   1  14
HETATM   14  N1  UNL     1      16.588  13.811  33.248  1.00  0.00    -0.327 N 
HETATM   15  C2  UNL     1      17.061  12.792  32.415  1.00  0.00     0.218 C 
HETATM   16  C1  UNL     1      16.650  11.355  32.600  1.00  0.00     0.117 C 
HETATM   17  O1  UNL     1      17.839  12.985  31.477  1.00  0.00    -0.274 OA
ATOM     18  H1  UNL     1      15.948  13.526  33.990  1.00  0.00     0.169 HD
ENDBRANCH   1  14
TORSDOF 5
ENDMDL
