MODEL 1
REMARK VINA RESULT: -6.642611134      0.000      0.000
REMARK  7 active torsions:
REMARK  status: ('A' for Active; 'I' for Inactive)
REMARK    1  A    between atoms: C2_2  and  C3_3 
REMARK    2  A    between atoms: C3_3  and  N1_4 
REMARK       I    between atoms: N1_4  and  C4_6 
REMARK    3  A    between atoms: C4_6  and  O2_8 
REMARK    4  A    between atoms: O2_8  and  C5_9 
REMARK    5  A    between atoms: C16_22  and  C17_23 
REMARK    6  A    between atoms: C17_23  and  O3_24 
REMARK    7  A    between atoms: C17_23  and  C19_27 
ROOT
HETATM    1  O3  UNL     1       2.347   9.201   0.674  1.00  0.00    -0.271 OA
HETATM    2  C18 UNL     1       1.077   9.328   1.157  1.00  0.00     0.229 C 
HETATM    3  N3  UNL     1      -0.015   9.432   1.549  1.00  0.00    -0.164 NA
ENDROOT
BRANCH   1   4
HETATM    4  C17 UNL     1       2.908  10.065  -0.276  1.00  0.00     0.197 C 
BRANCH   4   5
HETATM    5  C16 UNL     1       4.092  10.897   0.147  1.00  0.00     0.044 C 
HETATM    6  C9  UNL     1       3.587  12.106   0.805  1.00  0.00    -0.013 A 
HETATM    7  C7  UNL     1       4.039  12.395   2.173  1.00  0.00    -0.001 A 
HETATM    8  C8  UNL     1       2.637  12.438   1.795  1.00  0.00     0.017 A 
HETATM    9  C10 UNL     1       4.118  13.457  -0.067  1.00  0.00     0.129 C 
HETATM   10  C6  UNL     1       4.600  11.315   2.980  1.00  0.00     0.039 C 
HETATM   11  C5  UNL     1       5.019  10.111   2.233  1.00  0.00     0.143 C 
HETATM   12  C14 UNL     1       5.220  10.157   0.792  1.00  0.00    -0.002 C 
HETATM   13  C12 UNL     1       6.568  10.956   0.343  1.00  0.00     0.031 C 
HETATM   14  C15 UNL     1       5.597   8.816   0.338  1.00  0.00     0.019 C 
HETATM   15  C11 UNL     1       6.009  12.192   0.046  1.00  0.00     0.060 C 
HETATM   16  C13 UNL     1       7.586  10.954   1.349  1.00  0.00     0.016 C 
HETATM   17  N2  UNL     1       5.344  12.865  -0.072  1.00  0.00    -0.401 N 
ATOM     18  H2  UNL     1       5.916  13.629  -0.431  1.00  0.00     0.158 HD
BRANCH  11  19
HETATM   19  O2  UNL     1       6.021   9.428   2.977  1.00  0.00    -0.298 OA
BRANCH  19  20
HETATM   20  C4  UNL     1       5.825   8.825   4.199  1.00  0.00     0.361 C 
HETATM   21  N1  UNL     1       4.727   7.952   4.478  1.00  0.00    -0.333 N 
ATOM     22  H1  UNL     1       4.026   7.730   3.770  1.00  0.00     0.165 HD
HETATM   23  O1  UNL     1       6.683   9.087   5.090  1.00  0.00    -0.238 OA
BRANCH  21  24
HETATM   24  C3  UNL     1       4.658   7.399   5.814  1.00  0.00     0.151 C 
BRANCH  24  25
HETATM   25  C2  UNL     1       5.248   6.069   5.958  1.00  0.00    -0.018 C 
HETATM   26  C1  UNL     1       6.324   5.911   6.706  1.00  0.00     0.008 C 
ENDBRANCH  24  25
ENDBRANCH  21  24
ENDBRANCH  19  20
ENDBRANCH  11  19
ENDBRANCH   4   5
BRANCH   4  27
HETATM   27  C19 UNL     1       3.055   9.324  -1.550  1.00  0.00     0.042 A 
HETATM   28  C20 UNL     1       3.233   7.927  -1.566  1.00  0.00     0.028 A 
HETATM   29  C21 UNL     1       3.379   7.198  -2.704  1.00  0.00     0.003 A 
HETATM   30  C22 UNL     1       3.359   7.831  -3.921  1.00  0.00     0.017 A 
HETATM   31  C23 UNL     1       3.188   9.191  -3.910  1.00  0.00     0.090 A 
HETATM   32  N4  UNL     1       3.041   9.897  -2.741  1.00  0.00    -0.362 N 
HETATM   33  C24 UNL     1       2.870  11.297  -2.914  1.00  0.00     0.155 C 
ENDBRANCH   4  27
ENDBRANCH   1   4
TORSDOF 7
ENDMDL
MODEL 2
REMARK VINA RESULT: -6.627975273      2.441      3.701
REMARK  7 active torsions:
REMARK  status: ('A' for Active; 'I' for Inactive)
REMARK    1  A    between atoms: C2_2  and  C3_3 
REMARK    2  A    between atoms: C3_3  and  N1_4 
REMARK       I    between atoms: N1_4  and  C4_6 
REMARK    3  A    between atoms: C4_6  and  O2_8 
REMARK    4  A    between atoms: O2_8  and  C5_9 
REMARK    5  A    between atoms: C16_22  and  C17_23 
REMARK    6  A    between atoms: C17_23  and  O3_24 
REMARK    7  A    between atoms: C17_23  and  C19_27 
ROOT
HETATM    1  O3  UNL     1       2.290   8.998   2.076  1.00  0.00    -0.271 OA
HETATM    2  C18 UNL     1       2.220   9.071   3.437  1.00  0.00     0.229 C 
HETATM    3  N3  UNL     1       2.137   9.132   4.597  1.00  0.00    -0.164 NA
ENDROOT
BRANCH   1   4
HETATM    4  C17 UNL     1       1.806   9.994   1.217  1.00  0.00     0.197 C 
BRANCH   4   5
HETATM    5  C16 UNL     1       2.816  10.807   0.449  1.00  0.00     0.044 C 
HETATM    6  C9  UNL     1       2.769  12.184   0.951  1.00  0.00    -0.013 A 
HETATM    7  C7  UNL     1       4.011  12.784   1.458  1.00  0.00    -0.001 A 
HETATM    8  C8  UNL     1       2.765  12.841   2.201  1.00  0.00     0.017 A 
HETATM    9  C10 UNL     1       2.341  13.210  -0.325  1.00  0.00     0.129 C 
HETATM   10  C6  UNL     1       5.115  11.911   1.846  1.00  0.00     0.039 C 
HETATM   11  C5  UNL     1       5.039  10.523   1.345  1.00  0.00     0.143 C 
HETATM   12  C14 UNL     1       4.155  10.172   0.244  1.00  0.00    -0.002 C 
HETATM   13  C12 UNL     1       4.667  10.713  -1.207  1.00  0.00     0.031 C 
HETATM   14  C15 UNL     1       4.275   8.734  -0.002  1.00  0.00     0.019 C 
HETATM   15  C11 UNL     1       3.902  11.869  -1.298  1.00  0.00     0.060 C 
HETATM   16  C13 UNL     1       6.085  10.892  -1.273  1.00  0.00     0.016 C 
HETATM   17  N2  UNL     1       3.267  12.540  -1.062  1.00  0.00    -0.401 N 
ATOM     18  H2  UNL     1       3.309  13.133  -1.891  1.00  0.00     0.158 HD
BRANCH  11  19
HETATM   19  O2  UNL     1       6.353   9.980   1.281  1.00  0.00    -0.298 OA
BRANCH  19  20
HETATM   20  C4  UNL     1       7.255   9.969   2.321  1.00  0.00     0.361 C 
HETATM   21  N1  UNL     1       8.547  10.581   2.247  1.00  0.00    -0.333 N 
ATOM     22  H1  UNL     1       8.863  11.063   1.406  1.00  0.00     0.165 HD
HETATM   23  O1  UNL     1       6.882   9.377   3.374  1.00  0.00    -0.238 OA
BRANCH  21  24
HETATM   24  C3  UNL     1       9.383  10.481   3.426  1.00  0.00     0.151 C 
BRANCH  24  25
HETATM   25  C2  UNL     1      10.293  11.607   3.629  1.00  0.00    -0.018 C 
HETATM   26  C1  UNL     1      10.558  12.016   4.856  1.00  0.00     0.008 C 
ENDBRANCH  24  25
ENDBRANCH  21  24
ENDBRANCH  19  20
ENDBRANCH  11  19
ENDBRANCH   4   5
BRANCH   4  27
HETATM   27  C19 UNL     1       0.691   9.425   0.425  1.00  0.00     0.042 A 
HETATM   28  C20 UNL     1       0.934   8.624  -0.707  1.00  0.00     0.028 A 
HETATM   29  C21 UNL     1      -0.049   8.081  -1.473  1.00  0.00     0.003 A 
HETATM   30  C22 UNL     1      -1.363   8.312  -1.151  1.00  0.00     0.017 A 
HETATM   31  C23 UNL     1      -1.604   9.092  -0.051  1.00  0.00     0.090 A 
HETATM   32  N4  UNL     1      -0.586   9.624   0.702  1.00  0.00    -0.362 N 
HETATM   33  C24 UNL     1      -1.015  10.404   1.809  1.00  0.00     0.155 C 
ENDBRANCH   4  27
ENDBRANCH   1   4
TORSDOF 7
ENDMDL
MODEL 3
REMARK VINA RESULT: -6.606984123      1.930      2.882
REMARK  7 active torsions:
REMARK  status: ('A' for Active; 'I' for Inactive)
REMARK    1  A    between atoms: C2_2  and  C3_3 
REMARK    2  A    between atoms: C3_3  and  N1_4 
REMARK       I    between atoms: N1_4  and  C4_6 
REMARK    3  A    between atoms: C4_6  and  O2_8 
REMARK    4  A    between atoms: O2_8  and  C5_9 
REMARK    5  A    between atoms: C16_22  and  C17_23 
REMARK    6  A    between atoms: C17_23  and  O3_24 
REMARK    7  A    between atoms: C17_23  and  C19_27 
ROOT
HETATM    1  O3  UNL     1       1.964   9.092   1.946  1.00  0.00    -0.271 OA
HETATM    2  C18 UNL     1       1.961   9.251   3.302  1.00  0.00     0.229 C 
HETATM    3  N3  UNL     1       1.937   9.387   4.459  1.00  0.00    -0.164 NA
ENDROOT
BRANCH   1   4
HETATM    4  C17 UNL     1       1.516  10.070   1.048  1.00  0.00     0.197 C 
BRANCH   4   5
HETATM    5  C16 UNL     1       2.557  10.882   0.320  1.00  0.00     0.044 C 
HETATM    6  C9  UNL     1       2.331  12.297   0.631  1.00  0.00    -0.013 A 
HETATM    7  C7  UNL     1       3.437  13.068   1.214  1.00  0.00    -0.001 A 
HETATM    8  C8  UNL     1       2.098  13.091   1.775  1.00  0.00     0.017 A 
HETATM    9  C10 UNL     1       2.008  13.122  -0.811  1.00  0.00     0.129 C 
HETATM   10  C6  UNL     1       4.541  12.356   1.853  1.00  0.00     0.039 C 
HETATM   11  C5  UNL     1       4.647  10.919   1.528  1.00  0.00     0.143 C 
HETATM   12  C14 UNL     1       3.957  10.359   0.375  1.00  0.00    -0.002 C 
HETATM   13  C12 UNL     1       4.625  10.773  -1.053  1.00  0.00     0.031 C 
HETATM   14  C15 UNL     1       4.225   8.919   0.334  1.00  0.00     0.019 C 
HETATM   15  C11 UNL     1       3.793  11.832  -1.392  1.00  0.00     0.060 C 
HETATM   16  C13 UNL     1       6.020  11.079  -0.956  1.00  0.00     0.016 C 
HETATM   17  N2  UNL     1       3.079  12.462  -1.329  1.00  0.00    -0.401 N 
ATOM     18  H2  UNL     1       3.191  12.956  -2.214  1.00  0.00     0.158 HD
BRANCH  11  19
HETATM   19  O2  UNL     1       5.995  10.500   1.707  1.00  0.00    -0.298 OA
BRANCH  19  20
HETATM   20  C4  UNL     1       6.479   9.848   2.819  1.00  0.00     0.361 C 
HETATM   21  N1  UNL     1       5.638   9.219   3.790  1.00  0.00    -0.333 N 
ATOM     22  H1  UNL     1       4.621   9.224   3.701  1.00  0.00     0.165 HD
HETATM   23  O1  UNL     1       7.737   9.830   2.947  1.00  0.00    -0.238 OA
BRANCH  21  24
HETATM   24  C3  UNL     1       6.300   8.576   4.906  1.00  0.00     0.151 C 
BRANCH  24  25
HETATM   25  C2  UNL     1       5.610   7.400   5.433  1.00  0.00    -0.018 C 
HETATM   26  C1  UNL     1       5.945   6.199   4.995  1.00  0.00     0.008 C 
ENDBRANCH  24  25
ENDBRANCH  21  24
ENDBRANCH  19  20
ENDBRANCH  11  19
ENDBRANCH   4   5
BRANCH   4  27
HETATM   27  C19 UNL     1       0.450   9.478   0.208  1.00  0.00     0.042 A 
HETATM   28  C20 UNL     1       0.759   8.682  -0.912  1.00  0.00     0.028 A 
HETATM   29  C21 UNL     1      -0.178   8.119  -1.720  1.00  0.00     0.003 A 
HETATM   30  C22 UNL     1      -1.510   8.321  -1.456  1.00  0.00     0.017 A 
HETATM   31  C23 UNL     1      -1.815   9.096  -0.368  1.00  0.00     0.090 A 
HETATM   32  N4  UNL     1      -0.842   9.649   0.429  1.00  0.00    -0.362 N 
HETATM   33  C24 UNL     1      -1.337  10.419   1.516  1.00  0.00     0.155 C 
ENDBRANCH   4  27
ENDBRANCH   1   4
TORSDOF 7
ENDMDL
MODEL 4
REMARK VINA RESULT: -6.425732198      1.234      1.454
REMARK  7 active torsions:
REMARK  status: ('A' for Active; 'I' for Inactive)
REMARK    1  A    between atoms: C2_2  and  C3_3 
REMARK    2  A    between atoms: C3_3  and  N1_4 
REMARK       I    between atoms: N1_4  and  C4_6 
REMARK    3  A    between atoms: C4_6  and  O2_8 
REMARK    4  A    between atoms: O2_8  and  C5_9 
REMARK    5  A    between atoms: C16_22  and  C17_23 
REMARK    6  A    between atoms: C17_23  and  O3_24 
REMARK    7  A    between atoms: C17_23  and  C19_27 
ROOT
HETATM    1  O3  UNL     1       2.604   9.048  -0.311  1.00  0.00    -0.271 OA
HETATM    2  C18 UNL     1       1.450   8.450  -0.729  1.00  0.00     0.229 C 
HETATM    3  N3  UNL     1       0.473   7.941  -1.107  1.00  0.00    -0.164 NA
ENDROOT
BRANCH   1   4
HETATM    4  C17 UNL     1       2.961  10.362  -0.638  1.00  0.00     0.197 C 
BRANCH   4   5
HETATM    5  C16 UNL     1       4.141  10.966   0.080  1.00  0.00     0.044 C 
HETATM    6  C9  UNL     1       3.671  12.142   0.820  1.00  0.00    -0.013 A 
HETATM    7  C7  UNL     1       3.909  12.194   2.269  1.00  0.00    -0.001 A 
HETATM    8  C8  UNL     1       2.608  12.474   1.688  1.00  0.00     0.017 A 
HETATM    9  C10 UNL     1       4.494  13.506   0.247  1.00  0.00     0.129 C 
HETATM   10  C6  UNL     1       4.196  10.956   2.988  1.00  0.00     0.039 C 
HETATM   11  C5  UNL     1       4.599   9.809   2.148  1.00  0.00     0.143 C 
HETATM   12  C14 UNL     1       5.050  10.006   0.778  1.00  0.00    -0.002 C 
HETATM   13  C12 UNL     1       6.537  10.664   0.665  1.00  0.00     0.031 C 
HETATM   14  C15 UNL     1       5.345   8.693   0.199  1.00  0.00     0.019 C 
HETATM   15  C11 UNL     1       6.181  11.992   0.467  1.00  0.00     0.060 C 
HETATM   16  C13 UNL     1       7.359  10.399   1.807  1.00  0.00     0.016 C 
HETATM   17  N2  UNL     1       5.627  12.758   0.346  1.00  0.00    -0.401 N 
ATOM     18  H2  UNL     1       6.335  13.476   0.195  1.00  0.00     0.158 HD
BRANCH  11  19
HETATM   19  O2  UNL     1       5.374   8.909   2.932  1.00  0.00    -0.298 OA
BRANCH  19  20
HETATM   20  C4  UNL     1       5.171   8.650   4.269  1.00  0.00     0.361 C 
HETATM   21  N1  UNL     1       3.978   8.049   4.781  1.00  0.00    -0.333 N 
ATOM     22  H1  UNL     1       3.209   7.778   4.168  1.00  0.00     0.165 HD
HETATM   23  O1  UNL     1       6.113   8.977   5.046  1.00  0.00    -0.238 OA
BRANCH  21  24
HETATM   24  C3  UNL     1       3.916   7.844   6.214  1.00  0.00     0.151 C 
BRANCH  24  25
HETATM   25  C2  UNL     1       3.832   6.444   6.629  1.00  0.00    -0.018 C 
HETATM   26  C1  UNL     1       4.930   5.712   6.674  1.00  0.00     0.008 C 
ENDBRANCH  24  25
ENDBRANCH  21  24
ENDBRANCH  19  20
ENDBRANCH  11  19
ENDBRANCH   4   5
BRANCH   4  27
HETATM   27  C19 UNL     1       2.962  10.491  -2.113  1.00  0.00     0.042 A 
HETATM   28  C20 UNL     1       3.958   9.879  -2.899  1.00  0.00     0.028 A 
HETATM   29  C21 UNL     1       4.011   9.969  -4.255  1.00  0.00     0.003 A 
HETATM   30  C22 UNL     1       3.056  10.693  -4.924  1.00  0.00     0.017 A 
HETATM   31  C23 UNL     1       2.086  11.291  -4.162  1.00  0.00     0.090 A 
HETATM   32  N4  UNL     1       2.061  11.178  -2.794  1.00  0.00    -0.362 N 
HETATM   33  C24 UNL     1       0.984  11.859  -2.164  1.00  0.00     0.155 C 
ENDBRANCH   4  27
ENDBRANCH   1   4
TORSDOF 7
ENDMDL
MODEL 5
REMARK VINA RESULT: -6.236360611      1.960      3.105
REMARK  7 active torsions:
REMARK  status: ('A' for Active; 'I' for Inactive)
REMARK    1  A    between atoms: C2_2  and  C3_3 
REMARK    2  A    between atoms: C3_3  and  N1_4 
REMARK       I    between atoms: N1_4  and  C4_6 
REMARK    3  A    between atoms: C4_6  and  O2_8 
REMARK    4  A    between atoms: O2_8  and  C5_9 
REMARK    5  A    between atoms: C16_22  and  C17_23 
REMARK    6  A    between atoms: C17_23  and  O3_24 
REMARK    7  A    between atoms: C17_23  and  C19_27 
ROOT
HETATM    1  O3  UNL     1       3.300   8.258  -0.745  1.00  0.00    -0.271 OA
HETATM    2  C18 UNL     1       3.330   7.462  -1.854  1.00  0.00     0.229 C 
HETATM    3  N3  UNL     1       3.355   6.802  -2.813  1.00  0.00    -0.164 NA
ENDROOT
BRANCH   1   4
HETATM    4  C17 UNL     1       2.193   9.032  -0.374  1.00  0.00     0.197 C 
BRANCH   4   5
HETATM    5  C16 UNL     1       2.394  10.072   0.699  1.00  0.00     0.044 C 
HETATM    6  C9  UNL     1       1.098  10.327   1.335  1.00  0.00    -0.013 A 
HETATM    7  C7  UNL     1       0.989  10.150   2.790  1.00  0.00    -0.001 A 
HETATM    8  C8  UNL     1       0.028   9.573   1.866  1.00  0.00     0.017 A 
HETATM    9  C10 UNL     1       0.700  11.958   1.118  1.00  0.00     0.129 C 
HETATM   10  C6  UNL     1       1.989   9.343   3.484  1.00  0.00     0.039 C 
HETATM   11  C5  UNL     1       3.236   9.086   2.734  1.00  0.00     0.143 C 
HETATM   12  C14 UNL     1       3.592   9.891   1.576  1.00  0.00    -0.002 C 
HETATM   13  C12 UNL     1       4.080  11.401   1.951  1.00  0.00     0.031 C 
HETATM   14  C15 UNL     1       4.852   9.381   1.031  1.00  0.00     0.019 C 
HETATM   15  C11 UNL     1       2.888  12.082   1.738  1.00  0.00     0.060 C 
HETATM   16  C13 UNL     1       4.633  11.504   3.267  1.00  0.00     0.016 C 
HETATM   17  N2  UNL     1       1.976  12.232   1.504  1.00  0.00    -0.401 N 
ATOM     18  H2  UNL     1       1.922  13.245   1.615  1.00  0.00     0.158 HD
BRANCH  11  19
HETATM   19  O2  UNL     1       4.288   8.829   3.657  1.00  0.00    -0.298 OA
BRANCH  19  20
HETATM   20  C4  UNL     1       4.119   8.331   4.930  1.00  0.00     0.361 C 
HETATM   21  N1  UNL     1       3.853   6.953   5.206  1.00  0.00    -0.333 N 
ATOM     22  H1  UNL     1       3.776   6.262   4.460  1.00  0.00     0.165 HD
HETATM   23  O1  UNL     1       4.212   9.172   5.870  1.00  0.00    -0.238 OA
BRANCH  21  24
HETATM   24  C3  UNL     1       3.697   6.587   6.599  1.00  0.00     0.151 C 
BRANCH  24  25
HETATM   25  C2  UNL     1       4.708   5.661   7.106  1.00  0.00    -0.018 C 
HETATM   26  C1  UNL     1       5.984   5.884   6.847  1.00  0.00     0.008 C 
ENDBRANCH  24  25
ENDBRANCH  21  24
ENDBRANCH  19  20
ENDBRANCH  11  19
ENDBRANCH   4   5
BRANCH   4  27
HETATM   27  C19 UNL     1       1.512   9.492  -1.606  1.00  0.00     0.042 A 
HETATM   28  C20 UNL     1       2.069  10.502  -2.415  1.00  0.00     0.028 A 
HETATM   29  C21 UNL     1       1.486  10.966  -3.552  1.00  0.00     0.003 A 
HETATM   30  C22 UNL     1       0.285  10.443  -3.959  1.00  0.00     0.017 A 
HETATM   31  C23 UNL     1      -0.262   9.461  -3.175  1.00  0.00     0.090 A 
HETATM   32  N4  UNL     1       0.356   9.014  -2.032  1.00  0.00    -0.362 N 
HETATM   33  C24 UNL     1      -0.348   7.990  -1.343  1.00  0.00     0.155 C 
ENDBRANCH   4  27
ENDBRANCH   1   4
TORSDOF 7
ENDMDL
