MODEL 1
REMARK VINA RESULT: -5.837082760      0.000      0.000
REMARK  4 active torsions:
REMARK  status: ('A' for Active; 'I' for Inactive)
REMARK    1  A    between atoms: N1_1  and  C1_4 
REMARK    2  A    between atoms: C2_9  and  C3_10 
REMARK    3  A    between atoms: C4_11  and  C5_12 
REMARK       I    between atoms: C5_12  and  N4_14 
REMARK    4  A    between atoms: N4_14  and  C6_16 
ROOT
HETATM    1  C3  UNL     1       2.043 -15.196 -52.404  1.00  0.00     0.044 C 
HETATM    2  C4  UNL     1       1.957 -15.341 -51.129  1.00  0.00     0.077 C 
ENDROOT
BRANCH   2   3
HETATM    3  C5  UNL     1       0.914 -16.104 -50.483  1.00  0.00     0.246 C 
HETATM    4  O1  UNL     1      -0.319 -15.784 -50.635  1.00  0.00    -0.268 OA
HETATM    5  N4  UNL     1       1.239 -17.218 -49.674  1.00  0.00    -0.312 N 
ATOM      6  H4  UNL     1       2.220 -17.472 -49.552  1.00  0.00     0.170 HD
BRANCH   5   7
HETATM    7  C6  UNL     1       0.234 -18.000 -49.020  1.00  0.00     0.107 A 
HETATM    8  N5  UNL     1      -0.013 -18.000 -47.756  1.00  0.00    -0.286 N 
HETATM    9  N6  UNL     1      -1.048 -18.862 -47.428  1.00  0.00    -0.268 N 
ATOM     10  H5  UNL     1       0.494 -17.433 -47.077  1.00  0.00     0.188 HD
HETATM   11  C7  UNL     1      -1.519 -19.484 -48.616  1.00  0.00     0.243 A 
ATOM     12  H6  UNL     1      -1.412 -19.024 -46.489  1.00  0.00     0.190 HD
HETATM   13  O2  UNL     1      -2.430 -20.311 -48.787  1.00  0.00    -0.271 OA
HETATM   14  C8  UNL     1      -0.670 -18.938 -49.715  1.00  0.00     0.182 A 
ENDBRANCH   5   7
ENDBRANCH   2   3
BRANCH   1  15
HETATM   15  C2  UNL     1       3.171 -14.381 -52.942  1.00  0.00     0.092 A 
HETATM   16  N3  UNL     1       4.467 -14.610 -52.822  1.00  0.00    -0.292 N 
HETATM   17  N2  UNL     1       5.308 -13.810 -53.345  1.00  0.00    -0.279 N 
ATOM     18  H3  UNL     1       4.794 -15.429 -52.309  1.00  0.00     0.187 HD
HETATM   19  C1  UNL     1       4.850 -12.747 -54.009  1.00  0.00     0.159 A 
ATOM     20  H2  UNL     1       6.310 -13.978 -53.259  1.00  0.00     0.189 HD
HETATM   21  S1  UNL     1       3.158 -12.939 -53.855  1.00  0.00    -0.034 SA
BRANCH  19  22
HETATM   22  N1  UNL     1       5.576 -11.829 -54.605  1.00  0.00    -0.379 N 
ATOM     23  H12 UNL     1       6.581 -11.756 -54.769  1.00  0.00     0.158 HD
ATOM     24  H11 UNL     1       5.232 -10.970 -55.034  1.00  0.00     0.158 HD
ENDBRANCH  19  22
ENDBRANCH   1  15
TORSDOF 4
ENDMDL
MODEL 2
REMARK VINA RESULT: -5.651564146      1.121      1.163
REMARK  4 active torsions:
REMARK  status: ('A' for Active; 'I' for Inactive)
REMARK    1  A    between atoms: N1_1  and  C1_4 
REMARK    2  A    between atoms: C2_9  and  C3_10 
REMARK    3  A    between atoms: C4_11  and  C5_12 
REMARK       I    between atoms: C5_12  and  N4_14 
REMARK    4  A    between atoms: N4_14  and  C6_16 
ROOT
HETATM    1  C3  UNL     1       2.069 -14.870 -52.384  1.00  0.00     0.044 C 
HETATM    2  C4  UNL     1       2.215 -15.742 -51.450  1.00  0.00     0.077 C 
ENDROOT
BRANCH   2   3
HETATM    3  C5  UNL     1       1.108 -16.418 -50.812  1.00  0.00     0.246 C 
HETATM    4  O1  UNL     1       0.139 -16.885 -51.510  1.00  0.00    -0.268 OA
HETATM    5  N4  UNL     1       1.080 -16.573 -49.406  1.00  0.00    -0.312 N 
ATOM      6  H4  UNL     1       1.850 -16.201 -48.851  1.00  0.00     0.170 HD
BRANCH   5   7
HETATM    7  C6  UNL     1       0.002 -17.238 -48.739  1.00  0.00     0.107 A 
HETATM    8  N5  UNL     1       0.106 -18.296 -48.013  1.00  0.00    -0.286 N 
HETATM    9  N6  UNL     1      -1.118 -18.698 -47.501  1.00  0.00    -0.268 N 
ATOM     10  H5  UNL     1       0.986 -18.780 -47.835  1.00  0.00     0.188 HD
HETATM   11  C7  UNL     1      -2.121 -17.797 -47.950  1.00  0.00     0.243 A 
ATOM     12  H6  UNL     1      -1.274 -19.509 -46.901  1.00  0.00     0.190 HD
HETATM   13  O2  UNL     1      -3.343 -17.774 -47.728  1.00  0.00    -0.271 OA
HETATM   14  C8  UNL     1      -1.408 -16.800 -48.801  1.00  0.00     0.182 A 
ENDBRANCH   5   7
ENDBRANCH   2   3
BRANCH   1  15
HETATM   15  C2  UNL     1       3.297 -14.247 -52.958  1.00  0.00     0.092 A 
HETATM   16  N3  UNL     1       4.553 -14.623 -52.789  1.00  0.00    -0.292 N 
HETATM   17  N2  UNL     1       5.494 -13.978 -53.355  1.00  0.00    -0.279 N 
ATOM     18  H3  UNL     1       4.768 -15.431 -52.205  1.00  0.00     0.187 HD
HETATM   19  C1  UNL     1       5.181 -12.925 -54.112  1.00  0.00     0.159 A 
ATOM     20  H2  UNL     1       6.466 -14.260 -53.231  1.00  0.00     0.189 HD
HETATM   21  S1  UNL     1       3.477 -12.895 -53.983  1.00  0.00    -0.034 SA
BRANCH  19  22
HETATM   22  N1  UNL     1       6.024 -12.155 -54.761  1.00  0.00    -0.379 N 
ATOM     23  H12 UNL     1       7.036 -12.040 -54.688  1.00  0.00     0.158 HD
ATOM     24  H11 UNL     1       5.792 -11.493 -55.502  1.00  0.00     0.158 HD
ENDBRANCH  19  22
ENDBRANCH   1  15
TORSDOF 4
ENDMDL
MODEL 3
REMARK VINA RESULT: -5.301435021      1.367      1.525
REMARK  4 active torsions:
REMARK  status: ('A' for Active; 'I' for Inactive)
REMARK    1  A    between atoms: N1_1  and  C1_4 
REMARK    2  A    between atoms: C2_9  and  C3_10 
REMARK    3  A    between atoms: C4_11  and  C5_12 
REMARK       I    between atoms: C5_12  and  N4_14 
REMARK    4  A    between atoms: N4_14  and  C6_16 
ROOT
HETATM    1  C3  UNL     1       3.124 -14.850 -52.548  1.00  0.00     0.044 C 
HETATM    2  C4  UNL     1       2.031 -14.843 -51.870  1.00  0.00     0.077 C 
ENDROOT
BRANCH   2   3
HETATM    3  C5  UNL     1       1.594 -15.951 -51.053  1.00  0.00     0.246 C 
HETATM    4  O1  UNL     1       2.264 -17.045 -51.023  1.00  0.00    -0.268 OA
HETATM    5  N4  UNL     1       0.419 -15.845 -50.272  1.00  0.00    -0.312 N 
ATOM      6  H4  UNL     1      -0.115 -14.976 -50.296  1.00  0.00     0.170 HD
BRANCH   5   7
HETATM    7  C6  UNL     1      -0.044 -16.921 -49.449  1.00  0.00     0.107 A 
HETATM    8  N5  UNL     1       0.469 -17.281 -48.325  1.00  0.00    -0.286 N 
HETATM    9  N6  UNL     1      -0.204 -18.357 -47.766  1.00  0.00    -0.268 N 
ATOM     10  H5  UNL     1       1.277 -16.829 -47.897  1.00  0.00     0.188 HD
HETATM   11  C7  UNL     1      -1.271 -18.727 -48.629  1.00  0.00     0.243 A 
ATOM     12  H6  UNL     1       0.028 -18.808 -46.881  1.00  0.00     0.190 HD
HETATM   13  O2  UNL     1      -2.125 -19.622 -48.518  1.00  0.00    -0.271 OA
HETATM   14  C8  UNL     1      -1.191 -17.788 -49.787  1.00  0.00     0.182 A 
ENDBRANCH   5   7
ENDBRANCH   2   3
BRANCH   1  15
HETATM   15  C2  UNL     1       3.458 -13.638 -53.352  1.00  0.00     0.092 A 
HETATM   16  N3  UNL     1       4.654 -13.136 -53.605  1.00  0.00    -0.292 N 
HETATM   17  N2  UNL     1       4.768 -12.086 -54.316  1.00  0.00    -0.279 N 
ATOM     18  H3  UNL     1       5.487 -13.591 -53.229  1.00  0.00     0.187 HD
HETATM   19  C1  UNL     1       3.661 -11.514 -54.792  1.00  0.00     0.159 A 
ATOM     20  H2  UNL     1       5.687 -11.691 -54.517  1.00  0.00     0.189 HD
HETATM   21  S1  UNL     1       2.443 -12.545 -54.179  1.00  0.00    -0.034 SA
BRANCH  19  22
HETATM   22  N1  UNL     1       3.602 -10.434 -55.537  1.00  0.00    -0.379 N 
ATOM     23  H12 UNL     1       4.090  -9.540 -55.479  1.00  0.00     0.158 HD
ATOM     24  H11 UNL     1       3.014 -10.298 -56.359  1.00  0.00     0.158 HD
ENDBRANCH  19  22
ENDBRANCH   1  15
TORSDOF 4
ENDMDL
MODEL 4
REMARK VINA RESULT: -5.196360210      1.682      1.774
REMARK  4 active torsions:
REMARK  status: ('A' for Active; 'I' for Inactive)
REMARK    1  A    between atoms: N1_1  and  C1_4 
REMARK    2  A    between atoms: C2_9  and  C3_10 
REMARK    3  A    between atoms: C4_11  and  C5_12 
REMARK       I    between atoms: C5_12  and  N4_14 
REMARK    4  A    between atoms: N4_14  and  C6_16 
ROOT
HETATM    1  C3  UNL     1       2.889 -14.715 -52.602  1.00  0.00     0.044 C 
HETATM    2  C4  UNL     1       1.825 -14.765 -51.880  1.00  0.00     0.077 C 
ENDROOT
BRANCH   2   3
HETATM    3  C5  UNL     1       1.491 -15.886 -51.032  1.00  0.00     0.246 C 
HETATM    4  O1  UNL     1       2.285 -16.887 -50.930  1.00  0.00    -0.268 OA
HETATM    5  N4  UNL     1       0.279 -15.893 -50.300  1.00  0.00    -0.312 N 
ATOM      6  H4  UNL     1      -0.353 -15.096 -50.382  1.00  0.00     0.170 HD
BRANCH   5   7
HETATM    7  C6  UNL     1      -0.085 -16.984 -49.448  1.00  0.00     0.107 A 
HETATM    8  N5  UNL     1       0.411 -17.228 -48.286  1.00  0.00    -0.286 N 
HETATM    9  N6  UNL     1      -0.149 -18.357 -47.708  1.00  0.00    -0.268 N 
ATOM     10  H5  UNL     1       1.131 -16.657 -47.843  1.00  0.00     0.188 HD
HETATM   11  C7  UNL     1      -1.113 -18.898 -48.600  1.00  0.00     0.243 A 
ATOM     12  H6  UNL     1       0.093 -18.737 -46.792  1.00  0.00     0.190 HD
HETATM   13  O2  UNL     1      -1.851 -19.891 -48.486  1.00  0.00    -0.271 OA
HETATM   14  C8  UNL     1      -1.093 -18.006 -49.797  1.00  0.00     0.182 A 
ENDBRANCH   5   7
ENDBRANCH   2   3
BRANCH   1  15
HETATM   15  C2  UNL     1       3.114 -13.498 -53.434  1.00  0.00     0.092 A 
HETATM   16  N3  UNL     1       2.219 -12.612 -53.836  1.00  0.00    -0.292 N 
HETATM   17  N2  UNL     1       2.578 -11.619 -54.547  1.00  0.00    -0.279 N 
ATOM     18  H3  UNL     1       1.238 -12.725 -53.575  1.00  0.00     0.187 HD
HETATM   19  C1  UNL     1       3.866 -11.499 -54.871  1.00  0.00     0.159 A 
ATOM     20  H2  UNL     1       1.894 -10.930 -54.861  1.00  0.00     0.189 HD
HETATM   21  S1  UNL     1       4.548 -12.871 -54.113  1.00  0.00    -0.034 SA
BRANCH  19  22
HETATM   22  N1  UNL     1       4.401 -10.541 -55.594  1.00  0.00    -0.379 N 
ATOM     23  H12 UNL     1       4.654  -9.578 -55.368  1.00  0.00     0.158 HD
ATOM     24  H11 UNL     1       4.672 -10.603 -56.575  1.00  0.00     0.158 HD
ENDBRANCH  19  22
ENDBRANCH   1  15
TORSDOF 4
ENDMDL
MODEL 5
REMARK VINA RESULT: -5.134231270      1.821      1.844
REMARK  4 active torsions:
REMARK  status: ('A' for Active; 'I' for Inactive)
REMARK    1  A    between atoms: N1_1  and  C1_4 
REMARK    2  A    between atoms: C2_9  and  C3_10 
REMARK    3  A    between atoms: C4_11  and  C5_12 
REMARK       I    between atoms: C5_12  and  N4_14 
REMARK    4  A    between atoms: N4_14  and  C6_16 
ROOT
HETATM    1  C3  UNL     1       1.093 -14.788 -52.511  1.00  0.00     0.044 C 
HETATM    2  C4  UNL     1       1.675 -15.115 -51.411  1.00  0.00     0.077 C 
ENDROOT
BRANCH   2   3
HETATM    3  C5  UNL     1       1.257 -16.228 -50.590  1.00  0.00     0.246 C 
HETATM    4  O1  UNL     1       2.103 -17.116 -50.215  1.00  0.00    -0.268 OA
HETATM    5  N4  UNL     1      -0.093 -16.352 -50.188  1.00  0.00    -0.312 N 
ATOM      6  H4  UNL     1      -0.766 -15.647 -50.487  1.00  0.00     0.170 HD
BRANCH   5   7
HETATM    7  C6  UNL     1      -0.544 -17.440 -49.373  1.00  0.00     0.107 A 
HETATM    8  N5  UNL     1      -0.422 -17.521 -48.095  1.00  0.00    -0.286 N 
HETATM    9  N6  UNL     1      -0.960 -18.697 -47.594  1.00  0.00    -0.268 N 
ATOM     10  H5  UNL     1       0.019 -16.805 -47.518  1.00  0.00     0.188 HD
HETATM   11  C7  UNL     1      -1.487 -19.455 -48.674  1.00  0.00     0.243 A 
ATOM     12  H6  UNL     1      -0.974 -18.973 -46.612  1.00  0.00     0.190 HD
HETATM   13  O2  UNL     1      -2.062 -20.557 -48.682  1.00  0.00    -0.271 OA
HETATM   14  C8  UNL     1      -1.216 -18.646 -49.898  1.00  0.00     0.182 A 
ENDBRANCH   5   7
ENDBRANCH   2   3
BRANCH   1  15
HETATM   15  C2  UNL     1       1.626 -13.615 -53.263  1.00  0.00     0.092 A 
HETATM   16  N3  UNL     1       2.887 -13.242 -53.399  1.00  0.00    -0.292 N 
HETATM   17  N2  UNL     1       3.177 -12.207 -54.081  1.00  0.00    -0.279 N 
ATOM     18  H3  UNL     1       3.629 -13.785 -52.956  1.00  0.00     0.187 HD
HETATM   19  C1  UNL     1       2.185 -11.517 -54.647  1.00  0.00     0.159 A 
ATOM     20  H2  UNL     1       4.147 -11.911 -54.192  1.00  0.00     0.189 HD
HETATM   21  S1  UNL     1       0.813 -12.414 -54.163  1.00  0.00    -0.034 SA
BRANCH  19  22
HETATM   22  N1  UNL     1       2.309 -10.433 -55.378  1.00  0.00    -0.379 N 
ATOM     23  H12 UNL     1       2.824  -9.565 -55.226  1.00  0.00     0.158 HD
ATOM     24  H11 UNL     1       1.879 -10.264 -56.287  1.00  0.00     0.158 HD
ENDBRANCH  19  22
ENDBRANCH   1  15
TORSDOF 4
ENDMDL
