MODEL 1
REMARK VINA RESULT: -6.532514737      0.000      0.000
REMARK  8 active torsions:
REMARK  status: ('A' for Active; 'I' for Inactive)
REMARK    1  A    between atoms: C2_2  and  C4_4 
REMARK    2  A    between atoms: C4_4  and  N1_5 
REMARK    3  A    between atoms: C4_4  and  C17_23 
REMARK       I    between atoms: N1_5  and  C5_7 
REMARK    4  A    between atoms: C5_7  and  C6_9 
REMARK    5  A    between atoms: C6_9  and  N2_10 
REMARK    6  A    between atoms: N2_10  and  C7_13 
REMARK    7  A    between atoms: C17_23  and  O2_24 
REMARK    8  A    between atoms: C17_23  and  C18_26 
ROOT
HETATM    1  N1  UNL     1      12.697   5.319   0.027  1.00  0.00    -0.352 N 
ATOM      2  H1  UNL     1      12.148   5.192   0.877  1.00  0.00     0.163 HD
HETATM    3  C5  UNL     1      13.936   6.003   0.120  1.00  0.00     0.243 C 
HETATM    4  O1  UNL     1      14.588   6.141  -0.959  1.00  0.00    -0.272 OA
ENDROOT
BRANCH   3   5
HETATM    5  C6  UNL     1      14.424   6.518   1.425  1.00  0.00     0.335 C 
BRANCH   5   6
HETATM    6  N2  UNL     1      13.515   6.082   2.445  1.00  0.00    -0.058 N 
ATOM      7  H22 UNL     1      12.787   5.494   2.042  1.00  0.00     0.278 HD
ATOM      8  H21 UNL     1      13.971   5.406   3.058  1.00  0.00     0.278 HD
BRANCH   6   9
HETATM    9  C7  UNL     1      12.930   7.140   3.219  1.00  0.00     0.127 C 
HETATM   10  C8  UNL     1      12.007   8.027   2.432  1.00  0.00     0.043 C 
HETATM   11  C9  UNL     1      11.525   9.121   3.351  1.00  0.00    -0.012 C 
HETATM   12  C10 UNL     1      12.661  10.005   3.815  1.00  0.00     0.009 C 
HETATM   13  C14 UNL     1      10.821   8.603   4.570  1.00  0.00     0.009 C 
HETATM   14  C11 UNL     1      13.640   9.142   4.562  1.00  0.00    -0.012 C 
HETATM   15  C12 UNL     1      12.970   8.530   5.773  1.00  0.00     0.009 C 
HETATM   16  C16 UNL     1      14.096   8.031   3.670  1.00  0.00     0.043 C 
HETATM   17  C13 UNL     1      11.785   7.720   5.336  1.00  0.00    -0.012 C 
HETATM   18  C15 UNL     1      12.292   6.591   4.451  1.00  0.00     0.043 C 
ENDBRANCH   6   9
ENDBRANCH   5   6
ENDBRANCH   3   5
BRANCH   1  19
HETATM   19  C4  UNL     1      12.172   4.795  -1.216  1.00  0.00     0.122 C 
BRANCH  19  20
HETATM   20  C2  UNL     1      10.762   5.301  -1.357  1.00  0.00     0.003 C 
HETATM   21  C1  UNL     1      10.624   6.391  -2.376  1.00  0.00     0.011 C 
HETATM   22  C3  UNL     1      10.388   5.886  -0.007  1.00  0.00     0.011 C 
ENDBRANCH  19  20
BRANCH  19  23
HETATM   23  C17 UNL     1      12.303   3.317  -1.196  1.00  0.00     0.190 C 
BRANCH  23  24
HETATM   24  O2  UNL     1      11.251   2.625  -1.751  1.00  0.00    -0.387 OA
ATOM     25  H2  UNL     1      10.471   2.570  -1.212  1.00  0.00     0.210 HD
ENDBRANCH  23  24
BRANCH  23  26
HETATM   26  C18 UNL     1      13.543   2.943  -1.923  1.00  0.00     0.041 A 
HETATM   27  N3  UNL     1      14.816   3.148  -1.894  1.00  0.00    -0.367 N 
HETATM   28  C19 UNL     1      15.093   2.326  -3.030  1.00  0.00     0.090 A 
ATOM     29  H3  UNL     1      15.412   3.701  -1.279  1.00  0.00     0.165 HD
HETATM   30  C20 UNL     1      13.786   2.092  -3.092  1.00  0.00     0.045 A 
ENDBRANCH  23  26
ENDBRANCH  19  23
ENDBRANCH   1  19
TORSDOF 8
ENDMDL
MODEL 2
REMARK VINA RESULT: -6.525300003      0.097      1.486
REMARK  8 active torsions:
REMARK  status: ('A' for Active; 'I' for Inactive)
REMARK    1  A    between atoms: C2_2  and  C4_4 
REMARK    2  A    between atoms: C4_4  and  N1_5 
REMARK    3  A    between atoms: C4_4  and  C17_23 
REMARK       I    between atoms: N1_5  and  C5_7 
REMARK    4  A    between atoms: C5_7  and  C6_9 
REMARK    5  A    between atoms: C6_9  and  N2_10 
REMARK    6  A    between atoms: N2_10  and  C7_13 
REMARK    7  A    between atoms: C17_23  and  O2_24 
REMARK    8  A    between atoms: C17_23  and  C18_26 
ROOT
HETATM    1  N1  UNL     1      12.740   5.292   0.053  1.00  0.00    -0.352 N 
ATOM      2  H1  UNL     1      12.223   5.141   0.919  1.00  0.00     0.163 HD
HETATM    3  C5  UNL     1      13.969   5.998   0.115  1.00  0.00     0.243 C 
HETATM    4  O1  UNL     1      14.581   6.166  -0.983  1.00  0.00    -0.272 OA
ENDROOT
BRANCH   3   5
HETATM    5  C6  UNL     1      14.491   6.503   1.411  1.00  0.00     0.335 C 
BRANCH   5   6
HETATM    6  N2  UNL     1      13.552   6.155   2.437  1.00  0.00    -0.058 N 
ATOM      7  H22 UNL     1      12.764   5.646   2.038  1.00  0.00     0.278 HD
ATOM      8  H21 UNL     1      13.941   5.431   3.042  1.00  0.00     0.278 HD
BRANCH   6   9
HETATM    9  C7  UNL     1      13.084   7.262   3.222  1.00  0.00     0.127 C 
HETATM   10  C8  UNL     1      14.186   8.102   3.802  1.00  0.00     0.043 C 
HETATM   11  C9  UNL     1      13.550   9.176   4.648  1.00  0.00    -0.012 C 
HETATM   12  C10 UNL     1      12.802   8.594   5.826  1.00  0.00     0.009 C 
HETATM   13  C14 UNL     1      12.594  10.043   3.883  1.00  0.00     0.009 C 
HETATM   14  C11 UNL     1      11.721   7.698   5.287  1.00  0.00    -0.012 C 
HETATM   15  C12 UNL     1      10.755   8.501   4.445  1.00  0.00     0.009 C 
HETATM   16  C16 UNL     1      12.339   6.650   4.416  1.00  0.00     0.043 C 
HETATM   17  C13 UNL     1      11.499   9.161   3.320  1.00  0.00    -0.012 C 
HETATM   18  C15 UNL     1      12.092   8.065   2.447  1.00  0.00     0.043 C 
ENDBRANCH   6   9
ENDBRANCH   5   6
ENDBRANCH   3   5
BRANCH   1  19
HETATM   19  C4  UNL     1      12.183   4.777  -1.180  1.00  0.00     0.122 C 
BRANCH  19  20
HETATM   20  C2  UNL     1      10.770   5.284  -1.280  1.00  0.00     0.003 C 
HETATM   21  C1  UNL     1      10.604   6.378  -2.291  1.00  0.00     0.011 C 
HETATM   22  C3  UNL     1      10.433   5.865   0.081  1.00  0.00     0.011 C 
ENDBRANCH  19  20
BRANCH  19  23
HETATM   23  C17 UNL     1      12.314   3.299  -1.174  1.00  0.00     0.190 C 
BRANCH  23  24
HETATM   24  O2  UNL     1      11.259   2.612  -1.729  1.00  0.00    -0.387 OA
ATOM     25  H2  UNL     1      11.455   1.727  -2.014  1.00  0.00     0.210 HD
ENDBRANCH  23  24
BRANCH  23  26
HETATM   26  C18 UNL     1      13.550   2.932  -1.911  1.00  0.00     0.041 A 
HETATM   27  N3  UNL     1      14.820   3.152  -1.899  1.00  0.00    -0.367 N 
HETATM   28  C19 UNL     1      15.094   2.321  -3.031  1.00  0.00     0.090 A 
ATOM     29  H3  UNL     1      15.418   3.717  -1.296  1.00  0.00     0.165 HD
HETATM   30  C20 UNL     1      13.790   2.072  -3.075  1.00  0.00     0.045 A 
ENDBRANCH  23  26
ENDBRANCH  19  23
ENDBRANCH   1  19
TORSDOF 8
ENDMDL
MODEL 3
REMARK VINA RESULT: -6.510754827      0.107      1.452
REMARK  8 active torsions:
REMARK  status: ('A' for Active; 'I' for Inactive)
REMARK    1  A    between atoms: C2_2  and  C4_4 
REMARK    2  A    between atoms: C4_4  and  N1_5 
REMARK    3  A    between atoms: C4_4  and  C17_23 
REMARK       I    between atoms: N1_5  and  C5_7 
REMARK    4  A    between atoms: C5_7  and  C6_9 
REMARK    5  A    between atoms: C6_9  and  N2_10 
REMARK    6  A    between atoms: N2_10  and  C7_13 
REMARK    7  A    between atoms: C17_23  and  O2_24 
REMARK    8  A    between atoms: C17_23  and  C18_26 
ROOT
HETATM    1  N1  UNL     1      12.703   5.337   0.022  1.00  0.00    -0.352 N 
ATOM      2  H1  UNL     1      12.158   5.199   0.873  1.00  0.00     0.163 HD
HETATM    3  C5  UNL     1      13.930   6.043   0.114  1.00  0.00     0.243 C 
HETATM    4  O1  UNL     1      14.578   6.194  -0.966  1.00  0.00    -0.272 OA
ENDROOT
BRANCH   3   5
HETATM    5  C6  UNL     1      14.410   6.567   1.418  1.00  0.00     0.335 C 
BRANCH   5   6
HETATM    6  N2  UNL     1      13.546   6.064   2.447  1.00  0.00    -0.058 N 
ATOM      7  H22 UNL     1      12.784   5.525   2.037  1.00  0.00     0.278 HD
ATOM      8  H21 UNL     1      14.017   5.331   2.976  1.00  0.00     0.278 HD
BRANCH   6   9
HETATM    9  C7  UNL     1      13.026   7.065   3.335  1.00  0.00     0.127 C 
HETATM   10  C8  UNL     1      12.199   6.506   4.458  1.00  0.00     0.043 C 
HETATM   11  C9  UNL     1      11.670   7.667   5.262  1.00  0.00    -0.012 C 
HETATM   12  C10 UNL     1      10.738   8.536   4.447  1.00  0.00     0.009 C 
HETATM   13  C14 UNL     1      12.752   8.548   5.812  1.00  0.00     0.009 C 
HETATM   14  C11 UNL     1      11.515   9.072   3.276  1.00  0.00    -0.012 C 
HETATM   15  C12 UNL     1      12.669   9.918   3.766  1.00  0.00     0.009 C 
HETATM   16  C16 UNL     1      12.076   7.926   2.493  1.00  0.00     0.043 C 
HETATM   17  C13 UNL     1      13.557   9.093   4.651  1.00  0.00    -0.012 C 
HETATM   18  C15 UNL     1      14.124   7.956   3.814  1.00  0.00     0.043 C 
ENDBRANCH   6   9
ENDBRANCH   5   6
ENDBRANCH   3   5
BRANCH   1  19
HETATM   19  C4  UNL     1      12.187   4.803  -1.220  1.00  0.00     0.122 C 
BRANCH  19  20
HETATM   20  C2  UNL     1      10.776   5.304  -1.372  1.00  0.00     0.003 C 
HETATM   21  C1  UNL     1      10.641   6.392  -2.393  1.00  0.00     0.011 C 
HETATM   22  C3  UNL     1      10.390   5.889  -0.025  1.00  0.00     0.011 C 
ENDBRANCH  19  20
BRANCH  19  23
HETATM   23  C17 UNL     1      12.322   3.325  -1.190  1.00  0.00     0.190 C 
BRANCH  23  24
HETATM   24  O2  UNL     1      11.287   2.627  -1.768  1.00  0.00    -0.387 OA
ATOM     25  H2  UNL     1      11.431   1.694  -1.868  1.00  0.00     0.210 HD
ENDBRANCH  23  24
BRANCH  23  26
HETATM   26  C18 UNL     1      13.581   2.953  -1.884  1.00  0.00     0.041 A 
HETATM   27  N3  UNL     1      14.841   3.228  -1.880  1.00  0.00    -0.367 N 
HETATM   28  C19 UNL     1      15.163   2.319  -2.936  1.00  0.00     0.090 A 
ATOM     29  H3  UNL     1      15.406   3.868  -1.322  1.00  0.00     0.165 HD
HETATM   30  C20 UNL     1      13.871   2.010  -2.970  1.00  0.00     0.045 A 
ENDBRANCH  23  26
ENDBRANCH  19  23
ENDBRANCH   1  19
TORSDOF 8
ENDMDL
MODEL 4
REMARK VINA RESULT: -6.478803146      2.488      3.323
REMARK  8 active torsions:
REMARK  status: ('A' for Active; 'I' for Inactive)
REMARK    1  A    between atoms: C2_2  and  C4_4 
REMARK    2  A    between atoms: C4_4  and  N1_5 
REMARK    3  A    between atoms: C4_4  and  C17_23 
REMARK       I    between atoms: N1_5  and  C5_7 
REMARK    4  A    between atoms: C5_7  and  C6_9 
REMARK    5  A    between atoms: C6_9  and  N2_10 
REMARK    6  A    between atoms: N2_10  and  C7_13 
REMARK    7  A    between atoms: C17_23  and  O2_24 
REMARK    8  A    between atoms: C17_23  and  C18_26 
ROOT
HETATM    1  N1  UNL     1      11.386   5.401   0.333  1.00  0.00    -0.352 N 
ATOM      2  H1  UNL     1      10.624   4.918   0.808  1.00  0.00     0.163 HD
HETATM    3  C5  UNL     1      12.207   6.274   1.092  1.00  0.00     0.243 C 
HETATM    4  O1  UNL     1      13.144   6.857   0.467  1.00  0.00    -0.272 OA
ENDROOT
BRANCH   3   5
HETATM    5  C6  UNL     1      11.963   6.477   2.543  1.00  0.00     0.335 C 
BRANCH   5   6
HETATM    6  N2  UNL     1      10.669   7.075   2.700  1.00  0.00    -0.058 N 
ATOM      7  H22 UNL     1      10.762   8.064   2.929  1.00  0.00     0.278 HD
ATOM      8  H21 UNL     1      10.201   7.146   1.796  1.00  0.00     0.278 HD
BRANCH   6   9
HETATM    9  C7  UNL     1       9.817   6.420   3.651  1.00  0.00     0.127 C 
HETATM   10  C8  UNL     1       9.087   7.365   4.562  1.00  0.00     0.043 C 
HETATM   11  C9  UNL     1       8.291   6.540   5.541  1.00  0.00    -0.012 C 
HETATM   12  C10 UNL     1       9.186   5.708   6.432  1.00  0.00     0.009 C 
HETATM   13  C14 UNL     1       7.317   5.612   4.878  1.00  0.00     0.009 C 
HETATM   14  C11 UNL     1       9.980   4.783   5.551  1.00  0.00    -0.012 C 
HETATM   15  C12 UNL     1       9.048   3.861   4.798  1.00  0.00     0.009 C 
HETATM   16  C16 UNL     1      10.745   5.592   4.551  1.00  0.00     0.043 C 
HETATM   17  C13 UNL     1       8.092   4.674   3.976  1.00  0.00    -0.012 C 
HETATM   18  C15 UNL     1       8.904   5.463   2.959  1.00  0.00     0.043 C 
ENDBRANCH   6   9
ENDBRANCH   5   6
ENDBRANCH   3   5
BRANCH   1  19
HETATM   19  C4  UNL     1      11.577   5.164  -1.081  1.00  0.00     0.122 C 
BRANCH  19  20
HETATM   20  C2  UNL     1      10.299   5.546  -1.777  1.00  0.00     0.003 C 
HETATM   21  C1  UNL     1      10.461   6.695  -2.726  1.00  0.00     0.011 C 
HETATM   22  C3  UNL     1       9.341   5.987  -0.685  1.00  0.00     0.011 C 
ENDBRANCH  19  20
BRANCH  19  23
HETATM   23  C17 UNL     1      11.989   3.751  -1.271  1.00  0.00     0.190 C 
BRANCH  23  24
HETATM   24  O2  UNL     1      11.587   3.173  -2.452  1.00  0.00    -0.387 OA
ATOM     25  H2  UNL     1      12.055   2.385  -2.700  1.00  0.00     0.210 HD
ENDBRANCH  23  24
BRANCH  23  26
HETATM   26  C18 UNL     1      13.471   3.678  -1.196  1.00  0.00     0.041 A 
HETATM   27  N3  UNL     1      14.486   4.380  -0.823  1.00  0.00    -0.367 N 
HETATM   28  C19 UNL     1      15.452   3.388  -1.179  1.00  0.00     0.090 A 
ATOM     29  H3  UNL     1      14.570   5.312  -0.419  1.00  0.00     0.165 HD
HETATM   30  C20 UNL     1      14.430   2.635  -1.575  1.00  0.00     0.045 A 
ENDBRANCH  23  26
ENDBRANCH  19  23
ENDBRANCH   1  19
TORSDOF 8
ENDMDL
MODEL 5
REMARK VINA RESULT: -6.477821235      2.509      3.358
REMARK  8 active torsions:
REMARK  status: ('A' for Active; 'I' for Inactive)
REMARK    1  A    between atoms: C2_2  and  C4_4 
REMARK    2  A    between atoms: C4_4  and  N1_5 
REMARK    3  A    between atoms: C4_4  and  C17_23 
REMARK       I    between atoms: N1_5  and  C5_7 
REMARK    4  A    between atoms: C5_7  and  C6_9 
REMARK    5  A    between atoms: C6_9  and  N2_10 
REMARK    6  A    between atoms: N2_10  and  C7_13 
REMARK    7  A    between atoms: C17_23  and  O2_24 
REMARK    8  A    between atoms: C17_23  and  C18_26 
ROOT
HETATM    1  N1  UNL     1      11.343   5.552   0.257  1.00  0.00    -0.352 N 
ATOM      2  H1  UNL     1      10.632   5.046   0.784  1.00  0.00     0.163 HD
HETATM    3  C5  UNL     1      12.111   6.534   0.933  1.00  0.00     0.243 C 
HETATM    4  O1  UNL     1      12.985   7.143   0.243  1.00  0.00    -0.272 OA
ENDROOT
BRANCH   3   5
HETATM    5  C6  UNL     1      11.887   6.817   2.374  1.00  0.00     0.335 C 
BRANCH   5   6
HETATM    6  N2  UNL     1      10.505   7.157   2.552  1.00  0.00    -0.058 N 
ATOM      7  H22 UNL     1      10.413   8.138   2.812  1.00  0.00     0.278 HD
ATOM      8  H21 UNL     1      10.024   7.166   1.652  1.00  0.00     0.278 HD
BRANCH   6   9
HETATM    9  C7  UNL     1       9.799   6.326   3.486  1.00  0.00     0.127 C 
HETATM   10  C8  UNL     1       8.816   5.389   2.841  1.00  0.00     0.043 C 
HETATM   11  C9  UNL     1       8.110   4.636   3.939  1.00  0.00    -0.012 C 
HETATM   12  C10 UNL     1       7.295   5.558   4.818  1.00  0.00     0.009 C 
HETATM   13  C14 UNL     1       9.044   3.867   4.826  1.00  0.00     0.009 C 
HETATM   14  C11 UNL     1       8.236   6.551   5.441  1.00  0.00    -0.012 C 
HETATM   15  C12 UNL     1       9.253   5.831   6.298  1.00  0.00     0.009 C 
HETATM   16  C16 UNL     1       8.971   7.278   4.358  1.00  0.00     0.043 C 
HETATM   17  C13 UNL     1      10.011   4.845   5.458  1.00  0.00    -0.012 C 
HETATM   18  C15 UNL     1      10.760   5.624   4.387  1.00  0.00     0.043 C 
ENDBRANCH   6   9
ENDBRANCH   5   6
ENDBRANCH   3   5
BRANCH   1  19
HETATM   19  C4  UNL     1      11.519   5.234  -1.144  1.00  0.00     0.122 C 
BRANCH  19  20
HETATM   20  C2  UNL     1      10.226   5.558  -1.843  1.00  0.00     0.003 C 
HETATM   21  C1  UNL     1      10.354   6.673  -2.837  1.00  0.00     0.011 C 
HETATM   22  C3  UNL     1       9.266   6.017  -0.761  1.00  0.00     0.011 C 
ENDBRANCH  19  20
BRANCH  19  23
HETATM   23  C17 UNL     1      11.947   3.818  -1.255  1.00  0.00     0.190 C 
BRANCH  23  24
HETATM   24  O2  UNL     1      11.569   3.177  -2.412  1.00  0.00    -0.387 OA
ATOM     25  H2  UNL     1      11.361   2.255  -2.317  1.00  0.00     0.210 HD
ENDBRANCH  23  24
BRANCH  23  26
HETATM   26  C18 UNL     1      13.428   3.764  -1.154  1.00  0.00     0.041 A 
HETATM   27  N3  UNL     1      14.431   4.499  -0.815  1.00  0.00    -0.367 N 
HETATM   28  C19 UNL     1      15.411   3.495  -1.090  1.00  0.00     0.090 A 
ATOM     29  H3  UNL     1      14.501   5.458  -0.474  1.00  0.00     0.165 HD
HETATM   30  C20 UNL     1      14.402   2.707  -1.448  1.00  0.00     0.045 A 
ENDBRANCH  23  26
ENDBRANCH  19  23
ENDBRANCH   1  19
TORSDOF 8
ENDMDL
