MODEL 1
REMARK VINA RESULT: -6.573903971      0.000      0.000
REMARK  15 active torsions:
REMARK  status: ('A' for Active; 'I' for Inactive)
REMARK    1  A    between atoms: N1_2  and  C2_4 
REMARK    2  A    between atoms: C2_4  and  C3_5 
REMARK    3  A    between atoms: C3_5  and  N2_6 
REMARK    4  A    between atoms: N2_6  and  C4_9 
REMARK    5  A    between atoms: C4_9  and  C5_10 
REMARK    6  A    between atoms: C5_10  and  N3_11 
REMARK    7  A    between atoms: N3_11  and  C6_13 
REMARK    8  A    between atoms: C7_16  and  N5_17 
REMARK    9  A    between atoms: N5_17  and  C8_19 
REMARK   10  A    between atoms: C8_19  and  C9_20 
REMARK   11  A    between atoms: C9_20  and  O1_21 
REMARK   12  A    between atoms: O1_21  and  C10_22 
REMARK   13  A    between atoms: C11_23  and  N6_24 
REMARK       I    between atoms: N6_24  and  C12_26 
REMARK   14  A    between atoms: C12_26  and  C13_28 
REMARK   15  A    between atoms: C13_28  and  N7_29 
ROOT
HETATM    1  C6  UNL     1      -1.160  23.246  -7.212  1.00  0.00     0.129 A 
HETATM    2  N4  UNL     1      -1.998  22.516  -7.963  1.00  0.00    -0.175 N 
ATOM      3  H4  UNL     1      -2.682  22.981  -8.560  1.00  0.00     0.186 HD
HETATM    4  C7  UNL     1      -1.940  21.206  -7.934  1.00  0.00     0.691 A 
HETATM    5  N8  UNL     1      -1.098  20.545  -7.189  1.00  0.00    -0.190 N 
ATOM      6  H8  UNL     1      -1.095  19.525  -7.201  1.00  0.00     0.184 HD
HETATM    7  C14 UNL     1      -0.219  21.221  -6.391  1.00  0.00     0.063 A 
HETATM    8  C15 UNL     1       0.687  20.472  -5.626  1.00  0.00     0.031 A 
HETATM    9  C16 UNL     1       1.621  21.141  -4.835  1.00  0.00     0.002 A 
HETATM   10  C17 UNL     1       1.632  22.503  -4.846  1.00  0.00     0.001 A 
HETATM   11  C18 UNL     1       0.706  23.237  -5.623  1.00  0.00     0.017 A 
HETATM   12  C19 UNL     1      -0.206  22.553  -6.377  1.00  0.00     0.035 A 
ENDROOT
BRANCH   4  13
HETATM   13  N5  UNL     1      -2.756  20.462  -8.780  1.00  0.00    -0.158 N 
ATOM     14  H5  UNL     1      -3.533  19.888  -8.449  1.00  0.00     0.194 HD
BRANCH  13  15
HETATM   15  C8  UNL     1      -2.419  20.573 -10.085  1.00  0.00    -0.028 C 
BRANCH  15  16
HETATM   16  C9  UNL     1      -2.064  20.685 -11.430  1.00  0.00     0.279 C 
BRANCH  16  17
HETATM   17  O1  UNL     1      -0.772  20.552 -11.884  1.00  0.00    -0.349 OA
BRANCH  17  18
HETATM   18  C10 UNL     1      -0.707  19.975 -13.159  1.00  0.00     0.152 C 
HETATM   19  C11 UNL     1      -1.106  20.819 -14.261  1.00  0.00     0.115 C 
BRANCH  19  20
HETATM   20  N6  UNL     1      -0.491  22.027 -14.664  1.00  0.00    -0.334 N 
HETATM   21  C12 UNL     1      -0.992  23.289 -14.340  1.00  0.00     0.247 C 
HETATM   22  O2  UNL     1      -2.011  23.564 -13.714  1.00  0.00    -0.271 OA
ATOM     23  H6  UNL     1       0.362  21.974 -15.220  1.00  0.00     0.168 HD
BRANCH  21  24
HETATM   24  C13 UNL     1      -0.127  24.507 -14.829  1.00  0.00     0.332 C 
BRANCH  24  25
HETATM   25  N7  UNL     1      -0.529  24.738 -16.194  1.00  0.00    -0.071 N 
ATOM     26  H73 UNL     1      -0.888  23.906 -16.663  1.00  0.00     0.274 HD
ATOM     27  H72 UNL     1      -1.376  25.300 -16.283  1.00  0.00     0.274 HD
ATOM     28  H71 UNL     1       0.285  25.148 -16.650  1.00  0.00     0.274 HD
ENDBRANCH  24  25
ENDBRANCH  21  24
ENDBRANCH  19  20
ENDBRANCH  17  18
ENDBRANCH  16  17
ENDBRANCH  15  16
ENDBRANCH  13  15
ENDBRANCH   4  13
BRANCH   1  29
HETATM   29  N3  UNL     1      -1.102  24.482  -7.099  1.00  0.00    -0.373 N 
ATOM     30  H3  UNL     1      -1.205  24.773  -6.126  1.00  0.00     0.161 HD
BRANCH  29  31
HETATM   31  C5  UNL     1      -0.930  25.589  -7.957  1.00  0.00     0.148 C 
BRANCH  31  32
HETATM   32  C4  UNL     1      -0.600  26.837  -7.084  1.00  0.00     0.251 C 
BRANCH  32  33
HETATM   33  N2  UNL     1       0.712  27.274  -7.360  1.00  0.00    -0.072 N 
ATOM     34  H22 UNL     1       1.104  26.745  -8.139  1.00  0.00     0.277 HD
ATOM     35  H21 UNL     1       1.345  26.985  -6.615  1.00  0.00     0.277 HD
BRANCH  33  36
HETATM   36  C3  UNL     1       0.833  28.642  -7.595  1.00  0.00     0.251 C 
BRANCH  36  37
HETATM   37  C2  UNL     1       0.037  29.159  -8.794  1.00  0.00     0.140 C 
BRANCH  37  38
HETATM   38  N1  UNL     1      -0.673  30.371  -8.501  1.00  0.00    -0.424 N 
HETATM   39  C1  UNL     1      -1.008  30.698  -7.195  1.00  0.00     0.139 C 
ATOM     40  H1  UNL     1      -0.935  30.999  -9.261  1.00  0.00     0.152 HD
ENDBRANCH  37  38
ENDBRANCH  36  37
ENDBRANCH  33  36
ENDBRANCH  32  33
ENDBRANCH  31  32
ENDBRANCH  29  31
ENDBRANCH   1  29
TORSDOF 15
ENDMDL
MODEL 2
REMARK VINA RESULT: -6.539191546      2.330      3.316
REMARK  15 active torsions:
REMARK  status: ('A' for Active; 'I' for Inactive)
REMARK    1  A    between atoms: N1_2  and  C2_4 
REMARK    2  A    between atoms: C2_4  and  C3_5 
REMARK    3  A    between atoms: C3_5  and  N2_6 
REMARK    4  A    between atoms: N2_6  and  C4_9 
REMARK    5  A    between atoms: C4_9  and  C5_10 
REMARK    6  A    between atoms: C5_10  and  N3_11 
REMARK    7  A    between atoms: N3_11  and  C6_13 
REMARK    8  A    between atoms: C7_16  and  N5_17 
REMARK    9  A    between atoms: N5_17  and  C8_19 
REMARK   10  A    between atoms: C8_19  and  C9_20 
REMARK   11  A    between atoms: C9_20  and  O1_21 
REMARK   12  A    between atoms: O1_21  and  C10_22 
REMARK   13  A    between atoms: C11_23  and  N6_24 
REMARK       I    between atoms: N6_24  and  C12_26 
REMARK   14  A    between atoms: C12_26  and  C13_28 
REMARK   15  A    between atoms: C13_28  and  N7_29 
ROOT
HETATM    1  C6  UNL     1      -0.917  23.078  -7.190  1.00  0.00     0.129 A 
HETATM    2  N4  UNL     1      -1.831  22.512  -7.992  1.00  0.00    -0.175 N 
ATOM      3  H4  UNL     1      -2.395  23.095  -8.611  1.00  0.00     0.186 HD
HETATM    4  C7  UNL     1      -2.004  21.212  -7.983  1.00  0.00     0.691 A 
HETATM    5  N8  UNL     1      -1.327  20.407  -7.210  1.00  0.00    -0.190 N 
ATOM      6  H8  UNL     1      -1.500  19.403  -7.240  1.00  0.00     0.184 HD
HETATM    7  C14 UNL     1      -0.383  20.913  -6.361  1.00  0.00     0.063 A 
HETATM    8  C15 UNL     1       0.339  20.011  -5.568  1.00  0.00     0.031 A 
HETATM    9  C16 UNL     1       1.336  20.499  -4.723  1.00  0.00     0.002 A 
HETATM   10  C17 UNL     1       1.584  21.839  -4.710  1.00  0.00     0.001 A 
HETATM   11  C18 UNL     1       0.839  22.729  -5.517  1.00  0.00     0.017 A 
HETATM   12  C19 UNL     1      -0.139  22.222  -6.323  1.00  0.00     0.035 A 
ENDROOT
BRANCH   4  13
HETATM   13  N5  UNL     1      -2.895  20.629  -8.878  1.00  0.00    -0.158 N 
ATOM     14  H5  UNL     1      -3.629  19.979  -8.596  1.00  0.00     0.194 HD
BRANCH  13  15
HETATM   15  C8  UNL     1      -2.691  21.009 -10.159  1.00  0.00    -0.028 C 
BRANCH  15  16
HETATM   16  C9  UNL     1      -2.474  21.400 -11.482  1.00  0.00     0.279 C 
BRANCH  16  17
HETATM   17  O1  UNL     1      -1.747  20.655 -12.380  1.00  0.00    -0.349 OA
BRANCH  17  18
HETATM   18  C10 UNL     1      -2.035  19.286 -12.301  1.00  0.00     0.152 C 
HETATM   19  C11 UNL     1      -0.897  18.401 -12.212  1.00  0.00     0.115 C 
BRANCH  19  20
HETATM   20  N6  UNL     1       0.063  18.364 -11.175  1.00  0.00    -0.334 N 
HETATM   21  C12 UNL     1      -0.258  18.118  -9.838  1.00  0.00     0.247 C 
HETATM   22  O2  UNL     1      -1.366  17.935  -9.345  1.00  0.00    -0.271 OA
ATOM     23  H6  UNL     1       1.042  18.524 -11.415  1.00  0.00     0.168 HD
BRANCH  21  24
HETATM   24  C13 UNL     1       0.962  18.054  -8.850  1.00  0.00     0.332 C 
BRANCH  24  25
HETATM   25  N7  UNL     1       2.109  17.773  -9.675  1.00  0.00    -0.071 N 
ATOM     26  H73 UNL     1       2.105  18.267 -10.567  1.00  0.00     0.274 HD
ATOM     27  H72 UNL     1       2.979  18.172  -9.320  1.00  0.00     0.274 HD
ATOM     28  H71 UNL     1       2.133  16.758  -9.769  1.00  0.00     0.274 HD
ENDBRANCH  24  25
ENDBRANCH  21  24
ENDBRANCH  19  20
ENDBRANCH  17  18
ENDBRANCH  16  17
ENDBRANCH  15  16
ENDBRANCH  13  15
ENDBRANCH   4  13
BRANCH   1  29
HETATM   29  N3  UNL     1      -0.650  24.284  -7.053  1.00  0.00    -0.373 N 
ATOM     30  H3  UNL     1      -0.182  24.464  -6.164  1.00  0.00     0.161 HD
BRANCH  29  31
HETATM   31  C5  UNL     1      -0.822  25.469  -7.799  1.00  0.00     0.148 C 
BRANCH  31  32
HETATM   32  C4  UNL     1      -0.311  26.666  -6.941  1.00  0.00     0.251 C 
BRANCH  32  33
HETATM   33  N2  UNL     1       0.815  27.245  -7.560  1.00  0.00    -0.072 N 
ATOM     34  H22 UNL     1       0.945  26.856  -8.494  1.00  0.00     0.277 HD
ATOM     35  H21 UNL     1       1.672  26.918  -7.113  1.00  0.00     0.277 HD
BRANCH  33  36
HETATM   36  C3  UNL     1       0.798  28.637  -7.615  1.00  0.00     0.251 C 
BRANCH  36  37
HETATM   37  C2  UNL     1       0.070  29.221  -8.825  1.00  0.00     0.140 C 
BRANCH  37  38
HETATM   38  N1  UNL     1      -0.657  30.417  -8.505  1.00  0.00    -0.424 N 
HETATM   39  C1  UNL     1      -1.070  30.668  -7.204  1.00  0.00     0.139 C 
ATOM     40  H1  UNL     1      -0.872  31.089  -9.242  1.00  0.00     0.152 HD
ENDBRANCH  37  38
ENDBRANCH  36  37
ENDBRANCH  33  36
ENDBRANCH  32  33
ENDBRANCH  31  32
ENDBRANCH  29  31
ENDBRANCH   1  29
TORSDOF 15
ENDMDL
MODEL 3
REMARK VINA RESULT: -6.538383988      1.264      1.378
REMARK  15 active torsions:
REMARK  status: ('A' for Active; 'I' for Inactive)
REMARK    1  A    between atoms: N1_2  and  C2_4 
REMARK    2  A    between atoms: C2_4  and  C3_5 
REMARK    3  A    between atoms: C3_5  and  N2_6 
REMARK    4  A    between atoms: N2_6  and  C4_9 
REMARK    5  A    between atoms: C4_9  and  C5_10 
REMARK    6  A    between atoms: C5_10  and  N3_11 
REMARK    7  A    between atoms: N3_11  and  C6_13 
REMARK    8  A    between atoms: C7_16  and  N5_17 
REMARK    9  A    between atoms: N5_17  and  C8_19 
REMARK   10  A    between atoms: C8_19  and  C9_20 
REMARK   11  A    between atoms: C9_20  and  O1_21 
REMARK   12  A    between atoms: O1_21  and  C10_22 
REMARK   13  A    between atoms: C11_23  and  N6_24 
REMARK       I    between atoms: N6_24  and  C12_26 
REMARK   14  A    between atoms: C12_26  and  C13_28 
REMARK   15  A    between atoms: C13_28  and  N7_29 
ROOT
HETATM    1  C6  UNL     1      -0.893  23.086  -7.111  1.00  0.00     0.129 A 
HETATM    2  N4  UNL     1      -1.845  22.468  -7.825  1.00  0.00    -0.175 N 
ATOM      3  H4  UNL     1      -2.463  23.013  -8.428  1.00  0.00     0.186 HD
HETATM    4  C7  UNL     1      -1.987  21.167  -7.752  1.00  0.00     0.691 A 
HETATM    5  N8  UNL     1      -1.240  20.409  -6.995  1.00  0.00    -0.190 N 
ATOM      6  H8  UNL     1      -1.392  19.401  -6.973  1.00  0.00     0.184 HD
HETATM    7  C14 UNL     1      -0.254  20.969  -6.234  1.00  0.00     0.063 A 
HETATM    8  C15 UNL     1       0.541  20.115  -5.456  1.00  0.00     0.031 A 
HETATM    9  C16 UNL     1       1.580  20.659  -4.701  1.00  0.00     0.002 A 
HETATM   10  C17 UNL     1       1.797  22.003  -4.758  1.00  0.00     0.001 A 
HETATM   11  C18 UNL     1       0.979  22.844  -5.548  1.00  0.00     0.017 A 
HETATM   12  C19 UNL     1      -0.039  22.283  -6.265  1.00  0.00     0.035 A 
ENDROOT
BRANCH   4  13
HETATM   13  N5  UNL     1      -2.922  20.529  -8.561  1.00  0.00    -0.158 N 
ATOM     14  H5  UNL     1      -3.549  19.798  -8.223  1.00  0.00     0.194 HD
BRANCH  13  15
HETATM   15  C8  UNL     1      -2.917  20.973  -9.838  1.00  0.00    -0.028 C 
BRANCH  15  16
HETATM   16  C9  UNL     1      -2.917  21.427 -11.158  1.00  0.00     0.279 C 
BRANCH  16  17
HETATM   17  O1  UNL     1      -4.024  21.962 -11.773  1.00  0.00    -0.349 OA
BRANCH  17  18
HETATM   18  C10 UNL     1      -4.043  21.721 -13.153  1.00  0.00     0.152 C 
HETATM   19  C11 UNL     1      -3.821  22.867 -14.002  1.00  0.00     0.115 C 
BRANCH  19  20
HETATM   20  N6  UNL     1      -2.655  23.666 -14.054  1.00  0.00    -0.334 N 
HETATM   21  C12 UNL     1      -1.455  23.237 -14.623  1.00  0.00     0.247 C 
HETATM   22  O2  UNL     1      -1.197  22.146 -15.121  1.00  0.00    -0.271 OA
ATOM     23  H6  UNL     1      -2.694  24.604 -13.655  1.00  0.00     0.168 HD
BRANCH  21  24
HETATM   24  C13 UNL     1      -0.296  24.299 -14.638  1.00  0.00     0.332 C 
BRANCH  24  25
HETATM   25  N7  UNL     1      -0.392  24.952 -15.920  1.00  0.00    -0.071 N 
ATOM     26  H73 UNL     1      -1.132  24.581 -16.516  1.00  0.00     0.274 HD
ATOM     27  H72 UNL     1      -0.746  25.907 -15.869  1.00  0.00     0.274 HD
ATOM     28  H71 UNL     1       0.539  24.881 -16.330  1.00  0.00     0.274 HD
ENDBRANCH  24  25
ENDBRANCH  21  24
ENDBRANCH  19  20
ENDBRANCH  17  18
ENDBRANCH  16  17
ENDBRANCH  15  16
ENDBRANCH  13  15
ENDBRANCH   4  13
BRANCH   1  29
HETATM   29  N3  UNL     1      -0.646  24.302  -7.040  1.00  0.00    -0.373 N 
ATOM     30  H3  UNL     1      -0.159  24.535  -6.175  1.00  0.00     0.161 HD
BRANCH  29  31
HETATM   31  C5  UNL     1      -0.860  25.446  -7.839  1.00  0.00     0.148 C 
BRANCH  31  32
HETATM   32  C4  UNL     1      -0.439  26.701  -7.017  1.00  0.00     0.251 C 
BRANCH  32  33
HETATM   33  N2  UNL     1       0.741  27.248  -7.562  1.00  0.00    -0.072 N 
ATOM     34  H22 UNL     1       0.918  26.858  -8.487  1.00  0.00     0.277 HD
ATOM     35  H21 UNL     1       1.558  26.895  -7.063  1.00  0.00     0.277 HD
BRANCH  33  36
HETATM   36  C3  UNL     1       0.768  28.641  -7.612  1.00  0.00     0.251 C 
BRANCH  36  37
HETATM   37  C2  UNL     1       0.076  29.251  -8.830  1.00  0.00     0.140 C 
BRANCH  37  38
HETATM   38  N1  UNL     1      -0.639  30.454  -8.512  1.00  0.00    -0.424 N 
HETATM   39  C1  UNL     1      -1.069  30.700  -7.215  1.00  0.00     0.139 C 
ATOM     40  H1  UNL     1      -0.833  31.136  -9.245  1.00  0.00     0.152 HD
ENDBRANCH  37  38
ENDBRANCH  36  37
ENDBRANCH  33  36
ENDBRANCH  32  33
ENDBRANCH  31  32
ENDBRANCH  29  31
ENDBRANCH   1  29
TORSDOF 15
ENDMDL
MODEL 4
REMARK VINA RESULT: -6.511714205      1.638      1.885
REMARK  15 active torsions:
REMARK  status: ('A' for Active; 'I' for Inactive)
REMARK    1  A    between atoms: N1_2  and  C2_4 
REMARK    2  A    between atoms: C2_4  and  C3_5 
REMARK    3  A    between atoms: C3_5  and  N2_6 
REMARK    4  A    between atoms: N2_6  and  C4_9 
REMARK    5  A    between atoms: C4_9  and  C5_10 
REMARK    6  A    between atoms: C5_10  and  N3_11 
REMARK    7  A    between atoms: N3_11  and  C6_13 
REMARK    8  A    between atoms: C7_16  and  N5_17 
REMARK    9  A    between atoms: N5_17  and  C8_19 
REMARK   10  A    between atoms: C8_19  and  C9_20 
REMARK   11  A    between atoms: C9_20  and  O1_21 
REMARK   12  A    between atoms: O1_21  and  C10_22 
REMARK   13  A    between atoms: C11_23  and  N6_24 
REMARK       I    between atoms: N6_24  and  C12_26 
REMARK   14  A    between atoms: C12_26  and  C13_28 
REMARK   15  A    between atoms: C13_28  and  N7_29 
ROOT
HETATM    1  C6  UNL     1      -1.071  23.293  -7.457  1.00  0.00     0.129 A 
HETATM    2  N4  UNL     1      -2.000  22.500  -8.009  1.00  0.00    -0.175 N 
ATOM      3  H4  UNL     1      -2.679  22.891  -8.663  1.00  0.00     0.186 HD
HETATM    4  C7  UNL     1      -2.042  21.224  -7.712  1.00  0.00     0.691 A 
HETATM    5  N8  UNL     1      -1.213  20.657  -6.877  1.00  0.00    -0.190 N 
ATOM      6  H8  UNL     1      -1.289  19.660  -6.678  1.00  0.00     0.184 HD
HETATM    7  C14 UNL     1      -0.244  21.404  -6.270  1.00  0.00     0.063 A 
HETATM    8  C15 UNL     1       0.642  20.751  -5.400  1.00  0.00     0.031 A 
HETATM    9  C16 UNL     1       1.665  21.484  -4.800  1.00  0.00     0.002 A 
HETATM   10  C17 UNL     1       1.779  22.810  -5.093  1.00  0.00     0.001 A 
HETATM   11  C18 UNL     1       0.872  23.447  -5.970  1.00  0.00     0.017 A 
HETATM   12  C19 UNL     1      -0.128  22.705  -6.532  1.00  0.00     0.035 A 
ENDROOT
BRANCH   4  13
HETATM   13  N5  UNL     1      -2.957  20.395  -8.355  1.00  0.00    -0.158 N 
ATOM     14  H5  UNL     1      -3.641  19.824  -7.858  1.00  0.00     0.194 HD
BRANCH  13  15
HETATM   15  C8  UNL     1      -2.848  20.422  -9.702  1.00  0.00    -0.028 C 
BRANCH  15  16
HETATM   16  C9  UNL     1      -2.741  20.455 -11.094  1.00  0.00     0.279 C 
BRANCH  16  17
HETATM   17  O1  UNL     1      -2.295  21.553 -11.791  1.00  0.00    -0.349 OA
BRANCH  17  18
HETATM   18  C10 UNL     1      -3.075  22.693 -11.557  1.00  0.00     0.152 C 
HETATM   19  C11 UNL     1      -3.174  23.632 -12.649  1.00  0.00     0.115 C 
BRANCH  19  20
HETATM   20  N6  UNL     1      -3.732  23.387 -13.925  1.00  0.00    -0.334 N 
HETATM   21  C12 UNL     1      -3.019  22.805 -14.976  1.00  0.00     0.247 C 
HETATM   22  O2  UNL     1      -1.844  22.454 -14.994  1.00  0.00    -0.271 OA
ATOM     23  H6  UNL     1      -4.704  23.649 -14.087  1.00  0.00     0.168 HD
BRANCH  21  24
HETATM   24  C13 UNL     1      -3.838  22.560 -16.295  1.00  0.00     0.332 C 
BRANCH  24  25
HETATM   25  N7  UNL     1      -5.198  22.916 -15.973  1.00  0.00    -0.071 N 
ATOM     26  H73 UNL     1      -5.863  22.712 -16.718  1.00  0.00     0.274 HD
ATOM     27  H72 UNL     1      -5.623  22.317 -15.265  1.00  0.00     0.274 HD
ATOM     28  H71 UNL     1      -5.164  23.901 -15.711  1.00  0.00     0.274 HD
ENDBRANCH  24  25
ENDBRANCH  21  24
ENDBRANCH  19  20
ENDBRANCH  17  18
ENDBRANCH  16  17
ENDBRANCH  15  16
ENDBRANCH  13  15
ENDBRANCH   4  13
BRANCH   1  29
HETATM   29  N3  UNL     1      -0.912  24.516  -7.604  1.00  0.00    -0.373 N 
ATOM     30  H3  UNL     1       0.017  24.732  -7.967  1.00  0.00     0.161 HD
BRANCH  29  31
HETATM   31  C5  UNL     1      -1.675  25.687  -7.401  1.00  0.00     0.148 C 
BRANCH  31  32
HETATM   32  C4  UNL     1      -0.766  26.750  -6.714  1.00  0.00     0.251 C 
BRANCH  32  33
HETATM   33  N2  UNL     1       0.362  27.000  -7.522  1.00  0.00    -0.072 N 
ATOM     34  H22 UNL     1       0.228  26.600  -8.451  1.00  0.00     0.277 HD
ATOM     35  H21 UNL     1       1.155  26.443  -7.204  1.00  0.00     0.277 HD
BRANCH  33  36
HETATM   36  C3  UNL     1       0.721  28.343  -7.621  1.00  0.00     0.251 C 
BRANCH  36  37
HETATM   37  C2  UNL     1       0.178  29.062  -8.855  1.00  0.00     0.140 C 
BRANCH  37  38
HETATM   38  N1  UNL     1      -0.409  30.333  -8.538  1.00  0.00    -0.424 N 
HETATM   39  C1  UNL     1      -0.971  30.561  -7.290  1.00  0.00     0.139 C 
ATOM     40  H1  UNL     1      -0.413  31.075  -9.237  1.00  0.00     0.152 HD
ENDBRANCH  37  38
ENDBRANCH  36  37
ENDBRANCH  33  36
ENDBRANCH  32  33
ENDBRANCH  31  32
ENDBRANCH  29  31
ENDBRANCH   1  29
TORSDOF 15
ENDMDL
MODEL 5
REMARK VINA RESULT: -6.507695326      1.923      2.987
REMARK  15 active torsions:
REMARK  status: ('A' for Active; 'I' for Inactive)
REMARK    1  A    between atoms: N1_2  and  C2_4 
REMARK    2  A    between atoms: C2_4  and  C3_5 
REMARK    3  A    between atoms: C3_5  and  N2_6 
REMARK    4  A    between atoms: N2_6  and  C4_9 
REMARK    5  A    between atoms: C4_9  and  C5_10 
REMARK    6  A    between atoms: C5_10  and  N3_11 
REMARK    7  A    between atoms: N3_11  and  C6_13 
REMARK    8  A    between atoms: C7_16  and  N5_17 
REMARK    9  A    between atoms: N5_17  and  C8_19 
REMARK   10  A    between atoms: C8_19  and  C9_20 
REMARK   11  A    between atoms: C9_20  and  O1_21 
REMARK   12  A    between atoms: O1_21  and  C10_22 
REMARK   13  A    between atoms: C11_23  and  N6_24 
REMARK       I    between atoms: N6_24  and  C12_26 
REMARK   14  A    between atoms: C12_26  and  C13_28 
REMARK   15  A    between atoms: C13_28  and  N7_29 
ROOT
HETATM    1  C6  UNL     1      -0.948  23.098  -7.147  1.00  0.00     0.129 A 
HETATM    2  N4  UNL     1      -1.892  22.516  -7.902  1.00  0.00    -0.175 N 
ATOM      3  H4  UNL     1      -2.501  23.089  -8.486  1.00  0.00     0.186 HD
HETATM    4  C7  UNL     1      -2.035  21.213  -7.893  1.00  0.00     0.691 A 
HETATM    5  N8  UNL     1      -1.299  20.418  -7.164  1.00  0.00    -0.190 N 
ATOM      6  H8  UNL     1      -1.452  19.411  -7.191  1.00  0.00     0.184 HD
HETATM    7  C14 UNL     1      -0.322  20.940  -6.364  1.00  0.00     0.063 A 
HETATM    8  C15 UNL     1       0.463  20.050  -5.618  1.00  0.00     0.031 A 
HETATM    9  C16 UNL     1       1.493  20.556  -4.825  1.00  0.00     0.002 A 
HETATM   10  C17 UNL     1       1.712  21.900  -4.816  1.00  0.00     0.001 A 
HETATM   11  C18 UNL     1       0.904  22.779  -5.575  1.00  0.00     0.017 A 
HETATM   12  C19 UNL     1      -0.105  22.254  -6.330  1.00  0.00     0.035 A 
ENDROOT
BRANCH   4  13
HETATM   13  N5  UNL     1      -2.961  20.615  -8.742  1.00  0.00    -0.158 N 
ATOM     14  H5  UNL     1      -3.588  19.865  -8.450  1.00  0.00     0.194 HD
BRANCH  13  15
HETATM   15  C8  UNL     1      -2.946  21.126  -9.994  1.00  0.00    -0.028 C 
BRANCH  15  16
HETATM   16  C9  UNL     1      -2.934  21.648 -11.289  1.00  0.00     0.279 C 
BRANCH  16  17
HETATM   17  O1  UNL     1      -2.978  20.865 -12.419  1.00  0.00    -0.349 OA
BRANCH  17  18
HETATM   18  C10 UNL     1      -1.831  21.001 -13.212  1.00  0.00     0.152 C 
HETATM   19  C11 UNL     1      -0.621  20.417 -12.685  1.00  0.00     0.115 C 
BRANCH  19  20
HETATM   20  N6  UNL     1      -0.394  19.048 -12.411  1.00  0.00    -0.334 N 
HETATM   21  C12 UNL     1      -0.350  18.521 -11.119  1.00  0.00     0.247 C 
HETATM   22  O2  UNL     1      -0.459  19.116 -10.052  1.00  0.00    -0.271 OA
ATOM     23  H6  UNL     1      -0.255  18.414 -13.197  1.00  0.00     0.168 HD
BRANCH  21  24
HETATM   24  C13 UNL     1      -0.149  16.965 -11.029  1.00  0.00     0.332 C 
BRANCH  24  25
HETATM   25  N7  UNL     1       1.207  16.729 -11.455  1.00  0.00    -0.071 N 
ATOM     26  H73 UNL     1       1.484  15.748 -11.423  1.00  0.00     0.274 HD
ATOM     27  H72 UNL     1       1.352  16.861 -12.457  1.00  0.00     0.274 HD
ATOM     28  H71 UNL     1       1.783  17.337 -10.874  1.00  0.00     0.274 HD
ENDBRANCH  24  25
ENDBRANCH  21  24
ENDBRANCH  19  20
ENDBRANCH  17  18
ENDBRANCH  16  17
ENDBRANCH  15  16
ENDBRANCH  13  15
ENDBRANCH   4  13
BRANCH   1  29
HETATM   29  N3  UNL     1      -0.701  24.308  -7.016  1.00  0.00    -0.373 N 
ATOM     30  H3  UNL     1      -0.312  24.513  -6.096  1.00  0.00     0.161 HD
BRANCH  29  31
HETATM   31  C5  UNL     1      -0.815  25.475  -7.802  1.00  0.00     0.148 C 
BRANCH  31  32
HETATM   32  C4  UNL     1      -0.324  26.686  -6.953  1.00  0.00     0.251 C 
BRANCH  32  33
HETATM   33  N2  UNL     1       0.814  27.257  -7.558  1.00  0.00    -0.072 N 
ATOM     34  H22 UNL     1       0.955  26.864  -8.489  1.00  0.00     0.277 HD
ATOM     35  H21 UNL     1       1.663  26.926  -7.098  1.00  0.00     0.277 HD
BRANCH  33  36
HETATM   36  C3  UNL     1       0.806  28.649  -7.617  1.00  0.00     0.251 C 
BRANCH  36  37
HETATM   37  C2  UNL     1       0.048  29.235  -8.808  1.00  0.00     0.140 C 
BRANCH  37  38
HETATM   38  N1  UNL     1      -0.613  30.468  -8.487  1.00  0.00    -0.424 N 
HETATM   39  C1  UNL     1      -1.095  30.700  -7.206  1.00  0.00     0.139 C 
ATOM     40  H1  UNL     1      -0.729  31.180  -9.207  1.00  0.00     0.152 HD
ENDBRANCH  37  38
ENDBRANCH  36  37
ENDBRANCH  33  36
ENDBRANCH  32  33
ENDBRANCH  31  32
ENDBRANCH  29  31
ENDBRANCH   1  29
TORSDOF 15
ENDMDL
