MODEL 1
REMARK VINA RESULT: -6.896369186      0.000      0.000
REMARK  16 active torsions:
REMARK  status: ('A' for Active; 'I' for Inactive)
REMARK    1  A    between atoms: N1_1  and  C1_5 
REMARK    2  A    between atoms: C1_5  and  C2_6 
REMARK    3  A    between atoms: C2_6  and  C3_7 
REMARK    4  A    between atoms: C3_7  and  C4_8 
REMARK    5  A    between atoms: C4_8  and  C5_9 
REMARK    6  A    between atoms: C5_9  and  C6_10 
REMARK    7  A    between atoms: C5_9  and  N3_16 
REMARK    8  A    between atoms: C6_10  and  C7_11 
REMARK    9  A    between atoms: C7_11  and  N2_12 
REMARK   10  A    between atoms: N3_16  and  C8_18 
REMARK   11  A    between atoms: C8_18  and  C9_19 
REMARK   12  A    between atoms: C9_19  and  C10_20 
REMARK   13  A    between atoms: C10_20  and  C11_21 
REMARK   14  A    between atoms: C13_25  and  C14_26 
REMARK   15  A    between atoms: C14_26  and  C15_27 
REMARK   16  A    between atoms: C15_27  and  C16_28 
ROOT
HETATM    1  C11 UNL     1      -1.232  22.341  -7.370  1.00  0.00     0.098 A 
HETATM    2  N4  UNL     1      -0.903  23.694  -7.315  1.00  0.00    -0.348 N 
ATOM      3  H4  UNL     1      -1.340  24.313  -7.998  1.00  0.00     0.166 HD
HETATM    4  C12 UNL     1      -0.071  24.235  -6.447  1.00  0.00     0.098 A 
HETATM    5  C13 UNL     1       0.251  25.519  -6.440  1.00  0.00     0.009 C 
HETATM    6  C19 UNL     1       0.524  23.380  -5.504  1.00  0.00     0.274 A 
HETATM    7  O1  UNL     1       1.307  23.891  -4.682  1.00  0.00    -0.266 OA
HETATM    8  N7  UNL     1       0.215  22.079  -5.545  1.00  0.00    -0.287 N 
ATOM      9  H7  UNL     1       0.648  21.461  -4.860  1.00  0.00     0.172 HD
HETATM   10  C20 UNL     1      -0.639  21.536  -6.445  1.00  0.00     0.274 A 
HETATM   11  O2  UNL     1      -0.851  20.275  -6.385  1.00  0.00    -0.266 OA
ENDROOT
BRANCH   1  12
HETATM   12  C10 UNL     1      -2.078  21.954  -8.290  1.00  0.00     0.013 C 
BRANCH  12  13
HETATM   13  C9  UNL     1      -2.042  20.702  -9.028  1.00  0.00     0.073 C 
BRANCH  13  14
HETATM   14  C8  UNL     1      -2.935  20.866 -10.240  1.00  0.00     0.059 C 
BRANCH  14  15
HETATM   15  N3  UNL     1      -2.422  21.574 -11.332  1.00  0.00    -0.397 N 
ATOM     16  H3  UNL     1      -1.727  22.311 -11.204  1.00  0.00     0.159 HD
BRANCH  15  17
HETATM   17  C5  UNL     1      -2.914  21.222 -12.661  1.00  0.00     0.082 C 
BRANCH  17  18
HETATM   18  C4  UNL     1      -1.927  20.340 -13.316  1.00  0.00     0.025 C 
BRANCH  18  19
HETATM   19  C3  UNL     1      -0.495  20.576 -13.085  1.00  0.00     0.004 C 
BRANCH  19  20
HETATM   20  C2  UNL     1       0.307  21.571 -13.793  1.00  0.00     0.027 C 
BRANCH  20  21
HETATM   21  C1  UNL     1       0.107  21.641 -15.274  1.00  0.00     0.229 C 
BRANCH  21  22
HETATM   22  N1  UNL     1       1.226  22.368 -15.877  1.00  0.00    -0.079 N 
ATOM     23  H13 UNL     1       2.119  22.135 -15.442  1.00  0.00     0.274 HD
ATOM     24  H12 UNL     1       1.436  22.043 -16.820  1.00  0.00     0.274 HD
ATOM     25  H11 UNL     1       1.031  23.370 -15.846  1.00  0.00     0.274 HD
ENDBRANCH  21  22
ENDBRANCH  20  21
ENDBRANCH  19  20
ENDBRANCH  18  19
ENDBRANCH  17  18
BRANCH  17  26
HETATM   26  C6  UNL     1      -3.505  22.375 -13.344  1.00  0.00     0.052 C 
BRANCH  26  27
HETATM   27  C7  UNL     1      -3.097  23.741 -12.842  1.00  0.00     0.231 C 
BRANCH  27  28
HETATM   28  N2  UNL     1      -2.046  24.216 -13.725  1.00  0.00    -0.079 N 
ATOM     29  H23 UNL     1      -1.137  24.287 -13.266  1.00  0.00     0.274 HD
ATOM     30  H22 UNL     1      -1.780  23.535 -14.436  1.00  0.00     0.274 HD
ATOM     31  H21 UNL     1      -2.368  25.102 -14.117  1.00  0.00     0.274 HD
ENDBRANCH  27  28
ENDBRANCH  26  27
ENDBRANCH  17  26
ENDBRANCH  15  17
ENDBRANCH  14  15
ENDBRANCH  13  14
ENDBRANCH  12  13
ENDBRANCH   1  12
BRANCH   5  32
HETATM   32  C14 UNL     1      -0.294  26.469  -7.412  1.00  0.00     0.034 C 
BRANCH  32  33
HETATM   33  C15 UNL     1       0.682  27.523  -7.887  1.00  0.00     0.045 C 
BRANCH  33  34
HETATM   34  C16 UNL     1      -0.033  28.746  -8.245  1.00  0.00    -0.024 A 
HETATM   35  C17 UNL     1       0.158  29.471  -9.393  1.00  0.00     0.115 A 
HETATM   36  N5  UNL     1      -0.667  30.544  -9.340  1.00  0.00    -0.312 N 
HETATM   37  N6  UNL     1      -1.350  30.495  -8.202  1.00  0.00    -0.312 N 
ATOM     38  H5  UNL     1      -0.749  31.268 -10.053  1.00  0.00     0.186 HD
HETATM   39  C18 UNL     1      -0.982  29.393  -7.501  1.00  0.00     0.115 A 
ATOM     40  H6  UNL     1      -2.044  31.179  -7.900  1.00  0.00     0.186 HD
ENDBRANCH  33  34
ENDBRANCH  32  33
ENDBRANCH   5  32
TORSDOF 16
ENDMDL
MODEL 2
REMARK VINA RESULT: -6.828919003      3.762      5.629
REMARK  16 active torsions:
REMARK  status: ('A' for Active; 'I' for Inactive)
REMARK    1  A    between atoms: N1_1  and  C1_5 
REMARK    2  A    between atoms: C1_5  and  C2_6 
REMARK    3  A    between atoms: C2_6  and  C3_7 
REMARK    4  A    between atoms: C3_7  and  C4_8 
REMARK    5  A    between atoms: C4_8  and  C5_9 
REMARK    6  A    between atoms: C5_9  and  C6_10 
REMARK    7  A    between atoms: C5_9  and  N3_16 
REMARK    8  A    between atoms: C6_10  and  C7_11 
REMARK    9  A    between atoms: C7_11  and  N2_12 
REMARK   10  A    between atoms: N3_16  and  C8_18 
REMARK   11  A    between atoms: C8_18  and  C9_19 
REMARK   12  A    between atoms: C9_19  and  C10_20 
REMARK   13  A    between atoms: C10_20  and  C11_21 
REMARK   14  A    between atoms: C13_25  and  C14_26 
REMARK   15  A    between atoms: C14_26  and  C15_27 
REMARK   16  A    between atoms: C15_27  and  C16_28 
ROOT
HETATM    1  C11 UNL     1       0.234  23.001  -5.960  1.00  0.00     0.098 A 
HETATM    2  N4  UNL     1       0.286  24.327  -6.384  1.00  0.00    -0.348 N 
ATOM      3  H4  UNL     1       0.988  24.932  -5.957  1.00  0.00     0.166 HD
HETATM    4  C12 UNL     1      -0.502  24.861  -7.297  1.00  0.00     0.098 A 
HETATM    5  C13 UNL     1      -0.453  26.135  -7.655  1.00  0.00     0.009 C 
HETATM    6  C19 UNL     1      -1.464  24.025  -7.888  1.00  0.00     0.274 A 
HETATM    7  O1  UNL     1      -2.206  24.528  -8.752  1.00  0.00    -0.266 OA
HETATM    8  N7  UNL     1      -1.523  22.749  -7.490  1.00  0.00    -0.287 N 
ATOM      9  H7  UNL     1      -2.222  22.144  -7.921  1.00  0.00     0.172 HD
HETATM   10  C20 UNL     1      -0.710  22.214  -6.549  1.00  0.00     0.274 A 
HETATM   11  O2  UNL     1      -0.868  20.980  -6.251  1.00  0.00    -0.266 OA
ENDROOT
BRANCH   1  12
HETATM   12  C10 UNL     1       1.086  22.617  -5.045  1.00  0.00     0.013 C 
BRANCH  12  13
HETATM   13  C9  UNL     1       2.261  21.786  -5.251  1.00  0.00     0.073 C 
BRANCH  13  14
HETATM   14  C8  UNL     1       1.941  20.408  -4.710  1.00  0.00     0.059 C 
BRANCH  14  15
HETATM   15  N3  UNL     1       1.649  19.401  -5.637  1.00  0.00    -0.397 N 
ATOM     16  H3  UNL     1       1.293  19.626  -6.566  1.00  0.00     0.159 HD
BRANCH  15  17
HETATM   17  C5  UNL     1       1.872  18.017  -5.227  1.00  0.00     0.082 C 
BRANCH  17  18
HETATM   18  C4  UNL     1       2.640  17.327  -6.282  1.00  0.00     0.025 C 
BRANCH  18  19
HETATM   19  C3  UNL     1       2.785  17.968  -7.595  1.00  0.00     0.004 C 
BRANCH  19  20
HETATM   20  C2  UNL     1       2.141  17.505  -8.822  1.00  0.00     0.027 C 
BRANCH  20  21
HETATM   21  C1  UNL     1       0.720  17.931  -9.016  1.00  0.00     0.229 C 
BRANCH  21  22
HETATM   22  N1  UNL     1       0.504  18.258 -10.427  1.00  0.00    -0.079 N 
ATOM     23  H13 UNL     1       0.913  17.563 -11.052  1.00  0.00     0.274 HD
ATOM     24  H12 UNL     1      -0.471  18.146 -10.706  1.00  0.00     0.274 HD
ATOM     25  H11 UNL     1       0.855  19.198 -10.611  1.00  0.00     0.274 HD
ENDBRANCH  21  22
ENDBRANCH  20  21
ENDBRANCH  19  20
ENDBRANCH  18  19
ENDBRANCH  17  18
BRANCH  17  26
HETATM   26  C6  UNL     1       0.673  17.431  -4.623  1.00  0.00     0.052 C 
BRANCH  26  27
HETATM   27  C7  UNL     1      -0.598  17.504  -5.434  1.00  0.00     0.231 C 
BRANCH  27  28
HETATM   28  N2  UNL     1      -1.518  18.355  -4.698  1.00  0.00    -0.079 N 
ATOM     29  H23 UNL     1      -1.497  19.328  -5.004  1.00  0.00     0.274 HD
ATOM     30  H22 UNL     1      -2.498  18.172  -4.918  1.00  0.00     0.274 HD
ATOM     31  H21 UNL     1      -1.300  18.239  -3.708  1.00  0.00     0.274 HD
ENDBRANCH  27  28
ENDBRANCH  26  27
ENDBRANCH  17  26
ENDBRANCH  15  17
ENDBRANCH  14  15
ENDBRANCH  13  14
ENDBRANCH  12  13
ENDBRANCH   1  12
BRANCH   5  32
HETATM   32  C14 UNL     1       0.492  27.081  -7.060  1.00  0.00     0.034 C 
BRANCH  32  33
HETATM   33  C15 UNL     1       1.055  28.107  -8.019  1.00  0.00     0.045 C 
BRANCH  33  34
HETATM   34  C16 UNL     1       0.056  29.135  -8.299  1.00  0.00    -0.024 A 
HETATM   35  C17 UNL     1      -0.208  29.671  -9.533  1.00  0.00     0.115 A 
HETATM   36  N5  UNL     1      -1.172  30.609  -9.373  1.00  0.00    -0.312 N 
HETATM   37  N6  UNL     1      -1.501  30.661  -8.087  1.00  0.00    -0.312 N 
ATOM     38  H5  UNL     1      -1.577  31.179 -10.115  1.00  0.00     0.186 HD
HETATM   39  C18 UNL     1      -0.759  29.760  -7.395  1.00  0.00     0.115 A 
ATOM     40  H6  UNL     1      -2.202  31.281  -7.682  1.00  0.00     0.186 HD
ENDBRANCH  33  34
ENDBRANCH  32  33
ENDBRANCH   5  32
TORSDOF 16
ENDMDL
MODEL 3
REMARK VINA RESULT: -6.774097802      4.100      6.302
REMARK  16 active torsions:
REMARK  status: ('A' for Active; 'I' for Inactive)
REMARK    1  A    between atoms: N1_1  and  C1_5 
REMARK    2  A    between atoms: C1_5  and  C2_6 
REMARK    3  A    between atoms: C2_6  and  C3_7 
REMARK    4  A    between atoms: C3_7  and  C4_8 
REMARK    5  A    between atoms: C4_8  and  C5_9 
REMARK    6  A    between atoms: C5_9  and  C6_10 
REMARK    7  A    between atoms: C5_9  and  N3_16 
REMARK    8  A    between atoms: C6_10  and  C7_11 
REMARK    9  A    between atoms: C7_11  and  N2_12 
REMARK   10  A    between atoms: N3_16  and  C8_18 
REMARK   11  A    between atoms: C8_18  and  C9_19 
REMARK   12  A    between atoms: C9_19  and  C10_20 
REMARK   13  A    between atoms: C10_20  and  C11_21 
REMARK   14  A    between atoms: C13_25  and  C14_26 
REMARK   15  A    between atoms: C14_26  and  C15_27 
REMARK   16  A    between atoms: C15_27  and  C16_28 
ROOT
HETATM    1  C11 UNL     1       0.500  22.996  -6.207  1.00  0.00     0.098 A 
HETATM    2  N4  UNL     1       0.534  24.344  -6.559  1.00  0.00    -0.348 N 
ATOM      3  H4  UNL     1       1.323  24.898  -6.227  1.00  0.00     0.166 HD
HETATM    4  C12 UNL     1      -0.378  24.958  -7.289  1.00  0.00     0.098 A 
HETATM    5  C13 UNL     1      -0.339  26.249  -7.578  1.00  0.00     0.009 C 
HETATM    6  C19 UNL     1      -1.460  24.190  -7.749  1.00  0.00     0.274 A 
HETATM    7  O1  UNL     1      -2.319  24.769  -8.441  1.00  0.00    -0.266 OA
HETATM    8  N7  UNL     1      -1.503  22.894  -7.419  1.00  0.00    -0.287 N 
ATOM      9  H7  UNL     1      -2.290  22.339  -7.754  1.00  0.00     0.172 HD
HETATM   10  C20 UNL     1      -0.563  22.277  -6.665  1.00  0.00     0.274 A 
HETATM   11  O2  UNL     1      -0.718  21.032  -6.414  1.00  0.00    -0.266 OA
ENDROOT
BRANCH   1  12
HETATM   12  C10 UNL     1       1.481  22.530  -5.478  1.00  0.00     0.013 C 
BRANCH  12  13
HETATM   13  C9  UNL     1       1.365  21.624  -4.347  1.00  0.00     0.073 C 
BRANCH  13  14
HETATM   14  C8  UNL     1       2.125  20.362  -4.698  1.00  0.00     0.059 C 
BRANCH  14  15
HETATM   15  N3  UNL     1       1.998  19.871  -6.001  1.00  0.00    -0.397 N 
ATOM     16  H3  UNL     1       1.834  20.499  -6.789  1.00  0.00     0.159 HD
BRANCH  15  17
HETATM   17  C5  UNL     1       2.106  18.428  -6.196  1.00  0.00     0.082 C 
BRANCH  17  18
HETATM   18  C4  UNL     1       2.405  17.793  -4.897  1.00  0.00     0.025 C 
BRANCH  18  19
HETATM   19  C3  UNL     1       1.442  16.839  -4.331  1.00  0.00     0.004 C 
BRANCH  19  20
HETATM   20  C2  UNL     1       0.010  16.832  -4.622  1.00  0.00     0.027 C 
BRANCH  20  21
HETATM   21  C1  UNL     1      -0.800  17.896  -3.950  1.00  0.00     0.229 C 
BRANCH  21  22
HETATM   22  N1  UNL     1      -1.440  18.729  -4.970  1.00  0.00    -0.079 N 
ATOM     23  H13 UNL     1      -1.222  19.718  -4.855  1.00  0.00     0.274 HD
ATOM     24  H12 UNL     1      -1.027  18.597  -5.893  1.00  0.00     0.274 HD
ATOM     25  H11 UNL     1      -2.445  18.551  -4.966  1.00  0.00     0.274 HD
ENDBRANCH  21  22
ENDBRANCH  20  21
ENDBRANCH  19  20
ENDBRANCH  18  19
ENDBRANCH  17  18
BRANCH  17  26
HETATM   26  C6  UNL     1       2.849  18.099  -7.415  1.00  0.00     0.052 C 
BRANCH  26  27
HETATM   27  C7  UNL     1       2.195  17.120  -8.362  1.00  0.00     0.231 C 
BRANCH  27  28
HETATM   28  N2  UNL     1       2.163  17.755  -9.668  1.00  0.00    -0.079 N 
ATOM     29  H23 UNL     1       1.511  18.539  -9.718  1.00  0.00     0.274 HD
ATOM     30  H22 UNL     1       3.012  18.280  -9.880  1.00  0.00     0.274 HD
ATOM     31  H21 UNL     1       1.962  17.022 -10.348  1.00  0.00     0.274 HD
ENDBRANCH  27  28
ENDBRANCH  26  27
ENDBRANCH  17  26
ENDBRANCH  15  17
ENDBRANCH  14  15
ENDBRANCH  13  14
ENDBRANCH  12  13
ENDBRANCH   1  12
BRANCH   5  32
HETATM   32  C14 UNL     1       0.734  27.127  -7.105  1.00  0.00     0.034 C 
BRANCH  32  33
HETATM   33  C15 UNL     1       1.193  28.166  -8.104  1.00  0.00     0.045 C 
BRANCH  33  34
HETATM   34  C16 UNL     1       0.160  29.183  -8.283  1.00  0.00    -0.024 A 
HETATM   35  C17 UNL     1      -0.589  29.740  -7.279  1.00  0.00     0.115 A 
HETATM   36  N5  UNL     1      -1.453  30.613  -7.851  1.00  0.00    -0.312 N 
HETATM   37  N6  UNL     1      -1.254  30.605  -9.164  1.00  0.00    -0.312 N 
ATOM     38  H5  UNL     1      -2.140  31.182  -7.356  1.00  0.00     0.186 HD
HETATM   39  C18 UNL     1      -0.261  29.730  -9.464  1.00  0.00     0.115 A 
ATOM     40  H6  UNL     1      -1.768  31.168  -9.842  1.00  0.00     0.186 HD
ENDBRANCH  33  34
ENDBRANCH  32  33
ENDBRANCH   5  32
TORSDOF 16
ENDMDL
MODEL 4
REMARK VINA RESULT: -6.721427250      1.235      2.048
REMARK  16 active torsions:
REMARK  status: ('A' for Active; 'I' for Inactive)
REMARK    1  A    between atoms: N1_1  and  C1_5 
REMARK    2  A    between atoms: C1_5  and  C2_6 
REMARK    3  A    between atoms: C2_6  and  C3_7 
REMARK    4  A    between atoms: C3_7  and  C4_8 
REMARK    5  A    between atoms: C4_8  and  C5_9 
REMARK    6  A    between atoms: C5_9  and  C6_10 
REMARK    7  A    between atoms: C5_9  and  N3_16 
REMARK    8  A    between atoms: C6_10  and  C7_11 
REMARK    9  A    between atoms: C7_11  and  N2_12 
REMARK   10  A    between atoms: N3_16  and  C8_18 
REMARK   11  A    between atoms: C8_18  and  C9_19 
REMARK   12  A    between atoms: C9_19  and  C10_20 
REMARK   13  A    between atoms: C10_20  and  C11_21 
REMARK   14  A    between atoms: C13_25  and  C14_26 
REMARK   15  A    between atoms: C14_26  and  C15_27 
REMARK   16  A    between atoms: C15_27  and  C16_28 
ROOT
HETATM    1  C11 UNL     1      -1.257  22.337  -7.307  1.00  0.00     0.098 A 
HETATM    2  N4  UNL     1      -0.929  23.691  -7.279  1.00  0.00    -0.348 N 
ATOM      3  H4  UNL     1      -1.366  24.297  -7.973  1.00  0.00     0.166 HD
HETATM    4  C12 UNL     1      -0.095  24.250  -6.422  1.00  0.00     0.098 A 
HETATM    5  C13 UNL     1       0.225  25.535  -6.442  1.00  0.00     0.009 C 
HETATM    6  C19 UNL     1       0.501  23.415  -5.463  1.00  0.00     0.274 A 
HETATM    7  O1  UNL     1       1.284  23.943  -4.652  1.00  0.00    -0.266 OA
HETATM    8  N7  UNL     1       0.193  22.113  -5.479  1.00  0.00    -0.287 N 
ATOM      9  H7  UNL     1       0.627  21.508  -4.781  1.00  0.00     0.172 HD
HETATM   10  C20 UNL     1      -0.662  21.551  -6.366  1.00  0.00     0.274 A 
HETATM   11  O2  UNL     1      -0.873  20.292  -6.281  1.00  0.00    -0.266 OA
ENDROOT
BRANCH   1  12
HETATM   12  C10 UNL     1      -2.103  21.932  -8.217  1.00  0.00     0.013 C 
BRANCH  12  13
HETATM   13  C9  UNL     1      -1.933  20.802  -9.117  1.00  0.00     0.073 C 
BRANCH  13  14
HETATM   14  C8  UNL     1      -3.287  20.143  -9.278  1.00  0.00     0.059 C 
BRANCH  14  15
HETATM   15  N3  UNL     1      -3.676  19.773 -10.569  1.00  0.00    -0.397 N 
ATOM     16  H3  UNL     1      -4.407  19.077 -10.722  1.00  0.00     0.159 HD
BRANCH  15  17
HETATM   17  C5  UNL     1      -3.001  20.417 -11.692  1.00  0.00     0.082 C 
BRANCH  17  18
HETATM   18  C4  UNL     1      -3.831  21.544 -12.163  1.00  0.00     0.025 C 
BRANCH  18  19
HETATM   19  C3  UNL     1      -3.378  22.919 -11.909  1.00  0.00     0.004 C 
BRANCH  19  20
HETATM   20  C2  UNL     1      -2.903  23.840 -12.939  1.00  0.00     0.027 C 
BRANCH  20  21
HETATM   21  C1  UNL     1      -2.040  23.243 -14.005  1.00  0.00     0.229 C 
BRANCH  21  22
HETATM   22  N1  UNL     1      -1.065  24.241 -14.450  1.00  0.00    -0.079 N 
ATOM     23  H13 UNL     1      -1.343  25.191 -14.204  1.00  0.00     0.274 HD
ATOM     24  H12 UNL     1      -0.198  24.202 -13.914  1.00  0.00     0.274 HD
ATOM     25  H11 UNL     1      -0.907  24.132 -15.452  1.00  0.00     0.274 HD
ENDBRANCH  21  22
ENDBRANCH  20  21
ENDBRANCH  19  20
ENDBRANCH  18  19
ENDBRANCH  17  18
BRANCH  17  26
HETATM   26  C6  UNL     1      -2.422  19.436 -12.613  1.00  0.00     0.052 C 
BRANCH  26  27
HETATM   27  C7  UNL     1      -0.954  19.128 -12.436  1.00  0.00     0.231 C 
BRANCH  27  28
HETATM   28  N2  UNL     1      -0.226  20.340 -12.775  1.00  0.00    -0.079 N 
ATOM     29  H23 UNL     1      -0.688  20.898 -13.493  1.00  0.00     0.274 HD
ATOM     30  H22 UNL     1      -0.246  21.040 -12.034  1.00  0.00     0.274 HD
ATOM     31  H21 UNL     1       0.719  20.054 -13.033  1.00  0.00     0.274 HD
ENDBRANCH  27  28
ENDBRANCH  26  27
ENDBRANCH  17  26
ENDBRANCH  15  17
ENDBRANCH  14  15
ENDBRANCH  13  14
ENDBRANCH  12  13
ENDBRANCH   1  12
BRANCH   5  32
HETATM   32  C14 UNL     1      -0.321  26.464  -7.432  1.00  0.00     0.034 C 
BRANCH  32  33
HETATM   33  C15 UNL     1       0.653  27.511  -7.927  1.00  0.00     0.045 C 
BRANCH  33  34
HETATM   34  C16 UNL     1      -0.060  28.739  -8.271  1.00  0.00    -0.024 A 
HETATM   35  C17 UNL     1       0.141  29.484  -9.404  1.00  0.00     0.115 A 
HETATM   36  N5  UNL     1      -0.686  30.555  -9.340  1.00  0.00    -0.312 N 
HETATM   37  N6  UNL     1      -1.380  30.486  -8.210  1.00  0.00    -0.312 N 
ATOM     38  H5  UNL     1      -0.762  31.291 -10.042  1.00  0.00     0.186 HD
HETATM   39  C18 UNL     1      -1.017  29.372  -7.525  1.00  0.00     0.115 A 
ATOM     40  H6  UNL     1      -2.078  31.164  -7.903  1.00  0.00     0.186 HD
ENDBRANCH  33  34
ENDBRANCH  32  33
ENDBRANCH   5  32
TORSDOF 16
ENDMDL
MODEL 5
REMARK VINA RESULT: -6.704126232      0.918      1.158
REMARK  16 active torsions:
REMARK  status: ('A' for Active; 'I' for Inactive)
REMARK    1  A    between atoms: N1_1  and  C1_5 
REMARK    2  A    between atoms: C1_5  and  C2_6 
REMARK    3  A    between atoms: C2_6  and  C3_7 
REMARK    4  A    between atoms: C3_7  and  C4_8 
REMARK    5  A    between atoms: C4_8  and  C5_9 
REMARK    6  A    between atoms: C5_9  and  C6_10 
REMARK    7  A    between atoms: C5_9  and  N3_16 
REMARK    8  A    between atoms: C6_10  and  C7_11 
REMARK    9  A    between atoms: C7_11  and  N2_12 
REMARK   10  A    between atoms: N3_16  and  C8_18 
REMARK   11  A    between atoms: C8_18  and  C9_19 
REMARK   12  A    between atoms: C9_19  and  C10_20 
REMARK   13  A    between atoms: C10_20  and  C11_21 
REMARK   14  A    between atoms: C13_25  and  C14_26 
REMARK   15  A    between atoms: C14_26  and  C15_27 
REMARK   16  A    between atoms: C15_27  and  C16_28 
ROOT
HETATM    1  C11 UNL     1      -1.289  22.340  -7.340  1.00  0.00     0.098 A 
HETATM    2  N4  UNL     1      -0.924  23.684  -7.295  1.00  0.00    -0.348 N 
ATOM      3  H4  UNL     1      -1.370  24.316  -7.959  1.00  0.00     0.166 HD
HETATM    4  C12 UNL     1      -0.044  24.201  -6.459  1.00  0.00     0.098 A 
HETATM    5  C13 UNL     1       0.311  25.477  -6.463  1.00  0.00     0.009 C 
HETATM    6  C19 UNL     1       0.565  23.328  -5.542  1.00  0.00     0.274 A 
HETATM    7  O1  UNL     1       1.393  23.817  -4.751  1.00  0.00    -0.266 OA
HETATM    8  N7  UNL     1       0.222  22.036  -5.574  1.00  0.00    -0.287 N 
ATOM      9  H7  UNL     1       0.665  21.405  -4.907  1.00  0.00     0.172 HD
HETATM   10  C20 UNL     1      -0.681  21.517  -6.440  1.00  0.00     0.274 A 
HETATM   11  O2  UNL     1      -0.922  20.262  -6.375  1.00  0.00    -0.266 OA
ENDROOT
BRANCH   1  12
HETATM   12  C10 UNL     1      -2.180  21.978  -8.226  1.00  0.00     0.013 C 
BRANCH  12  13
HETATM   13  C9  UNL     1      -1.971  21.074  -9.345  1.00  0.00     0.073 C 
BRANCH  13  14
HETATM   14  C8  UNL     1      -3.233  21.090 -10.183  1.00  0.00     0.059 C 
BRANCH  14  15
HETATM   15  N3  UNL     1      -3.402  22.153 -11.077  1.00  0.00    -0.397 N 
ATOM     16  H3  UNL     1      -3.107  23.099 -10.835  1.00  0.00     0.159 HD
BRANCH  15  17
HETATM   17  C5  UNL     1      -4.016  21.860 -12.369  1.00  0.00     0.082 C 
BRANCH  17  18
HETATM   18  C4  UNL     1      -3.726  20.458 -12.728  1.00  0.00     0.025 C 
BRANCH  18  19
HETATM   19  C3  UNL     1      -3.047  20.172 -13.999  1.00  0.00     0.004 C 
BRANCH  19  20
HETATM   20  C2  UNL     1      -1.596  20.115 -14.171  1.00  0.00     0.027 C 
BRANCH  20  21
HETATM   21  C1  UNL     1      -0.782  20.319 -12.933  1.00  0.00     0.229 C 
BRANCH  21  22
HETATM   22  N1  UNL     1       0.359  21.182 -13.246  1.00  0.00    -0.079 N 
ATOM     23  H13 UNL     1       0.680  21.067 -14.207  1.00  0.00     0.274 HD
ATOM     24  H12 UNL     1       0.098  22.167 -13.297  1.00  0.00     0.274 HD
ATOM     25  H11 UNL     1       1.103  21.014 -12.567  1.00  0.00     0.274 HD
ENDBRANCH  21  22
ENDBRANCH  20  21
ENDBRANCH  19  20
ENDBRANCH  18  19
ENDBRANCH  17  18
BRANCH  17  26
HETATM   26  C6  UNL     1      -3.836  22.962 -13.317  1.00  0.00     0.052 C 
BRANCH  26  27
HETATM   27  C7  UNL     1      -2.646  23.864 -13.087  1.00  0.00     0.231 C 
BRANCH  27  28
HETATM   28  N2  UNL     1      -1.838  23.810 -14.293  1.00  0.00    -0.079 N 
ATOM     29  H23 UNL     1      -1.361  24.688 -14.497  1.00  0.00     0.274 HD
ATOM     30  H22 UNL     1      -1.004  23.230 -14.192  1.00  0.00     0.274 HD
ATOM     31  H21 UNL     1      -2.453  23.502 -15.047  1.00  0.00     0.274 HD
ENDBRANCH  27  28
ENDBRANCH  26  27
ENDBRANCH  17  26
ENDBRANCH  15  17
ENDBRANCH  14  15
ENDBRANCH  13  14
ENDBRANCH  12  13
ENDBRANCH   1  12
BRANCH   5  32
HETATM   32  C14 UNL     1      -0.247  26.443  -7.411  1.00  0.00     0.034 C 
BRANCH  32  33
HETATM   33  C15 UNL     1       0.712  27.525  -7.855  1.00  0.00     0.045 C 
BRANCH  33  34
HETATM   34  C16 UNL     1      -0.026  28.730  -8.225  1.00  0.00    -0.024 A 
HETATM   35  C17 UNL     1       0.142  29.441  -9.385  1.00  0.00     0.115 A 
HETATM   36  N5  UNL     1      -0.699  30.502  -9.341  1.00  0.00    -0.312 N 
HETATM   37  N6  UNL     1      -1.370  30.459  -8.195  1.00  0.00    -0.312 N 
ATOM     38  H5  UNL     1      -0.800  31.212 -10.065  1.00  0.00     0.186 HD
HETATM   39  C18 UNL     1      -0.977  29.374  -7.482  1.00  0.00     0.115 A 
ATOM     40  H6  UNL     1      -2.072  31.137  -7.898  1.00  0.00     0.186 HD
ENDBRANCH  33  34
ENDBRANCH  32  33
ENDBRANCH   5  32
TORSDOF 16
ENDMDL
