MODEL 1
REMARK VINA RESULT: -7.686551064      0.000      0.000
REMARK  5 active torsions:
REMARK  status: ('A' for Active; 'I' for Inactive)
REMARK    1  A    between atoms: C2_2  and  C3_3 
REMARK    2  A    between atoms: C4_4  and  O1_5 
REMARK    3  A    between atoms: O1_5  and  C5_6 
REMARK    4  A    between atoms: C13_14  and  N1_15 
REMARK       I    between atoms: N1_15  and  C14_17 
REMARK       I    between atoms: C14_17  and  N2_19 
REMARK    5  A    between atoms: C18_28  and  N5_29 
ROOT
HETATM    1  C5  UNL     1     -10.444   8.846  -1.712  1.00  0.00     0.163 C 
HETATM    2  C6  UNL     1     -11.307  10.014  -2.039  1.00  0.00     0.018 C 
HETATM    3  C7  UNL     1     -12.619   9.522  -2.602  1.00  0.00     0.012 C 
HETATM    4  C8  UNL     1     -12.298   8.733  -3.866  1.00  0.00    -0.011 C 
HETATM    5  C9  UNL     1     -11.707   9.683  -4.861  1.00  0.00     0.009 C 
HETATM    6  C10 UNL     1     -10.404  10.186  -4.309  1.00  0.00    -0.011 C 
HETATM    7  C11 UNL     1     -10.683  10.951  -3.047  1.00  0.00     0.012 C 
HETATM    8  C12 UNL     1      -9.442   9.082  -3.977  1.00  0.00     0.038 C 
HETATM    9  C13 UNL     1     -10.078   8.101  -3.014  1.00  0.00     0.062 C 
HETATM   10  C16 UNL     1     -11.381   7.574  -3.569  1.00  0.00     0.038 C 
ENDROOT
BRANCH   1  11
HETATM   11  O1  UNL     1     -11.174   7.922  -0.931  1.00  0.00    -0.327 OA
BRANCH  11  12
HETATM   12  C4  UNL     1     -10.603   7.140   0.047  1.00  0.00     0.157 A 
HETATM   13  C3  UNL     1     -11.369   6.108   0.624  1.00  0.00     0.058 A 
HETATM   14  C18 UNL     1     -10.826   5.320   1.590  1.00  0.00     0.118 A 
HETATM   15  N4  UNL     1      -9.521   5.563   1.984  1.00  0.00    -0.338 N 
HETATM   16  C17 UNL     1      -8.802   6.537   1.438  1.00  0.00     0.184 A 
ATOM     17  H4  UNL     1      -9.102   4.981   2.709  1.00  0.00     0.168 HD
HETATM   18  N3  UNL     1      -9.357   7.288   0.496  1.00  0.00    -0.332 N 
ATOM     19  H3  UNL     1      -8.790   8.032   0.087  1.00  0.00     0.168 HD
BRANCH  13  20
HETATM   20  C2  UNL     1     -12.710   5.955   0.110  1.00  0.00     0.009 C 
HETATM   21  C1  UNL     1     -13.762   6.615   0.487  1.00  0.00     0.012 C 
ENDBRANCH  13  20
BRANCH  14  22
HETATM   22  N5  UNL     1     -11.498   4.243   2.185  1.00  0.00    -0.366 N 
HETATM   23  C19 UNL     1     -11.343   3.765   3.530  1.00  0.00     0.124 C 
HETATM   24  C20 UNL     1     -12.834   3.820   3.958  1.00  0.00     0.021 C 
HETATM   25  C21 UNL     1     -13.445   3.048   2.776  1.00  0.00     0.021 C 
HETATM   26  C22 UNL     1     -12.524   3.419   1.598  1.00  0.00     0.124 C 
ENDBRANCH  14  22
ENDBRANCH  11  12
ENDBRANCH   1  11
BRANCH   9  27
HETATM   27  N1  UNL     1      -9.123   7.075  -2.713  1.00  0.00    -0.331 N 
HETATM   28  C14 UNL     1      -8.478   6.318  -3.701  1.00  0.00     0.316 C 
HETATM   29  O2  UNL     1      -8.714   6.491  -4.918  1.00  0.00    -0.247 OA
HETATM   30  N2  UNL     1      -7.512   5.302  -3.349  1.00  0.00    -0.347 N 
HETATM   31  C15 UNL     1      -6.859   4.534  -4.370  1.00  0.00     0.151 C 
ATOM     32  H2  UNL     1      -7.293   5.129  -2.368  1.00  0.00     0.163 HD
ATOM     33  H1  UNL     1      -8.903   6.887  -1.735  1.00  0.00     0.165 HD
ENDBRANCH   9  27
TORSDOF 5
ENDMDL
MODEL 2
REMARK VINA RESULT: -7.652153690      2.210      3.999
REMARK  5 active torsions:
REMARK  status: ('A' for Active; 'I' for Inactive)
REMARK    1  A    between atoms: C2_2  and  C3_3 
REMARK    2  A    between atoms: C4_4  and  O1_5 
REMARK    3  A    between atoms: O1_5  and  C5_6 
REMARK    4  A    between atoms: C13_14  and  N1_15 
REMARK       I    between atoms: N1_15  and  C14_17 
REMARK       I    between atoms: C14_17  and  N2_19 
REMARK    5  A    between atoms: C18_28  and  N5_29 
ROOT
HETATM    1  C5  UNL     1     -10.526   6.937  -1.549  1.00  0.00     0.163 C 
HETATM    2  C6  UNL     1      -9.056   6.755  -1.402  1.00  0.00     0.018 C 
HETATM    3  C7  UNL     1      -8.482   7.927  -0.646  1.00  0.00     0.012 C 
HETATM    4  C8  UNL     1      -8.779   9.179  -1.464  1.00  0.00    -0.011 C 
HETATM    5  C9  UNL     1      -8.034   9.067  -2.758  1.00  0.00     0.009 C 
HETATM    6  C10 UNL     1      -8.591   7.897  -3.518  1.00  0.00    -0.011 C 
HETATM    7  C11 UNL     1      -8.335   6.647  -2.726  1.00  0.00     0.012 C 
HETATM    8  C12 UNL     1     -10.071   8.001  -3.751  1.00  0.00     0.038 C 
HETATM    9  C13 UNL     1     -10.802   8.171  -2.435  1.00  0.00     0.062 C 
HETATM   10  C16 UNL     1     -10.261   9.357  -1.672  1.00  0.00     0.038 C 
ENDROOT
BRANCH   1  11
HETATM   11  O1  UNL     1     -11.095   7.231  -0.290  1.00  0.00    -0.327 OA
BRANCH  11  12
HETATM   12  C4  UNL     1     -12.101   6.485   0.280  1.00  0.00     0.157 A 
HETATM   13  C3  UNL     1     -11.759   5.472   1.197  1.00  0.00     0.058 A 
HETATM   14  C18 UNL     1     -12.736   4.723   1.774  1.00  0.00     0.118 A 
HETATM   15  N4  UNL     1     -14.053   4.979   1.434  1.00  0.00    -0.338 N 
HETATM   16  C17 UNL     1     -14.371   5.934   0.568  1.00  0.00     0.184 A 
ATOM     17  H4  UNL     1     -14.796   4.423   1.858  1.00  0.00     0.168 HD
HETATM   18  N3  UNL     1     -13.399   6.651   0.022  1.00  0.00    -0.332 N 
ATOM     19  H3  UNL     1     -13.661   7.381  -0.641  1.00  0.00     0.168 HD
BRANCH  13  20
HETATM   20  C2  UNL     1     -10.350   5.321   1.473  1.00  0.00     0.009 C 
HETATM   21  C1  UNL     1      -9.596   6.153   2.123  1.00  0.00     0.012 C 
ENDBRANCH  13  20
BRANCH  14  22
HETATM   22  N5  UNL     1     -12.491   3.728   2.731  1.00  0.00    -0.366 N 
HETATM   23  C19 UNL     1     -11.382   3.658   3.640  1.00  0.00     0.124 C 
HETATM   24  C20 UNL     1     -12.187   3.527   4.961  1.00  0.00     0.021 C 
HETATM   25  C21 UNL     1     -13.115   2.369   4.557  1.00  0.00     0.021 C 
HETATM   26  C22 UNL     1     -13.322   2.593   3.047  1.00  0.00     0.124 C 
ENDBRANCH  14  22
ENDBRANCH  11  12
ENDBRANCH   1  11
BRANCH   9  27
HETATM   27  N1  UNL     1     -12.208   8.250  -2.703  1.00  0.00    -0.331 N 
HETATM   28  C14 UNL     1     -12.787   9.285  -3.450  1.00  0.00     0.316 C 
HETATM   29  O2  UNL     1     -12.098  10.218  -3.920  1.00  0.00    -0.247 OA
HETATM   30  N2  UNL     1     -14.209   9.316  -3.704  1.00  0.00    -0.347 N 
HETATM   31  C15 UNL     1     -14.789  10.381  -4.469  1.00  0.00     0.151 C 
ATOM     32  H2  UNL     1     -14.806   8.575  -3.337  1.00  0.00     0.163 HD
ATOM     33  H1  UNL     1     -12.816   7.519  -2.333  1.00  0.00     0.165 HD
ENDBRANCH   9  27
TORSDOF 5
ENDMDL
MODEL 3
REMARK VINA RESULT: -7.591202182      2.675      5.478
REMARK  5 active torsions:
REMARK  status: ('A' for Active; 'I' for Inactive)
REMARK    1  A    between atoms: C2_2  and  C3_3 
REMARK    2  A    between atoms: C4_4  and  O1_5 
REMARK    3  A    between atoms: O1_5  and  C5_6 
REMARK    4  A    between atoms: C13_14  and  N1_15 
REMARK       I    between atoms: N1_15  and  C14_17 
REMARK       I    between atoms: C14_17  and  N2_19 
REMARK    5  A    between atoms: C18_28  and  N5_29 
ROOT
HETATM    1  C5  UNL     1      -8.706   6.550  -2.438  1.00  0.00     0.163 C 
HETATM    2  C6  UNL     1      -7.429   6.033  -3.001  1.00  0.00     0.018 C 
HETATM    3  C7  UNL     1      -6.538   7.196  -3.367  1.00  0.00     0.012 C 
HETATM    4  C8  UNL     1      -7.281   8.019  -4.413  1.00  0.00    -0.011 C 
HETATM    5  C9  UNL     1      -7.440   7.170  -5.636  1.00  0.00     0.009 C 
HETATM    6  C10 UNL     1      -8.319   6.003  -5.283  1.00  0.00    -0.011 C 
HETATM    7  C11 UNL     1      -7.624   5.182  -4.234  1.00  0.00     0.012 C 
HETATM    8  C12 UNL     1      -9.654   6.419  -4.734  1.00  0.00     0.038 C 
HETATM    9  C13 UNL     1      -9.471   7.324  -3.533  1.00  0.00     0.062 C 
HETATM   10  C16 UNL     1      -8.605   8.511  -3.883  1.00  0.00     0.038 C 
ENDROOT
BRANCH   1  11
HETATM   11  O1  UNL     1      -8.428   7.492  -1.422  1.00  0.00    -0.327 OA
BRANCH  11  12
HETATM   12  C4  UNL     1      -8.585   7.227  -0.081  1.00  0.00     0.157 A 
HETATM   13  C3  UNL     1      -7.526   7.528   0.798  1.00  0.00     0.058 A 
HETATM   14  C18 UNL     1      -7.657   7.278   2.128  1.00  0.00     0.118 A 
HETATM   15  N4  UNL     1      -8.842   6.723   2.582  1.00  0.00    -0.338 N 
HETATM   16  C17 UNL     1      -9.838   6.439   1.749  1.00  0.00     0.184 A 
ATOM     17  H4  UNL     1      -8.953   6.527   3.577  1.00  0.00     0.168 HD
HETATM   18  N3  UNL     1      -9.683   6.697   0.458  1.00  0.00    -0.332 N 
ATOM     19  H3  UNL     1     -10.457   6.473  -0.167  1.00  0.00     0.168 HD
BRANCH  13  20
HETATM   20  C2  UNL     1      -6.353   8.117   0.195  1.00  0.00     0.009 C 
HETATM   21  C1  UNL     1      -6.091   9.384   0.093  1.00  0.00     0.012 C 
ENDBRANCH  13  20
BRANCH  14  22
HETATM   22  N5  UNL     1      -6.676   7.588   3.080  1.00  0.00    -0.366 N 
HETATM   23  C19 UNL     1      -5.375   6.994   3.205  1.00  0.00     0.124 C 
HETATM   24  C20 UNL     1      -4.532   8.297   3.169  1.00  0.00     0.021 C 
HETATM   25  C21 UNL     1      -5.284   9.092   4.250  1.00  0.00     0.021 C 
HETATM   26  C22 UNL     1      -6.737   8.603   4.102  1.00  0.00     0.124 C 
ENDBRANCH  14  22
ENDBRANCH  11  12
ENDBRANCH   1  11
BRANCH   9  27
HETATM   27  N1  UNL     1     -10.766   7.683  -3.034  1.00  0.00    -0.331 N 
HETATM   28  C14 UNL     1     -11.643   8.532  -3.724  1.00  0.00     0.316 C 
HETATM   29  O2  UNL     1     -11.332   9.041  -4.824  1.00  0.00    -0.247 OA
HETATM   30  N2  UNL     1     -12.944   8.856  -3.186  1.00  0.00    -0.347 N 
HETATM   31  C15 UNL     1     -13.832   9.727  -3.902  1.00  0.00     0.151 C 
ATOM     32  H2  UNL     1     -13.235   8.463  -2.291  1.00  0.00     0.163 HD
ATOM     33  H1  UNL     1     -11.064   7.303  -2.135  1.00  0.00     0.165 HD
ENDBRANCH   9  27
TORSDOF 5
ENDMDL
MODEL 4
REMARK VINA RESULT: -7.491477771      2.156      7.193
REMARK  5 active torsions:
REMARK  status: ('A' for Active; 'I' for Inactive)
REMARK    1  A    between atoms: C2_2  and  C3_3 
REMARK    2  A    between atoms: C4_4  and  O1_5 
REMARK    3  A    between atoms: O1_5  and  C5_6 
REMARK    4  A    between atoms: C13_14  and  N1_15 
REMARK       I    between atoms: N1_15  and  C14_17 
REMARK       I    between atoms: C14_17  and  N2_19 
REMARK    5  A    between atoms: C18_28  and  N5_29 
ROOT
HETATM    1  C5  UNL     1     -10.814   6.767  -1.079  1.00  0.00     0.163 C 
HETATM    2  C6  UNL     1     -12.288   6.573  -1.155  1.00  0.00     0.018 C 
HETATM    3  C7  UNL     1     -12.981   7.839  -0.713  1.00  0.00     0.012 C 
HETATM    4  C8  UNL     1     -12.557   8.103   0.728  1.00  0.00    -0.011 C 
HETATM    5  C9  UNL     1     -13.081   6.982   1.572  1.00  0.00     0.009 C 
HETATM    6  C10 UNL     1     -12.405   5.713   1.135  1.00  0.00    -0.011 C 
HETATM    7  C11 UNL     1     -12.784   5.437  -0.292  1.00  0.00     0.012 C 
HETATM    8  C12 UNL     1     -10.907   5.793   1.208  1.00  0.00     0.038 C 
HETATM    9  C13 UNL     1     -10.401   6.966   0.395  1.00  0.00     0.062 C 
HETATM   10  C16 UNL     1     -11.061   8.250   0.840  1.00  0.00     0.038 C 
ENDROOT
BRANCH   1  11
HETATM   11  O1  UNL     1     -10.459   7.961  -1.745  1.00  0.00    -0.327 OA
BRANCH  11  12
HETATM   12  C4  UNL     1     -10.421   8.082  -3.115  1.00  0.00     0.157 A 
HETATM   13  C3  UNL     1     -10.770   9.316  -3.698  1.00  0.00     0.058 A 
HETATM   14  C18 UNL     1     -10.739   9.460  -5.049  1.00  0.00     0.118 A 
HETATM   15  N4  UNL     1     -10.363   8.373  -5.821  1.00  0.00    -0.338 N 
HETATM   16  C17 UNL     1     -10.036   7.211  -5.267  1.00  0.00     0.184 A 
ATOM     17  H4  UNL     1     -10.338   8.467  -6.836  1.00  0.00     0.168 HD
HETATM   18  N3  UNL     1     -10.073   7.100  -3.947  1.00  0.00    -0.332 N 
ATOM     19  H3  UNL     1      -9.818   6.200  -3.539  1.00  0.00     0.168 HD
BRANCH  13  20
HETATM   20  C2  UNL     1     -11.128  10.369  -2.777  1.00  0.00     0.009 C 
HETATM   21  C1  UNL     1     -10.343  11.297  -2.323  1.00  0.00     0.012 C 
ENDBRANCH  13  20
BRANCH  14  22
HETATM   22  N5  UNL     1     -11.024  10.662  -5.711  1.00  0.00    -0.366 N 
HETATM   23  C19 UNL     1     -12.306  11.107  -6.180  1.00  0.00     0.124 C 
HETATM   24  C20 UNL     1     -12.335  12.487  -5.470  1.00  0.00     0.021 C 
HETATM   25  C21 UNL     1     -10.961  13.012  -5.921  1.00  0.00     0.021 C 
HETATM   26  C22 UNL     1     -10.108  11.733  -6.016  1.00  0.00     0.124 C 
ENDBRANCH  14  22
ENDBRANCH  11  12
ENDBRANCH   1  11
BRANCH   9  27
HETATM   27  N1  UNL     1      -8.970   6.995   0.480  1.00  0.00    -0.331 N 
HETATM   28  C14 UNL     1      -8.279   7.177   1.686  1.00  0.00     0.316 C 
HETATM   29  O2  UNL     1      -8.885   7.339   2.769  1.00  0.00    -0.247 OA
HETATM   30  N2  UNL     1      -6.835   7.186   1.724  1.00  0.00    -0.347 N 
HETATM   31  C15 UNL     1      -6.140   7.373   2.965  1.00  0.00     0.151 C 
ATOM     32  H2  UNL     1      -6.305   7.058   0.862  1.00  0.00     0.163 HD
ATOM     33  H1  UNL     1      -8.430   6.877  -0.377  1.00  0.00     0.165 HD
ENDBRANCH   9  27
TORSDOF 5
ENDMDL
MODEL 5
REMARK VINA RESULT: -7.442720725      3.070      5.864
REMARK  5 active torsions:
REMARK  status: ('A' for Active; 'I' for Inactive)
REMARK    1  A    between atoms: C2_2  and  C3_3 
REMARK    2  A    between atoms: C4_4  and  O1_5 
REMARK    3  A    between atoms: O1_5  and  C5_6 
REMARK    4  A    between atoms: C13_14  and  N1_15 
REMARK       I    between atoms: N1_15  and  C14_17 
REMARK       I    between atoms: C14_17  and  N2_19 
REMARK    5  A    between atoms: C18_28  and  N5_29 
ROOT
HETATM    1  C5  UNL     1      -8.558   6.972  -2.188  1.00  0.00     0.163 C 
HETATM    2  C6  UNL     1      -7.430   6.239  -2.826  1.00  0.00     0.018 C 
HETATM    3  C7  UNL     1      -6.425   7.234  -3.354  1.00  0.00     0.012 C 
HETATM    4  C8  UNL     1      -7.145   8.096  -4.385  1.00  0.00    -0.011 C 
HETATM    5  C9  UNL     1      -7.545   7.209  -5.524  1.00  0.00     0.009 C 
HETATM    6  C10 UNL     1      -8.540   6.208  -5.010  1.00  0.00    -0.011 C 
HETATM    7  C11 UNL     1      -7.867   5.356  -3.972  1.00  0.00     0.012 C 
HETATM    8  C12 UNL     1      -9.740   6.848  -4.373  1.00  0.00     0.038 C 
HETATM    9  C13 UNL     1      -9.312   7.785  -3.263  1.00  0.00     0.062 C 
HETATM   10  C16 UNL     1      -8.325   8.807  -3.775  1.00  0.00     0.038 C 
ENDROOT
BRANCH   1  11
HETATM   11  O1  UNL     1      -8.049   7.920  -1.273  1.00  0.00    -0.327 OA
BRANCH  11  12
HETATM   12  C4  UNL     1      -7.875   7.661   0.068  1.00  0.00     0.157 A 
HETATM   13  C3  UNL     1      -6.852   8.335   0.762  1.00  0.00     0.058 A 
HETATM   14  C18 UNL     1      -6.662   8.098   2.087  1.00  0.00     0.118 A 
HETATM   15  N4  UNL     1      -7.489   7.184   2.720  1.00  0.00    -0.338 N 
HETATM   16  C17 UNL     1      -8.451   6.550   2.061  1.00  0.00     0.184 A 
ATOM     17  H4  UNL     1      -7.355   6.995   3.713  1.00  0.00     0.168 HD
HETATM   18  N3  UNL     1      -8.616   6.803   0.770  1.00  0.00    -0.332 N 
ATOM     19  H3  UNL     1      -9.360   6.306   0.279  1.00  0.00     0.168 HD
BRANCH  13  20
HETATM   20  C2  UNL     1      -6.074   9.272  -0.015  1.00  0.00     0.009 C 
HETATM   21  C1  UNL     1      -4.851   9.112  -0.419  1.00  0.00     0.012 C 
ENDBRANCH  13  20
BRANCH  14  22
HETATM   22  N5  UNL     1      -5.701   8.757   2.867  1.00  0.00    -0.366 N 
HETATM   23  C19 UNL     1      -5.859  10.005   3.559  1.00  0.00     0.124 C 
HETATM   24  C20 UNL     1      -5.434   9.529   4.974  1.00  0.00     0.021 C 
HETATM   25  C21 UNL     1      -4.106   8.848   4.603  1.00  0.00     0.021 C 
HETATM   26  C22 UNL     1      -4.371   8.303   3.187  1.00  0.00     0.124 C 
ENDBRANCH  14  22
ENDBRANCH  11  12
ENDBRANCH   1  11
BRANCH   9  27
HETATM   27  N1  UNL     1     -10.486   8.360  -2.675  1.00  0.00    -0.331 N 
HETATM   28  C14 UNL     1     -11.289   7.680  -1.749  1.00  0.00     0.316 C 
HETATM   29  O2  UNL     1     -11.027   6.510  -1.390  1.00  0.00    -0.247 OA
HETATM   30  N2  UNL     1     -12.457   8.306  -1.173  1.00  0.00    -0.347 N 
HETATM   31  C15 UNL     1     -13.271   7.598  -0.227  1.00  0.00     0.151 C 
ATOM     32  H2  UNL     1     -12.706   9.258  -1.441  1.00  0.00     0.163 HD
ATOM     33  H1  UNL     1     -10.749   9.309  -2.942  1.00  0.00     0.165 HD
ENDBRANCH   9  27
TORSDOF 5
ENDMDL
