MODEL 1
REMARK VINA RESULT: -7.067198706      0.000      0.000
REMARK  17 active torsions:
REMARK  status: ('A' for Active; 'I' for Inactive)
REMARK    1  A    between atoms: N1_1  and  C1_4 
REMARK    2  A    between atoms: C2_10  and  N4_11 
REMARK    3  A    between atoms: N5_13  and  C3_15 
REMARK    4  A    between atoms: C5_21  and  O2_22 
REMARK    5  A    between atoms: C6_26  and  C7_27 
REMARK    6  A    between atoms: C9_34  and  N10_35 
REMARK    7  A    between atoms: N10_35  and  O5_36 
REMARK    8  A    between atoms: N10_35  and  C10_38 
REMARK    9  A    between atoms: C10_38  and  O6_39 
REMARK   10  A    between atoms: C10_38  and  C13_48 
REMARK   11  A    between atoms: O6_39  and  C11_40 
REMARK   12  A    between atoms: C11_40  and  O7_41 
REMARK   13  A    between atoms: C11_40  and  C12_43 
REMARK   14  A    between atoms: C12_43  and  O8_44 
REMARK   15  A    between atoms: C12_43  and  O9_46 
REMARK   16  A    between atoms: C13_48  and  O10_49 
REMARK   17  A    between atoms: N11_51  and  O11_53 
ROOT
HETATM    1  C3  UNL     1       9.942   7.365   0.913  1.00  0.00     0.709 C 
HETATM    2  N6  UNL     1       9.112   6.367   0.748  1.00  0.00    -0.134 N 
ATOM      3  H6  UNL     1       9.257   5.735  -0.039  1.00  0.00     0.205 HD
HETATM    4  N7  UNL     1       8.030   6.134   1.612  1.00  0.00    -0.303 N 
ATOM      5  H7  UNL     1       7.533   5.248   1.523  1.00  0.00     0.182 HD
HETATM    6  C4  UNL     1       7.575   7.064   2.619  1.00  0.00     0.148 C 
HETATM    7  C5  UNL     1       8.321   8.354   2.490  1.00  0.00     0.269 C 
HETATM    8  N8  UNL     1       9.662   8.200   2.030  1.00  0.00    -0.195 N 
ATOM      9  H8  UNL     1      10.422   8.690   2.503  1.00  0.00     0.180 HD
HETATM   10  C6  UNL     1       7.565   6.448   3.983  1.00  0.00     0.150 C 
HETATM   11  C8  UNL     1       6.648   7.360   4.754  1.00  0.00     0.252 C 
HETATM   12  N9  UNL     1       5.815   8.005   3.775  1.00  0.00    -0.053 N 
ATOM     13  H91 UNL     1       5.918   9.020   3.782  1.00  0.00     0.279 HD
ATOM     14  H92 UNL     1       4.825   7.964   4.015  1.00  0.00     0.279 HD
HETATM   15  C9  UNL     1       6.097   7.426   2.478  1.00  0.00     0.322 C 
ENDROOT
BRANCH   7  16
HETATM   16  O2  UNL     1       8.276   9.195   3.568  1.00  0.00    -0.373 OA
ATOM     17  H2  UNL     1       9.110   9.521   3.885  1.00  0.00     0.212 HD
ENDBRANCH   7  16
BRANCH  10  18
HETATM   18  C7  UNL     1       8.855   6.183   4.595  1.00  0.00     0.181 C 
HETATM   19  O3  UNL     1       9.516   5.179   4.236  1.00  0.00    -0.648 OA
HETATM   20  O4  UNL     1       9.392   6.996   5.565  1.00  0.00    -0.648 OA
ENDBRANCH  10  18
BRANCH  15  21
HETATM   21  N10 UNL     1       5.276   6.312   2.154  1.00  0.00    -0.129 NA
BRANCH  21  22
HETATM   22  O5  UNL     1       4.866   6.516   0.856  1.00  0.00    -0.308 OA
ATOM     23  H5  UNL     1       5.183   5.767   0.365  1.00  0.00     0.237 HD
ENDBRANCH  21  22
BRANCH  21  24
HETATM   24  C10 UNL     1       4.111   6.187   3.017  1.00  0.00     0.303 C 
BRANCH  24  25
HETATM   25  O6  UNL     1       2.976   6.711   2.465  1.00  0.00    -0.327 OA
BRANCH  25  26
HETATM   26  C11 UNL     1       2.490   7.800   3.140  1.00  0.00     0.314 C 
BRANCH  26  27
HETATM   27  O7  UNL     1       3.025   7.944   4.429  1.00  0.00    -0.367 OA
ATOM     28  H7  UNL     1       3.489   8.763   4.557  1.00  0.00     0.212 HD
ENDBRANCH  26  27
BRANCH  26  29
HETATM   29  C12 UNL     1       2.758   9.127   2.437  1.00  0.00     0.309 C 
BRANCH  29  30
HETATM   30  O8  UNL     1       3.571   9.949   3.210  1.00  0.00    -0.367 OA
ATOM     31  H8  UNL     1       4.414   9.543   3.372  1.00  0.00     0.212 HD
ENDBRANCH  29  30
BRANCH  29  32
HETATM   32  O9  UNL     1       3.314   8.996   1.192  1.00  0.00    -0.367 OA
ATOM     33  H9  UNL     1       3.444   9.820   0.739  1.00  0.00     0.212 HD
ENDBRANCH  29  32
ENDBRANCH  26  29
ENDBRANCH  25  26
ENDBRANCH  24  25
BRANCH  24  34
HETATM   34  C13 UNL     1       3.966   4.760   3.409  1.00  0.00     0.182 C 
HETATM   35  N11 UNL     1       3.875   4.379   4.636  1.00  0.00    -0.248 N 
ATOM     36  H11 UNL     1       3.902   5.090   5.367  1.00  0.00     0.196 HD
BRANCH  34  37
HETATM   37  O10 UNL     1       3.924   3.742   2.442  1.00  0.00    -0.345 OA
ATOM     38  H10 UNL     1       4.537   3.728   1.717  1.00  0.00     0.219 HD
ENDBRANCH  34  37
BRANCH  35  39
HETATM   39  O11 UNL     1       3.742   3.068   5.006  1.00  0.00    -0.288 OA
ATOM     40  H11 UNL     1       4.290   2.372   4.664  1.00  0.00     0.244 HD
ENDBRANCH  35  39
ENDBRANCH  24  34
ENDBRANCH  21  24
ENDBRANCH  15  21
BRANCH   1  41
HETATM   41  N5  UNL     1      11.032   7.600   0.044  1.00  0.00    -0.129 N 
HETATM   42  N4  UNL     1      12.177   7.108   0.207  1.00  0.00    -0.267 N 
ATOM     43  H4  UNL     1      12.921   7.318  -0.458  1.00  0.00     0.189 HD
ATOM     44  H5  UNL     1      10.880   8.205  -0.763  1.00  0.00     0.205 HD
BRANCH  42  45
HETATM   45  C2  UNL     1      12.435   6.263   1.313  1.00  0.00     0.188 A 
HETATM   46  C1  UNL     1      13.037   5.011   1.187  1.00  0.00     0.169 A 
HETATM   47  N2  UNL     1      13.121   4.503   2.422  1.00  0.00    -0.222 N 
HETATM   48  O1  UNL     1      12.618   5.359   3.249  1.00  0.00    -0.153 OA
ATOM     49  H2  UNL     1      13.514   3.595   2.668  1.00  0.00     0.198 HD
HETATM   50  N3  UNL     1      12.203   6.414   2.616  1.00  0.00    -0.221 N 
ATOM     51  H3  UNL     1      11.769   7.229   3.049  1.00  0.00     0.198 HD
BRANCH  46  52
HETATM   52  N1  UNL     1      13.418   4.489   0.083  1.00  0.00    -0.381 N 
ATOM     53  H12 UNL     1      13.720   3.521  -0.032  1.00  0.00     0.157 HD
ATOM     54  H11 UNL     1      13.486   4.925  -0.836  1.00  0.00     0.157 HD
ENDBRANCH  46  52
ENDBRANCH  42  45
ENDBRANCH   1  41
TORSDOF 17
ENDMDL
MODEL 2
REMARK VINA RESULT: -6.771498686      1.879      3.134
REMARK  17 active torsions:
REMARK  status: ('A' for Active; 'I' for Inactive)
REMARK    1  A    between atoms: N1_1  and  C1_4 
REMARK    2  A    between atoms: C2_10  and  N4_11 
REMARK    3  A    between atoms: N5_13  and  C3_15 
REMARK    4  A    between atoms: C5_21  and  O2_22 
REMARK    5  A    between atoms: C6_26  and  C7_27 
REMARK    6  A    between atoms: C9_34  and  N10_35 
REMARK    7  A    between atoms: N10_35  and  O5_36 
REMARK    8  A    between atoms: N10_35  and  C10_38 
REMARK    9  A    between atoms: C10_38  and  O6_39 
REMARK   10  A    between atoms: C10_38  and  C13_48 
REMARK   11  A    between atoms: O6_39  and  C11_40 
REMARK   12  A    between atoms: C11_40  and  O7_41 
REMARK   13  A    between atoms: C11_40  and  C12_43 
REMARK   14  A    between atoms: C12_43  and  O8_44 
REMARK   15  A    between atoms: C12_43  and  O9_46 
REMARK   16  A    between atoms: C13_48  and  O10_49 
REMARK   17  A    between atoms: N11_51  and  O11_53 
ROOT
HETATM    1  C3  UNL     1      10.736   7.435   0.648  1.00  0.00     0.709 C 
HETATM    2  N6  UNL     1       9.863   6.481   0.453  1.00  0.00    -0.134 N 
ATOM      3  H6  UNL     1       9.955   5.895  -0.377  1.00  0.00     0.205 HD
HETATM    4  N7  UNL     1       8.805   6.232   1.342  1.00  0.00    -0.303 N 
ATOM      5  H7  UNL     1       8.271   5.372   1.216  1.00  0.00     0.182 HD
HETATM    6  C4  UNL     1       8.422   7.112   2.422  1.00  0.00     0.148 C 
HETATM    7  C5  UNL     1       9.212   8.379   2.345  1.00  0.00     0.269 C 
HETATM    8  N8  UNL     1      10.529   8.207   1.825  1.00  0.00    -0.195 N 
ATOM      9  H8  UNL     1      11.323   8.638   2.299  1.00  0.00     0.180 HD
HETATM   10  C6  UNL     1       8.438   6.410   3.744  1.00  0.00     0.150 C 
HETATM   11  C8  UNL     1       7.584   7.303   4.605  1.00  0.00     0.252 C 
HETATM   12  N9  UNL     1       6.742   8.039   3.701  1.00  0.00    -0.053 N 
ATOM     13  H91 UNL     1       6.884   9.047   3.767  1.00  0.00     0.279 HD
ATOM     14  H92 UNL     1       5.760   8.018   3.976  1.00  0.00     0.279 HD
HETATM   15  C9  UNL     1       6.954   7.535   2.360  1.00  0.00     0.322 C 
ENDROOT
BRANCH   7  16
HETATM   16  O2  UNL     1       9.239   9.151   3.475  1.00  0.00    -0.373 OA
ATOM     17  H2  UNL     1       9.885   8.918   4.130  1.00  0.00     0.212 HD
ENDBRANCH   7  16
BRANCH  10  18
HETATM   18  C7  UNL     1       9.737   6.060   4.288  1.00  0.00     0.181 C 
HETATM   19  O3  UNL     1      10.347   5.059   3.840  1.00  0.00    -0.648 OA
HETATM   20  O4  UNL     1      10.339   6.788   5.288  1.00  0.00    -0.648 OA
ENDBRANCH  10  18
BRANCH  15  21
HETATM   21  N10 UNL     1       6.080   6.475   1.999  1.00  0.00    -0.129 NA
BRANCH  21  22
HETATM   22  O5  UNL     1       6.063   6.457   0.623  1.00  0.00    -0.308 OA
ATOM     23  H5  UNL     1       5.589   5.670   0.381  1.00  0.00     0.237 HD
ENDBRANCH  21  22
BRANCH  21  24
HETATM   24  C10 UNL     1       4.725   6.652   2.499  1.00  0.00     0.303 C 
BRANCH  24  25
HETATM   25  O6  UNL     1       3.854   7.088   1.541  1.00  0.00    -0.327 OA
BRANCH  25  26
HETATM   26  C11 UNL     1       3.395   8.362   1.756  1.00  0.00     0.314 C 
BRANCH  26  27
HETATM   27  O7  UNL     1       3.411   9.164   0.605  1.00  0.00    -0.367 OA
ATOM     28  H7  UNL     1       4.235   9.616   0.470  1.00  0.00     0.212 HD
ENDBRANCH  26  27
BRANCH  26  29
HETATM   29  C12 UNL     1       1.962   8.417   2.273  1.00  0.00     0.309 C 
BRANCH  29  30
HETATM   30  O8  UNL     1       1.114   7.643   1.487  1.00  0.00    -0.367 OA
ATOM     31  H8  UNL     1       0.753   8.150   0.770  1.00  0.00     0.212 HD
ENDBRANCH  29  30
BRANCH  29  32
HETATM   32  O9  UNL     1       1.825   8.037   3.581  1.00  0.00    -0.367 OA
ATOM     33  H9  UNL     1       0.924   7.922   3.858  1.00  0.00     0.212 HD
ENDBRANCH  29  32
ENDBRANCH  26  29
ENDBRANCH  25  26
ENDBRANCH  24  25
BRANCH  24  34
HETATM   34  C13 UNL     1       4.294   5.386   3.150  1.00  0.00     0.182 C 
HETATM   35  N11 UNL     1       4.164   5.267   4.425  1.00  0.00    -0.248 N 
ATOM     36  H11 UNL     1       4.365   6.078   5.011  1.00  0.00     0.196 HD
BRANCH  34  37
HETATM   37  O10 UNL     1       4.006   4.241   2.390  1.00  0.00    -0.345 OA
ATOM     38  H10 UNL     1       4.102   3.370   2.758  1.00  0.00     0.219 HD
ENDBRANCH  34  37
BRANCH  35  39
HETATM   39  O11 UNL     1       3.768   4.106   5.034  1.00  0.00    -0.288 OA
ATOM     40  H11 UNL     1       3.440   4.070   5.924  1.00  0.00     0.244 HD
ENDBRANCH  35  39
ENDBRANCH  24  34
ENDBRANCH  21  24
ENDBRANCH  15  21
BRANCH   1  41
HETATM   41  N5  UNL     1      11.802   7.686  -0.245  1.00  0.00    -0.129 N 
HETATM   42  N4  UNL     1      11.840   8.663  -1.036  1.00  0.00    -0.267 N 
ATOM     43  H4  UNL     1      12.640   8.787  -1.656  1.00  0.00     0.189 HD
ATOM     44  H5  UNL     1      12.588   7.036  -0.249  1.00  0.00     0.205 HD
BRANCH  42  45
HETATM   45  C2  UNL     1      10.770   9.591  -1.067  1.00  0.00     0.188 A 
HETATM   46  C1  UNL     1      10.795  10.800  -0.371  1.00  0.00     0.169 A 
HETATM   47  N2  UNL     1       9.634  11.411  -0.629  1.00  0.00    -0.222 N 
HETATM   48  O1  UNL     1       8.942  10.656  -1.416  1.00  0.00    -0.153 OA
ATOM     49  H2  UNL     1       9.344  12.319  -0.266  1.00  0.00     0.198 HD
HETATM   50  N3  UNL     1       9.594   9.568  -1.692  1.00  0.00    -0.221 N 
ATOM     51  H3  UNL     1       9.259   8.815  -2.292  1.00  0.00     0.198 HD
BRANCH  46  52
HETATM   52  N1  UNL     1      11.764  11.205   0.361  1.00  0.00    -0.381 N 
ATOM     53  H12 UNL     1      12.552  11.763   0.031  1.00  0.00     0.157 HD
ATOM     54  H11 UNL     1      11.914  11.050   1.357  1.00  0.00     0.157 HD
ENDBRANCH  46  52
ENDBRANCH  42  45
ENDBRANCH   1  41
TORSDOF 17
ENDMDL
MODEL 3
REMARK VINA RESULT: -6.582921662      1.453      1.833
REMARK  17 active torsions:
REMARK  status: ('A' for Active; 'I' for Inactive)
REMARK    1  A    between atoms: N1_1  and  C1_4 
REMARK    2  A    between atoms: C2_10  and  N4_11 
REMARK    3  A    between atoms: N5_13  and  C3_15 
REMARK    4  A    between atoms: C5_21  and  O2_22 
REMARK    5  A    between atoms: C6_26  and  C7_27 
REMARK    6  A    between atoms: C9_34  and  N10_35 
REMARK    7  A    between atoms: N10_35  and  O5_36 
REMARK    8  A    between atoms: N10_35  and  C10_38 
REMARK    9  A    between atoms: C10_38  and  O6_39 
REMARK   10  A    between atoms: C10_38  and  C13_48 
REMARK   11  A    between atoms: O6_39  and  C11_40 
REMARK   12  A    between atoms: C11_40  and  O7_41 
REMARK   13  A    between atoms: C11_40  and  C12_43 
REMARK   14  A    between atoms: C12_43  and  O8_44 
REMARK   15  A    between atoms: C12_43  and  O9_46 
REMARK   16  A    between atoms: C13_48  and  O10_49 
REMARK   17  A    between atoms: N11_51  and  O11_53 
ROOT
HETATM    1  C3  UNL     1       9.378   6.829   1.705  1.00  0.00     0.709 C 
HETATM    2  N6  UNL     1       8.792   5.981   2.510  1.00  0.00    -0.134 N 
ATOM      3  H6  UNL     1       9.027   4.992   2.435  1.00  0.00     0.205 HD
HETATM    4  N7  UNL     1       7.852   6.381   3.473  1.00  0.00    -0.303 N 
ATOM      5  H7  UNL     1       7.567   5.696   4.173  1.00  0.00     0.182 HD
HETATM    6  C4  UNL     1       7.260   7.697   3.540  1.00  0.00     0.148 C 
HETATM    7  C5  UNL     1       7.679   8.500   2.348  1.00  0.00     0.269 C 
HETATM    8  N8  UNL     1       8.986   8.186   1.873  1.00  0.00    -0.195 N 
ATOM      9  H8  UNL     1       9.641   8.937   1.654  1.00  0.00     0.180 HD
HETATM   10  C6  UNL     1       7.482   8.341   4.873  1.00  0.00     0.150 C 
HETATM   11  C8  UNL     1       6.431   9.419   4.901  1.00  0.00     0.252 C 
HETATM   12  N9  UNL     1       5.410   9.002   3.978  1.00  0.00    -0.053 N 
ATOM     13  H91 UNL     1       5.276   9.667   3.216  1.00  0.00     0.279 HD
ATOM     14  H92 UNL     1       4.473   9.059   4.379  1.00  0.00     0.279 HD
HETATM   15  C9  UNL     1       5.732   7.672   3.505  1.00  0.00     0.322 C 
ENDROOT
BRANCH   7  16
HETATM   16  O2  UNL     1       7.511   9.855   2.437  1.00  0.00    -0.373 OA
ATOM     17  H2  UNL     1       6.726  10.156   2.879  1.00  0.00     0.212 HD
ENDBRANCH   7  16
BRANCH  10  18
HETATM   18  C7  UNL     1       8.835   8.768   5.181  1.00  0.00     0.181 C 
HETATM   19  O3  UNL     1       9.023   9.886   5.719  1.00  0.00    -0.648 OA
HETATM   20  O4  UNL     1       9.935   7.991   4.905  1.00  0.00    -0.648 OA
ENDBRANCH  10  18
BRANCH  15  21
HETATM   21  N10 UNL     1       5.171   6.630   4.291  1.00  0.00    -0.129 NA
BRANCH  21  22
HETATM   22  O5  UNL     1       6.062   5.584   4.215  1.00  0.00    -0.308 OA
ATOM     23  H5  UNL     1       6.065   5.184   5.077  1.00  0.00     0.237 HD
ENDBRANCH  21  22
BRANCH  21  24
HETATM   24  C10 UNL     1       3.867   6.191   3.817  1.00  0.00     0.303 C 
BRANCH  24  25
HETATM   25  O6  UNL     1       3.519   6.747   2.618  1.00  0.00    -0.327 OA
BRANCH  25  26
HETATM   26  C11 UNL     1       2.437   7.586   2.697  1.00  0.00     0.314 C 
BRANCH  26  27
HETATM   27  O7  UNL     1       2.311   8.220   3.942  1.00  0.00    -0.367 OA
ATOM     28  H7  UNL     1       1.504   8.712   4.035  1.00  0.00     0.212 HD
ENDBRANCH  26  27
BRANCH  26  29
HETATM   29  C12 UNL     1       2.458   8.710   1.666  1.00  0.00     0.309 C 
BRANCH  29  30
HETATM   30  O8  UNL     1       3.141   9.821   2.149  1.00  0.00    -0.367 OA
ATOM     31  H8  UNL     1       3.228  10.488   1.479  1.00  0.00     0.212 HD
ENDBRANCH  29  30
BRANCH  29  32
HETATM   32  O9  UNL     1       2.994   8.349   0.459  1.00  0.00    -0.367 OA
ATOM     33  H9  UNL     1       2.494   8.650  -0.291  1.00  0.00     0.212 HD
ENDBRANCH  29  32
ENDBRANCH  26  29
ENDBRANCH  25  26
ENDBRANCH  24  25
BRANCH  24  34
HETATM   34  C13 UNL     1       3.848   4.704   3.800  1.00  0.00     0.182 C 
HETATM   35  N11 UNL     1       3.771   3.996   4.873  1.00  0.00    -0.248 N 
ATOM     36  H11 UNL     1       3.720   4.479   5.771  1.00  0.00     0.196 HD
BRANCH  34  37
HETATM   37  O10 UNL     1       3.916   3.990   2.593  1.00  0.00    -0.345 OA
ATOM     38  H10 UNL     1       4.507   3.254   2.490  1.00  0.00     0.219 HD
ENDBRANCH  34  37
BRANCH  35  39
HETATM   39  O11 UNL     1       3.752   2.627   4.869  1.00  0.00    -0.288 OA
ATOM     40  H11 UNL     1       4.037   2.100   5.606  1.00  0.00     0.244 HD
ENDBRANCH  35  39
ENDBRANCH  24  34
ENDBRANCH  21  24
ENDBRANCH  15  21
BRANCH   1  41
HETATM   41  N5  UNL     1      10.325   6.428   0.735  1.00  0.00    -0.129 N 
HETATM   42  N4  UNL     1      11.564   6.377   0.944  1.00  0.00    -0.267 N 
ATOM     43  H4  UNL     1      12.194   6.078   0.201  1.00  0.00     0.189 HD
ATOM     44  H5  UNL     1       9.983   6.165  -0.189  1.00  0.00     0.205 HD
BRANCH  42  45
HETATM   45  C2  UNL     1      12.084   6.733   2.212  1.00  0.00     0.188 A 
HETATM   46  C1  UNL     1      12.396   5.794   3.195  1.00  0.00     0.169 A 
HETATM   47  N2  UNL     1      12.857   6.481   4.246  1.00  0.00    -0.222 N 
HETATM   48  O1  UNL     1      12.836   7.739   3.950  1.00  0.00    -0.153 OA
ATOM     49  H2  UNL     1      13.171   6.081   5.130  1.00  0.00     0.198 HD
HETATM   50  N3  UNL     1      12.382   7.916   2.747  1.00  0.00    -0.221 N 
ATOM     51  H3  UNL     1      12.270   8.818   2.286  1.00  0.00     0.198 HD
BRANCH  46  52
HETATM   52  N1  UNL     1      12.254   4.528   3.072  1.00  0.00    -0.381 N 
ATOM     53  H12 UNL     1      12.905   3.829   3.430  1.00  0.00     0.157 HD
ATOM     54  H11 UNL     1      11.499   4.016   2.615  1.00  0.00     0.157 HD
ENDBRANCH  46  52
ENDBRANCH  42  45
ENDBRANCH   1  41
TORSDOF 17
ENDMDL
MODEL 4
REMARK VINA RESULT: -6.390759323      2.427      7.956
REMARK  17 active torsions:
REMARK  status: ('A' for Active; 'I' for Inactive)
REMARK    1  A    between atoms: N1_1  and  C1_4 
REMARK    2  A    between atoms: C2_10  and  N4_11 
REMARK    3  A    between atoms: N5_13  and  C3_15 
REMARK    4  A    between atoms: C5_21  and  O2_22 
REMARK    5  A    between atoms: C6_26  and  C7_27 
REMARK    6  A    between atoms: C9_34  and  N10_35 
REMARK    7  A    between atoms: N10_35  and  O5_36 
REMARK    8  A    between atoms: N10_35  and  C10_38 
REMARK    9  A    between atoms: C10_38  and  O6_39 
REMARK   10  A    between atoms: C10_38  and  C13_48 
REMARK   11  A    between atoms: O6_39  and  C11_40 
REMARK   12  A    between atoms: C11_40  and  O7_41 
REMARK   13  A    between atoms: C11_40  and  C12_43 
REMARK   14  A    between atoms: C12_43  and  O8_44 
REMARK   15  A    between atoms: C12_43  and  O9_46 
REMARK   16  A    between atoms: C13_48  and  O10_49 
REMARK   17  A    between atoms: N11_51  and  O11_53 
ROOT
HETATM    1  C3  UNL     1       5.269   6.359   3.228  1.00  0.00     0.709 C 
HETATM    2  N6  UNL     1       5.837   6.891   2.176  1.00  0.00    -0.134 N 
ATOM      3  H6  UNL     1       5.310   6.933   1.304  1.00  0.00     0.205 HD
HETATM    4  N7  UNL     1       7.143   7.406   2.202  1.00  0.00    -0.303 N 
ATOM      5  H7  UNL     1       7.454   7.955   1.401  1.00  0.00     0.182 HD
HETATM    6  C4  UNL     1       8.075   7.211   3.289  1.00  0.00     0.148 C 
HETATM    7  C5  UNL     1       7.496   6.259   4.287  1.00  0.00     0.269 C 
HETATM    8  N8  UNL     1       6.077   6.335   4.398  1.00  0.00    -0.195 N 
ATOM      9  H8  UNL     1       5.640   6.372   5.320  1.00  0.00     0.180 HD
HETATM   10  C6  UNL     1       8.572   8.513   3.837  1.00  0.00     0.150 C 
HETATM   11  C8  UNL     1       9.824   8.109   4.570  1.00  0.00     0.252 C 
HETATM   12  N9  UNL     1      10.250   6.871   3.976  1.00  0.00    -0.053 N 
ATOM     13  H91 UNL     1      10.277   6.103   4.647  1.00  0.00     0.279 HD
ATOM     14  H92 UNL     1      11.240   6.875   3.730  1.00  0.00     0.279 HD
HETATM   15  C9  UNL     1       9.397   6.587   2.841  1.00  0.00     0.322 C 
ENDROOT
BRANCH   7  16
HETATM   16  O2  UNL     1       8.076   6.248   5.526  1.00  0.00    -0.373 OA
ATOM     17  H2  UNL     1       7.820   5.542   6.107  1.00  0.00     0.212 HD
ENDBRANCH   7  16
BRANCH  10  18
HETATM   18  C7  UNL     1       7.626   9.312   4.593  1.00  0.00     0.181 C 
HETATM   19  O3  UNL     1       8.003   9.891   5.640  1.00  0.00    -0.648 OA
HETATM   20  O4  UNL     1       6.315   9.466   4.207  1.00  0.00    -0.648 OA
ENDBRANCH  10  18
BRANCH  15  21
HETATM   21  N10 UNL     1       9.878   7.115   1.612  1.00  0.00    -0.129 NA
BRANCH  21  22
HETATM   22  O5  UNL     1       9.359   6.305   0.629  1.00  0.00    -0.308 OA
ATOM     23  H5  UNL     1       9.820   6.538  -0.168  1.00  0.00     0.237 HD
ENDBRANCH  21  22
BRANCH  21  24
HETATM   24  C10 UNL     1      11.330   7.121   1.520  1.00  0.00     0.303 C 
BRANCH  24  25
HETATM   25  O6  UNL     1      11.865   5.867   1.420  1.00  0.00    -0.327 OA
BRANCH  25  26
HETATM   26  C11 UNL     1      12.934   5.659   2.253  1.00  0.00     0.314 C 
BRANCH  26  27
HETATM   27  O7  UNL     1      13.025   6.599   3.291  1.00  0.00    -0.367 OA
ATOM     28  H7  UNL     1      13.873   6.610   3.718  1.00  0.00     0.212 HD
ENDBRANCH  26  27
BRANCH  26  29
HETATM   29  C12 UNL     1      12.921   4.297   2.937  1.00  0.00     0.309 C 
BRANCH  29  30
HETATM   30  O8  UNL     1      11.680   4.032   3.507  1.00  0.00    -0.367 OA
ATOM     31  H8  UNL     1      11.475   3.106   3.467  1.00  0.00     0.212 HD
ENDBRANCH  29  30
BRANCH  29  32
HETATM   32  O9  UNL     1      13.262   3.257   2.114  1.00  0.00    -0.367 OA
ATOM     33  H9  UNL     1      12.856   2.430   2.347  1.00  0.00     0.212 HD
ENDBRANCH  29  32
ENDBRANCH  26  29
ENDBRANCH  25  26
ENDBRANCH  24  25
BRANCH  24  34
HETATM   34  C13 UNL     1      11.727   8.018   0.402  1.00  0.00     0.182 C 
HETATM   35  N11 UNL     1      11.539   7.715  -0.836  1.00  0.00    -0.248 N 
ATOM     36  H11 UNL     1      11.099   6.821  -1.055  1.00  0.00     0.196 HD
BRANCH  34  37
HETATM   37  O10 UNL     1      12.336   9.259   0.647  1.00  0.00    -0.345 OA
ATOM     38  H10 UNL     1      12.007  10.055   0.249  1.00  0.00     0.219 HD
ENDBRANCH  34  37
BRANCH  35  39
HETATM   39  O11 UNL     1      11.900   8.534  -1.872  1.00  0.00    -0.288 OA
ATOM     40  H11 UNL     1      11.326   9.197  -2.236  1.00  0.00     0.244 HD
ENDBRANCH  35  39
ENDBRANCH  24  34
ENDBRANCH  21  24
ENDBRANCH  15  21
BRANCH   1  41
HETATM   41  N5  UNL     1       3.954   5.841   3.203  1.00  0.00    -0.129 N 
HETATM   42  N4  UNL     1       2.929   6.517   3.472  1.00  0.00    -0.267 N 
ATOM     43  H4  UNL     1       2.007   6.083   3.435  1.00  0.00     0.189 HD
ATOM     44  H5  UNL     1       3.829   4.861   2.951  1.00  0.00     0.205 HD
BRANCH  42  45
HETATM   45  C2  UNL     1       3.053   7.882   3.827  1.00  0.00     0.188 A 
HETATM   46  C1  UNL     1       2.987   8.918   2.895  1.00  0.00     0.169 A 
HETATM   47  N2  UNL     1       3.142  10.057   3.579  1.00  0.00    -0.222 N 
HETATM   48  O1  UNL     1       3.292   9.764   4.828  1.00  0.00    -0.153 OA
ATOM     49  H2  UNL     1       3.143  10.996   3.182  1.00  0.00     0.198 HD
HETATM   50  N3  UNL     1       3.243   8.479   5.003  1.00  0.00    -0.221 N 
ATOM     51  H3  UNL     1       3.336   8.001   5.900  1.00  0.00     0.198 HD
BRANCH  46  52
HETATM   52  N1  UNL     1       2.810   8.762   1.637  1.00  0.00    -0.381 N 
ATOM     53  H12 UNL     1       3.480   9.027   0.916  1.00  0.00     0.157 HD
ATOM     54  H11 UNL     1       2.005   8.362   1.154  1.00  0.00     0.157 HD
ENDBRANCH  46  52
ENDBRANCH  42  45
ENDBRANCH   1  41
TORSDOF 17
ENDMDL
MODEL 5
REMARK VINA RESULT: -6.296149531      2.411      3.749
REMARK  17 active torsions:
REMARK  status: ('A' for Active; 'I' for Inactive)
REMARK    1  A    between atoms: N1_1  and  C1_4 
REMARK    2  A    between atoms: C2_10  and  N4_11 
REMARK    3  A    between atoms: N5_13  and  C3_15 
REMARK    4  A    between atoms: C5_21  and  O2_22 
REMARK    5  A    between atoms: C6_26  and  C7_27 
REMARK    6  A    between atoms: C9_34  and  N10_35 
REMARK    7  A    between atoms: N10_35  and  O5_36 
REMARK    8  A    between atoms: N10_35  and  C10_38 
REMARK    9  A    between atoms: C10_38  and  O6_39 
REMARK   10  A    between atoms: C10_38  and  C13_48 
REMARK   11  A    between atoms: O6_39  and  C11_40 
REMARK   12  A    between atoms: C11_40  and  O7_41 
REMARK   13  A    between atoms: C11_40  and  C12_43 
REMARK   14  A    between atoms: C12_43  and  O8_44 
REMARK   15  A    between atoms: C12_43  and  O9_46 
REMARK   16  A    between atoms: C13_48  and  O10_49 
REMARK   17  A    between atoms: N11_51  and  O11_53 
ROOT
HETATM    1  C3  UNL     1      11.714   8.083   0.049  1.00  0.00     0.709 C 
HETATM    2  N6  UNL     1      10.918   7.079  -0.215  1.00  0.00    -0.134 N 
ATOM      3  H6  UNL     1      11.007   6.607  -1.115  1.00  0.00     0.205 HD
HETATM    4  N7  UNL     1       9.946   6.628   0.692  1.00  0.00    -0.303 N 
ATOM      5  H7  UNL     1       9.483   5.742   0.491  1.00  0.00     0.182 HD
HETATM    6  C4  UNL     1       9.558   7.334   1.891  1.00  0.00     0.148 C 
HETATM    7  C5  UNL     1      10.227   8.672   1.928  1.00  0.00     0.269 C 
HETATM    8  N8  UNL     1      11.516   8.688   1.321  1.00  0.00    -0.195 N 
ATOM      9  H8  UNL     1      12.299   9.134   1.800  1.00  0.00     0.180 HD
HETATM   10  C6  UNL     1       9.722   6.486   3.114  1.00  0.00     0.150 C 
HETATM   11  C8  UNL     1       8.851   7.186   4.124  1.00  0.00     0.252 C 
HETATM   12  N9  UNL     1       7.890   7.940   3.364  1.00  0.00    -0.053 N 
ATOM     13  H91 UNL     1       7.946   8.942   3.546  1.00  0.00     0.279 HD
ATOM     14  H92 UNL     1       6.934   7.793   3.687  1.00  0.00     0.279 HD
HETATM   15  C9  UNL     1       8.058   7.619   1.962  1.00  0.00     0.322 C 
ENDROOT
BRANCH   7  16
HETATM   16  O2  UNL     1      10.258   9.304   3.141  1.00  0.00    -0.373 OA
ATOM     17  H2  UNL     1      10.448  10.234   3.128  1.00  0.00     0.212 HD
ENDBRANCH   7  16
BRANCH  10  18
HETATM   18  C7  UNL     1      11.080   6.201   3.540  1.00  0.00     0.181 C 
HETATM   19  O3  UNL     1      11.528   6.739   4.581  1.00  0.00    -0.648 OA
HETATM   20  O4  UNL     1      11.910   5.354   2.844  1.00  0.00    -0.648 OA
ENDBRANCH  10  18
BRANCH  15  21
HETATM   21  N10 UNL     1       7.259   6.530   1.520  1.00  0.00    -0.129 NA
BRANCH  21  22
HETATM   22  O5  UNL     1       7.353   6.530   0.148  1.00  0.00    -0.308 OA
ATOM     23  H5  UNL     1       6.606   7.027  -0.162  1.00  0.00     0.237 HD
ENDBRANCH  21  22
BRANCH  21  24
HETATM   24  C10 UNL     1       5.862   6.647   1.911  1.00  0.00     0.303 C 
BRANCH  24  25
HETATM   25  O6  UNL     1       5.210   7.661   1.269  1.00  0.00    -0.327 OA
BRANCH  25  26
HETATM   26  C11 UNL     1       4.449   8.439   2.103  1.00  0.00     0.314 C 
BRANCH  26  27
HETATM   27  O7  UNL     1       4.772   9.803   2.044  1.00  0.00    -0.367 OA
ATOM     28  H7  UNL     1       5.381  10.018   1.347  1.00  0.00     0.212 HD
ENDBRANCH  26  27
BRANCH  26  29
HETATM   29  C12 UNL     1       2.953   8.360   1.818  1.00  0.00     0.309 C 
BRANCH  29  30
HETATM   30  O8  UNL     1       2.703   8.343   0.450  1.00  0.00    -0.367 OA
ATOM     31  H8  UNL     1       3.462   8.041  -0.034  1.00  0.00     0.212 HD
ENDBRANCH  29  30
BRANCH  29  32
HETATM   32  O9  UNL     1       2.331   7.286   2.396  1.00  0.00    -0.367 OA
ATOM     33  H9  UNL     1       1.450   7.133   2.078  1.00  0.00     0.212 HD
ENDBRANCH  29  32
ENDBRANCH  26  29
ENDBRANCH  25  26
ENDBRANCH  24  25
BRANCH  24  34
HETATM   34  C13 UNL     1       5.210   5.323   1.729  1.00  0.00     0.182 C 
HETATM   35  N11 UNL     1       4.334   4.858   2.550  1.00  0.00    -0.248 N 
ATOM     36  H11 UNL     1       4.079   5.425   3.359  1.00  0.00     0.196 HD
BRANCH  34  37
HETATM   37  O10 UNL     1       5.525   4.503   0.633  1.00  0.00    -0.345 OA
ATOM     38  H10 UNL     1       5.940   3.657   0.755  1.00  0.00     0.219 HD
ENDBRANCH  34  37
BRANCH  35  39
HETATM   39  O11 UNL     1       3.729   3.640   2.391  1.00  0.00    -0.288 OA
ATOM     40  H11 UNL     1       2.871   3.435   2.744  1.00  0.00     0.244 HD
ENDBRANCH  35  39
ENDBRANCH  24  34
ENDBRANCH  21  24
ENDBRANCH  15  21
BRANCH   1  41
HETATM   41  N5  UNL     1      12.694   8.538  -0.864  1.00  0.00    -0.129 N 
HETATM   42  N4  UNL     1      12.467   9.368  -1.780  1.00  0.00    -0.267 N 
ATOM     43  H4  UNL     1      13.219   9.655  -2.406  1.00  0.00     0.189 HD
ATOM     44  H5  UNL     1      13.641   8.171  -0.773  1.00  0.00     0.205 HD
BRANCH  42  45
HETATM   45  C2  UNL     1      11.166   9.904  -1.945  1.00  0.00     0.188 A 
HETATM   46  C1  UNL     1      10.740  11.070  -1.309  1.00  0.00     0.169 A 
HETATM   47  N2  UNL     1       9.475  11.272  -1.692  1.00  0.00    -0.222 N 
HETATM   48  O1  UNL     1       9.137  10.320  -2.497  1.00  0.00    -0.153 OA
ATOM     49  H2  UNL     1       8.879  12.046  -1.399  1.00  0.00     0.198 HD
HETATM   50  N3  UNL     1      10.123   9.494  -2.664  1.00  0.00    -0.221 N 
ATOM     51  H3  UNL     1      10.102   8.662  -3.254  1.00  0.00     0.198 HD
BRANCH  46  52
HETATM   52  N1  UNL     1      11.456  11.778  -0.519  1.00  0.00    -0.381 N 
ATOM     53  H12 UNL     1      11.402  12.793  -0.433  1.00  0.00     0.157 HD
ATOM     54  H11 UNL     1      12.175  11.468   0.135  1.00  0.00     0.157 HD
ENDBRANCH  46  52
ENDBRANCH  42  45
ENDBRANCH   1  41
TORSDOF 17
ENDMDL
