MODEL 1
REMARK VINA RESULT: -6.014858127      0.000      0.000
REMARK  17 active torsions:
REMARK  status: ('A' for Active; 'I' for Inactive)
REMARK    1  A    between atoms: N1_1  and  C1_4 
REMARK    2  A    between atoms: C2_7  and  N3_8 
REMARK    3  A    between atoms: C4_14  and  N5_15 
REMARK    4  A    between atoms: N5_15  and  C5_17 
REMARK    5  A    between atoms: C6_18  and  O1_19 
REMARK    6  A    between atoms: C7_21  and  O2_22 
REMARK    7  A    between atoms: C8_24  and  N6_25 
REMARK    8  A    between atoms: C9_30  and  C10_31 
REMARK    9  A    between atoms: C10_31  and  O3_32 
REMARK   10  A    between atoms: C10_31  and  C11_34 
REMARK   11  A    between atoms: C10_31  and  C12_37 
REMARK   12  A    between atoms: C11_34  and  O4_35 
REMARK   13  A    between atoms: C12_37  and  O5_38 
REMARK   14  A    between atoms: C13_40  and  O6_41 
REMARK   15  A    between atoms: N9_43  and  N10_44 
REMARK   16  A    between atoms: N11_47  and  C14_48 
REMARK   17  A    between atoms: C14_48  and  C15_49 
ROOT
HETATM    1  C5  UNL     1       9.263   6.645   1.958  1.00  0.00     0.227 C 
HETATM    2  C6  UNL     1       9.159   6.170   3.364  1.00  0.00     0.189 C 
HETATM    3  C7  UNL     1       7.786   6.647   3.869  1.00  0.00     0.191 C 
HETATM    4  C8  UNL     1       7.001   6.619   2.605  1.00  0.00     0.238 C 
HETATM    5  N9  UNL     1       7.903   7.052   1.589  1.00  0.00    -0.183 NA
ENDROOT
BRANCH   1   6
HETATM    6  N5  UNL     1      10.132   7.742   1.728  1.00  0.00    -0.205 N 
ATOM      7  H5  UNL     1      11.001   7.695   2.258  1.00  0.00     0.179 HD
BRANCH   6   8
HETATM    8  C4  UNL     1      10.029   8.877   0.913  1.00  0.00     0.684 A 
HETATM    9  N4  UNL     1      10.207   8.784  -0.465  1.00  0.00    -0.184 N 
HETATM   10  C3  UNL     1      10.114   9.979  -1.020  1.00  0.00     0.138 A 
ATOM     11  H4  UNL     1      10.383   7.917  -0.973  1.00  0.00     0.184 HD
HETATM   12  C2  UNL     1      10.208  10.461  -2.326  1.00  0.00     0.146 A 
HETATM   13  C16 UNL     1       9.874  10.872  -0.016  1.00  0.00     0.170 A 
HETATM   14  N2  UNL     1      10.068  11.766  -2.601  1.00  0.00    -0.175 N 
HETATM   15  C1  UNL     1       9.832  12.621  -1.595  1.00  0.00     0.679 A 
ATOM     16  H2  UNL     1      10.140  12.103  -3.561  1.00  0.00     0.186 HD
HETATM   17  N12 UNL     1       9.738  12.169  -0.313  1.00  0.00    -0.174 N 
ATOM     18  H12 UNL     1       9.559  12.836   0.438  1.00  0.00     0.186 HD
HETATM   19  N11 UNL     1       9.827  10.146   1.163  1.00  0.00    -0.155 N 
BRANCH  12  20
HETATM   20  N3  UNL     1      10.435   9.599  -3.254  1.00  0.00    -0.383 N 
ATOM     21  H32 UNL     1      11.287   9.719  -3.801  1.00  0.00     0.157 HD
ATOM     22  H31 UNL     1       9.790   8.829  -3.436  1.00  0.00     0.157 HD
ENDBRANCH  12  20
BRANCH  15  23
HETATM   23  N1  UNL     1       9.698  13.877  -1.853  1.00  0.00    -0.234 N 
ATOM     24  H12 UNL     1      10.500  14.430  -2.153  1.00  0.00     0.174 HD
ATOM     25  H11 UNL     1       8.779  14.310  -1.757  1.00  0.00     0.174 HD
ENDBRANCH  15  23
BRANCH  19  26
HETATM   26  C14 UNL     1       9.536  10.842   2.383  1.00  0.00     0.262 C 
BRANCH  26  27
HETATM   27  C15 UNL     1       8.164  10.505   2.912  1.00  0.00     0.192 C 
HETATM   28  O7  UNL     1       7.974  10.105   4.071  1.00  0.00    -0.647 OA
HETATM   29  O8  UNL     1       7.084  10.653   2.063  1.00  0.00    -0.647 OA
ENDBRANCH  26  27
ENDBRANCH  19  26
ENDBRANCH   6   8
ENDBRANCH   1   6
BRANCH   2  30
HETATM   30  O1  UNL     1       9.167   4.756   3.328  1.00  0.00    -0.389 OA
ATOM     31  H1  UNL     1       8.500   4.458   3.935  1.00  0.00     0.210 HD
ENDBRANCH   2  30
BRANCH   5  32
HETATM   32  N10 UNL     1       7.548   6.558   0.328  1.00  0.00    -0.359 NA
ATOM     33 2H10 UNL     1       7.315   7.308  -0.324  1.00  0.00     0.171 HD
ATOM     34 1H10 UNL     1       6.756   5.918   0.390  1.00  0.00     0.171 HD
ENDBRANCH   5  32
BRANCH   3  35
HETATM   35  O2  UNL     1       7.397   5.638   4.780  1.00  0.00    -0.389 OA
ATOM     36  H2  UNL     1       6.569   5.952   5.123  1.00  0.00     0.210 HD
ENDBRANCH   3  35
BRANCH   4  37
HETATM   37  N6  UNL     1       5.853   7.480   2.581  1.00  0.00    -0.232 N 
HETATM   38  N7  UNL     1       5.567   8.466   3.424  1.00  0.00    -0.236 N 
HETATM   39  N8  UNL     1       4.441   9.021   3.082  1.00  0.00    -0.283 N 
ATOM     40  H7  UNL     1       6.143   8.745   4.219  1.00  0.00     0.208 HD
HETATM   41  C9  UNL     1       3.930   8.420   1.989  1.00  0.00     0.118 A 
ATOM     42  H8  UNL     1       4.005   9.802   3.572  1.00  0.00     0.188 HD
HETATM   43  C13 UNL     1       4.857   7.431   1.685  1.00  0.00     0.188 A 
BRANCH  41  44
HETATM   44  C10 UNL     1       2.685   8.771   1.323  1.00  0.00     0.147 C 
BRANCH  44  45
HETATM   45  O3  UNL     1       2.625   8.109   0.097  1.00  0.00    -0.379 OA
ATOM     46  H3  UNL     1       3.081   8.626  -0.556  1.00  0.00     0.211 HD
ENDBRANCH  44  45
BRANCH  44  47
HETATM   47  C11 UNL     1       1.444   8.387   2.086  1.00  0.00     0.211 C 
BRANCH  47  48
HETATM   48  O4  UNL     1       1.848   7.653   3.196  1.00  0.00    -0.397 OA
ATOM     49  H4  UNL     1       2.384   8.225   3.734  1.00  0.00     0.209 HD
ENDBRANCH  47  48
ENDBRANCH  44  47
BRANCH  44  50
HETATM   50  C12 UNL     1       2.613  10.267   0.983  1.00  0.00     0.211 C 
BRANCH  50  51
HETATM   51  O5  UNL     1       3.950  10.678   0.839  1.00  0.00    -0.397 OA
ATOM     52  H5  UNL     1       3.910  11.621   0.729  1.00  0.00     0.209 HD
ENDBRANCH  50  51
ENDBRANCH  44  50
ENDBRANCH  41  44
BRANCH  43  53
HETATM   53  O6  UNL     1       4.702   6.582   0.621  1.00  0.00    -0.343 OA
ATOM     54  H6  UNL     1       3.951   6.049   0.391  1.00  0.00     0.219 HD
ENDBRANCH  43  53
ENDBRANCH   4  37
TORSDOF 17
ENDMDL
MODEL 2
REMARK VINA RESULT: -5.873073949      1.518      1.948
REMARK  17 active torsions:
REMARK  status: ('A' for Active; 'I' for Inactive)
REMARK    1  A    between atoms: N1_1  and  C1_4 
REMARK    2  A    between atoms: C2_7  and  N3_8 
REMARK    3  A    between atoms: C4_14  and  N5_15 
REMARK    4  A    between atoms: N5_15  and  C5_17 
REMARK    5  A    between atoms: C6_18  and  O1_19 
REMARK    6  A    between atoms: C7_21  and  O2_22 
REMARK    7  A    between atoms: C8_24  and  N6_25 
REMARK    8  A    between atoms: C9_30  and  C10_31 
REMARK    9  A    between atoms: C10_31  and  O3_32 
REMARK   10  A    between atoms: C10_31  and  C11_34 
REMARK   11  A    between atoms: C10_31  and  C12_37 
REMARK   12  A    between atoms: C11_34  and  O4_35 
REMARK   13  A    between atoms: C12_37  and  O5_38 
REMARK   14  A    between atoms: C13_40  and  O6_41 
REMARK   15  A    between atoms: N9_43  and  N10_44 
REMARK   16  A    between atoms: N11_47  and  C14_48 
REMARK   17  A    between atoms: C14_48  and  C15_49 
ROOT
HETATM    1  C5  UNL     1       9.338   6.623   1.897  1.00  0.00     0.227 C 
HETATM    2  C6  UNL     1       9.184   6.133   3.293  1.00  0.00     0.189 C 
HETATM    3  C7  UNL     1       7.814   6.645   3.770  1.00  0.00     0.191 C 
HETATM    4  C8  UNL     1       7.061   6.658   2.486  1.00  0.00     0.238 C 
HETATM    5  N9  UNL     1       8.002   7.077   1.499  1.00  0.00    -0.183 NA
ENDROOT
BRANCH   1   6
HETATM    6  N5  UNL     1      10.246   7.696   1.705  1.00  0.00    -0.205 N 
ATOM      7  H5  UNL     1      10.560   8.128   2.573  1.00  0.00     0.179 HD
BRANCH   6   8
HETATM    8  C4  UNL     1      10.796   8.277   0.554  1.00  0.00     0.684 A 
HETATM    9  N4  UNL     1      11.711   7.578  -0.229  1.00  0.00    -0.184 N 
HETATM   10  C3  UNL     1      12.130   8.334  -1.227  1.00  0.00     0.138 A 
ATOM     11  H4  UNL     1      12.014   6.619  -0.056  1.00  0.00     0.184 HD
HETATM   12  C2  UNL     1      13.022   8.152  -2.285  1.00  0.00     0.146 A 
HETATM   13  C16 UNL     1      11.497   9.538  -1.114  1.00  0.00     0.170 A 
HETATM   14  N2  UNL     1      13.260   9.127  -3.174  1.00  0.00    -0.175 N 
HETATM   15  C1  UNL     1      12.624  10.300  -3.039  1.00  0.00     0.679 A 
ATOM     16  H2  UNL     1      13.915   8.979  -3.941  1.00  0.00     0.186 HD
HETATM   17  N12 UNL     1      11.750  10.496  -2.013  1.00  0.00    -0.174 N 
ATOM     18  H12 UNL     1      11.276  11.395  -1.927  1.00  0.00     0.186 HD
HETATM   19  N11 UNL     1      10.680   9.457   0.002  1.00  0.00    -0.155 N 
BRANCH  12  20
HETATM   20  N3  UNL     1      13.606   7.009  -2.369  1.00  0.00    -0.383 N 
ATOM     21  H32 UNL     1      14.284   6.887  -3.121  1.00  0.00     0.157 HD
ATOM     22  H31 UNL     1      13.400   6.255  -1.712  1.00  0.00     0.157 HD
ENDBRANCH  12  20
BRANCH  15  23
HETATM   23  N1  UNL     1      12.849  11.241  -3.891  1.00  0.00    -0.234 N 
ATOM     24  H12 UNL     1      12.097  11.588  -4.486  1.00  0.00     0.174 HD
ATOM     25  H11 UNL     1      13.788  11.635  -3.961  1.00  0.00     0.174 HD
ENDBRANCH  15  23
BRANCH  19  26
HETATM   26  C14 UNL     1       9.853  10.583   0.325  1.00  0.00     0.262 C 
BRANCH  26  27
HETATM   27  C15 UNL     1       9.327  10.511   1.737  1.00  0.00     0.192 C 
HETATM   28  O7  UNL     1       8.145  10.236   1.997  1.00  0.00    -0.647 OA
HETATM   29  O8  UNL     1      10.206  10.762   2.773  1.00  0.00    -0.647 OA
ENDBRANCH  26  27
ENDBRANCH  19  26
ENDBRANCH   6   8
ENDBRANCH   1   6
BRANCH   2  30
HETATM   30  O1  UNL     1       9.150   4.720   3.238  1.00  0.00    -0.389 OA
ATOM     31  H1  UNL     1       8.258   4.455   3.428  1.00  0.00     0.210 HD
ENDBRANCH   2  30
BRANCH   5  32
HETATM   32  N10 UNL     1       7.664   6.612   0.223  1.00  0.00    -0.359 NA
ATOM     33 2H10 UNL     1       7.308   7.358  -0.374  1.00  0.00     0.171 HD
ATOM     34 1H10 UNL     1       6.967   5.868   0.271  1.00  0.00     0.171 HD
ENDBRANCH   5  32
BRANCH   3  35
HETATM   35  O2  UNL     1       7.370   5.636   4.656  1.00  0.00    -0.389 OA
ATOM     36  H2  UNL     1       6.449   5.542   4.445  1.00  0.00     0.210 HD
ENDBRANCH   3  35
BRANCH   4  37
HETATM   37  N6  UNL     1       5.941   7.555   2.445  1.00  0.00    -0.232 N 
HETATM   38  N7  UNL     1       5.750   8.641   3.186  1.00  0.00    -0.236 N 
HETATM   39  N8  UNL     1       4.618   9.196   2.864  1.00  0.00    -0.283 N 
ATOM     40  H7  UNL     1       6.394   8.987   3.899  1.00  0.00     0.208 HD
HETATM   41  C9  UNL     1       4.007   8.495   1.889  1.00  0.00     0.118 A 
ATOM     42  H8  UNL     1       4.245  10.044   3.290  1.00  0.00     0.188 HD
HETATM   43  C13 UNL     1       4.878   7.442   1.636  1.00  0.00     0.188 A 
BRANCH  41  44
HETATM   44  C10 UNL     1       2.726   8.815   1.279  1.00  0.00     0.147 C 
BRANCH  44  45
HETATM   45  O3  UNL     1       2.662   8.220   0.020  1.00  0.00    -0.379 OA
ATOM     46  H3  UNL     1       2.088   8.733  -0.535  1.00  0.00     0.211 HD
ENDBRANCH  44  45
BRANCH  44  47
HETATM   47  C11 UNL     1       1.530   8.324   2.054  1.00  0.00     0.211 C 
BRANCH  47  48
HETATM   48  O4  UNL     1       2.006   7.694   3.198  1.00  0.00    -0.397 OA
ATOM     49  H4  UNL     1       2.674   8.256   3.575  1.00  0.00     0.209 HD
ENDBRANCH  47  48
ENDBRANCH  44  47
BRANCH  44  50
HETATM   50  C12 UNL     1       2.566  10.321   1.027  1.00  0.00     0.211 C 
BRANCH  50  51
HETATM   51  O5  UNL     1       3.783  10.732   0.455  1.00  0.00    -0.397 OA
ATOM     52  H5  UNL     1       3.774  11.681   0.501  1.00  0.00     0.209 HD
ENDBRANCH  50  51
ENDBRANCH  44  50
ENDBRANCH  41  44
BRANCH  43  53
HETATM   53  O6  UNL     1       4.616   6.484   0.693  1.00  0.00    -0.343 OA
ATOM     54  H6  UNL     1       3.776   6.185   0.367  1.00  0.00     0.219 HD
ENDBRANCH  43  53
ENDBRANCH   4  37
TORSDOF 17
ENDMDL
MODEL 3
REMARK VINA RESULT: -5.856306258      3.549      7.023
REMARK  17 active torsions:
REMARK  status: ('A' for Active; 'I' for Inactive)
REMARK    1  A    between atoms: N1_1  and  C1_4 
REMARK    2  A    between atoms: C2_7  and  N3_8 
REMARK    3  A    between atoms: C4_14  and  N5_15 
REMARK    4  A    between atoms: N5_15  and  C5_17 
REMARK    5  A    between atoms: C6_18  and  O1_19 
REMARK    6  A    between atoms: C7_21  and  O2_22 
REMARK    7  A    between atoms: C8_24  and  N6_25 
REMARK    8  A    between atoms: C9_30  and  C10_31 
REMARK    9  A    between atoms: C10_31  and  O3_32 
REMARK   10  A    between atoms: C10_31  and  C11_34 
REMARK   11  A    between atoms: C10_31  and  C12_37 
REMARK   12  A    between atoms: C11_34  and  O4_35 
REMARK   13  A    between atoms: C12_37  and  O5_38 
REMARK   14  A    between atoms: C13_40  and  O6_41 
REMARK   15  A    between atoms: N9_43  and  N10_44 
REMARK   16  A    between atoms: N11_47  and  C14_48 
REMARK   17  A    between atoms: C14_48  and  C15_49 
ROOT
HETATM    1  C5  UNL     1       5.326   6.273   3.829  1.00  0.00     0.227 C 
HETATM    2  C6  UNL     1       4.597   6.150   2.538  1.00  0.00     0.189 C 
HETATM    3  C7  UNL     1       5.605   6.549   1.446  1.00  0.00     0.191 C 
HETATM    4  C8  UNL     1       6.881   6.105   2.071  1.00  0.00     0.238 C 
HETATM    5  N9  UNL     1       6.741   6.390   3.462  1.00  0.00    -0.183 NA
ENDROOT
BRANCH   1   6
HETATM    6  N5  UNL     1       4.984   7.385   4.640  1.00  0.00    -0.205 N 
ATOM      7  H5  UNL     1       4.003   7.655   4.574  1.00  0.00     0.179 HD
BRANCH   6   8
HETATM    8  C4  UNL     1       5.732   8.185   5.514  1.00  0.00     0.684 A 
HETATM    9  N4  UNL     1       6.932   8.758   5.104  1.00  0.00    -0.184 N 
HETATM   10  C3  UNL     1       7.485   9.426   6.101  1.00  0.00     0.138 A 
ATOM     11  H4  UNL     1       7.329   8.675   4.168  1.00  0.00     0.184 HD
HETATM   12  C2  UNL     1       8.655  10.170   6.250  1.00  0.00     0.146 A 
HETATM   13  C16 UNL     1       6.655   9.301   7.178  1.00  0.00     0.170 A 
HETATM   14  N2  UNL     1       8.969  10.752   7.417  1.00  0.00    -0.175 N 
HETATM   15  C1  UNL     1       8.136  10.613   8.459  1.00  0.00     0.679 A 
ATOM     16  H2  UNL     1       9.829  11.293   7.510  1.00  0.00     0.186 HD
HETATM   17  N12 UNL     1       6.989   9.890   8.332  1.00  0.00    -0.174 N 
ATOM     18  H12 UNL     1       6.368   9.796   9.136  1.00  0.00     0.186 HD
HETATM   19  N11 UNL     1       5.582   8.526   6.769  1.00  0.00    -0.155 N 
BRANCH  12  20
HETATM   20  N3  UNL     1       9.420  10.272   5.221  1.00  0.00    -0.383 N 
ATOM     21  H32 UNL     1      10.385  10.559   5.386  1.00  0.00     0.157 HD
ATOM     22  H31 UNL     1       9.077  10.076   4.280  1.00  0.00     0.157 HD
ENDBRANCH  12  20
BRANCH  15  23
HETATM   23  N1  UNL     1       8.433  11.171   9.583  1.00  0.00    -0.234 N 
ATOM     24  H12 UNL     1       9.408  11.298   9.852  1.00  0.00     0.174 HD
ATOM     25  H11 UNL     1       7.682  11.484  10.198  1.00  0.00     0.174 HD
ENDBRANCH  15  23
BRANCH  19  26
HETATM   26  C14 UNL     1       4.523   8.278   7.704  1.00  0.00     0.262 C 
BRANCH  26  27
HETATM   27  C15 UNL     1       3.511   9.397   7.721  1.00  0.00     0.192 C 
HETATM   28  O7  UNL     1       2.464   9.363   7.057  1.00  0.00    -0.647 OA
HETATM   29  O8  UNL     1       3.773  10.498   8.514  1.00  0.00    -0.647 OA
ENDBRANCH  26  27
ENDBRANCH  19  26
ENDBRANCH   6   8
ENDBRANCH   1   6
BRANCH   2  30
HETATM   30  O1  UNL     1       4.263   4.785   2.375  1.00  0.00    -0.389 OA
ATOM     31  H1  UNL     1       4.335   4.589   1.449  1.00  0.00     0.210 HD
ENDBRANCH   2  30
BRANCH   5  32
HETATM   32  N10 UNL     1       7.543   5.558   4.251  1.00  0.00    -0.359 NA
ATOM     33 2H10 UNL     1       7.868   6.029   5.095  1.00  0.00     0.171 HD
ATOM     34 1H10 UNL     1       8.353   5.221   3.730  1.00  0.00     0.171 HD
ENDBRANCH   5  32
BRANCH   3  35
HETATM   35  O2  UNL     1       5.230   5.753   0.339  1.00  0.00    -0.389 OA
ATOM     36  H2  UNL     1       5.950   5.864  -0.271  1.00  0.00     0.210 HD
ENDBRANCH   3  35
BRANCH   4  37
HETATM   37  N6  UNL     1       8.059   6.772   1.594  1.00  0.00    -0.232 N 
HETATM   38  N7  UNL     1       9.066   6.239   0.911  1.00  0.00    -0.236 N 
HETATM   39  N8  UNL     1       9.953   7.156   0.655  1.00  0.00    -0.283 N 
ATOM     40  H7  UNL     1       9.133   5.260   0.630  1.00  0.00     0.208 HD
HETATM   41  C9  UNL     1       9.568   8.343   1.163  1.00  0.00     0.118 A 
ATOM     42  H8  UNL     1      10.821   6.998   0.142  1.00  0.00     0.188 HD
HETATM   43  C13 UNL     1       8.345   8.070   1.763  1.00  0.00     0.188 A 
BRANCH  41  44
HETATM   44  C10 UNL     1      10.307   9.593   1.072  1.00  0.00     0.147 C 
BRANCH  44  45
HETATM   45  O3  UNL     1       9.931  10.419   2.131  1.00  0.00    -0.379 OA
ATOM     46  H3  UNL     1       9.347  11.093   1.804  1.00  0.00     0.211 HD
ENDBRANCH  44  45
BRANCH  44  47
HETATM   47  C11 UNL     1      11.804   9.435   1.153  1.00  0.00     0.211 C 
BRANCH  47  48
HETATM   48  O4  UNL     1      12.227   8.870  -0.046  1.00  0.00    -0.397 OA
ATOM     49  H4  UNL     1      13.146   9.086  -0.152  1.00  0.00     0.209 HD
ENDBRANCH  47  48
ENDBRANCH  44  47
BRANCH  44  50
HETATM   50  C12 UNL     1       9.961  10.378  -0.201  1.00  0.00     0.211 C 
BRANCH  50  51
HETATM   51  O5  UNL     1       9.557   9.408  -1.135  1.00  0.00    -0.397 OA
ATOM     52  H5  UNL     1       8.873   8.912  -0.700  1.00  0.00     0.209 HD
ENDBRANCH  50  51
ENDBRANCH  44  50
ENDBRANCH  41  44
BRANCH  43  53
HETATM   53  O6  UNL     1       7.612   9.033   2.404  1.00  0.00    -0.343 OA
ATOM     54  H6  UNL     1       7.463   9.145   3.336  1.00  0.00     0.219 HD
ENDBRANCH  43  53
ENDBRANCH   4  37
TORSDOF 17
ENDMDL
MODEL 4
REMARK VINA RESULT: -5.790721169      2.967      6.495
REMARK  17 active torsions:
REMARK  status: ('A' for Active; 'I' for Inactive)
REMARK    1  A    between atoms: N1_1  and  C1_4 
REMARK    2  A    between atoms: C2_7  and  N3_8 
REMARK    3  A    between atoms: C4_14  and  N5_15 
REMARK    4  A    between atoms: N5_15  and  C5_17 
REMARK    5  A    between atoms: C6_18  and  O1_19 
REMARK    6  A    between atoms: C7_21  and  O2_22 
REMARK    7  A    between atoms: C8_24  and  N6_25 
REMARK    8  A    between atoms: C9_30  and  C10_31 
REMARK    9  A    between atoms: C10_31  and  O3_32 
REMARK   10  A    between atoms: C10_31  and  C11_34 
REMARK   11  A    between atoms: C10_31  and  C12_37 
REMARK   12  A    between atoms: C11_34  and  O4_35 
REMARK   13  A    between atoms: C12_37  and  O5_38 
REMARK   14  A    between atoms: C13_40  and  O6_41 
REMARK   15  A    between atoms: N9_43  and  N10_44 
REMARK   16  A    between atoms: N11_47  and  C14_48 
REMARK   17  A    between atoms: C14_48  and  C15_49 
ROOT
HETATM    1  C5  UNL     1       5.308   6.204   3.821  1.00  0.00     0.227 C 
HETATM    2  C6  UNL     1       4.578   6.097   2.529  1.00  0.00     0.189 C 
HETATM    3  C7  UNL     1       5.583   6.519   1.442  1.00  0.00     0.191 C 
HETATM    4  C8  UNL     1       6.862   6.074   2.059  1.00  0.00     0.238 C 
HETATM    5  N9  UNL     1       6.722   6.336   3.454  1.00  0.00    -0.183 NA
ENDROOT
BRANCH   1   6
HETATM    6  N5  UNL     1       4.960   7.301   4.649  1.00  0.00    -0.205 N 
ATOM      7  H5  UNL     1       4.007   7.256   5.011  1.00  0.00     0.179 HD
BRANCH   6   8
HETATM    8  C4  UNL     1       5.669   8.435   5.068  1.00  0.00     0.684 A 
HETATM    9  N4  UNL     1       6.861   8.308   5.776  1.00  0.00    -0.184 N 
HETATM   10  C3  UNL     1       7.326   9.499   6.107  1.00  0.00     0.138 A 
ATOM     11  H4  UNL     1       7.311   7.422   6.007  1.00  0.00     0.184 HD
HETATM   12  C2  UNL     1       8.448   9.954   6.801  1.00  0.00     0.146 A 
HETATM   13  C16 UNL     1       6.447  10.423   5.621  1.00  0.00     0.170 A 
HETATM   14  N2  UNL     1       8.668  11.262   6.992  1.00  0.00    -0.175 N 
HETATM   15  C1  UNL     1       7.788  12.149   6.502  1.00  0.00     0.679 A 
ATOM     16  H2  UNL     1       9.493  11.579   7.502  1.00  0.00     0.186 HD
HETATM   17  N12 UNL     1       6.687  11.724   5.823  1.00  0.00    -0.174 N 
ATOM     18  H12 UNL     1       6.030  12.414   5.459  1.00  0.00     0.186 HD
HETATM   19  N11 UNL     1       5.438   9.720   4.983  1.00  0.00    -0.155 N 
BRANCH  12  20
HETATM   20  N3  UNL     1       9.260   9.062   7.249  1.00  0.00    -0.383 N 
ATOM     21  H32 UNL     1       9.923   9.357   7.966  1.00  0.00     0.157 HD
ATOM     22  H31 UNL     1       9.243   8.103   6.903  1.00  0.00     0.157 HD
ENDBRANCH  12  20
BRANCH  15  23
HETATM   23  N1  UNL     1       7.996  13.408   6.684  1.00  0.00    -0.234 N 
ATOM     24  H12 UNL     1       7.564  13.893   7.470  1.00  0.00     0.174 HD
ATOM     25  H11 UNL     1       8.598  13.913   6.033  1.00  0.00     0.174 HD
ENDBRANCH  15  23
BRANCH  19  26
HETATM   26  C14 UNL     1       4.396  10.460   4.331  1.00  0.00     0.262 C 
BRANCH  26  27
HETATM   27  C15 UNL     1       4.141   9.962   2.930  1.00  0.00     0.192 C 
HETATM   28  O7  UNL     1       3.156   9.268   2.635  1.00  0.00    -0.647 OA
HETATM   29  O8  UNL     1       5.048  10.301   1.944  1.00  0.00    -0.647 OA
ENDBRANCH  26  27
ENDBRANCH  19  26
ENDBRANCH   6   8
ENDBRANCH   1   6
BRANCH   2  30
HETATM   30  O1  UNL     1       4.253   4.732   2.345  1.00  0.00    -0.389 OA
ATOM     31  H1  UNL     1       4.312   4.554   1.414  1.00  0.00     0.210 HD
ENDBRANCH   2  30
BRANCH   5  32
HETATM   32  N10 UNL     1       7.530   5.498   4.229  1.00  0.00    -0.359 NA
ATOM     33 2H10 UNL     1       7.442   5.696   5.226  1.00  0.00     0.171 HD
ATOM     34 1H10 UNL     1       8.512   5.579   3.963  1.00  0.00     0.171 HD
ENDBRANCH   5  32
BRANCH   3  35
HETATM   35  O2  UNL     1       5.212   5.738   0.323  1.00  0.00    -0.389 OA
ATOM     36  H2  UNL     1       5.930   5.863  -0.285  1.00  0.00     0.210 HD
ENDBRANCH   3  35
BRANCH   4  37
HETATM   37  N6  UNL     1       8.035   6.755   1.591  1.00  0.00    -0.232 N 
HETATM   38  N7  UNL     1       9.021   6.252   0.856  1.00  0.00    -0.236 N 
HETATM   39  N8  UNL     1       9.911   7.174   0.630  1.00  0.00    -0.283 N 
ATOM     40  H7  UNL     1       9.072   5.289   0.521  1.00  0.00     0.208 HD
HETATM   41  C9  UNL     1       9.549   8.335   1.211  1.00  0.00     0.118 A 
ATOM     42  H8  UNL     1      10.765   7.037   0.089  1.00  0.00     0.188 HD
HETATM   43  C13 UNL     1       8.338   8.040   1.824  1.00  0.00     0.188 A 
BRANCH  41  44
HETATM   44  C10 UNL     1      10.298   9.581   1.171  1.00  0.00     0.147 C 
BRANCH  44  45
HETATM   45  O3  UNL     1       9.926  10.369   2.259  1.00  0.00    -0.379 OA
ATOM     46  H3  UNL     1      10.654  10.421   2.866  1.00  0.00     0.211 HD
ENDBRANCH  44  45
BRANCH  44  47
HETATM   47  C11 UNL     1      11.794   9.409   1.250  1.00  0.00     0.211 C 
BRANCH  47  48
HETATM   48  O4  UNL     1      12.218   8.898   0.028  1.00  0.00    -0.397 OA
ATOM     49  H4  UNL     1      12.259   7.953   0.114  1.00  0.00     0.209 HD
ENDBRANCH  47  48
ENDBRANCH  44  47
BRANCH  44  50
HETATM   50  C12 UNL     1       9.964  10.418  -0.073  1.00  0.00     0.211 C 
BRANCH  50  51
HETATM   51  O5  UNL     1       9.549   9.488  -1.043  1.00  0.00    -0.397 OA
ATOM     52  H5  UNL     1       8.602   9.460  -0.973  1.00  0.00     0.209 HD
ENDBRANCH  50  51
ENDBRANCH  44  50
ENDBRANCH  41  44
BRANCH  43  53
HETATM   53  O6  UNL     1       7.630   8.973   2.534  1.00  0.00    -0.343 OA
ATOM     54  H6  UNL     1       7.632   9.135   3.470  1.00  0.00     0.219 HD
ENDBRANCH  43  53
ENDBRANCH   4  37
TORSDOF 17
ENDMDL
MODEL 5
REMARK VINA RESULT: -5.771388761      2.949      6.131
REMARK  17 active torsions:
REMARK  status: ('A' for Active; 'I' for Inactive)
REMARK    1  A    between atoms: N1_1  and  C1_4 
REMARK    2  A    between atoms: C2_7  and  N3_8 
REMARK    3  A    between atoms: C4_14  and  N5_15 
REMARK    4  A    between atoms: N5_15  and  C5_17 
REMARK    5  A    between atoms: C6_18  and  O1_19 
REMARK    6  A    between atoms: C7_21  and  O2_22 
REMARK    7  A    between atoms: C8_24  and  N6_25 
REMARK    8  A    between atoms: C9_30  and  C10_31 
REMARK    9  A    between atoms: C10_31  and  O3_32 
REMARK   10  A    between atoms: C10_31  and  C11_34 
REMARK   11  A    between atoms: C10_31  and  C12_37 
REMARK   12  A    between atoms: C11_34  and  O4_35 
REMARK   13  A    between atoms: C12_37  and  O5_38 
REMARK   14  A    between atoms: C13_40  and  O6_41 
REMARK   15  A    between atoms: N9_43  and  N10_44 
REMARK   16  A    between atoms: N11_47  and  C14_48 
REMARK   17  A    between atoms: C14_48  and  C15_49 
ROOT
HETATM    1  C5  UNL     1       5.505   6.211   3.970  1.00  0.00     0.227 C 
HETATM    2  C6  UNL     1       4.687   6.217   2.727  1.00  0.00     0.189 C 
HETATM    3  C7  UNL     1       5.634   6.674   1.603  1.00  0.00     0.191 C 
HETATM    4  C8  UNL     1       6.932   6.142   2.100  1.00  0.00     0.238 C 
HETATM    5  N9  UNL     1       6.896   6.316   3.515  1.00  0.00    -0.183 NA
ENDROOT
BRANCH   1   6
HETATM    6  N5  UNL     1       5.258   7.262   4.889  1.00  0.00    -0.205 N 
ATOM      7  H5  UNL     1       4.728   6.973   5.711  1.00  0.00     0.179 HD
BRANCH   6   8
HETATM    8  C4  UNL     1       5.599   8.621   4.888  1.00  0.00     0.684 A 
HETATM    9  N4  UNL     1       4.882   9.535   4.121  1.00  0.00    -0.184 N 
HETATM   10  C3  UNL     1       5.408  10.741   4.235  1.00  0.00     0.138 A 
ATOM     11  H4  UNL     1       4.067   9.306   3.552  1.00  0.00     0.184 HD
HETATM   12  C2  UNL     1       5.107  11.995   3.703  1.00  0.00     0.146 A 
HETATM   13  C16 UNL     1       6.477  10.636   5.079  1.00  0.00     0.170 A 
HETATM   14  N2  UNL     1       5.840  13.077   4.004  1.00  0.00    -0.175 N 
HETATM   15  C1  UNL     1       6.883  12.945   4.836  1.00  0.00     0.679 A 
ATOM     16  H2  UNL     1       5.607  13.986   3.606  1.00  0.00     0.186 HD
HETATM   17  N12 UNL     1       7.193  11.729   5.365  1.00  0.00    -0.174 N 
ATOM     18  H12 UNL     1       7.991  11.649   5.996  1.00  0.00     0.186 HD
HETATM   19  N11 UNL     1       6.556   9.306   5.460  1.00  0.00    -0.155 N 
BRANCH  12  20
HETATM   20  N3  UNL     1       4.096  12.067   2.911  1.00  0.00    -0.383 N 
ATOM     21  H32 UNL     1       3.725  12.997   2.714  1.00  0.00     0.157 HD
ATOM     22  H31 UNL     1       3.681  11.231   2.497  1.00  0.00     0.157 HD
ENDBRANCH  12  20
BRANCH  15  23
HETATM   23  N1  UNL     1       7.591  13.981   5.129  1.00  0.00    -0.234 N 
ATOM     24  H12 UNL     1       8.450  14.180   4.616  1.00  0.00     0.174 HD
ATOM     25  H11 UNL     1       7.282  14.602   5.877  1.00  0.00     0.174 HD
ENDBRANCH  15  23
BRANCH  19  26
HETATM   26  C14 UNL     1       7.574   8.924   6.396  1.00  0.00     0.262 C 
BRANCH  26  27
HETATM   27  C15 UNL     1       8.841   8.484   5.706  1.00  0.00     0.192 C 
HETATM   28  O7  UNL     1       9.335   7.358   5.869  1.00  0.00    -0.647 OA
HETATM   29  O8  UNL     1       9.465   9.380   4.859  1.00  0.00    -0.647 OA
ENDBRANCH  26  27
ENDBRANCH  19  26
ENDBRANCH   6   8
ENDBRANCH   1   6
BRANCH   2  30
HETATM   30  O1  UNL     1       4.296   4.881   2.479  1.00  0.00    -0.389 OA
ATOM     31  H1  UNL     1       3.348   4.852   2.537  1.00  0.00     0.210 HD
ENDBRANCH   2  30
BRANCH   5  32
HETATM   32  N10 UNL     1       7.719   5.398   4.178  1.00  0.00    -0.359 NA
ATOM     33 2H10 UNL     1       7.731   5.554   5.186  1.00  0.00     0.171 HD
ATOM     34 1H10 UNL     1       8.676   5.438   3.827  1.00  0.00     0.171 HD
ENDBRANCH   5  32
BRANCH   3  35
HETATM   35  O2  UNL     1       5.158   5.984   0.464  1.00  0.00    -0.389 OA
ATOM     36  H2  UNL     1       4.611   6.624   0.026  1.00  0.00     0.210 HD
ENDBRANCH   3  35
BRANCH   4  37
HETATM   37  N6  UNL     1       8.098   6.811   1.598  1.00  0.00    -0.232 N 
HETATM   38  N7  UNL     1       9.092   6.279   0.893  1.00  0.00    -0.236 N 
HETATM   39  N8  UNL     1       9.972   7.197   0.618  1.00  0.00    -0.283 N 
ATOM     40  H7  UNL     1       9.154   5.300   0.611  1.00  0.00     0.208 HD
HETATM   41  C9  UNL     1       9.595   8.384   1.133  1.00  0.00     0.118 A 
ATOM     42  H8  UNL     1      10.828   7.041   0.086  1.00  0.00     0.188 HD
HETATM   43  C13 UNL     1       8.386   8.110   1.759  1.00  0.00     0.188 A 
BRANCH  41  44
HETATM   44  C10 UNL     1      10.330   9.635   1.026  1.00  0.00     0.147 C 
BRANCH  44  45
HETATM   45  O3  UNL     1       9.974  10.462   2.090  1.00  0.00    -0.379 OA
ATOM     46  H3  UNL     1      10.525  11.236   2.077  1.00  0.00     0.211 HD
ENDBRANCH  44  45
BRANCH  44  47
HETATM   47  C11 UNL     1      11.829   9.480   1.077  1.00  0.00     0.211 C 
BRANCH  47  48
HETATM   48  O4  UNL     1      12.222   8.856  -0.102  1.00  0.00    -0.397 OA
ATOM     49  H4  UNL     1      12.233   9.517  -0.784  1.00  0.00     0.209 HD
ENDBRANCH  47  48
ENDBRANCH  44  47
BRANCH  44  50
HETATM   50  C12 UNL     1       9.958  10.418  -0.242  1.00  0.00     0.211 C 
BRANCH  50  51
HETATM   51  O5  UNL     1       9.544   9.445  -1.169  1.00  0.00    -0.397 OA
ATOM     52  H5  UNL     1       9.586   9.873  -2.016  1.00  0.00     0.209 HD
ENDBRANCH  50  51
ENDBRANCH  44  50
ENDBRANCH  41  44
BRANCH  43  53
HETATM   53  O6  UNL     1       7.666   9.072   2.416  1.00  0.00    -0.343 OA
ATOM     54  H6  UNL     1       7.906   9.973   2.600  1.00  0.00     0.219 HD
ENDBRANCH  43  53
ENDBRANCH   4  37
TORSDOF 17
ENDMDL
