MODEL 1
REMARK VINA RESULT: -8.111219195      0.000      0.000
REMARK  10 active torsions:
REMARK  status: ('A' for Active; 'I' for Inactive)
REMARK    1  A    between atoms: C2_2  and  C5_5 
REMARK    2  A    between atoms: C5_5  and  C6_6 
REMARK    3  A    between atoms: C6_6  and  N1_7 
REMARK       I    between atoms: N1_7  and  C7_9 
REMARK    4  A    between atoms: C7_9  and  C8_11 
REMARK    5  A    between atoms: C8_11  and  C9_12 
REMARK    6  A    between atoms: C9_12  and  O2_13 
REMARK    7  A    between atoms: C9_12  and  C20_24 
REMARK    8  A    between atoms: O2_13  and  C10_14 
REMARK    9  A    between atoms: C20_24  and  O4_26 
REMARK   10  A    between atoms: O4_26  and  C21_27 
ROOT
HETATM    1  C9  UNL     1       2.911   7.213  16.883  1.00  0.00     0.230 C 
ENDROOT
BRANCH   1   2
HETATM    2  C8  UNL     1       2.099   6.135  17.493  1.00  0.00     0.145 C 
BRANCH   2   3
HETATM    3  C7  UNL     1       2.669   5.582  18.732  1.00  0.00     0.220 C 
HETATM    4  N1  UNL     1       2.489   6.252  19.968  1.00  0.00    -0.361 N 
ATOM      5  H1  UNL     1       1.958   7.122  19.997  1.00  0.00     0.162 HD
HETATM    6  O1  UNL     1       3.321   4.517  18.729  1.00  0.00    -0.274 OA
BRANCH   4   7
HETATM    7  C6  UNL     1       3.044   5.720  21.176  1.00  0.00     0.123 C 
BRANCH   7   8
HETATM    8  C5  UNL     1       4.386   6.264  21.563  1.00  0.00     0.028 C 
BRANCH   8   9
HETATM    9  C2  UNL     1       4.303   7.172  22.774  1.00  0.00    -0.050 C 
HETATM   10  C1  UNL     1       3.061   6.848  23.603  1.00  0.00     0.014 C 
HETATM   11  C3  UNL     1       4.198   8.581  22.282  1.00  0.00     0.014 C 
HETATM   12  C4  UNL     1       5.505   7.051  23.663  1.00  0.00     0.014 C 
ENDBRANCH   8   9
ENDBRANCH   7   8
ENDBRANCH   4   7
ENDBRANCH   2   3
ENDBRANCH   1   2
BRANCH   1  13
HETATM   13  O2  UNL     1       2.385   8.412  16.633  1.00  0.00    -0.370 OA
BRANCH  13  14
HETATM   14  C10 UNL     1       2.877   9.575  17.108  1.00  0.00     0.124 C 
HETATM   15  C11 UNL     1       3.960   9.137  18.115  1.00  0.00     0.040 C 
HETATM   16  C12 UNL     1       4.866  10.230  18.554  1.00  0.00    -0.045 C 
HETATM   17  C13 UNL     1       4.360  10.951  19.782  1.00  0.00     0.015 C 
HETATM   18  C14 UNL     1       6.182   9.554  18.977  1.00  0.00     0.015 C 
HETATM   19  C15 UNL     1       5.276  11.211  17.493  1.00  0.00     0.017 C 
HETATM   20  C16 UNL     1       4.168  11.659  16.616  1.00  0.00    -0.045 C 
HETATM   21  C17 UNL     1       4.788  12.418  15.434  1.00  0.00     0.015 C 
HETATM   22  C18 UNL     1       3.209  12.612  17.268  1.00  0.00     0.015 C 
HETATM   23  C19 UNL     1       3.505  10.435  16.046  1.00  0.00     0.040 C 
ENDBRANCH  13  14
ENDBRANCH   1  13
BRANCH   1  24
HETATM   24  C20 UNL     1       3.677   6.686  15.688  1.00  0.00     0.289 C 
HETATM   25  O3  UNL     1       3.250   6.981  14.552  1.00  0.00    -0.262 OA
BRANCH  24  26
HETATM   26  O4  UNL     1       4.797   5.913  15.811  1.00  0.00    -0.309 OA
BRANCH  26  27
HETATM   27  C21 UNL     1       6.093   6.402  16.032  1.00  0.00     0.060 C 
HETATM   28  C22 UNL     1       6.437   6.149  17.488  1.00  0.00     0.045 C 
HETATM   29  C23 UNL     1       7.027   5.605  15.119  1.00  0.00     0.045 C 
HETATM   30  C24 UNL     1       6.265   7.850  15.709  1.00  0.00     0.045 C 
ENDBRANCH  26  27
ENDBRANCH  24  26
ENDBRANCH   1  24
TORSDOF 10
ENDMDL
MODEL 2
REMARK VINA RESULT: -8.036586945      2.050      4.511
REMARK  10 active torsions:
REMARK  status: ('A' for Active; 'I' for Inactive)
REMARK    1  A    between atoms: C2_2  and  C5_5 
REMARK    2  A    between atoms: C5_5  and  C6_6 
REMARK    3  A    between atoms: C6_6  and  N1_7 
REMARK       I    between atoms: N1_7  and  C7_9 
REMARK    4  A    between atoms: C7_9  and  C8_11 
REMARK    5  A    between atoms: C8_11  and  C9_12 
REMARK    6  A    between atoms: C9_12  and  O2_13 
REMARK    7  A    between atoms: C9_12  and  C20_24 
REMARK    8  A    between atoms: O2_13  and  C10_14 
REMARK    9  A    between atoms: C20_24  and  O4_26 
REMARK   10  A    between atoms: O4_26  and  C21_27 
ROOT
HETATM    1  C9  UNL     1       3.886   8.517  16.287  1.00  0.00     0.230 C 
ENDROOT
BRANCH   1   2
HETATM    2  C8  UNL     1       4.241   9.920  16.603  1.00  0.00     0.145 C 
BRANCH   2   3
HETATM    3  C7  UNL     1       5.004  10.078  17.852  1.00  0.00     0.220 C 
HETATM    4  N1  UNL     1       4.369   9.910  19.108  1.00  0.00    -0.361 N 
ATOM      5  H1  UNL     1       3.377   9.677  19.145  1.00  0.00     0.162 HD
HETATM    6  O1  UNL     1       6.220  10.360  17.840  1.00  0.00    -0.274 OA
BRANCH   4   7
HETATM    7  C6  UNL     1       5.105  10.066  20.326  1.00  0.00     0.123 C 
BRANCH   7   8
HETATM    8  C5  UNL     1       5.269   8.822  21.145  1.00  0.00     0.028 C 
BRANCH   8   9
HETATM    9  C2  UNL     1       6.681   8.277  21.073  1.00  0.00    -0.050 C 
HETATM   10  C1  UNL     1       6.859   7.410  19.828  1.00  0.00     0.014 C 
HETATM   11  C3  UNL     1       6.905   7.428  22.286  1.00  0.00     0.014 C 
HETATM   12  C4  UNL     1       7.713   9.365  21.039  1.00  0.00     0.014 C 
ENDBRANCH   8   9
ENDBRANCH   7   8
ENDBRANCH   4   7
ENDBRANCH   2   3
ENDBRANCH   1   2
BRANCH   1  13
HETATM   13  O2  UNL     1       4.087   7.541  17.172  1.00  0.00    -0.370 OA
BRANCH  13  14
HETATM   14  C10 UNL     1       3.120   6.729  17.645  1.00  0.00     0.124 C 
HETATM   15  C11 UNL     1       3.649   6.284  19.023  1.00  0.00     0.040 C 
HETATM   16  C12 UNL     1       2.632   5.626  19.885  1.00  0.00    -0.045 C 
HETATM   17  C13 UNL     1       2.584   4.129  19.692  1.00  0.00     0.015 C 
HETATM   18  C14 UNL     1       3.093   5.847  21.338  1.00  0.00     0.015 C 
HETATM   19  C15 UNL     1       1.250   6.214  19.840  1.00  0.00     0.017 C 
HETATM   20  C16 UNL     1       0.769   6.535  18.476  1.00  0.00    -0.045 C 
HETATM   21  C17 UNL     1      -0.511   7.372  18.618  1.00  0.00     0.015 C 
HETATM   22  C18 UNL     1       0.395   5.337  17.653  1.00  0.00     0.015 C 
HETATM   23  C19 UNL     1       1.794   7.419  17.819  1.00  0.00     0.040 C 
ENDBRANCH  13  14
ENDBRANCH   1  13
BRANCH   1  24
HETATM   24  C20 UNL     1       4.406   8.137  14.916  1.00  0.00     0.289 C 
HETATM   25  O3  UNL     1       4.138   8.900  13.964  1.00  0.00    -0.262 OA
BRANCH  24  26
HETATM   26  O4  UNL     1       5.145   7.009  14.695  1.00  0.00    -0.309 OA
BRANCH  26  27
HETATM   27  C21 UNL     1       6.543   6.968  14.592  1.00  0.00     0.060 C 
HETATM   28  C22 UNL     1       6.987   5.558  14.933  1.00  0.00     0.045 C 
HETATM   29  C23 UNL     1       6.889   7.297  13.138  1.00  0.00     0.045 C 
HETATM   30  C24 UNL     1       7.250   7.953  15.465  1.00  0.00     0.045 C 
ENDBRANCH  26  27
ENDBRANCH  24  26
ENDBRANCH   1  24
TORSDOF 10
ENDMDL
MODEL 3
REMARK VINA RESULT: -7.820771171      0.999      2.207
REMARK  10 active torsions:
REMARK  status: ('A' for Active; 'I' for Inactive)
REMARK    1  A    between atoms: C2_2  and  C5_5 
REMARK    2  A    between atoms: C5_5  and  C6_6 
REMARK    3  A    between atoms: C6_6  and  N1_7 
REMARK       I    between atoms: N1_7  and  C7_9 
REMARK    4  A    between atoms: C7_9  and  C8_11 
REMARK    5  A    between atoms: C8_11  and  C9_12 
REMARK    6  A    between atoms: C9_12  and  O2_13 
REMARK    7  A    between atoms: C9_12  and  C20_24 
REMARK    8  A    between atoms: O2_13  and  C10_14 
REMARK    9  A    between atoms: C20_24  and  O4_26 
REMARK   10  A    between atoms: O4_26  and  C21_27 
ROOT
HETATM    1  C9  UNL     1       3.252   6.579  17.418  1.00  0.00     0.230 C 
ENDROOT
BRANCH   1   2
HETATM    2  C8  UNL     1       2.338   5.538  17.940  1.00  0.00     0.145 C 
BRANCH   2   3
HETATM    3  C7  UNL     1       2.304   5.451  19.409  1.00  0.00     0.220 C 
HETATM    4  N1  UNL     1       2.967   6.421  20.201  1.00  0.00    -0.361 N 
ATOM      5  H1  UNL     1       3.469   7.185  19.748  1.00  0.00     0.162 HD
HETATM    6  O1  UNL     1       1.695   4.530  19.992  1.00  0.00    -0.274 OA
BRANCH   4   7
HETATM    7  C6  UNL     1       2.941   6.340  21.630  1.00  0.00     0.123 C 
BRANCH   7   8
HETATM    8  C5  UNL     1       4.233   5.948  22.278  1.00  0.00     0.028 C 
BRANCH   8   9
HETATM    9  C2  UNL     1       5.117   7.148  22.556  1.00  0.00    -0.050 C 
HETATM   10  C1  UNL     1       6.427   7.041  21.776  1.00  0.00     0.014 C 
HETATM   11  C3  UNL     1       5.429   7.156  24.020  1.00  0.00     0.014 C 
HETATM   12  C4  UNL     1       4.455   8.443  22.188  1.00  0.00     0.014 C 
ENDBRANCH   8   9
ENDBRANCH   7   8
ENDBRANCH   4   7
ENDBRANCH   2   3
ENDBRANCH   1   2
BRANCH   1  13
HETATM   13  O2  UNL     1       2.899   7.865  17.417  1.00  0.00    -0.370 OA
BRANCH  13  14
HETATM   14  C10 UNL     1       3.770   8.894  17.382  1.00  0.00     0.124 C 
HETATM   15  C11 UNL     1       2.888  10.136  17.622  1.00  0.00     0.040 C 
HETATM   16  C12 UNL     1       3.648  11.375  17.935  1.00  0.00    -0.045 C 
HETATM   17  C13 UNL     1       4.005  12.168  16.699  1.00  0.00     0.015 C 
HETATM   18  C14 UNL     1       2.694  12.270  18.747  1.00  0.00     0.015 C 
HETATM   19  C15 UNL     1       4.846  11.205  18.824  1.00  0.00     0.017 C 
HETATM   20  C16 UNL     1       5.700  10.043  18.482  1.00  0.00    -0.045 C 
HETATM   21  C17 UNL     1       6.699   9.845  19.631  1.00  0.00     0.015 C 
HETATM   22  C18 UNL     1       6.522  10.224  17.239  1.00  0.00     0.015 C 
HETATM   23  C19 UNL     1       4.826   8.819  18.451  1.00  0.00     0.040 C 
ENDBRANCH  13  14
ENDBRANCH   1  13
BRANCH   1  24
HETATM   24  C20 UNL     1       3.818   6.161  16.077  1.00  0.00     0.289 C 
HETATM   25  O3  UNL     1       3.148   6.428  15.058  1.00  0.00    -0.262 OA
BRANCH  24  26
HETATM   26  O4  UNL     1       5.016   5.515  15.951  1.00  0.00    -0.309 OA
BRANCH  26  27
HETATM   27  C21 UNL     1       6.260   6.145  15.800  1.00  0.00     0.060 C 
HETATM   28  C22 UNL     1       6.878   6.279  17.179  1.00  0.00     0.045 C 
HETATM   29  C23 UNL     1       7.115   5.229  14.922  1.00  0.00     0.045 C 
HETATM   30  C24 UNL     1       6.193   7.482  15.137  1.00  0.00     0.045 C 
ENDBRANCH  26  27
ENDBRANCH  24  26
ENDBRANCH   1  24
TORSDOF 10
ENDMDL
MODEL 4
REMARK VINA RESULT: -7.770542719      2.103      5.987
REMARK  10 active torsions:
REMARK  status: ('A' for Active; 'I' for Inactive)
REMARK    1  A    between atoms: C2_2  and  C5_5 
REMARK    2  A    between atoms: C5_5  and  C6_6 
REMARK    3  A    between atoms: C6_6  and  N1_7 
REMARK       I    between atoms: N1_7  and  C7_9 
REMARK    4  A    between atoms: C7_9  and  C8_11 
REMARK    5  A    between atoms: C8_11  and  C9_12 
REMARK    6  A    between atoms: C9_12  and  O2_13 
REMARK    7  A    between atoms: C9_12  and  C20_24 
REMARK    8  A    between atoms: O2_13  and  C10_14 
REMARK    9  A    between atoms: C20_24  and  O4_26 
REMARK   10  A    between atoms: O4_26  and  C21_27 
ROOT
HETATM    1  C9  UNL     1       3.496  10.121  18.822  1.00  0.00     0.230 C 
ENDROOT
BRANCH   1   2
HETATM    2  C8  UNL     1       2.530   9.055  18.469  1.00  0.00     0.145 C 
BRANCH   2   3
HETATM    3  C7  UNL     1       2.909   8.270  17.283  1.00  0.00     0.220 C 
HETATM    4  N1  UNL     1       4.139   8.515  16.622  1.00  0.00    -0.361 N 
ATOM      5  H1  UNL     1       4.764   9.240  16.973  1.00  0.00     0.162 HD
HETATM    6  O1  UNL     1       2.166   7.374  16.831  1.00  0.00    -0.274 OA
BRANCH   4   7
HETATM    7  C6  UNL     1       4.511   7.757  15.466  1.00  0.00     0.123 C 
BRANCH   7   8
HETATM    8  C5  UNL     1       5.448   6.615  15.718  1.00  0.00     0.028 C 
BRANCH   8   9
HETATM    9  C2  UNL     1       6.754   6.775  14.966  1.00  0.00    -0.050 C 
HETATM   10  C1  UNL     1       6.494   7.230  13.530  1.00  0.00     0.014 C 
HETATM   11  C3  UNL     1       7.428   5.439  14.933  1.00  0.00     0.014 C 
HETATM   12  C4  UNL     1       7.670   7.771  15.616  1.00  0.00     0.014 C 
ENDBRANCH   8   9
ENDBRANCH   7   8
ENDBRANCH   4   7
ENDBRANCH   2   3
ENDBRANCH   1   2
BRANCH   1  13
HETATM   13  O2  UNL     1       3.899  10.293  20.081  1.00  0.00    -0.370 OA
BRANCH  13  14
HETATM   14  C10 UNL     1       5.010   9.740  20.609  1.00  0.00     0.124 C 
HETATM   15  C11 UNL     1       4.470   8.610  21.509  1.00  0.00     0.040 C 
HETATM   16  C12 UNL     1       5.506   7.648  21.970  1.00  0.00    -0.045 C 
HETATM   17  C13 UNL     1       6.142   8.056  23.278  1.00  0.00     0.015 C 
HETATM   18  C14 UNL     1       4.768   6.328  22.256  1.00  0.00     0.015 C 
HETATM   19  C15 UNL     1       6.554   7.276  20.960  1.00  0.00     0.017 C 
HETATM   20  C16 UNL     1       7.094   8.423  20.192  1.00  0.00    -0.045 C 
HETATM   21  C17 UNL     1       7.926   7.856  19.033  1.00  0.00     0.015 C 
HETATM   22  C18 UNL     1       8.018   9.312  20.973  1.00  0.00     0.015 C 
HETATM   23  C19 UNL     1       5.933   9.155  19.575  1.00  0.00     0.040 C 
ENDBRANCH  13  14
ENDBRANCH   1  13
BRANCH   1  24
HETATM   24  C20 UNL     1       3.090  11.434  18.186  1.00  0.00     0.289 C 
HETATM   25  O3  UNL     1       2.929  12.416  18.941  1.00  0.00    -0.262 OA
BRANCH  24  26
HETATM   26  O4  UNL     1       2.900  11.575  16.841  1.00  0.00    -0.309 OA
BRANCH  26  27
HETATM   27  C21 UNL     1       3.829  12.127  15.948  1.00  0.00     0.060 C 
HETATM   28  C22 UNL     1       3.736  11.349  14.649  1.00  0.00     0.045 C 
HETATM   29  C23 UNL     1       3.416  13.584  15.725  1.00  0.00     0.045 C 
HETATM   30  C24 UNL     1       5.237  12.123  16.448  1.00  0.00     0.045 C 
ENDBRANCH  26  27
ENDBRANCH  24  26
ENDBRANCH   1  24
TORSDOF 10
ENDMDL
MODEL 5
REMARK VINA RESULT: -7.714538522      2.031      4.851
REMARK  10 active torsions:
REMARK  status: ('A' for Active; 'I' for Inactive)
REMARK    1  A    between atoms: C2_2  and  C5_5 
REMARK    2  A    between atoms: C5_5  and  C6_6 
REMARK    3  A    between atoms: C6_6  and  N1_7 
REMARK       I    between atoms: N1_7  and  C7_9 
REMARK    4  A    between atoms: C7_9  and  C8_11 
REMARK    5  A    between atoms: C8_11  and  C9_12 
REMARK    6  A    between atoms: C9_12  and  O2_13 
REMARK    7  A    between atoms: C9_12  and  C20_24 
REMARK    8  A    between atoms: O2_13  and  C10_14 
REMARK    9  A    between atoms: C20_24  and  O4_26 
REMARK   10  A    between atoms: O4_26  and  C21_27 
ROOT
HETATM    1  C9  UNL     1       4.620   6.916  16.057  1.00  0.00     0.230 C 
ENDROOT
BRANCH   1   2
HETATM    2  C8  UNL     1       6.008   6.481  15.780  1.00  0.00     0.145 C 
BRANCH   2   3
HETATM    3  C7  UNL     1       6.900   6.540  16.949  1.00  0.00     0.220 C 
HETATM    4  N1  UNL     1       6.995   7.725  17.721  1.00  0.00    -0.361 N 
ATOM      5  H1  UNL     1       6.439   8.540  17.464  1.00  0.00     0.162 HD
HETATM    6  O1  UNL     1       7.590   5.557  17.290  1.00  0.00    -0.274 OA
BRANCH   4   7
HETATM    7  C6  UNL     1       7.864   7.789  18.857  1.00  0.00     0.123 C 
BRANCH   7   8
HETATM    8  C5  UNL     1       7.241   7.416  20.168  1.00  0.00     0.028 C 
BRANCH   8   9
HETATM    9  C2  UNL     1       7.002   8.626  21.048  1.00  0.00    -0.050 C 
HETATM   10  C1  UNL     1       8.187   9.588  20.971  1.00  0.00     0.014 C 
HETATM   11  C3  UNL     1       6.865   8.144  22.459  1.00  0.00     0.014 C 
HETATM   12  C4  UNL     1       5.762   9.377  20.664  1.00  0.00     0.014 C 
ENDBRANCH   8   9
ENDBRANCH   7   8
ENDBRANCH   4   7
ENDBRANCH   2   3
ENDBRANCH   1   2
BRANCH   1  13
HETATM   13  O2  UNL     1       3.597   6.071  15.933  1.00  0.00    -0.370 OA
BRANCH  13  14
HETATM   14  C10 UNL     1       2.766   5.726  16.937  1.00  0.00     0.124 C 
HETATM   15  C11 UNL     1       3.651   5.806  18.197  1.00  0.00     0.040 C 
HETATM   16  C12 UNL     1       2.898   5.770  19.478  1.00  0.00    -0.045 C 
HETATM   17  C13 UNL     1       2.703   4.366  20.001  1.00  0.00     0.015 C 
HETATM   18  C14 UNL     1       3.782   6.485  20.516  1.00  0.00     0.015 C 
HETATM   19  C15 UNL     1       1.604   6.532  19.503  1.00  0.00     0.017 C 
HETATM   20  C16 UNL     1       0.760   6.339  18.300  1.00  0.00    -0.045 C 
HETATM   21  C17 UNL     1      -0.366   7.382  18.349  1.00  0.00     0.015 C 
HETATM   22  C18 UNL     1       0.086   5.000  18.224  1.00  0.00     0.015 C 
HETATM   23  C19 UNL     1       1.596   6.660  17.091  1.00  0.00     0.040 C 
ENDBRANCH  13  14
ENDBRANCH   1  13
BRANCH   1  24
HETATM   24  C20 UNL     1       4.332   8.236  15.372  1.00  0.00     0.289 C 
HETATM   25  O3  UNL     1       3.445   8.249  14.492  1.00  0.00    -0.262 OA
BRANCH  24  26
HETATM   26  O4  UNL     1       5.000   9.387  15.680  1.00  0.00    -0.309 OA
BRANCH  26  27
HETATM   27  C21 UNL     1       4.544  10.370  16.571  1.00  0.00     0.060 C 
HETATM   28  C22 UNL     1       5.760  10.979  17.243  1.00  0.00     0.045 C 
HETATM   29  C23 UNL     1       3.817  11.424  15.732  1.00  0.00     0.045 C 
HETATM   30  C24 UNL     1       3.587   9.866  17.601  1.00  0.00     0.045 C 
ENDBRANCH  26  27
ENDBRANCH  24  26
ENDBRANCH   1  24
TORSDOF 10
ENDMDL
