MODEL 1
REMARK VINA RESULT: -8.406935123      0.000      0.000
REMARK  9 active torsions:
REMARK  status: ('A' for Active; 'I' for Inactive)
REMARK    1  A    between atoms: C2_2  and  O2_4 
REMARK    2  A    between atoms: O2_4  and  C3_5 
REMARK    3  A    between atoms: C7_9  and  C8_10 
REMARK    4  A    between atoms: C8_10  and  C9_11 
REMARK    5  A    between atoms: C9_11  and  C10_12 
REMARK    6  A    between atoms: C11_13  and  C13_15 
REMARK    7  A    between atoms: C13_15  and  C14_16 
REMARK    8  A    between atoms: C14_16  and  C15_17 
REMARK    9  A    between atoms: C16_18  and  O3_20 
ROOT
HETATM    1  C3  UNL     1       2.597   8.413  16.905  1.00  0.00     0.145 A 
HETATM    2  C4  UNL     1       2.626   8.273  18.320  1.00  0.00     0.031 A 
HETATM    3  C5  UNL     1       3.700   7.641  19.192  1.00  0.00    -0.004 C 
HETATM    4  C6  UNL     1       3.268   7.532  20.629  1.00  0.00     0.010 C 
HETATM    5  C7  UNL     1       3.306   6.353  21.475  1.00  0.00    -0.014 C 
HETATM    6  C18 UNL     1       3.057   4.980  21.162  1.00  0.00     0.007 C 
HETATM    7  C19 UNL     1       1.743   4.513  20.481  1.00  0.00     0.041 C 
HETATM    8  C20 UNL     1       1.888   4.875  19.000  1.00  0.00     0.087 A 
HETATM    9  C21 UNL     1       0.666   5.292  18.113  1.00  0.00     0.041 C 
HETATM   10  C22 UNL     1       1.065   6.478  17.181  1.00  0.00     0.015 C 
HETATM   11  C23 UNL     1       1.460   7.754  17.763  1.00  0.00    -0.010 A 
HETATM   12  C24 UNL     1       0.196   8.663  17.927  1.00  0.00     0.018 C 
HETATM   13  O4  UNL     1       2.180   6.043  19.191  1.00  0.00    -0.369 OA
HETATM   14  C25 UNL     1       3.080   5.281  18.480  1.00  0.00     0.157 A 
HETATM   15  C26 UNL     1       4.149   6.274  18.632  1.00  0.00     0.040 C 
ENDROOT
BRANCH   5  16
HETATM   16  C8  UNL     1       4.617   6.406  22.216  1.00  0.00     0.008 C 
BRANCH  16  17
HETATM   17  C9  UNL     1       5.564   7.514  22.054  1.00  0.00     0.028 C 
BRANCH  17  18
HETATM   18  C10 UNL     1       6.630   7.398  21.060  1.00  0.00    -0.024 C 
HETATM   19  C11 UNL     1       7.053   8.414  20.336  1.00  0.00    -0.087 C 
HETATM   20  C12 UNL     1       6.478   9.766  20.478  1.00  0.00     0.043 C 
BRANCH  19  21
HETATM   21  C13 UNL     1       8.126   8.180  19.345  1.00  0.00     0.037 C 
BRANCH  21  22
HETATM   22  C14 UNL     1       7.753   7.394  18.144  1.00  0.00     0.034 C 
BRANCH  22  23
HETATM   23  C15 UNL     1       7.621   8.119  16.882  1.00  0.00     0.005 C 
HETATM   24  C16 UNL     1       7.368   7.424  15.778  1.00  0.00     0.035 C 
HETATM   25  C17 UNL     1       7.222   5.938  15.817  1.00  0.00     0.075 C 
BRANCH  24  26
HETATM   26  O3  UNL     1       7.237   8.098  14.561  1.00  0.00    -0.366 OA
ATOM     27  H3  UNL     1       7.526   7.674  13.761  1.00  0.00     0.217 HD
ENDBRANCH  24  26
ENDBRANCH  22  23
ENDBRANCH  21  22
ENDBRANCH  19  21
ENDBRANCH  17  18
ENDBRANCH  16  17
ENDBRANCH   5  16
BRANCH   1  28
HETATM   28  O2  UNL     1       3.277   7.621  15.976  1.00  0.00    -0.315 OA
BRANCH  28  29
HETATM   29  C2  UNL     1       3.833   8.033  14.798  1.00  0.00     0.255 C 
HETATM   30  C1  UNL     1       3.893   9.452  14.363  1.00  0.00     0.126 C 
HETATM   31  O1  UNL     1       4.320   7.161  14.041  1.00  0.00    -0.266 OA
ENDBRANCH  28  29
ENDBRANCH   1  28
TORSDOF 9
ENDMDL
MODEL 2
REMARK VINA RESULT: -8.332155393      2.075      5.133
REMARK  9 active torsions:
REMARK  status: ('A' for Active; 'I' for Inactive)
REMARK    1  A    between atoms: C2_2  and  O2_4 
REMARK    2  A    between atoms: O2_4  and  C3_5 
REMARK    3  A    between atoms: C7_9  and  C8_10 
REMARK    4  A    between atoms: C8_10  and  C9_11 
REMARK    5  A    between atoms: C9_11  and  C10_12 
REMARK    6  A    between atoms: C11_13  and  C13_15 
REMARK    7  A    between atoms: C13_15  and  C14_16 
REMARK    8  A    between atoms: C14_16  and  C15_17 
REMARK    9  A    between atoms: C16_18  and  O3_20 
ROOT
HETATM    1  C3  UNL     1       2.837   9.475  16.636  1.00  0.00     0.145 A 
HETATM    2  C4  UNL     1       4.209   9.316  16.977  1.00  0.00     0.031 A 
HETATM    3  C5  UNL     1       4.821   8.493  18.099  1.00  0.00    -0.004 C 
HETATM    4  C6  UNL     1       6.301   8.733  18.232  1.00  0.00     0.010 C 
HETATM    5  C7  UNL     1       7.035   9.072  19.436  1.00  0.00    -0.014 C 
HETATM    6  C18 UNL     1       6.671   9.906  20.540  1.00  0.00     0.007 C 
HETATM    7  C19 UNL     1       6.207  11.374  20.347  1.00  0.00     0.041 C 
HETATM    8  C20 UNL     1       4.755  11.294  19.865  1.00  0.00     0.087 A 
HETATM    9  C21 UNL     1       4.139  12.341  18.877  1.00  0.00     0.041 C 
HETATM   10  C22 UNL     1       3.241  11.618  17.826  1.00  0.00     0.015 C 
HETATM   11  C23 UNL     1       3.835  10.656  16.907  1.00  0.00    -0.010 A 
HETATM   12  C24 UNL     1       4.294  11.396  15.606  1.00  0.00     0.018 C 
HETATM   13  O4  UNL     1       4.977  10.522  18.947  1.00  0.00    -0.369 OA
HETATM   14  C25 UNL     1       4.060  10.123  19.894  1.00  0.00     0.157 A 
HETATM   15  C26 UNL     1       4.089   8.730  19.437  1.00  0.00     0.040 C 
ENDROOT
BRANCH   5  16
HETATM   16  C8  UNL     1       7.528   7.769  20.012  1.00  0.00     0.008 C 
BRANCH  16  17
HETATM   17  C9  UNL     1       7.064   7.260  21.306  1.00  0.00     0.028 C 
BRANCH  17  18
HETATM   18  C10 UNL     1       5.716   6.703  21.409  1.00  0.00    -0.024 C 
HETATM   19  C11 UNL     1       5.027   6.686  22.531  1.00  0.00    -0.087 C 
HETATM   20  C12 UNL     1       5.570   7.239  23.787  1.00  0.00     0.043 C 
BRANCH  19  21
HETATM   21  C13 UNL     1       3.677   6.081  22.526  1.00  0.00     0.037 C 
BRANCH  21  22
HETATM   22  C14 UNL     1       2.925   6.161  21.250  1.00  0.00     0.034 C 
BRANCH  22  23
HETATM   23  C15 UNL     1       2.322   4.927  20.749  1.00  0.00     0.005 C 
HETATM   24  C16 UNL     1       2.662   4.506  19.535  1.00  0.00     0.035 C 
HETATM   25  C17 UNL     1       3.635   5.271  18.698  1.00  0.00     0.075 C 
BRANCH  24  26
HETATM   26  O3  UNL     1       2.098   3.329  19.036  1.00  0.00    -0.366 OA
ATOM     27  H3  UNL     1       2.641   2.555  18.948  1.00  0.00     0.217 HD
ENDBRANCH  24  26
ENDBRANCH  22  23
ENDBRANCH  21  22
ENDBRANCH  19  21
ENDBRANCH  17  18
ENDBRANCH  16  17
ENDBRANCH   5  16
BRANCH   1  28
HETATM   28  O2  UNL     1       1.744   9.316  17.491  1.00  0.00    -0.315 OA
BRANCH  28  29
HETATM   29  C2  UNL     1       0.984   8.192  17.650  1.00  0.00     0.255 C 
HETATM   30  C1  UNL     1      -0.305   8.162  18.388  1.00  0.00     0.126 C 
HETATM   31  O1  UNL     1       1.401   7.124  17.143  1.00  0.00    -0.266 OA
ENDBRANCH  28  29
ENDBRANCH   1  28
TORSDOF 9
ENDMDL
MODEL 3
REMARK VINA RESULT: -8.271199492      1.760      5.383
REMARK  9 active torsions:
REMARK  status: ('A' for Active; 'I' for Inactive)
REMARK    1  A    between atoms: C2_2  and  O2_4 
REMARK    2  A    between atoms: O2_4  and  C3_5 
REMARK    3  A    between atoms: C7_9  and  C8_10 
REMARK    4  A    between atoms: C8_10  and  C9_11 
REMARK    5  A    between atoms: C9_11  and  C10_12 
REMARK    6  A    between atoms: C11_13  and  C13_15 
REMARK    7  A    between atoms: C13_15  and  C14_16 
REMARK    8  A    between atoms: C14_16  and  C15_17 
REMARK    9  A    between atoms: C16_18  and  O3_20 
ROOT
HETATM    1  C3  UNL     1       4.439   6.536  15.898  1.00  0.00     0.145 A 
HETATM    2  C4  UNL     1       5.266   7.591  16.372  1.00  0.00     0.031 A 
HETATM    3  C5  UNL     1       5.066   8.485  17.585  1.00  0.00    -0.004 C 
HETATM    4  C6  UNL     1       6.077   9.599  17.639  1.00  0.00     0.010 C 
HETATM    5  C7  UNL     1       5.820  11.017  17.806  1.00  0.00    -0.014 C 
HETATM    6  C18 UNL     1       4.759  11.832  17.301  1.00  0.00     0.007 C 
HETATM    7  C19 UNL     1       4.414  11.894  15.789  1.00  0.00     0.041 C 
HETATM    8  C20 UNL     1       3.638  10.610  15.483  1.00  0.00     0.087 A 
HETATM    9  C21 UNL     1       3.729   9.882  14.100  1.00  0.00     0.041 C 
HETATM   10  C22 UNL     1       3.794   8.337  14.314  1.00  0.00     0.015 C 
HETATM   11  C23 UNL     1       4.920   7.754  15.032  1.00  0.00    -0.010 A 
HETATM   12  C24 UNL     1       6.052   7.388  14.015  1.00  0.00     0.018 C 
HETATM   13  O4  UNL     1       4.465   9.854  15.964  1.00  0.00    -0.369 OA
HETATM   14  C25 UNL     1       3.190   9.796  16.480  1.00  0.00     0.157 A 
HETATM   15  C26 UNL     1       3.623   9.030  17.653  1.00  0.00     0.040 C 
ENDROOT
BRANCH   5  16
HETATM   16  C8  UNL     1       5.924  11.294  19.284  1.00  0.00     0.008 C 
BRANCH  16  17
HETATM   17  C9  UNL     1       6.976  10.706  20.119  1.00  0.00     0.028 C 
BRANCH  17  18
HETATM   18  C10 UNL     1       6.654   9.556  20.963  1.00  0.00    -0.024 C 
HETATM   19  C11 UNL     1       7.239   8.384  20.836  1.00  0.00    -0.087 C 
HETATM   20  C12 UNL     1       8.282   8.138  19.822  1.00  0.00     0.043 C 
BRANCH  19  21
HETATM   21  C13 UNL     1       6.822   7.283  21.733  1.00  0.00     0.037 C 
BRANCH  21  22
HETATM   22  C14 UNL     1       5.406   7.292  22.173  1.00  0.00     0.034 C 
BRANCH  22  23
HETATM   23  C15 UNL     1       4.423   6.684  21.279  1.00  0.00     0.005 C 
HETATM   24  C16 UNL     1       3.212   6.419  21.760  1.00  0.00     0.035 C 
HETATM   25  C17 UNL     1       2.859   6.731  23.177  1.00  0.00     0.075 C 
BRANCH  24  26
HETATM   26  O3  UNL     1       2.256   5.837  20.923  1.00  0.00    -0.366 OA
ATOM     27  H3  UNL     1       1.354   6.132  20.972  1.00  0.00     0.217 HD
ENDBRANCH  24  26
ENDBRANCH  22  23
ENDBRANCH  21  22
ENDBRANCH  19  21
ENDBRANCH  17  18
ENDBRANCH  16  17
ENDBRANCH   5  16
BRANCH   1  28
HETATM   28  O2  UNL     1       3.070   6.382  16.132  1.00  0.00    -0.315 OA
BRANCH  28  29
HETATM   29  C2  UNL     1       2.481   5.900  17.267  1.00  0.00     0.255 C 
HETATM   30  C1  UNL     1       1.082   6.202  17.665  1.00  0.00     0.126 C 
HETATM   31  O1  UNL     1       3.163   5.161  18.015  1.00  0.00    -0.266 OA
ENDBRANCH  28  29
ENDBRANCH   1  28
TORSDOF 9
ENDMDL
MODEL 4
REMARK VINA RESULT: -8.152078439      2.356      4.488
REMARK  9 active torsions:
REMARK  status: ('A' for Active; 'I' for Inactive)
REMARK    1  A    between atoms: C2_2  and  O2_4 
REMARK    2  A    between atoms: O2_4  and  C3_5 
REMARK    3  A    between atoms: C7_9  and  C8_10 
REMARK    4  A    between atoms: C8_10  and  C9_11 
REMARK    5  A    between atoms: C9_11  and  C10_12 
REMARK    6  A    between atoms: C11_13  and  C13_15 
REMARK    7  A    between atoms: C13_15  and  C14_16 
REMARK    8  A    between atoms: C14_16  and  C15_17 
REMARK    9  A    between atoms: C16_18  and  O3_20 
ROOT
HETATM    1  C3  UNL     1       3.342  10.374  15.967  1.00  0.00     0.145 A 
HETATM    2  C4  UNL     1       2.927   9.033  16.196  1.00  0.00     0.031 A 
HETATM    3  C5  UNL     1       2.617   8.344  17.516  1.00  0.00    -0.004 C 
HETATM    4  C6  UNL     1       2.385   6.868  17.342  1.00  0.00     0.010 C 
HETATM    5  C7  UNL     1       3.009   5.784  18.076  1.00  0.00    -0.014 C 
HETATM    6  C18 UNL     1       4.346   5.645  18.567  1.00  0.00     0.007 C 
HETATM    7  C19 UNL     1       5.584   5.803  17.645  1.00  0.00     0.041 C 
HETATM    8  C20 UNL     1       5.763   7.311  17.439  1.00  0.00     0.087 A 
HETATM    9  C21 UNL     1       6.320   7.916  16.107  1.00  0.00     0.041 C 
HETATM   10  C22 UNL     1       5.518   9.199  15.728  1.00  0.00     0.015 C 
HETATM   11  C23 UNL     1       4.093   9.101  15.437  1.00  0.00    -0.010 A 
HETATM   12  C24 UNL     1       3.892   8.851  13.905  1.00  0.00     0.018 C 
HETATM   13  O4  UNL     1       4.616   7.519  17.082  1.00  0.00    -0.369 OA
HETATM   14  C25 UNL     1       5.067   8.217  18.181  1.00  0.00     0.157 A 
HETATM   15  C26 UNL     1       3.712   8.623  18.568  1.00  0.00     0.040 C 
ENDROOT
BRANCH   5  16
HETATM   16  C8  UNL     1       2.084   5.460  19.222  1.00  0.00     0.008 C 
BRANCH  16  17
HETATM   17  C9  UNL     1       2.324   5.947  20.584  1.00  0.00     0.028 C 
BRANCH  17  18
HETATM   18  C10 UNL     1       3.700   6.089  21.056  1.00  0.00    -0.024 C 
HETATM   19  C11 UNL     1       4.008   6.541  22.253  1.00  0.00    -0.087 C 
HETATM   20  C12 UNL     1       2.972   6.940  23.226  1.00  0.00     0.043 C 
BRANCH  19  21
HETATM   21  C13 UNL     1       5.436   6.661  22.621  1.00  0.00     0.037 C 
BRANCH  21  22
HETATM   22  C14 UNL     1       6.336   7.231  21.589  1.00  0.00     0.034 C 
BRANCH  22  23
HETATM   23  C15 UNL     1       6.681   8.646  21.707  1.00  0.00     0.005 C 
HETATM   24  C16 UNL     1       7.611   9.139  20.895  1.00  0.00     0.035 C 
HETATM   25  C17 UNL     1       8.292   8.274  19.886  1.00  0.00     0.075 C 
BRANCH  24  26
HETATM   26  O3  UNL     1       7.956  10.489  20.991  1.00  0.00    -0.366 OA
ATOM     27  H3  UNL     1       7.295  11.151  20.821  1.00  0.00     0.217 HD
ENDBRANCH  24  26
ENDBRANCH  22  23
ENDBRANCH  21  22
ENDBRANCH  19  21
ENDBRANCH  17  18
ENDBRANCH  16  17
ENDBRANCH   5  16
BRANCH   1  28
HETATM   28  O2  UNL     1       3.999  11.207  16.874  1.00  0.00    -0.315 OA
BRANCH  28  29
HETATM   29  C2  UNL     1       3.431  12.156  17.677  1.00  0.00     0.255 C 
HETATM   30  C1  UNL     1       3.567  12.178  19.156  1.00  0.00     0.126 C 
HETATM   31  O1  UNL     1       2.757  13.061  17.130  1.00  0.00    -0.266 OA
ENDBRANCH  28  29
ENDBRANCH   1  28
TORSDOF 9
ENDMDL
MODEL 5
REMARK VINA RESULT: -8.143177515      2.336      4.611
REMARK  9 active torsions:
REMARK  status: ('A' for Active; 'I' for Inactive)
REMARK    1  A    between atoms: C2_2  and  O2_4 
REMARK    2  A    between atoms: O2_4  and  C3_5 
REMARK    3  A    between atoms: C7_9  and  C8_10 
REMARK    4  A    between atoms: C8_10  and  C9_11 
REMARK    5  A    between atoms: C9_11  and  C10_12 
REMARK    6  A    between atoms: C11_13  and  C13_15 
REMARK    7  A    between atoms: C13_15  and  C14_16 
REMARK    8  A    between atoms: C14_16  and  C15_17 
REMARK    9  A    between atoms: C16_18  and  O3_20 
ROOT
HETATM    1  C3  UNL     1       3.709   9.994  14.583  1.00  0.00     0.145 A 
HETATM    2  C4  UNL     1       3.207   8.933  15.386  1.00  0.00     0.031 A 
HETATM    3  C5  UNL     1       3.206   8.805  16.902  1.00  0.00    -0.004 C 
HETATM    4  C6  UNL     1       2.742   7.446  17.353  1.00  0.00     0.010 C 
HETATM    5  C7  UNL     1       3.405   6.551  18.282  1.00  0.00    -0.014 C 
HETATM    6  C18 UNL     1       4.796   6.283  18.478  1.00  0.00     0.007 C 
HETATM    7  C19 UNL     1       5.724   5.845  17.314  1.00  0.00     0.041 C 
HETATM    8  C20 UNL     1       6.031   7.119  16.521  1.00  0.00     0.087 A 
HETATM    9  C21 UNL     1       6.253   7.112  14.971  1.00  0.00     0.041 C 
HETATM   10  C22 UNL     1       5.550   8.347  14.327  1.00  0.00     0.015 C 
HETATM   11  C23 UNL     1       4.102   8.483  14.419  1.00  0.00    -0.010 A 
HETATM   12  C24 UNL     1       3.435   7.797  13.180  1.00  0.00     0.018 C 
HETATM   13  O4  UNL     1       4.867   7.454  16.378  1.00  0.00    -0.369 OA
HETATM   14  C25 UNL     1       5.704   8.352  17.002  1.00  0.00     0.157 A 
HETATM   15  C26 UNL     1       4.585   9.158  17.499  1.00  0.00     0.040 C 
ENDROOT
BRANCH   5  16
HETATM   16  C8  UNL     1       2.816   6.840  19.640  1.00  0.00     0.008 C 
BRANCH  16  17
HETATM   17  C9  UNL     1       3.156   6.046  20.825  1.00  0.00     0.028 C 
BRANCH  17  18
HETATM   18  C10 UNL     1       4.320   6.425  21.624  1.00  0.00    -0.024 C 
HETATM   19  C11 UNL     1       4.247   6.728  22.904  1.00  0.00    -0.087 C 
HETATM   20  C12 UNL     1       2.967   6.704  23.639  1.00  0.00     0.043 C 
BRANCH  19  21
HETATM   21  C13 UNL     1       5.486   7.116  23.613  1.00  0.00     0.037 C 
BRANCH  21  22
HETATM   22  C14 UNL     1       6.726   7.152  22.799  1.00  0.00     0.034 C 
BRANCH  22  23
HETATM   23  C15 UNL     1       7.407   8.439  22.672  1.00  0.00     0.005 C 
HETATM   24  C16 UNL     1       7.751   8.854  21.457  1.00  0.00     0.035 C 
HETATM   25  C17 UNL     1       7.452   8.030  20.247  1.00  0.00     0.075 C 
BRANCH  24  26
HETATM   26  O3  UNL     1       8.402  10.081  21.312  1.00  0.00    -0.366 OA
ATOM     27  H3  UNL     1       8.812  10.295  20.482  1.00  0.00     0.217 HD
ENDBRANCH  24  26
ENDBRANCH  22  23
ENDBRANCH  21  22
ENDBRANCH  19  21
ENDBRANCH  17  18
ENDBRANCH  16  17
ENDBRANCH   5  16
BRANCH   1  28
HETATM   28  O2  UNL     1       4.704  10.908  14.940  1.00  0.00    -0.315 OA
BRANCH  28  29
HETATM   29  C2  UNL     1       4.603  12.270  14.945  1.00  0.00     0.255 C 
HETATM   30  C1  UNL     1       3.316  13.005  14.840  1.00  0.00     0.126 C 
HETATM   31  O1  UNL     1       5.660  12.938  15.043  1.00  0.00    -0.266 OA
ENDBRANCH  28  29
ENDBRANCH   1  28
TORSDOF 9
ENDMDL
