MODEL 1
REMARK VINA RESULT: -5.916387565      0.000      0.000
REMARK  4 active torsions:
REMARK  status: ('A' for Active; 'I' for Inactive)
REMARK    1  A    between atoms: C2_2  and  O2_4 
REMARK    2  A    between atoms: O2_4  and  C3_5 
REMARK    3  A    between atoms: C5_7  and  O3_9 
REMARK    4  A    between atoms: C8_12  and  O4_13 
ROOT
HETATM    1  C3  UNL     1       2.213  55.868  51.430  1.00  0.00     0.163 C 
HETATM    2  C4  UNL     1       1.474  57.145  51.320  1.00  0.00     0.074 C 
HETATM    3  C5  UNL     1       2.011  58.383  51.968  1.00  0.00     0.059 C 
HETATM    4  C6  UNL     1       1.014  58.710  53.119  1.00  0.00     0.046 C 
HETATM    5  C7  UNL     1       1.921  59.626  51.105  1.00  0.00     0.069 C 
HETATM    6  C8  UNL     1       3.294  60.163  50.650  1.00  0.00     0.121 C 
HETATM    7  C9  UNL     1       3.624  59.282  49.509  1.00  0.00     0.040 C 
HETATM    8  C10 UNL     1       4.926  59.139  48.908  1.00  0.00    -0.045 C 
HETATM    9  C11 UNL     1       5.867  60.314  49.057  1.00  0.00     0.015 C 
HETATM   10  C12 UNL     1       4.779  58.950  47.384  1.00  0.00     0.015 C 
HETATM   11  C13 UNL     1       5.605  57.870  49.379  1.00  0.00     0.012 C 
HETATM   12  C14 UNL     1       4.735  56.675  49.576  1.00  0.00     0.028 C 
HETATM   13  C15 UNL     1       4.681  56.207  50.997  1.00  0.00    -0.022 C 
HETATM   14  C16 UNL     1       3.660  55.879  51.749  1.00  0.00    -0.058 C 
HETATM   15  C17 UNL     1       4.025  55.417  53.156  1.00  0.00     0.046 C 
ENDROOT
BRANCH   1  16
HETATM   16  O2  UNL     1       1.967  55.038  50.278  1.00  0.00    -0.312 OA
BRANCH  16  17
HETATM   17  C2  UNL     1       1.870  53.677  50.293  1.00  0.00     0.255 C 
HETATM   18  C1  UNL     1       2.993  52.899  49.719  1.00  0.00     0.126 C 
HETATM   19  O1  UNL     1       0.835  53.185  50.793  1.00  0.00    -0.266 OA
ENDBRANCH  16  17
ENDBRANCH   1  16
BRANCH   3  20
HETATM   20  O3  UNL     1       3.199  58.280  52.631  1.00  0.00    -0.390 OA
ATOM     21  H3  UNL     1       3.237  58.624  53.515  1.00  0.00     0.210 HD
ENDBRANCH   3  20
BRANCH   6  22
HETATM   22  O4  UNL     1       4.153  60.244  51.691  1.00  0.00    -0.395 OA
ATOM     23  H4  UNL     1       5.031  60.452  51.394  1.00  0.00     0.210 HD
ENDBRANCH   6  22
TORSDOF 4
ENDMDL
MODEL 2
REMARK VINA RESULT: -5.244557259      1.919      2.596
REMARK  4 active torsions:
REMARK  status: ('A' for Active; 'I' for Inactive)
REMARK    1  A    between atoms: C2_2  and  O2_4 
REMARK    2  A    between atoms: O2_4  and  C3_5 
REMARK    3  A    between atoms: C5_7  and  O3_9 
REMARK    4  A    between atoms: C8_12  and  O4_13 
ROOT
HETATM    1  C3  UNL     1       4.006  54.258  50.508  1.00  0.00     0.163 C 
HETATM    2  C4  UNL     1       2.658  54.776  50.827  1.00  0.00     0.074 C 
HETATM    3  C5  UNL     1       2.469  55.733  51.963  1.00  0.00     0.059 C 
HETATM    4  C6  UNL     1       1.657  54.945  53.033  1.00  0.00     0.046 C 
HETATM    5  C7  UNL     1       1.546  56.894  51.652  1.00  0.00     0.069 C 
HETATM    6  C8  UNL     1       2.264  58.258  51.598  1.00  0.00     0.121 C 
HETATM    7  C9  UNL     1       2.866  58.254  50.246  1.00  0.00     0.040 C 
HETATM    8  C10 UNL     1       3.900  59.145  49.784  1.00  0.00    -0.045 C 
HETATM    9  C11 UNL     1       3.995  60.482  50.485  1.00  0.00     0.015 C 
HETATM   10  C12 UNL     1       3.660  59.498  48.303  1.00  0.00     0.015 C 
HETATM   11  C13 UNL     1       5.250  58.460  49.793  1.00  0.00     0.012 C 
HETATM   12  C14 UNL     1       5.276  57.020  49.408  1.00  0.00     0.028 C 
HETATM   13  C15 UNL     1       5.720  56.116  50.517  1.00  0.00    -0.022 C 
HETATM   14  C16 UNL     1       5.207  54.997  50.963  1.00  0.00    -0.058 C 
HETATM   15  C17 UNL     1       5.981  54.351  52.107  1.00  0.00     0.046 C 
ENDROOT
BRANCH   1  16
HETATM   16  O2  UNL     1       4.115  53.955  49.104  1.00  0.00    -0.312 OA
BRANCH  16  17
HETATM   17  C2  UNL     1       5.047  53.128  48.545  1.00  0.00     0.255 C 
HETATM   18  C1  UNL     1       5.924  53.690  47.491  1.00  0.00     0.126 C 
HETATM   19  O1  UNL     1       5.090  51.952  48.967  1.00  0.00    -0.266 OA
ENDBRANCH  16  17
ENDBRANCH   1  16
BRANCH   3  20
HETATM   20  O3  UNL     1       3.581  56.108  52.659  1.00  0.00    -0.390 OA
ATOM     21  H3  UNL     1       3.750  57.039  52.742  1.00  0.00     0.210 HD
ENDBRANCH   3  20
BRANCH   6  22
HETATM   22  O4  UNL     1       3.064  58.429  52.675  1.00  0.00    -0.395 OA
ATOM     23  H4  UNL     1       3.344  59.333  52.752  1.00  0.00     0.210 HD
ENDBRANCH   6  22
TORSDOF 4
ENDMDL
MODEL 3
REMARK VINA RESULT: -5.217334140      2.862      5.984
REMARK  4 active torsions:
REMARK  status: ('A' for Active; 'I' for Inactive)
REMARK    1  A    between atoms: C2_2  and  O2_4 
REMARK    2  A    between atoms: O2_4  and  C3_5 
REMARK    3  A    between atoms: C5_7  and  O3_9 
REMARK    4  A    between atoms: C8_12  and  O4_13 
ROOT
HETATM    1  C3  UNL     1       1.406  57.620  55.995  1.00  0.00     0.163 C 
HETATM    2  C4  UNL     1       2.638  56.805  55.915  1.00  0.00     0.074 C 
HETATM    3  C5  UNL     1       2.631  55.501  55.180  1.00  0.00     0.059 C 
HETATM    4  C6  UNL     1       2.815  54.410  56.277  1.00  0.00     0.046 C 
HETATM    5  C7  UNL     1       3.844  55.276  54.299  1.00  0.00     0.069 C 
HETATM    6  C8  UNL     1       3.522  55.278  52.791  1.00  0.00     0.121 C 
HETATM    7  C9  UNL     1       3.447  56.722  52.478  1.00  0.00     0.040 C 
HETATM    8  C10 UNL     1       2.873  57.295  51.287  1.00  0.00    -0.045 C 
HETATM    9  C11 UNL     1       2.848  56.408  50.062  1.00  0.00     0.015 C 
HETATM   10  C12 UNL     1       3.691  58.530  50.856  1.00  0.00     0.015 C 
HETATM   11  C13 UNL     1       1.487  57.839  51.560  1.00  0.00     0.012 C 
HETATM   12  C14 UNL     1       1.269  58.489  52.884  1.00  0.00     0.028 C 
HETATM   13  C15 UNL     1       0.271  57.773  53.741  1.00  0.00    -0.022 C 
HETATM   14  C16 UNL     1       0.325  57.421  55.001  1.00  0.00    -0.058 C 
HETATM   15  C17 UNL     1      -0.925  56.723  55.523  1.00  0.00     0.046 C 
ENDROOT
BRANCH   1  16
HETATM   16  O2  UNL     1       1.729  59.020  56.100  1.00  0.00    -0.312 OA
BRANCH  16  17
HETATM   17  C2  UNL     1       0.962  59.962  56.723  1.00  0.00     0.255 C 
HETATM   18  C1  UNL     1       0.167  60.878  55.871  1.00  0.00     0.126 C 
HETATM   19  O1  UNL     1       0.988  59.981  57.972  1.00  0.00    -0.266 OA
ENDBRANCH  16  17
ENDBRANCH   1  16
BRANCH   3  20
HETATM   20  O3  UNL     1       1.464  55.122  54.584  1.00  0.00    -0.390 OA
ATOM     21  H3  UNL     1       1.491  54.366  54.011  1.00  0.00     0.210 HD
ENDBRANCH   3  20
BRANCH   6  22
HETATM   22  O4  UNL     1       2.458  54.489  52.520  1.00  0.00    -0.395 OA
ATOM     23  H4  UNL     1       2.674  53.838  51.863  1.00  0.00     0.210 HD
ENDBRANCH   6  22
TORSDOF 4
ENDMDL
MODEL 4
REMARK VINA RESULT: -5.189166094      1.656      4.328
REMARK  4 active torsions:
REMARK  status: ('A' for Active; 'I' for Inactive)
REMARK    1  A    between atoms: C2_2  and  O2_4 
REMARK    2  A    between atoms: O2_4  and  C3_5 
REMARK    3  A    between atoms: C5_7  and  O3_9 
REMARK    4  A    between atoms: C8_12  and  O4_13 
ROOT
HETATM    1  C3  UNL     1       2.892  56.270  52.877  1.00  0.00     0.163 C 
HETATM    2  C4  UNL     1       4.205  55.693  52.516  1.00  0.00     0.074 C 
HETATM    3  C5  UNL     1       4.409  55.075  51.167  1.00  0.00     0.059 C 
HETATM    4  C6  UNL     1       4.598  53.552  51.438  1.00  0.00     0.046 C 
HETATM    5  C7  UNL     1       5.720  55.446  50.504  1.00  0.00     0.069 C 
HETATM    6  C8  UNL     1       5.551  56.329  49.252  1.00  0.00     0.121 C 
HETATM    7  C9  UNL     1       5.355  57.677  49.829  1.00  0.00     0.040 C 
HETATM    8  C10 UNL     1       4.844  58.826  49.126  1.00  0.00    -0.045 C 
HETATM    9  C11 UNL     1       5.034  58.833  47.625  1.00  0.00     0.015 C 
HETATM   10  C12 UNL     1       5.565  60.099  49.615  1.00  0.00     0.015 C 
HETATM   11  C13 UNL     1       3.388  59.066  49.463  1.00  0.00     0.012 C 
HETATM   12  C14 UNL     1       2.972  58.803  50.870  1.00  0.00     0.028 C 
HETATM   13  C15 UNL     1       1.976  57.693  50.999  1.00  0.00    -0.022 C 
HETATM   14  C16 UNL     1       1.941  56.667  51.811  1.00  0.00    -0.058 C 
HETATM   15  C17 UNL     1       0.726  55.760  51.646  1.00  0.00     0.046 C 
ENDROOT
BRANCH   1  16
HETATM   16  O2  UNL     1       3.052  57.346  53.821  1.00  0.00    -0.312 OA
BRANCH  16  17
HETATM   17  C2  UNL     1       2.302  57.526  54.947  1.00  0.00     0.255 C 
HETATM   18  C1  UNL     1       1.201  58.516  54.891  1.00  0.00     0.126 C 
HETATM   19  O1  UNL     1       2.602  56.839  55.947  1.00  0.00    -0.266 OA
ENDBRANCH  16  17
ENDBRANCH   1  16
BRANCH   3  20
HETATM   20  O3  UNL     1       3.353  55.088  50.304  1.00  0.00    -0.390 OA
ATOM     21  H3  UNL     1       3.338  54.428  49.622  1.00  0.00     0.210 HD
ENDBRANCH   3  20
BRANCH   6  22
HETATM   22  O4  UNL     1       4.608  55.823  48.424  1.00  0.00    -0.395 OA
ATOM     23  H4  UNL     1       3.983  55.292  48.902  1.00  0.00     0.210 HD
ENDBRANCH   6  22
TORSDOF 4
ENDMDL
MODEL 5
REMARK VINA RESULT: -5.120257134      4.956      7.627
REMARK  4 active torsions:
REMARK  status: ('A' for Active; 'I' for Inactive)
REMARK    1  A    between atoms: C2_2  and  O2_4 
REMARK    2  A    between atoms: O2_4  and  C3_5 
REMARK    3  A    between atoms: C5_7  and  O3_9 
REMARK    4  A    between atoms: C8_12  and  O4_13 
ROOT
HETATM    1  C3  UNL     1       6.067  54.627  44.623  1.00  0.00     0.163 C 
HETATM    2  C4  UNL     1       6.167  53.279  45.223  1.00  0.00     0.074 C 
HETATM    3  C5  UNL     1       7.273  52.962  46.182  1.00  0.00     0.059 C 
HETATM    4  C6  UNL     1       8.179  51.935  45.439  1.00  0.00     0.046 C 
HETATM    5  C7  UNL     1       6.835  52.177  47.402  1.00  0.00     0.069 C 
HETATM    6  C8  UNL     1       6.926  52.978  48.717  1.00  0.00     0.121 C 
HETATM    7  C9  UNL     1       5.694  53.795  48.685  1.00  0.00     0.040 C 
HETATM    8  C10 UNL     1       5.427  54.945  49.512  1.00  0.00    -0.045 C 
HETATM    9  C11 UNL     1       6.158  55.004  50.835  1.00  0.00     0.015 C 
HETATM   10  C12 UNL     1       3.933  54.978  49.892  1.00  0.00     0.015 C 
HETATM   11  C13 UNL     1       5.647  56.230  48.743  1.00  0.00     0.012 C 
HETATM   12  C14 UNL     1       5.246  56.231  47.307  1.00  0.00     0.028 C 
HETATM   13  C15 UNL     1       6.396  56.426  46.368  1.00  0.00    -0.022 C 
HETATM   14  C16 UNL     1       6.729  55.778  45.280  1.00  0.00    -0.058 C 
HETATM   15  C17 UNL     1       7.974  56.308  44.577  1.00  0.00     0.046 C 
ENDROOT
BRANCH   1  16
HETATM   16  O2  UNL     1       4.695  54.950  44.324  1.00  0.00    -0.312 OA
BRANCH  16  17
HETATM   17  C2  UNL     1       4.267  55.624  43.218  1.00  0.00     0.255 C 
HETATM   18  C1  UNL     1       4.837  55.233  41.907  1.00  0.00     0.126 C 
HETATM   19  O1  UNL     1       3.421  56.528  43.394  1.00  0.00    -0.266 OA
ENDBRANCH  16  17
ENDBRANCH   1  16
BRANCH   3  20
HETATM   20  O3  UNL     1       8.151  53.963  46.480  1.00  0.00    -0.390 OA
ATOM     21  H3  UNL     1       8.335  54.124  47.397  1.00  0.00     0.210 HD
ENDBRANCH   3  20
BRANCH   6  22
HETATM   22  O4  UNL     1       8.125  53.595  48.828  1.00  0.00    -0.395 OA
ATOM     23  H4  UNL     1       8.836  52.996  48.638  1.00  0.00     0.210 HD
ENDBRANCH   6  22
TORSDOF 4
ENDMDL
