MODEL 1
REMARK VINA RESULT: -8.281393365      0.000      0.000
REMARK  9 active torsions:
REMARK  status: ('A' for Active; 'I' for Inactive)
REMARK    1  A    between atoms: C2_2  and  O2_4 
REMARK    2  A    between atoms: O2_4  and  C3_5 
REMARK    3  A    between atoms: C5_7  and  O3_8 
REMARK    4  A    between atoms: C7_11  and  O4_12 
REMARK    5  A    between atoms: C8_14  and  C10_16 
REMARK    6  A    between atoms: C10_16  and  O5_17 
REMARK    7  A    between atoms: C11_20  and  C12_21 
REMARK    8  A    between atoms: C22_32  and  O7_34 
REMARK    9  A    between atoms: O7_34  and  C24_35 
ROOT
HETATM    1  C3  UNL     1      16.691 -15.697  14.617  1.00  0.00     0.068 C 
HETATM    2  C4  UNL     1      17.791 -16.375  14.517  1.00  0.00     0.066 C 
HETATM    3  C5  UNL     1      19.079 -16.363  13.889  1.00  0.00     0.055 C 
HETATM    4  C6  UNL     1      19.566 -16.391  12.526  1.00  0.00     0.110 A 
HETATM    5  C7  UNL     1      20.995 -15.919  12.309  1.00  0.00     0.167 A 
HETATM    6  C8  UNL     1      21.032 -15.086  11.063  1.00  0.00     0.106 A 
HETATM    7  C9  UNL     1      21.651 -13.734  11.506  1.00  0.00     0.051 C 
HETATM    8  O6  UNL     1      19.753 -15.011  10.636  1.00  0.00    -0.362 OA
HETATM    9  C11 UNL     1      18.897 -15.808  11.378  1.00  0.00     0.091 A 
HETATM   10  C14 UNL     1      17.572 -15.110  11.616  1.00  0.00     0.053 C 
HETATM   11  C15 UNL     1      17.311 -13.811  12.062  1.00  0.00    -0.001 A 
HETATM   12  C16 UNL     1      18.155 -13.081  12.922  1.00  0.00     0.019 A 
HETATM   13  C17 UNL     1      16.907 -13.426  13.445  1.00  0.00     0.013 A 
HETATM   14  C18 UNL     1      16.151 -14.441  14.077  1.00  0.00     0.010 C 
HETATM   15  C19 UNL     1      15.439 -13.731  15.290  1.00  0.00     0.023 C 
HETATM   16  C20 UNL     1      14.928 -14.695  13.167  1.00  0.00     0.019 C 
HETATM   17  C21 UNL     1      14.940 -14.070  11.843  1.00  0.00     0.040 C 
HETATM   18  C22 UNL     1      16.046 -13.211  11.370  1.00  0.00     0.075 C 
HETATM   19  C23 UNL     1      15.901 -11.757  11.521  1.00  0.00     0.047 C 
ENDROOT
BRANCH  18  20
HETATM   20  O7  UNL     1      16.322 -13.430   9.971  1.00  0.00    -0.310 OA
BRANCH  20  21
HETATM   21  C24 UNL     1      15.939 -12.564   8.973  1.00  0.00     0.255 C 
HETATM   22  C25 UNL     1      14.510 -12.486   8.498  1.00  0.00     0.126 C 
HETATM   23  O8  UNL     1      16.830 -11.839   8.470  1.00  0.00    -0.266 OA
ENDBRANCH  20  21
ENDBRANCH  18  20
BRANCH   9  24
HETATM   24  C12 UNL     1      18.486 -16.997  10.455  1.00  0.00     0.113 C 
HETATM   25  C13 UNL     1      17.567 -17.978  11.199  1.00  0.00     0.030 C 
HETATM   26 CL1  UNL     1      19.843 -18.061  10.066  1.00  0.00    -0.122 Cl
ENDBRANCH   9  24
BRANCH   1  27
HETATM   27  O2  UNL     1      15.690 -16.326  15.495  1.00  0.00    -0.283 OA
BRANCH  27  28
HETATM   28  C2  UNL     1      16.139 -16.640  16.765  1.00  0.00     0.259 C 
HETATM   29  C1  UNL     1      15.615 -15.950  17.983  1.00  0.00     0.126 C 
HETATM   30  O1  UNL     1      17.010 -17.515  16.989  1.00  0.00    -0.265 OA
ENDBRANCH  27  28
ENDBRANCH   1  27
BRANCH   3  31
HETATM   31  O3  UNL     1      20.113 -16.323  14.696  1.00  0.00    -0.364 OA
ATOM     32  H3  UNL     1      20.820 -16.927  14.499  1.00  0.00     0.217 HD
ENDBRANCH   3  31
BRANCH   5  33
HETATM   33  O4  UNL     1      21.571 -15.284  13.398  1.00  0.00    -0.392 OA
ATOM     34  H4  UNL     1      21.788 -14.369  13.259  1.00  0.00     0.210 HD
ENDBRANCH   5  33
BRANCH   6  35
HETATM   35  C10 UNL     1      22.074 -15.461  10.027  1.00  0.00     0.204 C 
BRANCH  35  36
HETATM   36  O5  UNL     1      23.355 -15.594  10.571  1.00  0.00    -0.398 OA
ATOM     37  H5  UNL     1      23.347 -15.985  11.437  1.00  0.00     0.209 HD
ENDBRANCH  35  36
ENDBRANCH   6  35
TORSDOF 9
ENDMDL
MODEL 2
REMARK VINA RESULT: -8.249831800      1.709      2.262
REMARK  9 active torsions:
REMARK  status: ('A' for Active; 'I' for Inactive)
REMARK    1  A    between atoms: C2_2  and  O2_4 
REMARK    2  A    between atoms: O2_4  and  C3_5 
REMARK    3  A    between atoms: C5_7  and  O3_8 
REMARK    4  A    between atoms: C7_11  and  O4_12 
REMARK    5  A    between atoms: C8_14  and  C10_16 
REMARK    6  A    between atoms: C10_16  and  O5_17 
REMARK    7  A    between atoms: C11_20  and  C12_21 
REMARK    8  A    between atoms: C22_32  and  O7_34 
REMARK    9  A    between atoms: O7_34  and  C24_35 
ROOT
HETATM    1  C3  UNL     1      17.141 -13.767  14.136  1.00  0.00     0.068 C 
HETATM    2  C4  UNL     1      17.885 -14.826  14.199  1.00  0.00     0.066 C 
HETATM    3  C5  UNL     1      19.136 -15.364  13.752  1.00  0.00     0.055 C 
HETATM    4  C6  UNL     1      19.728 -15.677  12.469  1.00  0.00     0.110 A 
HETATM    5  C7  UNL     1      21.241 -15.818  12.439  1.00  0.00     0.167 A 
HETATM    6  C8  UNL     1      21.752 -15.157  11.194  1.00  0.00     0.106 A 
HETATM    7  C9  UNL     1      22.799 -14.127  11.690  1.00  0.00     0.051 C 
HETATM    8  O6  UNL     1      20.666 -14.619  10.595  1.00  0.00    -0.362 OA
HETATM    9  C11 UNL     1      19.484 -14.963  11.229  1.00  0.00     0.091 A 
HETATM   10  C14 UNL     1      18.527 -13.788  11.271  1.00  0.00     0.053 C 
HETATM   11  C15 UNL     1      18.752 -12.462  11.652  1.00  0.00    -0.001 A 
HETATM   12  C16 UNL     1      19.710 -12.060  12.605  1.00  0.00     0.019 A 
HETATM   13  C17 UNL     1      18.375 -11.851  12.961  1.00  0.00     0.013 A 
HETATM   14  C18 UNL     1      17.211 -12.443  13.503  1.00  0.00     0.010 C 
HETATM   15  C19 UNL     1      16.701 -11.427  14.595  1.00  0.00     0.023 C 
HETATM   16  C20 UNL     1      16.102 -12.263  12.441  1.00  0.00     0.019 C 
HETATM   17  C21 UNL     1      16.516 -11.789  11.119  1.00  0.00     0.040 C 
HETATM   18  C22 UNL     1      17.919 -11.467  10.784  1.00  0.00     0.075 C 
HETATM   19  C23 UNL     1      18.346 -10.065  10.886  1.00  0.00     0.047 C 
ENDROOT
BRANCH  18  20
HETATM   20  O7  UNL     1      18.248 -11.875   9.440  1.00  0.00    -0.310 OA
BRANCH  20  21
HETATM   21  C24 UNL     1      18.313 -11.009   8.373  1.00  0.00     0.255 C 
HETATM   22  C25 UNL     1      19.613 -10.376   7.946  1.00  0.00     0.126 C 
HETATM   23  O8  UNL     1      17.243 -10.763   7.768  1.00  0.00    -0.266 OA
ENDBRANCH  20  21
ENDBRANCH  18  20
BRANCH   9  24
HETATM   24  C12 UNL     1      18.747 -15.960  10.282  1.00  0.00     0.113 C 
HETATM   25  C13 UNL     1      17.250 -15.625  10.191  1.00  0.00     0.030 C 
HETATM   26 CL1  UNL     1      18.669 -17.598  10.940  1.00  0.00    -0.122 Cl
ENDBRANCH   9  24
BRANCH   1  27
HETATM   27  O2  UNL     1      15.876 -13.891  14.882  1.00  0.00    -0.283 OA
BRANCH  27  28
HETATM   28  C2  UNL     1      15.177 -15.063  14.657  1.00  0.00     0.259 C 
HETATM   29  C1  UNL     1      15.029 -16.112  15.712  1.00  0.00     0.126 C 
HETATM   30  O1  UNL     1      14.620 -15.333  13.565  1.00  0.00    -0.265 OA
ENDBRANCH  27  28
ENDBRANCH   1  27
BRANCH   3  31
HETATM   31  O3  UNL     1      19.999 -15.674  14.691  1.00  0.00    -0.364 OA
ATOM     32  H3  UNL     1      20.795 -16.104  14.401  1.00  0.00     0.217 HD
ENDBRANCH   3  31
BRANCH   5  33
HETATM   33  O4  UNL     1      21.891 -15.382  13.583  1.00  0.00    -0.392 OA
ATOM     34  H4  UNL     1      22.746 -15.770  13.731  1.00  0.00     0.210 HD
ENDBRANCH   5  33
BRANCH   6  35
HETATM   35  C10 UNL     1      22.672 -15.982  10.316  1.00  0.00     0.204 C 
BRANCH  35  36
HETATM   36  O5  UNL     1      24.017 -15.626  10.457  1.00  0.00    -0.398 OA
ATOM     37  H5  UNL     1      24.610 -16.316  10.182  1.00  0.00     0.209 HD
ENDBRANCH  35  36
ENDBRANCH   6  35
TORSDOF 9
ENDMDL
MODEL 3
REMARK VINA RESULT: -7.635251085      2.100      5.822
REMARK  9 active torsions:
REMARK  status: ('A' for Active; 'I' for Inactive)
REMARK    1  A    between atoms: C2_2  and  O2_4 
REMARK    2  A    between atoms: O2_4  and  C3_5 
REMARK    3  A    between atoms: C5_7  and  O3_8 
REMARK    4  A    between atoms: C7_11  and  O4_12 
REMARK    5  A    between atoms: C8_14  and  C10_16 
REMARK    6  A    between atoms: C10_16  and  O5_17 
REMARK    7  A    between atoms: C11_20  and  C12_21 
REMARK    8  A    between atoms: C22_32  and  O7_34 
REMARK    9  A    between atoms: O7_34  and  C24_35 
ROOT
HETATM    1  C3  UNL     1      14.114 -13.302  11.672  1.00  0.00     0.068 C 
HETATM    2  C4  UNL     1      15.237 -13.197  11.034  1.00  0.00     0.066 C 
HETATM    3  C5  UNL     1      16.547 -13.770  10.938  1.00  0.00     0.055 C 
HETATM    4  C6  UNL     1      17.681 -13.915  11.827  1.00  0.00     0.110 A 
HETATM    5  C7  UNL     1      18.702 -14.977  11.452  1.00  0.00     0.167 A 
HETATM    6  C8  UNL     1      19.124 -15.687  12.703  1.00  0.00     0.106 A 
HETATM    7  C9  UNL     1      18.855 -17.187  12.420  1.00  0.00     0.051 C 
HETATM    8  O6  UNL     1      18.378 -15.153  13.695  1.00  0.00    -0.362 OA
HETATM    9  C11 UNL     1      17.610 -14.083  13.266  1.00  0.00     0.091 A 
HETATM   10  C14 UNL     1      16.235 -14.109  13.904  1.00  0.00     0.053 C 
HETATM   11  C15 UNL     1      15.324 -15.162  14.027  1.00  0.00    -0.001 A 
HETATM   12  C16 UNL     1      15.214 -16.230  13.114  1.00  0.00     0.019 A 
HETATM   13  C17 UNL     1      14.112 -15.374  13.183  1.00  0.00     0.013 A 
HETATM   14  C18 UNL     1      13.560 -14.151  12.735  1.00  0.00     0.010 C 
HETATM   15  C19 UNL     1      12.095 -14.505  12.272  1.00  0.00     0.023 C 
HETATM   16  C20 UNL     1      13.242 -13.333  14.008  1.00  0.00     0.019 C 
HETATM   17  C21 UNL     1      13.764 -13.842  15.276  1.00  0.00     0.040 C 
HETATM   18  C22 UNL     1      14.547 -15.092  15.379  1.00  0.00     0.075 C 
HETATM   19  C23 UNL     1      13.831 -16.325  15.736  1.00  0.00     0.047 C 
ENDROOT
BRANCH  18  20
HETATM   20  O7  UNL     1      15.611 -14.969  16.345  1.00  0.00    -0.310 OA
BRANCH  20  21
HETATM   21  C24 UNL     1      16.148 -16.035  17.030  1.00  0.00     0.255 C 
HETATM   22  C25 UNL     1      17.089 -17.009  16.368  1.00  0.00     0.126 C 
HETATM   23  O8  UNL     1      15.820 -16.167  18.234  1.00  0.00    -0.266 OA
ENDBRANCH  20  21
ENDBRANCH  18  20
BRANCH   9  24
HETATM   24  C12 UNL     1      18.245 -12.803  13.893  1.00  0.00     0.113 C 
HETATM   25  C13 UNL     1      17.167 -11.913  14.531  1.00  0.00     0.030 C 
HETATM   26 CL1  UNL     1      18.896 -11.697  12.678  1.00  0.00    -0.122 Cl
ENDBRANCH   9  24
BRANCH   1  27
HETATM   27  O2  UNL     1      13.102 -12.320  11.248  1.00  0.00    -0.283 OA
BRANCH  27  28
HETATM   28  C2  UNL     1      12.980 -12.159   9.880  1.00  0.00     0.259 C 
HETATM   29  C1  UNL     1      13.453 -10.925   9.181  1.00  0.00     0.126 C 
HETATM   30  O1  UNL     1      12.467 -13.024   9.129  1.00  0.00    -0.265 OA
ENDBRANCH  27  28
ENDBRANCH   1  27
BRANCH   3  31
HETATM   31  O3  UNL     1      16.858 -14.308   9.782  1.00  0.00    -0.364 OA
ATOM     32  H3  UNL     1      17.742 -14.149   9.471  1.00  0.00     0.217 HD
ENDBRANCH   3  31
BRANCH   5  33
HETATM   33  O4  UNL     1      18.299 -15.847  10.451  1.00  0.00    -0.392 OA
ATOM     34  H4  UNL     1      19.005 -16.227   9.942  1.00  0.00     0.210 HD
ENDBRANCH   5  33
BRANCH   6  35
HETATM   35  C10 UNL     1      20.616 -15.787  12.956  1.00  0.00     0.204 C 
BRANCH  35  36
HETATM   36  O5  UNL     1      21.328 -14.703  12.433  1.00  0.00    -0.398 OA
ATOM     37  H5  UNL     1      22.167 -14.574  12.859  1.00  0.00     0.209 HD
ENDBRANCH  35  36
ENDBRANCH   6  35
TORSDOF 9
ENDMDL
MODEL 4
REMARK VINA RESULT: -7.459191927      2.248      5.454
REMARK  9 active torsions:
REMARK  status: ('A' for Active; 'I' for Inactive)
REMARK    1  A    between atoms: C2_2  and  O2_4 
REMARK    2  A    between atoms: O2_4  and  C3_5 
REMARK    3  A    between atoms: C5_7  and  O3_8 
REMARK    4  A    between atoms: C7_11  and  O4_12 
REMARK    5  A    between atoms: C8_14  and  C10_16 
REMARK    6  A    between atoms: C10_16  and  O5_17 
REMARK    7  A    between atoms: C11_20  and  C12_21 
REMARK    8  A    between atoms: C22_32  and  O7_34 
REMARK    9  A    between atoms: O7_34  and  C24_35 
ROOT
HETATM    1  C3  UNL     1      15.535 -15.652  13.680  1.00  0.00     0.068 C 
HETATM    2  C4  UNL     1      14.652 -14.759  13.361  1.00  0.00     0.066 C 
HETATM    3  C5  UNL     1      14.381 -13.717  12.416  1.00  0.00     0.055 C 
HETATM    4  C6  UNL     1      15.001 -12.458  12.059  1.00  0.00     0.110 A 
HETATM    5  C7  UNL     1      14.631 -11.883  10.700  1.00  0.00     0.167 A 
HETATM    6  C8  UNL     1      15.873 -11.328  10.070  1.00  0.00     0.106 A 
HETATM    7  C9  UNL     1      15.972 -12.037   8.694  1.00  0.00     0.051 C 
HETATM    8  O6  UNL     1      16.877 -11.612  10.928  1.00  0.00    -0.362 OA
HETATM    9  C11 UNL     1      16.422 -12.171  12.112  1.00  0.00     0.091 A 
HETATM   10  C14 UNL     1      17.346 -13.277  12.581  1.00  0.00     0.053 C 
HETATM   11  C15 UNL     1      17.885 -14.356  11.874  1.00  0.00    -0.001 A 
HETATM   12  C16 UNL     1      17.259 -14.979  10.776  1.00  0.00     0.019 A 
HETATM   13  C17 UNL     1      17.399 -15.765  11.923  1.00  0.00     0.013 A 
HETATM   14  C18 UNL     1      16.846 -16.090  13.184  1.00  0.00     0.010 C 
HETATM   15  C19 UNL     1      16.809 -17.665  13.225  1.00  0.00     0.023 C 
HETATM   16  C20 UNL     1      17.962 -15.827  14.221  1.00  0.00     0.019 C 
HETATM   17  C21 UNL     1      19.157 -15.124  13.752  1.00  0.00     0.040 C 
HETATM   18  C22 UNL     1      19.334 -14.687  12.351  1.00  0.00     0.075 C 
HETATM   19  C23 UNL     1      20.088 -15.566  11.447  1.00  0.00     0.047 C 
ENDROOT
BRANCH  18  20
HETATM   20  O7  UNL     1      19.988 -13.403  12.278  1.00  0.00    -0.310 OA
BRANCH  20  21
HETATM   21  C24 UNL     1      20.930 -13.079  11.329  1.00  0.00     0.255 C 
HETATM   22  C25 UNL     1      20.555 -12.384  10.046  1.00  0.00     0.126 C 
HETATM   23  O8  UNL     1      22.121 -13.388  11.575  1.00  0.00    -0.266 OA
ENDBRANCH  20  21
ENDBRANCH  18  20
BRANCH   9  24
HETATM   24  C12 UNL     1      16.614 -11.085  13.216  1.00  0.00     0.113 C 
HETATM   25  C13 UNL     1      17.952 -10.352  13.038  1.00  0.00     0.030 C 
HETATM   26 CL1  UNL     1      16.838 -11.779  14.826  1.00  0.00    -0.122 Cl
ENDBRANCH   9  24
BRANCH   1  27
HETATM   27  O2  UNL     1      15.158 -16.458  14.854  1.00  0.00    -0.283 OA
BRANCH  27  28
HETATM   28  C2  UNL     1      15.178 -15.781  16.060  1.00  0.00     0.259 C 
HETATM   29  C1  UNL     1      15.875 -16.326  17.264  1.00  0.00     0.126 C 
HETATM   30  O1  UNL     1      14.618 -14.671  16.234  1.00  0.00    -0.265 OA
ENDBRANCH  27  28
ENDBRANCH   1  27
BRANCH   3  31
HETATM   31  O3  UNL     1      13.321 -13.883  11.661  1.00  0.00    -0.364 OA
ATOM     32  H3  UNL     1      12.502 -13.553  12.013  1.00  0.00     0.217 HD
ENDBRANCH   3  31
BRANCH   5  33
HETATM   33  O4  UNL     1      13.948 -12.754   9.865  1.00  0.00    -0.392 OA
ATOM     34  H4  UNL     1      14.500 -13.325   9.344  1.00  0.00     0.210 HD
ENDBRANCH   5  33
BRANCH   6  35
HETATM   35  C10 UNL     1      15.797  -9.901   9.563  1.00  0.00     0.204 C 
BRANCH  35  36
HETATM   36  O5  UNL     1      17.006  -9.212   9.701  1.00  0.00    -0.398 OA
ATOM     37  H5  UNL     1      17.169  -8.932  10.594  1.00  0.00     0.209 HD
ENDBRANCH  35  36
ENDBRANCH   6  35
TORSDOF 9
ENDMDL
MODEL 5
REMARK VINA RESULT: -7.400107601      2.502      6.090
REMARK  9 active torsions:
REMARK  status: ('A' for Active; 'I' for Inactive)
REMARK    1  A    between atoms: C2_2  and  O2_4 
REMARK    2  A    between atoms: O2_4  and  C3_5 
REMARK    3  A    between atoms: C5_7  and  O3_8 
REMARK    4  A    between atoms: C7_11  and  O4_12 
REMARK    5  A    between atoms: C8_14  and  C10_16 
REMARK    6  A    between atoms: C10_16  and  O5_17 
REMARK    7  A    between atoms: C11_20  and  C12_21 
REMARK    8  A    between atoms: C22_32  and  O7_34 
REMARK    9  A    between atoms: O7_34  and  C24_35 
ROOT
HETATM    1  C3  UNL     1      14.909 -12.572   9.957  1.00  0.00     0.068 C 
HETATM    2  C4  UNL     1      16.146 -12.952   9.888  1.00  0.00     0.066 C 
HETATM    3  C5  UNL     1      17.121 -13.773  10.544  1.00  0.00     0.055 C 
HETATM    4  C6  UNL     1      17.746 -13.794  11.849  1.00  0.00     0.110 A 
HETATM    5  C7  UNL     1      18.397 -15.103  12.266  1.00  0.00     0.167 A 
HETATM    6  C8  UNL     1      18.081 -15.347  13.712  1.00  0.00     0.106 A 
HETATM    7  C9  UNL     1      17.424 -16.751  13.744  1.00  0.00     0.051 C 
HETATM    8  O6  UNL     1      17.270 -14.332  14.084  1.00  0.00    -0.362 OA
HETATM    9  C11 UNL     1      17.123 -13.377  13.091  1.00  0.00     0.091 A 
HETATM   10  C14 UNL     1      15.694 -12.873  13.027  1.00  0.00     0.053 C 
HETATM   11  C15 UNL     1      14.493 -13.587  13.001  1.00  0.00    -0.001 A 
HETATM   12  C16 UNL     1      14.346 -14.877  12.453  1.00  0.00     0.019 A 
HETATM   13  C17 UNL     1      13.660 -13.855  11.793  1.00  0.00     0.013 A 
HETATM   14  C18 UNL     1      13.761 -12.814  10.841  1.00  0.00     0.010 C 
HETATM   15  C19 UNL     1      12.525 -13.010   9.882  1.00  0.00     0.023 C 
HETATM   16  C20 UNL     1      13.323 -11.522  11.570  1.00  0.00     0.019 C 
HETATM   17  C21 UNL     1      13.157 -11.600  13.022  1.00  0.00     0.040 C 
HETATM   18  C22 UNL     1      13.368 -12.845  13.789  1.00  0.00     0.075 C 
HETATM   19  C23 UNL     1      12.193 -13.671  14.098  1.00  0.00     0.047 C 
ENDROOT
BRANCH  18  20
HETATM   20  O7  UNL     1      13.999 -12.580  15.059  1.00  0.00    -0.310 OA
BRANCH  20  21
HETATM   21  C24 UNL     1      13.806 -13.350  16.183  1.00  0.00     0.255 C 
HETATM   22  C25 UNL     1      14.400 -14.730  16.310  1.00  0.00     0.126 C 
HETATM   23  O8  UNL     1      13.111 -12.856  17.103  1.00  0.00    -0.266 OA
ENDBRANCH  20  21
ENDBRANCH  18  20
BRANCH   9  24
HETATM   24  C12 UNL     1      17.901 -12.113  13.574  1.00  0.00     0.113 C 
HETATM   25  C13 UNL     1      16.984 -10.881  13.598  1.00  0.00     0.030 C 
HETATM   26 CL1  UNL     1      19.126 -11.580  12.417  1.00  0.00    -0.122 Cl
ENDBRANCH   9  24
BRANCH   1  27
HETATM   27  O2  UNL     1      14.518 -11.644   8.883  1.00  0.00    -0.283 OA
BRANCH  27  28
HETATM   28  C2  UNL     1      15.463 -10.686   8.563  1.00  0.00     0.259 C 
HETATM   29  C1  UNL     1      15.771  -9.542   9.474  1.00  0.00     0.126 C 
HETATM   30  O1  UNL     1      16.126 -10.703   7.497  1.00  0.00    -0.265 OA
ENDBRANCH  27  28
ENDBRANCH   1  27
BRANCH   3  31
HETATM   31  O3  UNL     1      17.608 -14.766   9.837  1.00  0.00    -0.364 OA
ATOM     32  H3  UNL     1      17.511 -14.695   8.895  1.00  0.00     0.217 HD
ENDBRANCH   3  31
BRANCH   5  33
HETATM   33  O4  UNL     1      18.093 -16.189  11.460  1.00  0.00    -0.392 OA
ATOM     34  H4  UNL     1      17.757 -15.966  10.599  1.00  0.00     0.210 HD
ENDBRANCH   5  33
BRANCH   6  35
HETATM   35  C10 UNL     1      19.256 -15.645  14.622  1.00  0.00     0.204 C 
BRANCH  35  36
HETATM   36  O5  UNL     1      20.480 -15.629  13.948  1.00  0.00    -0.398 OA
ATOM     37  H5  UNL     1      21.120 -16.216  14.334  1.00  0.00     0.209 HD
ENDBRANCH  35  36
ENDBRANCH   6  35
TORSDOF 9
ENDMDL
