MODEL 1
REMARK VINA RESULT: -5.405570179      0.000      0.000
REMARK  14 active torsions:
REMARK  status: ('A' for Active; 'I' for Inactive)
REMARK    1  A    between atoms: C4_4  and  C5_5 
REMARK    2  A    between atoms: C5_5  and  C6_6 
REMARK    3  A    between atoms: C6_6  and  C7_7 
REMARK    4  A    between atoms: C9_9  and  C10_10 
REMARK    5  A    between atoms: C10_10  and  C11_11 
REMARK    6  A    between atoms: C11_11  and  C12_12 
REMARK    7  A    between atoms: C14_14  and  C15_15 
REMARK    8  A    between atoms: C15_15  and  C16_16 
REMARK    9  A    between atoms: C16_16  and  C17_17 
REMARK   10  A    between atoms: C20_20  and  C21_21 
REMARK   11  A    between atoms: C20_20  and  C22_24 
REMARK   12  A    between atoms: C21_21  and  O1_22 
REMARK   13  A    between atoms: C22_24  and  O2_25 
REMARK   14  A    between atoms: O2_25  and  C23_26 
ROOT
HETATM    1  C16 UNL     1      65.565  -3.841  46.675  1.00  0.00     0.038 C 
ENDROOT
BRANCH   1   2
HETATM    2  C15 UNL     1      64.937  -2.958  47.675  1.00  0.00     0.031 C 
BRANCH   2   3
HETATM    3  C14 UNL     1      63.508  -2.973  47.783  1.00  0.00    -0.024 C 
HETATM    4  C12 UNL     1      62.600  -2.053  47.674  1.00  0.00    -0.087 C 
HETATM    5  C13 UNL     1      62.728  -0.635  47.328  1.00  0.00     0.043 C 
BRANCH   4   6
HETATM    6  C11 UNL     1      61.175  -2.537  47.872  1.00  0.00     0.037 C 
BRANCH   6   7
HETATM    7  C10 UNL     1      61.114  -3.922  48.344  1.00  0.00     0.031 C 
BRANCH   7   8
HETATM    8  C9  UNL     1      60.187  -4.855  47.717  1.00  0.00    -0.024 C 
HETATM    9  C7  UNL     1      60.548  -5.677  46.766  1.00  0.00    -0.087 C 
HETATM   10  C8  UNL     1      59.482  -6.595  46.201  1.00  0.00     0.043 C 
BRANCH   9  11
HETATM   11  C6  UNL     1      61.903  -5.752  46.231  1.00  0.00     0.037 C 
BRANCH  11  12
HETATM   12  C5  UNL     1      61.952  -5.585  44.721  1.00  0.00     0.031 C 
BRANCH  12  13
HETATM   13  C4  UNL     1      62.619  -4.290  44.451  1.00  0.00    -0.024 C 
HETATM   14  C2  UNL     1      61.934  -3.196  44.171  1.00  0.00    -0.091 C 
HETATM   15  C1  UNL     1      62.667  -1.911  43.907  1.00  0.00     0.042 C 
HETATM   16  C3  UNL     1      60.455  -3.151  44.101  1.00  0.00     0.042 C 
ENDBRANCH  12  13
ENDBRANCH  11  12
ENDBRANCH   9  11
ENDBRANCH   7   8
ENDBRANCH   6   7
ENDBRANCH   4   6
ENDBRANCH   2   3
ENDBRANCH   1   2
BRANCH   1  17
HETATM   17  C17 UNL     1      66.542  -3.047  45.802  1.00  0.00    -0.076 C 
HETATM   18  C18 UNL     1      67.764  -3.483  45.644  1.00  0.00    -0.022 C 
HETATM   19  C19 UNL     1      68.799  -2.794  44.820  1.00  0.00     0.049 C 
HETATM   20  C20 UNL     1      68.417  -1.368  44.518  1.00  0.00     0.067 C 
HETATM   21  C24 UNL     1      66.979  -1.357  44.171  1.00  0.00     0.143 C 
HETATM   22  O5  UNL     1      66.616  -0.986  43.086  1.00  0.00    -0.297 OA
HETATM   23  C25 UNL     1      66.003  -1.809  45.187  1.00  0.00     0.113 C 
BRANCH  20  24
HETATM   24  C21 UNL     1      68.596  -0.469  45.703  1.00  0.00     0.183 C 
BRANCH  24  25
HETATM   25  O1  UNL     1      68.371   0.858  45.466  1.00  0.00    -0.400 OA
ATOM     26  H1  UNL     1      68.782   1.453  46.081  1.00  0.00     0.209 HD
ENDBRANCH  24  25
ENDBRANCH  20  24
BRANCH  20  27
HETATM   27  C22 UNL     1      69.198  -0.884  43.312  1.00  0.00     0.202 C 
BRANCH  27  28
HETATM   28  O2  UNL     1      70.466  -0.403  43.642  1.00  0.00    -0.295 OA
BRANCH  28  29
HETATM   29  C23 UNL     1      70.854   0.827  43.134  1.00  0.00     0.332 C 
HETATM   30  O3  UNL     1      72.060   1.055  42.796  1.00  0.00    -0.624 OA
HETATM   31  O4  UNL     1      69.884   1.819  43.000  1.00  0.00    -0.624 OA
ENDBRANCH  28  29
ENDBRANCH  27  28
ENDBRANCH  20  27
ENDBRANCH   1  17
TORSDOF 14
ENDMDL
MODEL 2
REMARK VINA RESULT: -5.280109441      0.750      1.546
REMARK  14 active torsions:
REMARK  status: ('A' for Active; 'I' for Inactive)
REMARK    1  A    between atoms: C4_4  and  C5_5 
REMARK    2  A    between atoms: C5_5  and  C6_6 
REMARK    3  A    between atoms: C6_6  and  C7_7 
REMARK    4  A    between atoms: C9_9  and  C10_10 
REMARK    5  A    between atoms: C10_10  and  C11_11 
REMARK    6  A    between atoms: C11_11  and  C12_12 
REMARK    7  A    between atoms: C14_14  and  C15_15 
REMARK    8  A    between atoms: C15_15  and  C16_16 
REMARK    9  A    between atoms: C16_16  and  C17_17 
REMARK   10  A    between atoms: C20_20  and  C21_21 
REMARK   11  A    between atoms: C20_20  and  C22_24 
REMARK   12  A    between atoms: C21_21  and  O1_22 
REMARK   13  A    between atoms: C22_24  and  O2_25 
REMARK   14  A    between atoms: O2_25  and  C23_26 
ROOT
HETATM    1  C16 UNL     1      65.593  -3.806  46.617  1.00  0.00     0.038 C 
ENDROOT
BRANCH   1   2
HETATM    2  C15 UNL     1      65.047  -2.967  47.700  1.00  0.00     0.031 C 
BRANCH   2   3
HETATM    3  C14 UNL     1      63.631  -2.742  47.727  1.00  0.00    -0.024 C 
HETATM    4  C12 UNL     1      62.897  -1.690  47.533  1.00  0.00    -0.087 C 
HETATM    5  C13 UNL     1      63.276  -0.330  47.144  1.00  0.00     0.043 C 
BRANCH   4   6
HETATM    6  C11 UNL     1      61.402  -1.924  47.666  1.00  0.00     0.037 C 
BRANCH   6   7
HETATM    7  C10 UNL     1      61.086  -3.005  48.601  1.00  0.00     0.031 C 
BRANCH   7   8
HETATM    8  C9  UNL     1      59.719  -3.508  48.682  1.00  0.00    -0.024 C 
HETATM    9  C7  UNL     1      59.397  -4.731  48.350  1.00  0.00    -0.087 C 
HETATM   10  C8  UNL     1      57.938  -5.123  48.483  1.00  0.00     0.043 C 
BRANCH   9  11
HETATM   11  C6  UNL     1      60.354  -5.719  47.865  1.00  0.00     0.037 C 
BRANCH  11  12
HETATM   12  C5  UNL     1      60.157  -6.063  46.398  1.00  0.00     0.031 C 
BRANCH  12  13
HETATM   13  C4  UNL     1      60.736  -4.948  45.612  1.00  0.00    -0.024 C 
HETATM   14  C2  UNL     1      61.989  -4.963  45.197  1.00  0.00    -0.091 C 
HETATM   15  C1  UNL     1      62.520  -3.803  44.402  1.00  0.00     0.042 C 
HETATM   16  C3  UNL     1      62.930  -6.075  45.468  1.00  0.00     0.042 C 
ENDBRANCH  12  13
ENDBRANCH  11  12
ENDBRANCH   9  11
ENDBRANCH   7   8
ENDBRANCH   6   7
ENDBRANCH   4   6
ENDBRANCH   2   3
ENDBRANCH   1   2
BRANCH   1  17
HETATM   17  C17 UNL     1      66.567  -2.995  45.756  1.00  0.00    -0.076 C 
HETATM   18  C18 UNL     1      67.807  -3.394  45.639  1.00  0.00    -0.022 C 
HETATM   19  C19 UNL     1      68.841  -2.687  44.830  1.00  0.00     0.049 C 
HETATM   20  C20 UNL     1      68.422  -1.279  44.491  1.00  0.00     0.067 C 
HETATM   21  C24 UNL     1      66.993  -1.322  44.106  1.00  0.00     0.143 C 
HETATM   22  O5  UNL     1      66.649  -0.983  43.004  1.00  0.00    -0.297 OA
HETATM   23  C25 UNL     1      66.006  -1.787  45.103  1.00  0.00     0.113 C 
BRANCH  20  24
HETATM   24  C21 UNL     1      68.538  -0.353  45.664  1.00  0.00     0.183 C 
BRANCH  24  25
HETATM   25  O1  UNL     1      68.363   0.971  45.379  1.00  0.00    -0.400 OA
ATOM     26  H1  UNL     1      68.417   1.556  46.125  1.00  0.00     0.209 HD
ENDBRANCH  24  25
ENDBRANCH  20  24
BRANCH  20  27
HETATM   27  C22 UNL     1      69.219  -0.792  43.298  1.00  0.00     0.202 C 
BRANCH  27  28
HETATM   28  O2  UNL     1      70.480  -0.306  43.648  1.00  0.00    -0.295 OA
BRANCH  28  29
HETATM   29  C23 UNL     1      70.880   0.915  43.128  1.00  0.00     0.332 C 
HETATM   30  O3  UNL     1      70.050   1.862  42.941  1.00  0.00    -0.624 OA
HETATM   31  O4  UNL     1      72.227   1.085  42.810  1.00  0.00    -0.624 OA
ENDBRANCH  28  29
ENDBRANCH  27  28
ENDBRANCH  20  27
ENDBRANCH   1  17
TORSDOF 14
ENDMDL
MODEL 3
REMARK VINA RESULT: -5.141883963      0.849      2.327
REMARK  14 active torsions:
REMARK  status: ('A' for Active; 'I' for Inactive)
REMARK    1  A    between atoms: C4_4  and  C5_5 
REMARK    2  A    between atoms: C5_5  and  C6_6 
REMARK    3  A    between atoms: C6_6  and  C7_7 
REMARK    4  A    between atoms: C9_9  and  C10_10 
REMARK    5  A    between atoms: C10_10  and  C11_11 
REMARK    6  A    between atoms: C11_11  and  C12_12 
REMARK    7  A    between atoms: C14_14  and  C15_15 
REMARK    8  A    between atoms: C15_15  and  C16_16 
REMARK    9  A    between atoms: C16_16  and  C17_17 
REMARK   10  A    between atoms: C20_20  and  C21_21 
REMARK   11  A    between atoms: C20_20  and  C22_24 
REMARK   12  A    between atoms: C21_21  and  O1_22 
REMARK   13  A    between atoms: C22_24  and  O2_25 
REMARK   14  A    between atoms: O2_25  and  C23_26 
ROOT
HETATM    1  C16 UNL     1      65.858  -3.942  46.558  1.00  0.00     0.038 C 
ENDROOT
BRANCH   1   2
HETATM    2  C15 UNL     1      64.483  -3.413  46.534  1.00  0.00     0.031 C 
BRANCH   2   3
HETATM    3  C14 UNL     1      63.488  -4.156  45.817  1.00  0.00    -0.024 C 
HETATM    4  C12 UNL     1      62.798  -3.910  44.747  1.00  0.00    -0.087 C 
HETATM    5  C13 UNL     1      62.845  -2.766  43.833  1.00  0.00     0.043 C 
BRANCH   4   6
HETATM    6  C11 UNL     1      61.836  -5.013  44.342  1.00  0.00     0.037 C 
BRANCH   6   7
HETATM    7  C10 UNL     1      61.664  -6.020  45.391  1.00  0.00     0.031 C 
BRANCH   7   8
HETATM    8  C9  UNL     1      60.325  -6.332  45.874  1.00  0.00    -0.024 C 
HETATM    9  C7  UNL     1      59.916  -6.014  47.074  1.00  0.00    -0.087 C 
HETATM   10  C8  UNL     1      58.497  -6.398  47.448  1.00  0.00     0.043 C 
BRANCH   9  11
HETATM   11  C6  UNL     1      60.743  -5.323  48.056  1.00  0.00     0.037 C 
BRANCH  11  12
HETATM   12  C5  UNL     1      60.079  -4.075  48.615  1.00  0.00     0.031 C 
BRANCH  12  13
HETATM   13  C4  UNL     1      60.954  -2.930  48.272  1.00  0.00    -0.024 C 
HETATM   14  C2  UNL     1      60.726  -2.167  47.219  1.00  0.00    -0.091 C 
HETATM   15  C1  UNL     1      61.648  -1.018  46.922  1.00  0.00     0.042 C 
HETATM   16  C3  UNL     1      59.591  -2.372  46.288  1.00  0.00     0.042 C 
ENDBRANCH  12  13
ENDBRANCH  11  12
ENDBRANCH   9  11
ENDBRANCH   7   8
ENDBRANCH   6   7
ENDBRANCH   4   6
ENDBRANCH   2   3
ENDBRANCH   1   2
BRANCH   1  17
HETATM   17  C17 UNL     1      66.779  -3.070  45.697  1.00  0.00    -0.076 C 
HETATM   18  C18 UNL     1      68.021  -3.430  45.516  1.00  0.00    -0.022 C 
HETATM   19  C19 UNL     1      69.006  -2.663  44.700  1.00  0.00     0.049 C 
HETATM   20  C20 UNL     1      68.540  -1.253  44.440  1.00  0.00     0.067 C 
HETATM   21  C24 UNL     1      67.099  -1.316  44.108  1.00  0.00     0.143 C 
HETATM   22  O5  UNL     1      66.704  -0.939  43.036  1.00  0.00    -0.297 OA
HETATM   23  C25 UNL     1      66.163  -1.849  45.120  1.00  0.00     0.113 C 
BRANCH  20  24
HETATM   24  C21 UNL     1      68.680  -0.376  45.647  1.00  0.00     0.183 C 
BRANCH  24  25
HETATM   25  O1  UNL     1      68.502   0.959  45.420  1.00  0.00    -0.400 OA
ATOM     26  H1  UNL     1      69.298   1.450  45.256  1.00  0.00     0.209 HD
ENDBRANCH  24  25
ENDBRANCH  20  24
BRANCH  20  27
HETATM   27  C22 UNL     1      69.278  -0.694  43.240  1.00  0.00     0.202 C 
BRANCH  27  28
HETATM   28  O2  UNL     1      70.572  -0.270  43.546  1.00  0.00    -0.295 OA
BRANCH  28  29
HETATM   29  C23 UNL     1      70.975   0.980  43.104  1.00  0.00     0.332 C 
HETATM   30  O3  UNL     1      70.157   1.952  43.020  1.00  0.00    -0.624 OA
HETATM   31  O4  UNL     1      72.312   1.152  42.746  1.00  0.00    -0.624 OA
ENDBRANCH  28  29
ENDBRANCH  27  28
ENDBRANCH  20  27
ENDBRANCH   1  17
TORSDOF 14
ENDMDL
MODEL 4
REMARK VINA RESULT: -5.101821633      1.132      1.723
REMARK  14 active torsions:
REMARK  status: ('A' for Active; 'I' for Inactive)
REMARK    1  A    between atoms: C4_4  and  C5_5 
REMARK    2  A    between atoms: C5_5  and  C6_6 
REMARK    3  A    between atoms: C6_6  and  C7_7 
REMARK    4  A    between atoms: C9_9  and  C10_10 
REMARK    5  A    between atoms: C10_10  and  C11_11 
REMARK    6  A    between atoms: C11_11  and  C12_12 
REMARK    7  A    between atoms: C14_14  and  C15_15 
REMARK    8  A    between atoms: C15_15  and  C16_16 
REMARK    9  A    between atoms: C16_16  and  C17_17 
REMARK   10  A    between atoms: C20_20  and  C21_21 
REMARK   11  A    between atoms: C20_20  and  C22_24 
REMARK   12  A    between atoms: C21_21  and  O1_22 
REMARK   13  A    between atoms: C22_24  and  O2_25 
REMARK   14  A    between atoms: O2_25  and  C23_26 
ROOT
HETATM    1  C16 UNL     1      65.155  -3.700  47.127  1.00  0.00     0.038 C 
ENDROOT
BRANCH   1   2
HETATM    2  C15 UNL     1      64.022  -2.816  47.458  1.00  0.00     0.031 C 
BRANCH   2   3
HETATM    3  C14 UNL     1      62.827  -3.419  47.972  1.00  0.00    -0.024 C 
HETATM    4  C12 UNL     1      61.565  -3.173  47.799  1.00  0.00    -0.087 C 
HETATM    5  C13 UNL     1      60.902  -2.193  46.934  1.00  0.00     0.043 C 
BRANCH   4   6
HETATM    6  C11 UNL     1      60.627  -4.091  48.562  1.00  0.00     0.037 C 
BRANCH   6   7
HETATM    7  C10 UNL     1      59.589  -4.668  47.706  1.00  0.00     0.031 C 
BRANCH   7   8
HETATM    8  C9  UNL     1      59.202  -6.061  47.887  1.00  0.00    -0.024 C 
HETATM    9  C7  UNL     1      58.869  -6.836  46.887  1.00  0.00    -0.087 C 
HETATM   10  C8  UNL     1      58.489  -8.267  47.216  1.00  0.00     0.043 C 
BRANCH   9  11
HETATM   11  C6  UNL     1      58.845  -6.399  45.496  1.00  0.00     0.037 C 
BRANCH  11  12
HETATM   12  C5  UNL     1      60.113  -6.761  44.740  1.00  0.00     0.031 C 
BRANCH  12  13
HETATM   13  C4  UNL     1      60.756  -5.488  44.341  1.00  0.00    -0.024 C 
HETATM   14  C2  UNL     1      62.004  -5.203  44.668  1.00  0.00    -0.091 C 
HETATM   15  C1  UNL     1      62.603  -3.895  44.233  1.00  0.00     0.042 C 
HETATM   16  C3  UNL     1      62.874  -6.110  45.451  1.00  0.00     0.042 C 
ENDBRANCH  12  13
ENDBRANCH  11  12
ENDBRANCH   9  11
ENDBRANCH   7   8
ENDBRANCH   6   7
ENDBRANCH   4   6
ENDBRANCH   2   3
ENDBRANCH   1   2
BRANCH   1  17
HETATM   17  C17 UNL     1      66.097  -3.009  46.135  1.00  0.00    -0.076 C 
HETATM   18  C18 UNL     1      67.263  -3.540  45.879  1.00  0.00    -0.022 C 
HETATM   19  C19 UNL     1      68.259  -2.958  44.933  1.00  0.00     0.049 C 
HETATM   20  C20 UNL     1      67.952  -1.517  44.613  1.00  0.00     0.067 C 
HETATM   21  C24 UNL     1      66.491  -1.410  44.405  1.00  0.00     0.143 C 
HETATM   22  O5  UNL     1      66.051  -1.049  43.345  1.00  0.00    -0.297 OA
HETATM   23  C25 UNL     1      65.589  -1.755  45.525  1.00  0.00     0.113 C 
BRANCH  20  24
HETATM   24  C21 UNL     1      68.309  -0.596  45.740  1.00  0.00     0.183 C 
BRANCH  24  25
HETATM   25  O1  UNL     1      69.067   0.485  45.389  1.00  0.00    -0.400 OA
ATOM     26  H1  UNL     1      69.896   0.279  44.974  1.00  0.00     0.209 HD
ENDBRANCH  24  25
ENDBRANCH  20  24
BRANCH  20  27
HETATM   27  C22 UNL     1      68.643  -1.132  43.321  1.00  0.00     0.202 C 
BRANCH  27  28
HETATM   28  O2  UNL     1      69.989  -1.501  43.293  1.00  0.00    -0.295 OA
BRANCH  28  29
HETATM   29  C23 UNL     1      70.892  -0.644  42.684  1.00  0.00     0.332 C 
HETATM   30  O3  UNL     1      71.498  -0.968  41.612  1.00  0.00    -0.624 OA
HETATM   31  O4  UNL     1      71.127   0.595  43.279  1.00  0.00    -0.624 OA
ENDBRANCH  28  29
ENDBRANCH  27  28
ENDBRANCH  20  27
ENDBRANCH   1  17
TORSDOF 14
ENDMDL
MODEL 5
REMARK VINA RESULT: -5.080524465      1.065      1.728
REMARK  14 active torsions:
REMARK  status: ('A' for Active; 'I' for Inactive)
REMARK    1  A    between atoms: C4_4  and  C5_5 
REMARK    2  A    between atoms: C5_5  and  C6_6 
REMARK    3  A    between atoms: C6_6  and  C7_7 
REMARK    4  A    between atoms: C9_9  and  C10_10 
REMARK    5  A    between atoms: C10_10  and  C11_11 
REMARK    6  A    between atoms: C11_11  and  C12_12 
REMARK    7  A    between atoms: C14_14  and  C15_15 
REMARK    8  A    between atoms: C15_15  and  C16_16 
REMARK    9  A    between atoms: C16_16  and  C17_17 
REMARK   10  A    between atoms: C20_20  and  C21_21 
REMARK   11  A    between atoms: C20_20  and  C22_24 
REMARK   12  A    between atoms: C21_21  and  O1_22 
REMARK   13  A    between atoms: C22_24  and  O2_25 
REMARK   14  A    between atoms: O2_25  and  C23_26 
ROOT
HETATM    1  C16 UNL     1      65.442  -3.612  46.633  1.00  0.00     0.038 C 
ENDROOT
BRANCH   1   2
HETATM    2  C15 UNL     1      64.805  -3.052  47.839  1.00  0.00     0.031 C 
BRANCH   2   3
HETATM    3  C14 UNL     1      63.373  -3.080  47.918  1.00  0.00    -0.024 C 
HETATM    4  C12 UNL     1      62.459  -2.174  47.760  1.00  0.00    -0.087 C 
HETATM    5  C13 UNL     1      62.579  -0.767  47.371  1.00  0.00     0.043 C 
BRANCH   4   6
HETATM    6  C11 UNL     1      61.034  -2.667  47.943  1.00  0.00     0.037 C 
BRANCH   6   7
HETATM    7  C10 UNL     1      60.978  -4.058  48.398  1.00  0.00     0.031 C 
BRANCH   7   8
HETATM    8  C9  UNL     1      60.038  -4.980  47.773  1.00  0.00    -0.024 C 
HETATM    9  C7  UNL     1      60.363  -5.737  46.758  1.00  0.00    -0.087 C 
HETATM   10  C8  UNL     1      59.288  -6.652  46.204  1.00  0.00     0.043 C 
BRANCH   9  11
HETATM   11  C6  UNL     1      61.685  -5.745  46.142  1.00  0.00     0.037 C 
BRANCH  11  12
HETATM   12  C5  UNL     1      61.647  -5.425  44.657  1.00  0.00     0.031 C 
BRANCH  12  13
HETATM   13  C4  UNL     1      62.648  -4.359  44.418  1.00  0.00    -0.024 C 
HETATM   14  C2  UNL     1      62.298  -3.098  44.243  1.00  0.00    -0.091 C 
HETATM   15  C1  UNL     1      63.360  -2.061  44.006  1.00  0.00     0.042 C 
HETATM   16  C3  UNL     1      60.894  -2.626  44.268  1.00  0.00     0.042 C 
ENDBRANCH  12  13
ENDBRANCH  11  12
ENDBRANCH   9  11
ENDBRANCH   7   8
ENDBRANCH   6   7
ENDBRANCH   4   6
ENDBRANCH   2   3
ENDBRANCH   1   2
BRANCH   1  17
HETATM   17  C17 UNL     1      66.450  -2.614  46.054  1.00  0.00    -0.076 C 
HETATM   18  C18 UNL     1      66.305  -1.338  46.295  1.00  0.00    -0.022 C 
HETATM   19  C19 UNL     1      67.222  -0.278  45.785  1.00  0.00     0.049 C 
HETATM   20  C20 UNL     1      68.087  -0.782  44.658  1.00  0.00     0.067 C 
HETATM   21  C24 UNL     1      68.553  -2.137  45.027  1.00  0.00     0.143 C 
HETATM   22  O5  UNL     1      69.729  -2.365  45.149  1.00  0.00    -0.297 OA
HETATM   23  C25 UNL     1      67.546  -3.198  45.241  1.00  0.00     0.113 C 
BRANCH  20  24
HETATM   24  C21 UNL     1      67.328  -0.908  43.372  1.00  0.00     0.183 C 
BRANCH  24  25
HETATM   25  O1  UNL     1      67.117   0.265  42.704  1.00  0.00    -0.400 OA
ATOM     26  H1  UNL     1      66.968   0.177  41.770  1.00  0.00     0.209 HD
ENDBRANCH  24  25
ENDBRANCH  20  24
BRANCH  20  27
HETATM   27  C22 UNL     1      69.300   0.115  44.519  1.00  0.00     0.202 C 
BRANCH  27  28
HETATM   28  O2  UNL     1      69.043   1.439  44.876  1.00  0.00    -0.295 OA
BRANCH  28  29
HETATM   29  C23 UNL     1      69.459   2.444  44.017  1.00  0.00     0.332 C 
HETATM   30  O3  UNL     1      69.338   2.332  42.755  1.00  0.00    -0.624 OA
HETATM   31  O4  UNL     1      70.021   3.593  44.572  1.00  0.00    -0.624 OA
ENDBRANCH  28  29
ENDBRANCH  27  28
ENDBRANCH  20  27
ENDBRANCH   1  17
TORSDOF 14
ENDMDL
