MODEL 1
REMARK VINA RESULT: -4.907147269      0.000      0.000
REMARK  0 active torsions:
REMARK  status: ('A' for Active; 'I' for Inactive)
ROOT
HETATM    1  C1  UNL     1      14.727 -16.050   6.835  1.00  0.00     0.038 C 
HETATM    2  C2  UNL     1      14.621 -14.665   6.187  1.00  0.00     0.143 C 
HETATM    3  N1  UNL     1      15.312 -14.845   4.984  1.00  0.00    -0.324 N 
HETATM    4  C3  UNL     1      15.668 -13.752   4.228  1.00  0.00     0.088 C 
HETATM    5  C4  UNL     1      16.545 -14.033   3.065  1.00  0.00     0.121 C 
HETATM    6  S1  UNL     1      15.674 -15.300   2.058  1.00  0.00    -0.148 SA
HETATM    7  C5  UNL     1      15.150 -16.531   3.314  1.00  0.00     0.187 C 
HETATM    8  N2  UNL     1      15.500 -16.105   4.638  1.00  0.00    -0.221 NA
HETATM    9  C6  UNL     1      14.716 -16.910   5.562  1.00  0.00     0.116 C 
ENDROOT
TORSDOF 0
ENDMDL
MODEL 2
REMARK VINA RESULT: -4.634724286      0.926      2.331
REMARK  0 active torsions:
REMARK  status: ('A' for Active; 'I' for Inactive)
ROOT
HETATM    1  C1  UNL     1      14.473 -15.602   7.136  1.00  0.00     0.038 C 
HETATM    2  C2  UNL     1      14.773 -16.815   6.249  1.00  0.00     0.143 C 
HETATM    3  N1  UNL     1      14.509 -16.319   4.967  1.00  0.00    -0.324 N 
HETATM    4  C3  UNL     1      14.409 -17.187   3.904  1.00  0.00     0.088 C 
HETATM    5  C4  UNL     1      13.958 -16.586   2.624  1.00  0.00     0.121 C 
HETATM    6  S1  UNL     1      15.117 -15.204   2.267  1.00  0.00    -0.148 SA
HETATM    7  C5  UNL     1      15.216 -14.327   3.876  1.00  0.00     0.187 C 
HETATM    8  N2  UNL     1      14.452 -15.003   4.885  1.00  0.00    -0.221 NA
HETATM    9  C6  UNL     1      14.901 -14.488   6.169  1.00  0.00     0.116 C 
ENDROOT
TORSDOF 0
ENDMDL
MODEL 3
REMARK VINA RESULT: -4.449887154      0.875      2.113
REMARK  0 active torsions:
REMARK  status: ('A' for Active; 'I' for Inactive)
ROOT
HETATM    1  C1  UNL     1      14.416 -16.423   6.568  1.00  0.00     0.038 C 
HETATM    2  C2  UNL     1      15.039 -17.121   5.354  1.00  0.00     0.143 C 
HETATM    3  N1  UNL     1      15.031 -16.107   4.390  1.00  0.00    -0.324 N 
HETATM    4  C3  UNL     1      15.272 -16.413   3.071  1.00  0.00     0.088 C 
HETATM    5  C4  UNL     1      15.071 -15.304   2.106  1.00  0.00     0.121 C 
HETATM    6  S1  UNL     1      16.130 -13.918   2.686  1.00  0.00    -0.148 SA
HETATM    7  C5  UNL     1      15.759 -13.844   4.482  1.00  0.00     0.187 C 
HETATM    8  N2  UNL     1      14.857 -14.890   4.871  1.00  0.00    -0.221 NA
HETATM    9  C6  UNL     1      14.938 -15.001   6.319  1.00  0.00     0.116 C 
ENDROOT
TORSDOF 0
ENDMDL
MODEL 4
REMARK VINA RESULT: -4.417784262      1.708      3.223
REMARK  0 active torsions:
REMARK  status: ('A' for Active; 'I' for Inactive)
ROOT
HETATM    1  C1  UNL     1      16.112 -13.823   2.548  1.00  0.00     0.038 C 
HETATM    2  C2  UNL     1      16.655 -14.228   3.924  1.00  0.00     0.143 C 
HETATM    3  N1  UNL     1      15.754 -15.224   4.318  1.00  0.00    -0.324 N 
HETATM    4  C3  UNL     1      15.745 -15.663   5.621  1.00  0.00     0.088 C 
HETATM    5  C4  UNL     1      14.643 -16.590   5.980  1.00  0.00     0.121 C 
HETATM    6  S1  UNL     1      14.742 -17.991   4.793  1.00  0.00    -0.148 SA
HETATM    7  C5  UNL     1      14.934 -17.143   3.176  1.00  0.00     0.187 C 
HETATM    8  N2  UNL     1      15.017 -15.720   3.341  1.00  0.00    -0.221 NA
HETATM    9  C6  UNL     1      15.557 -15.183   2.101  1.00  0.00     0.116 C 
ENDROOT
TORSDOF 0
ENDMDL
MODEL 5
REMARK VINA RESULT: -4.238497385      1.852      3.735
REMARK  0 active torsions:
REMARK  status: ('A' for Active; 'I' for Inactive)
ROOT
HETATM    1  C1  UNL     1      15.791 -14.366   2.047  1.00  0.00     0.038 C 
HETATM    2  C2  UNL     1      14.795 -15.501   2.310  1.00  0.00     0.143 C 
HETATM    3  N1  UNL     1      15.030 -15.797   3.658  1.00  0.00    -0.324 N 
HETATM    4  C3  UNL     1      14.512 -16.947   4.207  1.00  0.00     0.088 C 
HETATM    5  C4  UNL     1      14.958 -17.258   5.587  1.00  0.00     0.121 C 
HETATM    6  S1  UNL     1      14.558 -15.780   6.604  1.00  0.00    -0.148 SA
HETATM    7  C5  UNL     1      15.180 -14.394   5.572  1.00  0.00     0.187 C 
HETATM    8  N2  UNL     1      15.693 -14.868   4.319  1.00  0.00    -0.221 NA
HETATM    9  C6  UNL     1      15.783 -13.715   3.437  1.00  0.00     0.116 C 
ENDROOT
TORSDOF 0
ENDMDL
