MODEL 1
REMARK VINA RESULT: -8.557281949      0.000      0.000
REMARK  5 active torsions:
REMARK  status: ('A' for Active; 'I' for Inactive)
REMARK    1  A    between atoms: C3_3  and  O1_4 
REMARK    2  A    between atoms: O1_4  and  C4_5 
REMARK    3  A    between atoms: N4_24  and  C14_26 
REMARK    4  A    between atoms: C14_26  and  C15_27 
REMARK    5  A    between atoms: C15_27  and  N5_28 
ROOT
HETATM    1  C1  UNL     1     -26.526  10.913  -8.850  1.00  0.00     0.055 C 
HETATM    2  C2  UNL     1     -25.315  10.357  -8.259  1.00  0.00     0.018 A 
HETATM    3  C3  UNL     1     -24.953  10.661  -6.933  1.00  0.00     0.108 A 
HETATM    4  C11 UNL     1     -23.804  10.052  -6.484  1.00  0.00     0.084 A 
HETATM    5 CL1  UNL     1     -23.121  10.354  -4.871  1.00  0.00    -0.080 Cl
HETATM    6  C12 UNL     1     -23.076   9.204  -7.303  1.00  0.00     0.116 A 
HETATM    7  N3  UNL     1     -23.468   8.953  -8.553  1.00  0.00    -0.350 N 
ATOM      8  H3  UNL     1     -22.910   8.325  -9.132  1.00  0.00     0.166 HD
HETATM    9  C13 UNL     1     -24.571   9.504  -9.069  1.00  0.00     0.113 A 
HETATM   10  N4  UNL     1     -24.936   9.267 -10.268  1.00  0.00    -0.354 N 
ATOM     11  H4  UNL     1     -25.791   9.754 -10.537  1.00  0.00     0.166 HD
ENDROOT
BRANCH   3  12
HETATM   12  O1  UNL     1     -25.674  11.454  -6.252  1.00  0.00    -0.306 OA
BRANCH  12  13
HETATM   13  C4  UNL     1     -26.399  12.253  -5.566  1.00  0.00     0.108 A 
HETATM   14  C5  UNL     1     -27.352  11.698  -4.691  1.00  0.00     0.082 A 
HETATM   15  C6  UNL     1     -28.185  12.429  -3.900  1.00  0.00     0.121 A 
HETATM   16  F1  UNL     1     -29.090  11.853  -3.070  1.00  0.00    -0.206 F 
HETATM   17  C7  UNL     1     -28.104  13.789  -3.948  1.00  0.00     0.074 A 
HETATM   18  C8  UNL     1     -27.208  14.404  -4.768  1.00  0.00     0.069 A 
HETATM   19  N1  UNL     1     -26.962  15.726  -4.940  1.00  0.00    -0.306 N 
HETATM   20  C10 UNL     1     -26.363  13.648  -5.569  1.00  0.00     0.097 A 
HETATM   21  C9  UNL     1     -25.980  15.779  -5.831  1.00  0.00     0.325 A 
ATOM     22  H1  UNL     1     -27.429  16.509  -4.483  1.00  0.00     0.171 HD
HETATM   23  O2  UNL     1     -25.460  16.847  -6.261  1.00  0.00    -0.247 OA
HETATM   24  N2  UNL     1     -25.616  14.531  -6.211  1.00  0.00    -0.304 N 
ATOM     25  H2  UNL     1     -24.882  14.307  -6.884  1.00  0.00     0.171 HD
ENDBRANCH  12  13
ENDBRANCH   3  12
BRANCH  10  26
HETATM   26  C14 UNL     1     -24.399   8.471 -11.287  1.00  0.00     0.092 C 
BRANCH  26  27
HETATM   27  C15 UNL     1     -25.369   7.348 -11.619  1.00  0.00     0.317 C 
BRANCH  27  28
HETATM   28  N5  UNL     1     -26.718   7.755 -11.808  1.00  0.00     0.097 N 
HETATM   29  C16 UNL     1     -27.585   7.028 -10.887  1.00  0.00     0.299 C 
HETATM   30  C17 UNL     1     -27.576   5.550 -11.083  1.00  0.00     0.198 C 
HETATM   31  O3  UNL     1     -27.561   5.169 -12.429  1.00  0.00    -0.388 OA
HETATM   32  C18 UNL     1     -28.078   6.223 -13.163  1.00  0.00     0.198 C 
HETATM   33  C19 UNL     1     -27.155   7.426 -13.159  1.00  0.00     0.299 C 
ENDBRANCH  27  28
ENDBRANCH  26  27
ENDBRANCH  10  26
TORSDOF 5
ENDMDL
MODEL 2
REMARK VINA RESULT: -8.205981347      1.233      1.551
REMARK  5 active torsions:
REMARK  status: ('A' for Active; 'I' for Inactive)
REMARK    1  A    between atoms: C3_3  and  O1_4 
REMARK    2  A    between atoms: O1_4  and  C4_5 
REMARK    3  A    between atoms: N4_24  and  C14_26 
REMARK    4  A    between atoms: C14_26  and  C15_27 
REMARK    5  A    between atoms: C15_27  and  N5_28 
ROOT
HETATM    1  C1  UNL     1     -27.203  12.056  -9.240  1.00  0.00     0.055 C 
HETATM    2  C2  UNL     1     -26.125  11.147  -8.869  1.00  0.00     0.018 A 
HETATM    3  C3  UNL     1     -25.673  11.069  -7.538  1.00  0.00     0.108 A 
HETATM    4  C11 UNL     1     -24.671  10.153  -7.311  1.00  0.00     0.084 A 
HETATM    5 CL1  UNL     1     -23.898   9.944  -5.724  1.00  0.00    -0.080 Cl
HETATM    6  C12 UNL     1     -24.164   9.377  -8.341  1.00  0.00     0.116 A 
HETATM    7  N3  UNL     1     -24.632   9.496  -9.585  1.00  0.00    -0.350 N 
ATOM      8  H3  UNL     1     -24.237   8.911 -10.321  1.00  0.00     0.166 HD
HETATM    9  C13 UNL     1     -25.603  10.361  -9.892  1.00  0.00     0.113 A 
HETATM   10  N4  UNL     1     -26.041  10.475 -11.084  1.00  0.00    -0.354 N 
ATOM     11  H4  UNL     1     -26.778  11.174 -11.183  1.00  0.00     0.166 HD
ENDROOT
BRANCH   3  12
HETATM   12  O1  UNL     1     -26.189  11.822  -6.654  1.00  0.00    -0.306 OA
BRANCH  12  13
HETATM   13  C4  UNL     1     -26.707  12.580  -5.765  1.00  0.00     0.108 A 
HETATM   14  C5  UNL     1     -27.522  11.987  -4.782  1.00  0.00     0.082 A 
HETATM   15  C6  UNL     1     -28.132  12.673  -3.775  1.00  0.00     0.121 A 
HETATM   16  F1  UNL     1     -28.910  12.062  -2.848  1.00  0.00    -0.206 F 
HETATM   17  C7  UNL     1     -27.952  14.022  -3.703  1.00  0.00     0.074 A 
HETATM   18  C8  UNL     1     -27.177  14.671  -4.615  1.00  0.00     0.069 A 
HETATM   19  N1  UNL     1     -26.862  15.986  -4.699  1.00  0.00    -0.306 N 
HETATM   20  C10 UNL     1     -26.560  13.961  -5.636  1.00  0.00     0.097 A 
HETATM   21  C9  UNL     1     -26.062  16.081  -5.753  1.00  0.00     0.325 A 
ATOM     22  H1  UNL     1     -27.172  16.740  -4.084  1.00  0.00     0.171 HD
HETATM   23  O2  UNL     1     -25.547  17.158  -6.167  1.00  0.00    -0.247 OA
HETATM   24  N2  UNL     1     -25.876  14.865  -6.319  1.00  0.00    -0.304 N 
ATOM     25  H2  UNL     1     -25.301  14.675  -7.140  1.00  0.00     0.171 HD
ENDBRANCH  12  13
ENDBRANCH   3  12
BRANCH  10  26
HETATM   26  C14 UNL     1     -25.713   9.833 -12.285  1.00  0.00     0.092 C 
BRANCH  26  27
HETATM   27  C15 UNL     1     -26.989   9.438 -13.013  1.00  0.00     0.317 C 
BRANCH  27  28
HETATM   28  N5  UNL     1     -27.242   8.041 -13.069  1.00  0.00     0.097 N 
HETATM   29  C16 UNL     1     -28.625   7.776 -12.688  1.00  0.00     0.299 C 
HETATM   30  C17 UNL     1     -28.964   8.193 -11.298  1.00  0.00     0.198 C 
HETATM   31  O3  UNL     1     -27.952   7.916 -10.374  1.00  0.00    -0.388 OA
HETATM   32  C18 UNL     1     -27.181   6.893 -10.898  1.00  0.00     0.198 C 
HETATM   33  C19 UNL     1     -26.393   7.340 -12.114  1.00  0.00     0.299 C 
ENDBRANCH  27  28
ENDBRANCH  26  27
ENDBRANCH  10  26
TORSDOF 5
ENDMDL
MODEL 3
REMARK VINA RESULT: -8.103994237      1.836      2.284
REMARK  5 active torsions:
REMARK  status: ('A' for Active; 'I' for Inactive)
REMARK    1  A    between atoms: C3_3  and  O1_4 
REMARK    2  A    between atoms: O1_4  and  C4_5 
REMARK    3  A    between atoms: N4_24  and  C14_26 
REMARK    4  A    between atoms: C14_26  and  C15_27 
REMARK    5  A    between atoms: C15_27  and  N5_28 
ROOT
HETATM    1  C1  UNL     1     -27.407  12.146  -9.337  1.00  0.00     0.055 C 
HETATM    2  C2  UNL     1     -26.321  11.222  -9.033  1.00  0.00     0.018 A 
HETATM    3  C3  UNL     1     -25.817  11.106  -7.724  1.00  0.00     0.108 A 
HETATM    4  C11 UNL     1     -24.812  10.180  -7.561  1.00  0.00     0.084 A 
HETATM    5 CL1  UNL     1     -23.978   9.925  -6.013  1.00  0.00    -0.080 Cl
HETATM    6  C12 UNL     1     -24.351   9.429  -8.630  1.00  0.00     0.116 A 
HETATM    7  N3  UNL     1     -24.868   9.583  -9.851  1.00  0.00    -0.350 N 
ATOM      8  H3  UNL     1     -24.507   9.016 -10.618  1.00  0.00     0.166 HD
HETATM    9  C13 UNL     1     -25.845  10.461 -10.096  1.00  0.00     0.113 A 
HETATM   10  N4  UNL     1     -26.330  10.609 -11.267  1.00  0.00    -0.354 N 
ATOM     11  H4  UNL     1     -27.065  11.314 -11.317  1.00  0.00     0.166 HD
ENDROOT
BRANCH   3  12
HETATM   12  O1  UNL     1     -26.292  11.838  -6.801  1.00  0.00    -0.306 OA
BRANCH  12  13
HETATM   13  C4  UNL     1     -26.770  12.575  -5.872  1.00  0.00     0.108 A 
HETATM   14  C5  UNL     1     -27.562  11.963  -4.882  1.00  0.00     0.082 A 
HETATM   15  C6  UNL     1     -28.129  12.625  -3.836  1.00  0.00     0.121 A 
HETATM   16  F1  UNL     1     -28.886  11.996  -2.903  1.00  0.00    -0.206 F 
HETATM   17  C7  UNL     1     -27.926  13.969  -3.726  1.00  0.00     0.074 A 
HETATM   18  C8  UNL     1     -27.171  14.635  -4.643  1.00  0.00     0.069 A 
HETATM   19  N1  UNL     1     -26.838  15.948  -4.695  1.00  0.00    -0.306 N 
HETATM   20  C10 UNL     1     -26.598  13.950  -5.704  1.00  0.00     0.097 A 
HETATM   21  C9  UNL     1     -26.071  16.065  -5.771  1.00  0.00     0.325 A 
ATOM     22  H1  UNL     1     -27.117  16.686  -4.048  1.00  0.00     0.171 HD
HETATM   23  O2  UNL     1     -25.553  17.146  -6.167  1.00  0.00    -0.247 OA
HETATM   24  N2  UNL     1     -25.922  14.864  -6.380  1.00  0.00    -0.304 N 
ATOM     25  H2  UNL     1     -25.376  14.693  -7.225  1.00  0.00     0.171 HD
ENDBRANCH  12  13
ENDBRANCH   3  12
BRANCH  10  26
HETATM   26  C14 UNL     1     -26.054   9.997 -12.496  1.00  0.00     0.092 C 
BRANCH  26  27
HETATM   27  C15 UNL     1     -27.207   9.080 -12.876  1.00  0.00     0.317 C 
BRANCH  27  28
HETATM   28  N5  UNL     1     -28.026   9.551 -13.937  1.00  0.00     0.097 N 
HETATM   29  C16 UNL     1     -28.498   8.423 -14.733  1.00  0.00     0.299 C 
HETATM   30  C17 UNL     1     -27.409   7.637 -15.379  1.00  0.00     0.198 C 
HETATM   31  O3  UNL     1     -26.381   8.432 -15.894  1.00  0.00    -0.388 OA
HETATM   32  C18 UNL     1     -26.905   9.693 -16.119  1.00  0.00     0.198 C 
HETATM   33  C19 UNL     1     -27.249  10.406 -14.826  1.00  0.00     0.299 C 
ENDBRANCH  27  28
ENDBRANCH  26  27
ENDBRANCH  10  26
TORSDOF 5
ENDMDL
MODEL 4
REMARK VINA RESULT: -7.769011462      2.713      3.488
REMARK  5 active torsions:
REMARK  status: ('A' for Active; 'I' for Inactive)
REMARK    1  A    between atoms: C3_3  and  O1_4 
REMARK    2  A    between atoms: O1_4  and  C4_5 
REMARK    3  A    between atoms: N4_24  and  C14_26 
REMARK    4  A    between atoms: C14_26  and  C15_27 
REMARK    5  A    between atoms: C15_27  and  N5_28 
ROOT
HETATM    1  C1  UNL     1     -28.638   9.007  -9.005  1.00  0.00     0.055 C 
HETATM    2  C2  UNL     1     -27.300   9.136  -9.569  1.00  0.00     0.018 A 
HETATM    3  C3  UNL     1     -26.563  10.324  -9.414  1.00  0.00     0.108 A 
HETATM    4  C11 UNL     1     -25.303  10.310  -9.968  1.00  0.00     0.084 A 
HETATM    5 CL1  UNL     1     -24.231  11.728  -9.960  1.00  0.00    -0.080 Cl
HETATM    6  C12 UNL     1     -24.823   9.189 -10.625  1.00  0.00     0.116 A 
HETATM    7  N3  UNL     1     -25.569   8.089 -10.741  1.00  0.00    -0.350 N 
ATOM      8  H3  UNL     1     -25.187   7.280 -11.232  1.00  0.00     0.166 HD
HETATM    9  C13 UNL     1     -26.803   8.019 -10.234  1.00  0.00     0.113 A 
HETATM   10  N4  UNL     1     -27.514   6.967 -10.355  1.00  0.00    -0.354 N 
ATOM     11  H4  UNL     1     -28.437   7.047  -9.927  1.00  0.00     0.166 HD
ENDROOT
BRANCH   3  12
HETATM   12  O1  UNL     1     -27.081  11.310  -8.803  1.00  0.00    -0.306 OA
BRANCH  12  13
HETATM   13  C4  UNL     1     -27.603  12.301  -8.187  1.00  0.00     0.108 A 
HETATM   14  C5  UNL     1     -28.986  12.517  -8.330  1.00  0.00     0.082 A 
HETATM   15  C6  UNL     1     -29.671  13.529  -7.729  1.00  0.00     0.121 A 
HETATM   16  F1  UNL     1     -31.006  13.701  -7.894  1.00  0.00    -0.206 F 
HETATM   17  C7  UNL     1     -28.985  14.399  -6.934  1.00  0.00     0.074 A 
HETATM   18  C8  UNL     1     -27.645  14.259  -6.743  1.00  0.00     0.069 A 
HETATM   19  N1  UNL     1     -26.800  14.997  -5.983  1.00  0.00    -0.306 N 
HETATM   20  C10 UNL     1     -26.958  13.222  -7.360  1.00  0.00     0.097 A 
HETATM   21  C9  UNL     1     -25.614  14.421  -6.131  1.00  0.00     0.325 A 
ATOM     22  H1  UNL     1     -27.026  15.817  -5.420  1.00  0.00     0.171 HD
HETATM   23  O2  UNL     1     -24.551  14.817  -5.574  1.00  0.00    -0.247 OA
HETATM   24  N2  UNL     1     -25.705  13.352  -6.957  1.00  0.00    -0.304 N 
ATOM     25  H2  UNL     1     -24.931  12.743  -7.225  1.00  0.00     0.171 HD
ENDBRANCH  12  13
ENDBRANCH   3  12
BRANCH  10  26
HETATM   26  C14 UNL     1     -27.281   5.724 -10.957  1.00  0.00     0.092 C 
BRANCH  26  27
HETATM   27  C15 UNL     1     -28.383   5.434 -11.964  1.00  0.00     0.317 C 
BRANCH  27  28
HETATM   28  N5  UNL     1     -28.677   4.057 -12.155  1.00  0.00     0.097 N 
HETATM   29  C16 UNL     1     -28.305   3.657 -13.508  1.00  0.00     0.299 C 
HETATM   30  C17 UNL     1     -29.044   4.381 -14.581  1.00  0.00     0.198 C 
HETATM   31  O3  UNL     1     -30.398   4.573 -14.290  1.00  0.00    -0.388 OA
HETATM   32  C18 UNL     1     -30.765   3.606 -13.369  1.00  0.00     0.198 C 
HETATM   33  C19 UNL     1     -30.110   3.828 -12.019  1.00  0.00     0.299 C 
ENDBRANCH  27  28
ENDBRANCH  26  27
ENDBRANCH  10  26
TORSDOF 5
ENDMDL
MODEL 5
REMARK VINA RESULT: -7.740812802      1.876      2.177
REMARK  5 active torsions:
REMARK  status: ('A' for Active; 'I' for Inactive)
REMARK    1  A    between atoms: C3_3  and  O1_4 
REMARK    2  A    between atoms: O1_4  and  C4_5 
REMARK    3  A    between atoms: N4_24  and  C14_26 
REMARK    4  A    between atoms: C14_26  and  C15_27 
REMARK    5  A    between atoms: C15_27  and  N5_28 
ROOT
HETATM    1  C1  UNL     1     -25.960  11.246  -9.475  1.00  0.00     0.055 C 
HETATM    2  C2  UNL     1     -24.979  10.528  -8.671  1.00  0.00     0.018 A 
HETATM    3  C3  UNL     1     -24.722  10.905  -7.340  1.00  0.00     0.108 A 
HETATM    4  C11 UNL     1     -23.795  10.131  -6.679  1.00  0.00     0.084 A 
HETATM    5 CL1  UNL     1     -23.261  10.476  -5.019  1.00  0.00    -0.080 Cl
HETATM    6  C12 UNL     1     -23.177   9.063  -7.307  1.00  0.00     0.116 A 
HETATM    7  N3  UNL     1     -23.461   8.752  -8.573  1.00  0.00    -0.350 N 
ATOM      8  H3  UNL     1     -22.989   7.959  -9.008  1.00  0.00     0.166 HD
HETATM    9  C13 UNL     1     -24.347   9.452  -9.288  1.00  0.00     0.113 A 
HETATM   10  N4  UNL     1     -24.609   9.155 -10.500  1.00  0.00    -0.354 N 
ATOM     11  H4  UNL     1     -25.299   9.771 -10.931  1.00  0.00     0.166 HD
ENDROOT
BRANCH   3  12
HETATM   12  O1  UNL     1     -25.329  11.904  -6.842  1.00  0.00    -0.306 OA
BRANCH  12  13
HETATM   13  C4  UNL     1     -25.939  12.909  -6.340  1.00  0.00     0.108 A 
HETATM   14  C5  UNL     1     -25.256  13.694  -5.393  1.00  0.00     0.082 A 
HETATM   15  C6  UNL     1     -25.783  14.793  -4.784  1.00  0.00     0.121 A 
HETATM   16  F1  UNL     1     -25.089  15.522  -3.875  1.00  0.00    -0.206 F 
HETATM   17  C7  UNL     1     -27.054  15.168  -5.102  1.00  0.00     0.074 A 
HETATM   18  C8  UNL     1     -27.782  14.462  -6.010  1.00  0.00     0.069 A 
HETATM   19  N1  UNL     1     -29.037  14.685  -6.471  1.00  0.00    -0.306 N 
HETATM   20  C10 UNL     1     -27.234  13.345  -6.625  1.00  0.00     0.097 A 
HETATM   21  C9  UNL     1     -29.254  13.720  -7.356  1.00  0.00     0.325 A 
ATOM     22  H1  UNL     1     -29.676  15.432  -6.197  1.00  0.00     0.171 HD
HETATM   23  O2  UNL     1     -30.323  13.580  -8.014  1.00  0.00    -0.247 OA
HETATM   24  N2  UNL     1     -28.171  12.913  -7.453  1.00  0.00    -0.304 N 
ATOM     25  H2  UNL     1     -28.091  12.102  -8.067  1.00  0.00     0.171 HD
ENDBRANCH  12  13
ENDBRANCH   3  12
BRANCH  10  26
HETATM   26  C14 UNL     1     -24.140   8.152 -11.358  1.00  0.00     0.092 C 
BRANCH  26  27
HETATM   27  C15 UNL     1     -25.283   7.216 -11.716  1.00  0.00     0.317 C 
BRANCH  27  28
HETATM   28  N5  UNL     1     -26.583   7.776 -11.589  1.00  0.00     0.097 N 
HETATM   29  C16 UNL     1     -27.413   6.910 -10.759  1.00  0.00     0.299 C 
HETATM   30  C17 UNL     1     -27.614   5.543 -11.317  1.00  0.00     0.198 C 
HETATM   31  O3  UNL     1     -27.815   5.534 -12.701  1.00  0.00    -0.388 OA
HETATM   32  C18 UNL     1     -28.282   6.786 -13.061  1.00  0.00     0.198 C 
HETATM   33  C19 UNL     1     -27.222   7.858 -12.896  1.00  0.00     0.299 C 
ENDBRANCH  27  28
ENDBRANCH  26  27
ENDBRANCH  10  26
TORSDOF 5
ENDMDL
