MODEL 1
REMARK VINA RESULT: -7.913470840      0.000      0.000
REMARK  5 active torsions:
REMARK  status: ('A' for Active; 'I' for Inactive)
REMARK    1  A    between atoms: O1_1  and  C1_3 
REMARK    2  A    between atoms: C4_6  and  O2_7 
REMARK    3  A    between atoms: N1_9  and  C5_10 
REMARK    4  A    between atoms: C5_10  and  C6_11 
REMARK    5  A    between atoms: C6_11  and  N2_12 
ROOT
HETATM    1  C1  UNL     1     -46.653  11.242   8.240  1.00  0.00     0.151 A 
HETATM    2  C2  UNL     1     -47.087   9.975   8.017  1.00  0.00     0.008 A 
HETATM    3  C3  UNL     1     -46.716   9.675   6.706  1.00  0.00     0.014 A 
HETATM    4  C4  UNL     1     -46.070  10.750   6.156  1.00  0.00     0.151 A 
HETATM    5  N1  UNL     1     -46.043  11.696   7.114  1.00  0.00    -0.306 N 
HETATM    6  C12 UNL     1     -47.116   8.298   6.275  1.00  0.00     0.096 C 
HETATM    7  C13 UNL     1     -46.468   7.360   7.302  1.00  0.00     0.016 C 
HETATM    8  C14 UNL     1     -46.899   7.669   8.694  1.00  0.00     0.010 C 
HETATM    9  C15 UNL     1     -47.800   8.891   8.737  1.00  0.00     0.029 C 
HETATM   10  C16 UNL     1     -49.012   8.534   7.864  1.00  0.00     0.089 C 
HETATM   11  C17 UNL     1     -48.612   8.160   6.478  1.00  0.00     0.252 C 
HETATM   12  F1  UNL     1     -49.214   9.010   5.541  1.00  0.00    -0.206 F 
HETATM   13  F2  UNL     1     -48.943   6.841   6.180  1.00  0.00    -0.206 F 
ENDROOT
BRANCH   5  14
HETATM   14  C5  UNL     1     -45.443  12.991   6.928  1.00  0.00     0.152 C 
BRANCH  14  15
HETATM   15  C6  UNL     1     -44.108  13.123   7.600  1.00  0.00     0.137 C 
BRANCH  15  16
HETATM   16  N2  UNL     1     -44.088  14.270   8.446  1.00  0.00    -0.411 N 
HETATM   17  C7  UNL     1     -42.948  15.110   8.297  1.00  0.00     0.117 C 
HETATM   18  C8  UNL     1     -43.350  16.472   7.731  1.00  0.00     0.019 C 
HETATM   19  C9  UNL     1     -44.222  17.138   8.765  1.00  0.00     0.003 C 
HETATM   20  C10 UNL     1     -45.097  16.160   9.490  1.00  0.00     0.019 C 
HETATM   21  C11 UNL     1     -45.334  14.946   8.589  1.00  0.00     0.117 C 
ENDBRANCH  15  16
ENDBRANCH  14  15
ENDBRANCH   5  14
BRANCH   1  22
HETATM   22  O1  UNL     1     -46.833  11.912   9.446  1.00  0.00    -0.345 OA
ATOM     23  H1  UNL     1     -46.736  12.852   9.542  1.00  0.00     0.219 HD
ENDBRANCH   1  22
BRANCH   4  24
HETATM   24  O2  UNL     1     -45.569  10.783   4.861  1.00  0.00    -0.345 OA
ATOM     25  H2  UNL     1     -46.102  10.910   4.084  1.00  0.00     0.219 HD
ENDBRANCH   4  24
TORSDOF 5
ENDMDL
MODEL 2
REMARK VINA RESULT: -7.818856334      0.840      1.044
REMARK  5 active torsions:
REMARK  status: ('A' for Active; 'I' for Inactive)
REMARK    1  A    between atoms: O1_1  and  C1_3 
REMARK    2  A    between atoms: C4_6  and  O2_7 
REMARK    3  A    between atoms: N1_9  and  C5_10 
REMARK    4  A    between atoms: C5_10  and  C6_11 
REMARK    5  A    between atoms: C6_11  and  N2_12 
ROOT
HETATM    1  C1  UNL     1     -46.584  11.324   8.218  1.00  0.00     0.151 A 
HETATM    2  C2  UNL     1     -47.038  10.063   8.001  1.00  0.00     0.008 A 
HETATM    3  C3  UNL     1     -46.680   9.755   6.687  1.00  0.00     0.014 A 
HETATM    4  C4  UNL     1     -46.021  10.819   6.132  1.00  0.00     0.151 A 
HETATM    5  N1  UNL     1     -45.974  11.766   7.087  1.00  0.00    -0.306 N 
HETATM    6  C12 UNL     1     -47.104   8.384   6.262  1.00  0.00     0.096 C 
HETATM    7  C13 UNL     1     -46.464   7.437   7.287  1.00  0.00     0.016 C 
HETATM    8  C14 UNL     1     -46.881   7.756   8.681  1.00  0.00     0.010 C 
HETATM    9  C15 UNL     1     -47.763   8.992   8.728  1.00  0.00     0.029 C 
HETATM   10  C16 UNL     1     -48.986   8.651   7.863  1.00  0.00     0.089 C 
HETATM   11  C17 UNL     1     -48.600   8.269   6.475  1.00  0.00     0.252 C 
HETATM   12  F1  UNL     1     -49.195   9.127   5.540  1.00  0.00    -0.206 F 
HETATM   13  F2  UNL     1     -48.954   6.955   6.182  1.00  0.00    -0.206 F 
ENDROOT
BRANCH   5  14
HETATM   14  C5  UNL     1     -45.356  13.052   6.895  1.00  0.00     0.152 C 
BRANCH  14  15
HETATM   15  C6  UNL     1     -44.028  13.175   7.584  1.00  0.00     0.137 C 
BRANCH  15  16
HETATM   16  N2  UNL     1     -43.815  14.515   8.018  1.00  0.00    -0.411 N 
HETATM   17  C7  UNL     1     -43.035  14.651   9.201  1.00  0.00     0.117 C 
HETATM   18  C8  UNL     1     -41.705  15.342   8.895  1.00  0.00     0.019 C 
HETATM   19  C9  UNL     1     -42.031  16.745   8.452  1.00  0.00     0.003 C 
HETATM   20  C10 UNL     1     -43.296  16.813   7.650  1.00  0.00     0.019 C 
HETATM   21  C11 UNL     1     -43.532  15.455   6.985  1.00  0.00     0.117 C 
ENDBRANCH  15  16
ENDBRANCH  14  15
ENDBRANCH   5  14
BRANCH   1  22
HETATM   22  O1  UNL     1     -46.746  11.999   9.424  1.00  0.00    -0.345 OA
ATOM     23  H1  UNL     1     -46.124  12.636   9.755  1.00  0.00     0.219 HD
ENDBRANCH   1  22
BRANCH   4  24
HETATM   24  O2  UNL     1     -45.529  10.842   4.833  1.00  0.00    -0.345 OA
ATOM     25  H2  UNL     1     -45.736  10.194   4.170  1.00  0.00     0.219 HD
ENDBRANCH   4  24
TORSDOF 5
ENDMDL
MODEL 3
REMARK VINA RESULT: -7.780341028      1.259      2.725
REMARK  5 active torsions:
REMARK  status: ('A' for Active; 'I' for Inactive)
REMARK    1  A    between atoms: O1_1  and  C1_3 
REMARK    2  A    between atoms: C4_6  and  O2_7 
REMARK    3  A    between atoms: N1_9  and  C5_10 
REMARK    4  A    between atoms: C5_10  and  C6_11 
REMARK    5  A    between atoms: C6_11  and  N2_12 
ROOT
HETATM    1  C1  UNL     1     -45.714  10.529   5.925  1.00  0.00     0.151 A 
HETATM    2  C2  UNL     1     -46.696   9.648   6.247  1.00  0.00     0.008 A 
HETATM    3  C3  UNL     1     -47.125  10.012   7.524  1.00  0.00     0.014 A 
HETATM    4  C4  UNL     1     -46.407  11.096   7.956  1.00  0.00     0.151 A 
HETATM    5  N1  UNL     1     -45.551  11.393   6.960  1.00  0.00    -0.306 N 
HETATM    6  C12 UNL     1     -48.221   9.142   8.054  1.00  0.00     0.096 C 
HETATM    7  C13 UNL     1     -49.339   9.233   7.007  1.00  0.00     0.016 C 
HETATM    8  C14 UNL     1     -48.876   8.810   5.655  1.00  0.00     0.010 C 
HETATM    9  C15 UNL     1     -47.394   8.481   5.654  1.00  0.00     0.029 C 
HETATM   10  C16 UNL     1     -47.230   7.335   6.664  1.00  0.00     0.089 C 
HETATM   11  C17 UNL     1     -47.738   7.705   8.015  1.00  0.00     0.252 C 
HETATM   12  F1  UNL     1     -46.719   7.609   8.973  1.00  0.00    -0.206 F 
HETATM   13  F2  UNL     1     -48.810   6.905   8.404  1.00  0.00    -0.206 F 
ENDROOT
BRANCH   5  14
HETATM   14  C5  UNL     1     -44.612  12.483   7.026  1.00  0.00     0.152 C 
BRANCH  14  15
HETATM   15  C6  UNL     1     -45.079  13.706   6.293  1.00  0.00     0.137 C 
BRANCH  15  16
HETATM   16  N2  UNL     1     -44.854  14.874   7.079  1.00  0.00    -0.411 N 
HETATM   17  C7  UNL     1     -45.339  14.805   8.415  1.00  0.00     0.117 C 
HETATM   18  C8  UNL     1     -44.180  14.832   9.413  1.00  0.00     0.019 C 
HETATM   19  C9  UNL     1     -43.518  16.180   9.282  1.00  0.00     0.003 C 
HETATM   20  C10 UNL     1     -43.512  16.679   7.868  1.00  0.00     0.019 C 
HETATM   21  C11 UNL     1     -43.573  15.479   6.921  1.00  0.00     0.117 C 
ENDBRANCH  15  16
ENDBRANCH  14  15
ENDBRANCH   5  14
BRANCH   1  22
HETATM   22  O1  UNL     1     -45.025  10.499   4.716  1.00  0.00    -0.345 OA
ATOM     23  H1  UNL     1     -44.077  10.530   4.654  1.00  0.00     0.219 HD
ENDBRANCH   1  22
BRANCH   4  24
HETATM   24  O2  UNL     1     -46.584  11.711   9.189  1.00  0.00    -0.345 OA
ATOM     25  H2  UNL     1     -46.222  12.558   9.421  1.00  0.00     0.219 HD
ENDBRANCH   4  24
TORSDOF 5
ENDMDL
MODEL 4
REMARK VINA RESULT: -7.762880482      1.067      2.461
REMARK  5 active torsions:
REMARK  status: ('A' for Active; 'I' for Inactive)
REMARK    1  A    between atoms: O1_1  and  C1_3 
REMARK    2  A    between atoms: C4_6  and  O2_7 
REMARK    3  A    between atoms: N1_9  and  C5_10 
REMARK    4  A    between atoms: C5_10  and  C6_11 
REMARK    5  A    between atoms: C6_11  and  N2_12 
ROOT
HETATM    1  C1  UNL     1     -45.977  10.869   5.895  1.00  0.00     0.151 A 
HETATM    2  C2  UNL     1     -46.800   9.844   6.237  1.00  0.00     0.008 A 
HETATM    3  C3  UNL     1     -47.216  10.114   7.542  1.00  0.00     0.014 A 
HETATM    4  C4  UNL     1     -46.648  11.285   7.970  1.00  0.00     0.151 A 
HETATM    5  N1  UNL     1     -45.895  11.728   6.945  1.00  0.00    -0.306 N 
HETATM    6  C12 UNL     1     -48.142   9.078   8.096  1.00  0.00     0.096 C 
HETATM    7  C13 UNL     1     -49.311   9.022   7.103  1.00  0.00     0.016 C 
HETATM    8  C14 UNL     1     -48.857   8.699   5.722  1.00  0.00     0.010 C 
HETATM    9  C15 UNL     1     -47.343   8.597   5.644  1.00  0.00     0.029 C 
HETATM   10  C16 UNL     1     -46.962   7.470   6.615  1.00  0.00     0.089 C 
HETATM   11  C17 UNL     1     -47.453   7.732   7.997  1.00  0.00     0.252 C 
HETATM   12  F1  UNL     1     -46.386   7.771   8.905  1.00  0.00    -0.206 F 
HETATM   13  F2  UNL     1     -48.373   6.772   8.411  1.00  0.00    -0.206 F 
ENDROOT
BRANCH   5  14
HETATM   14  C5  UNL     1     -45.128  12.945   6.997  1.00  0.00     0.152 C 
BRANCH  14  15
HETATM   15  C6  UNL     1     -44.048  12.914   8.039  1.00  0.00     0.137 C 
BRANCH  15  16
HETATM   16  N2  UNL     1     -43.978  14.165   8.719  1.00  0.00    -0.411 N 
HETATM   17  C7  UNL     1     -42.881  14.994   8.348  1.00  0.00     0.117 C 
HETATM   18  C8  UNL     1     -43.374  16.262   7.650  1.00  0.00     0.019 C 
HETATM   19  C9  UNL     1     -44.160  17.047   8.669  1.00  0.00     0.003 C 
HETATM   20  C10 UNL     1     -44.933  16.163   9.601  1.00  0.00     0.019 C 
HETATM   21  C11 UNL     1     -45.222  14.836   8.895  1.00  0.00     0.117 C 
ENDBRANCH  15  16
ENDBRANCH  14  15
ENDBRANCH   5  14
BRANCH   1  22
HETATM   22  O1  UNL     1     -45.351  10.968   4.656  1.00  0.00    -0.345 OA
ATOM     23  H1  UNL     1     -44.806  10.282   4.290  1.00  0.00     0.219 HD
ENDBRANCH   1  22
BRANCH   4  24
HETATM   24  O2  UNL     1     -46.855  11.841   9.225  1.00  0.00    -0.345 OA
ATOM     25  H2  UNL     1     -46.234  12.408   9.669  1.00  0.00     0.219 HD
ENDBRANCH   4  24
TORSDOF 5
ENDMDL
MODEL 5
REMARK VINA RESULT: -7.632204076      2.309      3.481
REMARK  5 active torsions:
REMARK  status: ('A' for Active; 'I' for Inactive)
REMARK    1  A    between atoms: O1_1  and  C1_3 
REMARK    2  A    between atoms: C4_6  and  O2_7 
REMARK    3  A    between atoms: N1_9  and  C5_10 
REMARK    4  A    between atoms: C5_10  and  C6_11 
REMARK    5  A    between atoms: C6_11  and  N2_12 
ROOT
HETATM    1  C1  UNL     1     -48.555   8.881   6.145  1.00  0.00     0.151 A 
HETATM    2  C2  UNL     1     -48.842   7.570   6.358  1.00  0.00     0.008 A 
HETATM    3  C3  UNL     1     -47.685   7.016   6.907  1.00  0.00     0.014 A 
HETATM    4  C4  UNL     1     -46.723   7.984   7.019  1.00  0.00     0.151 A 
HETATM    5  N1  UNL     1     -47.279   9.116   6.546  1.00  0.00    -0.306 N 
HETATM    6  C12 UNL     1     -47.813   5.557   7.214  1.00  0.00     0.096 C 
HETATM    7  C13 UNL     1     -49.021   5.456   8.155  1.00  0.00     0.016 C 
HETATM    8  C14 UNL     1     -50.256   6.021   7.544  1.00  0.00     0.010 C 
HETATM    9  C15 UNL     1     -49.974   6.627   6.180  1.00  0.00     0.029 C 
HETATM   10  C16 UNL     1     -49.428   5.473   5.327  1.00  0.00     0.089 C 
HETATM   11  C17 UNL     1     -48.224   4.845   5.940  1.00  0.00     0.252 C 
HETATM   12  F1  UNL     1     -47.125   4.927   5.075  1.00  0.00    -0.206 F 
HETATM   13  F2  UNL     1     -48.447   3.511   6.274  1.00  0.00    -0.206 F 
ENDROOT
BRANCH   5  14
HETATM   14  C5  UNL     1     -46.583  10.375   6.493  1.00  0.00     0.152 C 
BRANCH  14  15
HETATM   15  C6  UNL     1     -46.522  11.070   7.822  1.00  0.00     0.137 C 
BRANCH  15  16
HETATM   16  N2  UNL     1     -45.453  12.013   7.841  1.00  0.00    -0.411 N 
HETATM   17  C7  UNL     1     -44.711  12.111   6.630  1.00  0.00     0.117 C 
HETATM   18  C8  UNL     1     -44.905  13.485   5.988  1.00  0.00     0.019 C 
HETATM   19  C9  UNL     1     -44.300  14.498   6.926  1.00  0.00     0.003 C 
HETATM   20  C10 UNL     1     -44.496  14.132   8.367  1.00  0.00     0.019 C 
HETATM   21  C11 UNL     1     -45.741  13.250   8.486  1.00  0.00     0.117 C 
ENDBRANCH  15  16
ENDBRANCH  14  15
ENDBRANCH   5  14
BRANCH   1  22
HETATM   22  O1  UNL     1     -49.463   9.785   5.600  1.00  0.00    -0.345 OA
ATOM     23  H1  UNL     1     -50.117   9.545   4.954  1.00  0.00     0.219 HD
ENDBRANCH   1  22
BRANCH   4  24
HETATM   24  O2  UNL     1     -45.449   7.766   7.529  1.00  0.00    -0.345 OA
ATOM     25  H2  UNL     1     -45.126   8.140   8.340  1.00  0.00     0.219 HD
ENDBRANCH   4  24
TORSDOF 5
ENDMDL
