MODEL 1
REMARK VINA RESULT: -8.218326433      0.000      0.000
REMARK  10 active torsions:
REMARK  status: ('A' for Active; 'I' for Inactive)
REMARK    1  A    between atoms: C2_2  and  C3_3 
REMARK    2  A    between atoms: C3_3  and  N1_4 
REMARK       I    between atoms: N1_4  and  C4_5 
REMARK    3  A    between atoms: N1_4  and  C18_30 
REMARK       I    between atoms: C4_5  and  N2_7 
REMARK    4  A    between atoms: N2_7  and  C5_9 
REMARK    5  A    between atoms: C9_13  and  C10_14 
REMARK    6  A    between atoms: N3_18  and  C14_19 
REMARK    7  A    between atoms: C14_19  and  O2_20 
REMARK    8  A    between atoms: C14_19  and  C15_22 
REMARK    9  A    between atoms: C15_22  and  O3_24 
REMARK   10  A    between atoms: C15_22  and  C17_26 
ROOT
HETATM    1  C5  UNL     1     -40.556  -2.029   3.314  1.00  0.00     0.093 C 
HETATM    2  C6  UNL     1     -39.644  -1.042   4.045  1.00  0.00     0.077 C 
HETATM    3  C7  UNL     1     -40.529  -0.105   4.844  1.00  0.00     0.013 C 
HETATM    4  C8  UNL     1     -41.649  -0.684   5.596  1.00  0.00     0.054 C 
HETATM    5  C9  UNL     1     -42.367  -1.787   4.804  1.00  0.00     0.005 C 
HETATM    6  N3  UNL     1     -41.363  -2.703   4.305  1.00  0.00    -0.289 N 
ENDROOT
BRANCH   1   7
HETATM    7  N2  UNL     1     -40.095  -2.617   2.158  1.00  0.00    -0.298 N 
HETATM    8  C4  UNL     1     -40.732  -2.398   0.853  1.00  0.00     0.324 C 
HETATM    9  N1  UNL     1     -40.289  -2.977  -0.344  1.00  0.00    -0.326 N 
HETATM   10  O1  UNL     1     -41.748  -1.634   0.821  1.00  0.00    -0.247 OA
ATOM     11  H2  UNL     1     -39.280  -3.228   2.210  1.00  0.00     0.172 HD
BRANCH   9  12
HETATM   12  C3  UNL     1     -39.155  -3.825  -0.320  1.00  0.00     0.128 C 
BRANCH  12  13
HETATM   13  C2  UNL     1     -37.835  -3.197  -0.605  1.00  0.00     0.015 C 
HETATM   14  C1  UNL     1     -37.028  -3.265   0.697  1.00  0.00     0.006 C 
ENDBRANCH  12  13
ENDBRANCH   9  12
BRANCH   9  15
HETATM   15  C18 UNL     1     -41.033  -2.653  -1.563  1.00  0.00     0.026 C 
HETATM   16  C19 UNL     1     -42.525  -2.947  -1.368  1.00  0.00     0.037 C 
HETATM   17  C20 UNL     1     -40.605  -3.446  -2.758  1.00  0.00     0.037 C 
HETATM   18  C21 UNL     1     -40.939  -1.146  -1.782  1.00  0.00     0.037 C 
ENDBRANCH   9  15
ENDBRANCH   1   7
BRANCH   6  19
HETATM   19  C14 UNL     1     -41.059  -3.964   4.776  1.00  0.00     0.168 C 
BRANCH  19  20
HETATM   20  O2  UNL     1     -41.869  -4.909   4.362  1.00  0.00    -0.346 OA
ATOM     21  H2  UNL     1     -42.032  -5.596   4.998  1.00  0.00     0.219 HD
ENDBRANCH  19  20
BRANCH  19  22
HETATM   22  C15 UNL     1     -40.040  -4.517   5.650  1.00  0.00     0.217 C 
HETATM   23  C16 UNL     1     -39.478  -3.526   6.645  1.00  0.00     0.065 C 
BRANCH  22  24
HETATM   24  O3  UNL     1     -40.282  -5.674   6.323  1.00  0.00    -0.374 OA
ATOM     25  H3  UNL     1     -40.901  -6.303   5.970  1.00  0.00     0.211 HD
ENDBRANCH  22  24
BRANCH  22  26
HETATM   26  C17 UNL     1     -38.824  -4.870   4.755  1.00  0.00     0.425 C 
HETATM   27  F1  UNL     1     -38.103  -5.810   5.458  1.00  0.00    -0.167 F 
HETATM   28  F2  UNL     1     -38.009  -3.734   4.673  1.00  0.00    -0.167 F 
HETATM   29  F3  UNL     1     -39.214  -5.294   3.524  1.00  0.00    -0.167 F 
ENDBRANCH  22  26
ENDBRANCH  19  22
ENDBRANCH   6  19
BRANCH   5  30
HETATM   30  C10 UNL     1     -43.646  -2.181   5.364  1.00  0.00    -0.012 C 
HETATM   31  C11 UNL     1     -44.428  -0.813   5.456  1.00  0.00     0.021 C 
HETATM   32  C12 UNL     1     -44.495  -2.966   4.395  1.00  0.00     0.021 C 
HETATM   33  C13 UNL     1     -43.706  -2.671   6.777  1.00  0.00     0.021 C 
ENDBRANCH   5  30
TORSDOF 10
ENDMDL
MODEL 2
REMARK VINA RESULT: -7.057199612      1.494      1.965
REMARK  10 active torsions:
REMARK  status: ('A' for Active; 'I' for Inactive)
REMARK    1  A    between atoms: C2_2  and  C3_3 
REMARK    2  A    between atoms: C3_3  and  N1_4 
REMARK       I    between atoms: N1_4  and  C4_5 
REMARK    3  A    between atoms: N1_4  and  C18_30 
REMARK       I    between atoms: C4_5  and  N2_7 
REMARK    4  A    between atoms: N2_7  and  C5_9 
REMARK    5  A    between atoms: C9_13  and  C10_14 
REMARK    6  A    between atoms: N3_18  and  C14_19 
REMARK    7  A    between atoms: C14_19  and  O2_20 
REMARK    8  A    between atoms: C14_19  and  C15_22 
REMARK    9  A    between atoms: C15_22  and  O3_24 
REMARK   10  A    between atoms: C15_22  and  C17_26 
ROOT
HETATM    1  C5  UNL     1     -40.484  -2.044   3.494  1.00  0.00     0.093 C 
HETATM    2  C6  UNL     1     -39.813  -0.818   4.114  1.00  0.00     0.077 C 
HETATM    3  C7  UNL     1     -40.904   0.053   4.706  1.00  0.00     0.013 C 
HETATM    4  C8  UNL     1     -41.973  -0.600   5.472  1.00  0.00     0.054 C 
HETATM    5  C9  UNL     1     -42.429  -1.914   4.821  1.00  0.00     0.005 C 
HETATM    6  N3  UNL     1     -41.248  -2.701   4.529  1.00  0.00    -0.289 N 
ENDROOT
BRANCH   1   7
HETATM    7  N2  UNL     1     -39.837  -2.700   2.472  1.00  0.00    -0.298 N 
HETATM    8  C4  UNL     1     -40.124  -2.433   1.056  1.00  0.00     0.324 C 
HETATM    9  N1  UNL     1     -39.482  -3.079  -0.010  1.00  0.00    -0.326 N 
HETATM   10  O1  UNL     1     -41.010  -1.560   0.795  1.00  0.00    -0.247 OA
ATOM     11  H2  UNL     1     -39.131  -3.398   2.706  1.00  0.00     0.172 HD
BRANCH   9  12
HETATM   12  C3  UNL     1     -38.490  -4.050   0.270  1.00  0.00     0.128 C 
BRANCH  12  13
HETATM   13  C2  UNL     1     -37.202  -3.557   0.832  1.00  0.00     0.015 C 
HETATM   14  C1  UNL     1     -36.986  -4.303   2.153  1.00  0.00     0.006 C 
ENDBRANCH  12  13
ENDBRANCH   9  12
BRANCH   9  15
HETATM   15  C18 UNL     1     -39.880  -2.695  -1.366  1.00  0.00     0.026 C 
HETATM   16  C19 UNL     1     -39.555  -1.217  -1.615  1.00  0.00     0.037 C 
HETATM   17  C20 UNL     1     -41.345  -2.849  -1.630  1.00  0.00     0.037 C 
HETATM   18  C21 UNL     1     -39.011  -3.476  -2.347  1.00  0.00     0.037 C 
ENDBRANCH   9  15
ENDBRANCH   1   7
BRANCH   6  19
HETATM   19  C14 UNL     1     -40.781  -3.809   5.207  1.00  0.00     0.168 C 
BRANCH  19  20
HETATM   20  O2  UNL     1     -41.512  -4.887   5.057  1.00  0.00    -0.346 OA
ATOM     21  H2  UNL     1     -41.416  -5.529   5.751  1.00  0.00     0.219 HD
ENDBRANCH  19  20
BRANCH  19  22
HETATM   22  C15 UNL     1     -39.651  -4.079   6.077  1.00  0.00     0.217 C 
HETATM   23  C16 UNL     1     -39.690  -5.441   6.733  1.00  0.00     0.065 C 
BRANCH  22  24
HETATM   24  O3  UNL     1     -38.385  -3.886   5.618  1.00  0.00    -0.374 OA
ATOM     25  H3  UNL     1     -37.645  -4.137   6.158  1.00  0.00     0.211 HD
ENDBRANCH  22  24
BRANCH  22  26
HETATM   26  C17 UNL     1     -39.755  -3.093   7.269  1.00  0.00     0.425 C 
HETATM   27  F1  UNL     1     -39.175  -1.920   6.836  1.00  0.00    -0.167 F 
HETATM   28  F2  UNL     1     -38.937  -3.577   8.297  1.00  0.00    -0.167 F 
HETATM   29  F3  UNL     1     -41.040  -2.942   7.684  1.00  0.00    -0.167 F 
ENDBRANCH  22  26
ENDBRANCH  19  22
ENDBRANCH   6  19
BRANCH   5  30
HETATM   30  C10 UNL     1     -43.668  -2.444   5.359  1.00  0.00    -0.012 C 
HETATM   31  C11 UNL     1     -44.676  -1.245   5.170  1.00  0.00     0.021 C 
HETATM   32  C12 UNL     1     -44.279  -3.512   4.487  1.00  0.00     0.021 C 
HETATM   33  C13 UNL     1     -43.771  -2.711   6.828  1.00  0.00     0.021 C 
ENDBRANCH   5  30
TORSDOF 10
ENDMDL
MODEL 3
REMARK VINA RESULT: -6.907597689      2.782      4.865
REMARK  10 active torsions:
REMARK  status: ('A' for Active; 'I' for Inactive)
REMARK    1  A    between atoms: C2_2  and  C3_3 
REMARK    2  A    between atoms: C3_3  and  N1_4 
REMARK       I    between atoms: N1_4  and  C4_5 
REMARK    3  A    between atoms: N1_4  and  C18_30 
REMARK       I    between atoms: C4_5  and  N2_7 
REMARK    4  A    between atoms: N2_7  and  C5_9 
REMARK    5  A    between atoms: C9_13  and  C10_14 
REMARK    6  A    between atoms: N3_18  and  C14_19 
REMARK    7  A    between atoms: C14_19  and  O2_20 
REMARK    8  A    between atoms: C14_19  and  C15_22 
REMARK    9  A    between atoms: C15_22  and  O3_24 
REMARK   10  A    between atoms: C15_22  and  C17_26 
ROOT
HETATM    1  C5  UNL     1     -38.972  -3.610   5.162  1.00  0.00     0.093 C 
HETATM    2  C6  UNL     1     -38.813  -5.131   5.134  1.00  0.00     0.077 C 
HETATM    3  C7  UNL     1     -37.708  -5.495   6.106  1.00  0.00     0.013 C 
HETATM    4  C8  UNL     1     -37.690  -4.832   7.415  1.00  0.00     0.054 C 
HETATM    5  C9  UNL     1     -38.039  -3.340   7.311  1.00  0.00     0.005 C 
HETATM    6  N3  UNL     1     -39.250  -3.219   6.525  1.00  0.00    -0.289 N 
ENDROOT
BRANCH   1   7
HETATM    7  N2  UNL     1     -39.493  -2.984   4.053  1.00  0.00    -0.298 N 
HETATM    8  C4  UNL     1     -38.870  -3.079   2.727  1.00  0.00     0.324 C 
HETATM    9  N1  UNL     1     -39.374  -2.458   1.576  1.00  0.00    -0.326 N 
HETATM   10  O1  UNL     1     -37.807  -3.771   2.630  1.00  0.00    -0.247 OA
ATOM     11  H2  UNL     1     -40.346  -2.432   4.156  1.00  0.00     0.172 HD
BRANCH   9  12
HETATM   12  C3  UNL     1     -40.560  -1.689   1.672  1.00  0.00     0.128 C 
BRANCH  12  13
HETATM   13  C2  UNL     1     -41.836  -2.435   1.852  1.00  0.00     0.015 C 
HETATM   14  C1  UNL     1     -42.547  -2.420   0.494  1.00  0.00     0.006 C 
ENDBRANCH  12  13
ENDBRANCH   9  12
BRANCH   9  15
HETATM   15  C18 UNL     1     -38.635  -2.656   0.327  1.00  0.00     0.026 C 
HETATM   16  C19 UNL     1     -38.907  -4.057  -0.234  1.00  0.00     0.037 C 
HETATM   17  C20 UNL     1     -37.151  -2.551   0.483  1.00  0.00     0.037 C 
HETATM   18  C21 UNL     1     -39.197  -1.685  -0.707  1.00  0.00     0.037 C 
ENDBRANCH   9  15
ENDBRANCH   1   7
BRANCH   6  19
HETATM   19  C14 UNL     1     -40.527  -2.949   6.974  1.00  0.00     0.168 C 
BRANCH  19  20
HETATM   20  O2  UNL     1     -41.026  -3.861   7.774  1.00  0.00    -0.346 OA
ATOM     21  H2  UNL     1     -41.800  -3.585   8.252  1.00  0.00     0.219 HD
ENDBRANCH  19  20
BRANCH  19  22
HETATM   22  C15 UNL     1     -41.484  -1.878   6.766  1.00  0.00     0.217 C 
HETATM   23  C16 UNL     1     -42.207  -1.444   8.021  1.00  0.00     0.065 C 
BRANCH  22  24
HETATM   24  O3  UNL     1     -41.101  -0.750   6.107  1.00  0.00    -0.374 OA
ATOM     25  H3  UNL     1     -41.665   0.014   6.116  1.00  0.00     0.211 HD
ENDBRANCH  22  24
BRANCH  22  26
HETATM   26  C17 UNL     1     -42.613  -2.451   5.870  1.00  0.00     0.425 C 
HETATM   27  F1  UNL     1     -42.988  -1.420   5.037  1.00  0.00    -0.167 F 
HETATM   28  F2  UNL     1     -43.717  -2.713   6.690  1.00  0.00    -0.167 F 
HETATM   29  F3  UNL     1     -42.208  -3.566   5.206  1.00  0.00    -0.167 F 
ENDBRANCH  22  26
ENDBRANCH  19  22
ENDBRANCH   6  19
BRANCH   5  30
HETATM   30  C10 UNL     1     -37.748  -2.578   8.510  1.00  0.00    -0.012 C 
HETATM   31  C11 UNL     1     -36.196  -2.792   8.697  1.00  0.00     0.021 C 
HETATM   32  C12 UNL     1     -37.839  -1.087   8.297  1.00  0.00     0.021 C 
HETATM   33  C13 UNL     1     -38.289  -3.048   9.825  1.00  0.00     0.021 C 
ENDBRANCH   5  30
TORSDOF 10
ENDMDL
MODEL 4
REMARK VINA RESULT: -6.875130259      1.102      2.143
REMARK  10 active torsions:
REMARK  status: ('A' for Active; 'I' for Inactive)
REMARK    1  A    between atoms: C2_2  and  C3_3 
REMARK    2  A    between atoms: C3_3  and  N1_4 
REMARK       I    between atoms: N1_4  and  C4_5 
REMARK    3  A    between atoms: N1_4  and  C18_30 
REMARK       I    between atoms: C4_5  and  N2_7 
REMARK    4  A    between atoms: N2_7  and  C5_9 
REMARK    5  A    between atoms: C9_13  and  C10_14 
REMARK    6  A    between atoms: N3_18  and  C14_19 
REMARK    7  A    between atoms: C14_19  and  O2_20 
REMARK    8  A    between atoms: C14_19  and  C15_22 
REMARK    9  A    between atoms: C15_22  and  O3_24 
REMARK   10  A    between atoms: C15_22  and  C17_26 
ROOT
HETATM    1  C5  UNL     1     -41.388  -1.709   3.484  1.00  0.00     0.093 C 
HETATM    2  C6  UNL     1     -40.148  -0.853   3.748  1.00  0.00     0.077 C 
HETATM    3  C7  UNL     1     -40.442   0.023   4.950  1.00  0.00     0.013 C 
HETATM    4  C8  UNL     1     -41.109  -0.587   6.106  1.00  0.00     0.054 C 
HETATM    5  C9  UNL     1     -42.221  -1.559   5.684  1.00  0.00     0.005 C 
HETATM    6  N3  UNL     1     -41.675  -2.456   4.687  1.00  0.00    -0.289 N 
ENDROOT
BRANCH   1   7
HETATM    7  N2  UNL     1     -41.601  -2.179   2.208  1.00  0.00    -0.298 N 
HETATM    8  C4  UNL     1     -40.513  -2.341   1.235  1.00  0.00     0.324 C 
HETATM    9  N1  UNL     1     -40.692  -2.820  -0.070  1.00  0.00    -0.326 N 
HETATM   10  O1  UNL     1     -39.341  -2.024   1.613  1.00  0.00    -0.247 OA
ATOM     11  H2  UNL     1     -42.551  -2.425   1.928  1.00  0.00     0.172 HD
BRANCH   9  12
HETATM   12  C3  UNL     1     -41.993  -3.180  -0.499  1.00  0.00     0.128 C 
BRANCH  12  13
HETATM   13  C2  UNL     1     -42.913  -2.070  -0.871  1.00  0.00     0.015 C 
HETATM   14  C1  UNL     1     -43.246  -2.256  -2.356  1.00  0.00     0.006 C 
ENDBRANCH  12  13
ENDBRANCH   9  12
BRANCH   9  15
HETATM   15  C18 UNL     1     -39.501  -2.927  -0.916  1.00  0.00     0.026 C 
HETATM   16  C19 UNL     1     -39.853  -3.604  -2.246  1.00  0.00     0.037 C 
HETATM   17  C20 UNL     1     -38.405  -3.745  -0.310  1.00  0.00     0.037 C 
HETATM   18  C21 UNL     1     -39.058  -1.514  -1.281  1.00  0.00     0.037 C 
ENDBRANCH   9  15
ENDBRANCH   1   7
BRANCH   6  19
HETATM   19  C14 UNL     1     -41.303  -3.775   4.847  1.00  0.00     0.168 C 
BRANCH  19  20
HETATM   20  O2  UNL     1     -42.147  -4.644   4.345  1.00  0.00    -0.346 OA
ATOM     21  H2  UNL     1     -42.616  -5.157   4.992  1.00  0.00     0.219 HD
ENDBRANCH  19  20
BRANCH  19  22
HETATM   22  C15 UNL     1     -40.177  -4.457   5.461  1.00  0.00     0.217 C 
HETATM   23  C16 UNL     1     -39.447  -3.633   6.498  1.00  0.00     0.065 C 
BRANCH  22  24
HETATM   24  O3  UNL     1     -40.345  -5.704   5.978  1.00  0.00    -0.374 OA
ATOM     25  H3  UNL     1     -39.720  -6.388   5.770  1.00  0.00     0.211 HD
ENDBRANCH  22  24
BRANCH  22  26
HETATM   26  C17 UNL     1     -39.119  -4.669   4.348  1.00  0.00     0.425 C 
HETATM   27  F1  UNL     1     -38.290  -5.669   4.806  1.00  0.00    -0.167 F 
HETATM   28  F2  UNL     1     -38.334  -3.512   4.278  1.00  0.00    -0.167 F 
HETATM   29  F3  UNL     1     -39.699  -4.951   3.151  1.00  0.00    -0.167 F 
ENDBRANCH  22  26
ENDBRANCH  19  22
ENDBRANCH   6  19
BRANCH   5  30
HETATM   30  C10 UNL     1     -43.101  -1.958   6.766  1.00  0.00    -0.012 C 
HETATM   31  C11 UNL     1     -43.780  -0.598   7.189  1.00  0.00     0.021 C 
HETATM   32  C12 UNL     1     -44.282  -2.770   6.295  1.00  0.00     0.021 C 
HETATM   33  C13 UNL     1     -42.506  -2.425   8.059  1.00  0.00     0.021 C 
ENDBRANCH   5  30
TORSDOF 10
ENDMDL
MODEL 5
REMARK VINA RESULT: -6.638669626      2.513      4.442
REMARK  10 active torsions:
REMARK  status: ('A' for Active; 'I' for Inactive)
REMARK    1  A    between atoms: C2_2  and  C3_3 
REMARK    2  A    between atoms: C3_3  and  N1_4 
REMARK       I    between atoms: N1_4  and  C4_5 
REMARK    3  A    between atoms: N1_4  and  C18_30 
REMARK       I    between atoms: C4_5  and  N2_7 
REMARK    4  A    between atoms: N2_7  and  C5_9 
REMARK    5  A    between atoms: C9_13  and  C10_14 
REMARK    6  A    between atoms: N3_18  and  C14_19 
REMARK    7  A    between atoms: C14_19  and  O2_20 
REMARK    8  A    between atoms: C14_19  and  C15_22 
REMARK    9  A    between atoms: C15_22  and  O3_24 
REMARK   10  A    between atoms: C15_22  and  C17_26 
ROOT
HETATM    1  C5  UNL     1     -39.821  -3.238   4.557  1.00  0.00     0.093 C 
HETATM    2  C6  UNL     1     -39.540  -4.737   4.671  1.00  0.00     0.077 C 
HETATM    3  C7  UNL     1     -38.540  -4.933   5.794  1.00  0.00     0.013 C 
HETATM    4  C8  UNL     1     -38.739  -4.180   7.038  1.00  0.00     0.054 C 
HETATM    5  C9  UNL     1     -39.190  -2.736   6.773  1.00  0.00     0.005 C 
HETATM    6  N3  UNL     1     -40.298  -2.779   5.841  1.00  0.00    -0.289 N 
ENDROOT
BRANCH   1   7
HETATM    7  N2  UNL     1     -40.247  -2.740   3.347  1.00  0.00    -0.298 N 
HETATM    8  C4  UNL     1     -39.425  -2.811   2.131  1.00  0.00     0.324 C 
HETATM    9  N1  UNL     1     -39.828  -2.317   0.883  1.00  0.00    -0.326 N 
HETATM   10  O1  UNL     1     -38.281  -3.355   2.232  1.00  0.00    -0.247 OA
ATOM     11  H2  UNL     1     -41.168  -2.306   3.292  1.00  0.00     0.172 HD
BRANCH   9  12
HETATM   12  C3  UNL     1     -41.103  -1.713   0.759  1.00  0.00     0.128 C 
BRANCH  12  13
HETATM   13  C2  UNL     1     -42.279  -2.625   0.694  1.00  0.00     0.015 C 
HETATM   14  C1  UNL     1     -42.732  -2.651  -0.769  1.00  0.00     0.006 C 
ENDBRANCH  12  13
ENDBRANCH   9  12
BRANCH   9  15
HETATM   15  C18 UNL     1     -38.892  -2.470  -0.234  1.00  0.00     0.026 C 
HETATM   16  C19 UNL     1     -39.073  -3.842  -0.895  1.00  0.00     0.037 C 
HETATM   17  C20 UNL     1     -37.454  -2.391   0.172  1.00  0.00     0.037 C 
HETATM   18  C21 UNL     1     -39.268  -1.449  -1.302  1.00  0.00     0.037 C 
ENDBRANCH   9  15
ENDBRANCH   1   7
BRANCH   6  19
HETATM   19  C14 UNL     1     -41.638  -2.593   6.111  1.00  0.00     0.168 C 
BRANCH  19  20
HETATM   20  O2  UNL     1     -42.049  -3.139   7.231  1.00  0.00    -0.346 OA
ATOM     21  H2  UNL     1     -42.975  -3.024   7.409  1.00  0.00     0.219 HD
ENDBRANCH  19  20
BRANCH  19  22
HETATM   22  C15 UNL     1     -42.739  -1.929   5.437  1.00  0.00     0.217 C 
HETATM   23  C16 UNL     1     -43.697  -1.220   6.370  1.00  0.00     0.065 C 
BRANCH  22  24
HETATM   24  O3  UNL     1     -42.486  -1.087   4.400  1.00  0.00    -0.374 OA
ATOM     25  H3  UNL     1     -42.932  -0.249   4.352  1.00  0.00     0.211 HD
ENDBRANCH  22  24
BRANCH  22  26
HETATM   26  C17 UNL     1     -43.608  -3.040   4.793  1.00  0.00     0.425 C 
HETATM   27  F1  UNL     1     -44.166  -2.474   3.668  1.00  0.00    -0.167 F 
HETATM   28  F2  UNL     1     -44.672  -3.309   5.663  1.00  0.00    -0.167 F 
HETATM   29  F3  UNL     1     -42.881  -4.158   4.535  1.00  0.00    -0.167 F 
ENDBRANCH  22  26
ENDBRANCH  19  22
ENDBRANCH   6  19
BRANCH   5  30
HETATM   30  C10 UNL     1     -39.114  -1.869   7.933  1.00  0.00    -0.012 C 
HETATM   31  C11 UNL     1     -39.264  -2.877   9.138  1.00  0.00     0.021 C 
HETATM   32  C12 UNL     1     -37.731  -1.309   8.159  1.00  0.00     0.021 C 
HETATM   33  C13 UNL     1     -40.223  -0.899   8.196  1.00  0.00     0.021 C 
ENDBRANCH   5  30
TORSDOF 10
ENDMDL
