MODEL 1
REMARK VINA RESULT: -6.872471612      0.000      0.000
REMARK  7 active torsions:
REMARK  status: ('A' for Active; 'I' for Inactive)
REMARK    1  A    between atoms: O1_2  and  C2_3 
REMARK    2  A    between atoms: C2_3  and  C3_5 
REMARK    3  A    between atoms: C4_6  and  N1_7 
REMARK       I    between atoms: N1_7  and  C5_9 
REMARK    4  A    between atoms: C5_9  and  C6_11 
REMARK    5  A    between atoms: C6_11  and  O4_12 
REMARK    6  A    between atoms: O4_12  and  C7_13 
REMARK    7  A    between atoms: C7_13  and  C8_15 
ROOT
HETATM    1  C3  UNL     1     -16.219  11.697  27.243  1.00  0.00     0.080 A 
HETATM    2  C4  UNL     1     -17.289  10.885  27.497  1.00  0.00     0.094 A 
HETATM    3  S1  UNL     1     -18.165  11.745  28.691  1.00  0.00    -0.074 SA
HETATM    4  C12 UNL     1     -17.166  13.097  28.838  1.00  0.00     0.001 A 
HETATM    5  C13 UNL     1     -16.150  12.862  27.945  1.00  0.00    -0.024 A 
HETATM    6  C14 UNL     1     -15.123  13.988  27.912  1.00  0.00     0.051 C 
HETATM    7  C15 UNL     1     -14.360  13.894  29.226  1.00  0.00     0.079 C 
HETATM    8  S2  UNL     1     -15.566  14.458  30.497  1.00  0.00    -0.164 SA
HETATM    9  C16 UNL     1     -17.190  14.357  29.683  1.00  0.00     0.120 C 
ENDROOT
BRANCH   2  10
HETATM   10  N1  UNL     1     -17.685   9.612  26.960  1.00  0.00    -0.319 N 
HETATM   11  C5  UNL     1     -17.218   8.439  27.600  1.00  0.00     0.246 C 
HETATM   12  O3  UNL     1     -16.486   8.528  28.597  1.00  0.00    -0.271 OA
ATOM     13  H1  UNL     1     -18.288   9.555  26.139  1.00  0.00     0.169 HD
BRANCH  11  14
HETATM   14  C6  UNL     1     -17.604   7.122  27.077  1.00  0.00     0.281 C 
BRANCH  14  15
HETATM   15  O4  UNL     1     -17.801   7.187  25.663  1.00  0.00    -0.310 OA
BRANCH  15  16
HETATM   16  C7  UNL     1     -19.083   6.842  25.193  1.00  0.00     0.288 C 
HETATM   17  O5  UNL     1     -19.495   5.654  25.255  1.00  0.00    -0.262 OA
BRANCH  16  18
HETATM   18  C8  UNL     1     -19.978   7.863  24.616  1.00  0.00     0.221 C 
HETATM   19  C9  UNL     1     -21.249   7.199  24.141  1.00  0.00     0.044 C 
HETATM   20  C10 UNL     1     -22.317   7.997  24.898  1.00  0.00     0.029 C 
HETATM   21  C11 UNL     1     -21.541   9.294  25.156  1.00  0.00     0.169 C 
HETATM   22  O6  UNL     1     -20.320   8.783  25.580  1.00  0.00    -0.376 OA
ENDBRANCH  16  18
ENDBRANCH  15  16
ENDBRANCH  14  15
ENDBRANCH  11  14
ENDBRANCH   2  10
BRANCH   1  23
HETATM   23  C2  UNL     1     -15.186  11.287  26.241  1.00  0.00     0.296 C 
HETATM   24  O2  UNL     1     -13.996  11.670  26.303  1.00  0.00    -0.259 OA
BRANCH  23  25
HETATM   25  O1  UNL     1     -15.494  10.459  25.183  1.00  0.00    -0.322 OA
HETATM   26  C1  UNL     1     -14.755   9.287  24.947  1.00  0.00     0.213 C 
ENDBRANCH  23  25
ENDBRANCH   1  23
TORSDOF 7
ENDMDL
MODEL 2
REMARK VINA RESULT: -6.706001647      7.273     11.225
REMARK  7 active torsions:
REMARK  status: ('A' for Active; 'I' for Inactive)
REMARK    1  A    between atoms: O1_2  and  C2_3 
REMARK    2  A    between atoms: C2_3  and  C3_5 
REMARK    3  A    between atoms: C4_6  and  N1_7 
REMARK       I    between atoms: N1_7  and  C5_9 
REMARK    4  A    between atoms: C5_9  and  C6_11 
REMARK    5  A    between atoms: C6_11  and  O4_12 
REMARK    6  A    between atoms: O4_12  and  C7_13 
REMARK    7  A    between atoms: C7_13  and  C8_15 
ROOT
HETATM    1  C3  UNL     1     -17.725  15.349  30.994  1.00  0.00     0.080 A 
HETATM    2  C4  UNL     1     -18.321  16.424  31.593  1.00  0.00     0.094 A 
HETATM    3  S1  UNL     1     -19.988  16.045  31.522  1.00  0.00    -0.074 SA
HETATM    4  C12 UNL     1     -19.894  14.550  30.745  1.00  0.00     0.001 A 
HETATM    5  C13 UNL     1     -18.548  14.360  30.547  1.00  0.00    -0.024 A 
HETATM    6  C14 UNL     1     -18.237  13.039  29.854  1.00  0.00     0.051 C 
HETATM    7  C15 UNL     1     -18.704  13.204  28.414  1.00  0.00     0.079 C 
HETATM    8  S2  UNL     1     -20.541  13.199  28.527  1.00  0.00    -0.164 SA
HETATM    9  C16 UNL     1     -20.907  13.521  30.280  1.00  0.00     0.120 C 
ENDROOT
BRANCH   2  10
HETATM   10  N1  UNL     1     -17.785  17.626  32.173  1.00  0.00    -0.319 N 
HETATM   11  C5  UNL     1     -18.177  17.968  33.489  1.00  0.00     0.246 C 
HETATM   12  O3  UNL     1     -18.964  17.238  34.110  1.00  0.00    -0.271 OA
ATOM     13  H1  UNL     1     -17.139  18.217  31.649  1.00  0.00     0.169 HD
BRANCH  11  14
HETATM   14  C6  UNL     1     -17.648  19.189  34.111  1.00  0.00     0.281 C 
BRANCH  14  15
HETATM   15  O4  UNL     1     -16.762  18.857  35.182  1.00  0.00    -0.310 OA
BRANCH  15  16
HETATM   16  C7  UNL     1     -17.005  19.491  36.416  1.00  0.00     0.288 C 
HETATM   17  O5  UNL     1     -16.579  20.654  36.639  1.00  0.00    -0.262 OA
BRANCH  16  18
HETATM   18  C8  UNL     1     -17.766  18.808  37.480  1.00  0.00     0.221 C 
HETATM   19  C9  UNL     1     -19.162  19.381  37.538  1.00  0.00     0.044 C 
HETATM   20  C10 UNL     1     -20.021  18.122  37.371  1.00  0.00     0.029 C 
HETATM   21  C11 UNL     1     -19.026  17.060  37.854  1.00  0.00     0.169 C 
HETATM   22  O6  UNL     1     -17.874  17.468  37.191  1.00  0.00    -0.376 OA
ENDBRANCH  16  18
ENDBRANCH  15  16
ENDBRANCH  14  15
ENDBRANCH  11  14
ENDBRANCH   2  10
BRANCH   1  23
HETATM   23  C2  UNL     1     -16.237  15.299  30.846  1.00  0.00     0.296 C 
HETATM   24  O2  UNL     1     -15.557  14.310  31.198  1.00  0.00    -0.259 OA
BRANCH  23  25
HETATM   25  O1  UNL     1     -15.528  16.352  30.310  1.00  0.00    -0.322 OA
HETATM   26  C1  UNL     1     -14.994  16.275  29.011  1.00  0.00     0.213 C 
ENDBRANCH  23  25
ENDBRANCH   1  23
TORSDOF 7
ENDMDL
MODEL 3
REMARK VINA RESULT: -6.685569833      4.171      7.676
REMARK  7 active torsions:
REMARK  status: ('A' for Active; 'I' for Inactive)
REMARK    1  A    between atoms: O1_2  and  C2_3 
REMARK    2  A    between atoms: C2_3  and  C3_5 
REMARK    3  A    between atoms: C4_6  and  N1_7 
REMARK       I    between atoms: N1_7  and  C5_9 
REMARK    4  A    between atoms: C5_9  and  C6_11 
REMARK    5  A    between atoms: C6_11  and  O4_12 
REMARK    6  A    between atoms: O4_12  and  C7_13 
REMARK    7  A    between atoms: C7_13  and  C8_15 
ROOT
HETATM    1  C3  UNL     1     -16.078  12.362  27.992  1.00  0.00     0.080 A 
HETATM    2  C4  UNL     1     -16.909  13.210  28.668  1.00  0.00     0.094 A 
HETATM    3  S1  UNL     1     -18.339  12.291  28.868  1.00  0.00    -0.074 SA
HETATM    4  C12 UNL     1     -17.856  10.868  28.100  1.00  0.00     0.001 A 
HETATM    5  C13 UNL     1     -16.571  11.128  27.692  1.00  0.00    -0.024 A 
HETATM    6  C14 UNL     1     -15.933   9.946  26.970  1.00  0.00     0.051 C 
HETATM    7  C15 UNL     1     -16.635   9.853  25.622  1.00  0.00     0.079 C 
HETATM    8  S2  UNL     1     -18.322   9.240  26.027  1.00  0.00    -0.164 SA
HETATM    9  C16 UNL     1     -18.513   9.531  27.813  1.00  0.00     0.120 C 
ENDROOT
BRANCH   2  10
HETATM   10  N1  UNL     1     -16.737  14.556  29.143  1.00  0.00    -0.319 N 
HETATM   11  C5  UNL     1     -16.225  14.747  30.449  1.00  0.00     0.246 C 
HETATM   12  O3  UNL     1     -15.939  13.764  31.150  1.00  0.00    -0.271 OA
ATOM     13  H1  UNL     1     -16.978  15.354  28.554  1.00  0.00     0.169 HD
BRANCH  11  14
HETATM   14  C6  UNL     1     -16.036  16.109  30.966  1.00  0.00     0.281 C 
BRANCH  14  15
HETATM   15  O4  UNL     1     -17.259  16.844  30.886  1.00  0.00    -0.310 OA
BRANCH  15  16
HETATM   16  C7  UNL     1     -18.026  16.915  32.065  1.00  0.00     0.288 C 
HETATM   17  O5  UNL     1     -17.495  17.234  33.161  1.00  0.00    -0.262 OA
BRANCH  16  18
HETATM   18  C8  UNL     1     -19.470  16.617  32.048  1.00  0.00     0.221 C 
HETATM   19  C9  UNL     1     -19.721  15.420  31.161  1.00  0.00     0.044 C 
HETATM   20  C10 UNL     1     -20.461  14.476  32.116  1.00  0.00     0.029 C 
HETATM   21  C11 UNL     1     -21.016  15.498  33.116  1.00  0.00     0.169 C 
HETATM   22  O6  UNL     1     -19.896  16.297  33.316  1.00  0.00    -0.376 OA
ENDBRANCH  16  18
ENDBRANCH  15  16
ENDBRANCH  14  15
ENDBRANCH  11  14
ENDBRANCH   2  10
BRANCH   1  23
HETATM   23  C2  UNL     1     -14.701  12.804  27.608  1.00  0.00     0.296 C 
HETATM   24  O2  UNL     1     -14.154  12.456  26.538  1.00  0.00    -0.259 OA
BRANCH  23  25
HETATM   25  O1  UNL     1     -13.953  13.627  28.423  1.00  0.00    -0.322 OA
HETATM   26  C1  UNL     1     -13.415  14.830  27.932  1.00  0.00     0.213 C 
ENDBRANCH  23  25
ENDBRANCH   1  23
TORSDOF 7
ENDMDL
MODEL 4
REMARK VINA RESULT: -6.657061760      5.029      8.133
REMARK  7 active torsions:
REMARK  status: ('A' for Active; 'I' for Inactive)
REMARK    1  A    between atoms: O1_2  and  C2_3 
REMARK    2  A    between atoms: C2_3  and  C3_5 
REMARK    3  A    between atoms: C4_6  and  N1_7 
REMARK       I    between atoms: N1_7  and  C5_9 
REMARK    4  A    between atoms: C5_9  and  C6_11 
REMARK    5  A    between atoms: C6_11  and  O4_12 
REMARK    6  A    between atoms: O4_12  and  C7_13 
REMARK    7  A    between atoms: C7_13  and  C8_15 
ROOT
HETATM    1  C3  UNL     1     -19.323  16.362  32.163  1.00  0.00     0.080 A 
HETATM    2  C4  UNL     1     -18.072  16.890  32.004  1.00  0.00     0.094 A 
HETATM    3  S1  UNL     1     -17.768  17.651  33.507  1.00  0.00    -0.074 SA
HETATM    4  C12 UNL     1     -19.216  17.287  34.293  1.00  0.00     0.001 A 
HETATM    5  C13 UNL     1     -19.929  16.567  33.366  1.00  0.00    -0.024 A 
HETATM    6  C14 UNL     1     -21.290  16.124  33.887  1.00  0.00     0.051 C 
HETATM    7  C15 UNL     1     -22.138  17.386  33.964  1.00  0.00     0.079 C 
HETATM    8  S2  UNL     1     -21.430  18.325  35.379  1.00  0.00    -0.164 SA
HETATM    9  C16 UNL     1     -19.793  17.586  35.664  1.00  0.00     0.120 C 
ENDROOT
BRANCH   2  10
HETATM   10  N1  UNL     1     -17.150  16.874  30.901  1.00  0.00    -0.319 N 
HETATM   11  C5  UNL     1     -16.297  15.755  30.755  1.00  0.00     0.246 C 
HETATM   12  O3  UNL     1     -16.357  14.821  31.570  1.00  0.00    -0.271 OA
ATOM     13  H1  UNL     1     -17.112  17.651  30.240  1.00  0.00     0.169 HD
BRANCH  11  14
HETATM   14  C6  UNL     1     -15.343  15.706  29.639  1.00  0.00     0.281 C 
BRANCH  14  15
HETATM   15  O4  UNL     1     -14.643  14.461  29.637  1.00  0.00    -0.310 OA
BRANCH  15  16
HETATM   16  C7  UNL     1     -14.427  13.866  28.379  1.00  0.00     0.288 C 
HETATM   17  O5  UNL     1     -13.302  13.933  27.819  1.00  0.00    -0.262 OA
BRANCH  16  18
HETATM   18  C8  UNL     1     -15.512  13.148  27.684  1.00  0.00     0.221 C 
HETATM   19  C9  UNL     1     -14.930  11.975  26.931  1.00  0.00     0.044 C 
HETATM   20  C10 UNL     1     -15.747  10.807  27.495  1.00  0.00     0.029 C 
HETATM   21  C11 UNL     1     -16.994  11.564  27.967  1.00  0.00     0.169 C 
HETATM   22  O6  UNL     1     -16.408  12.653  28.604  1.00  0.00    -0.376 OA
ENDBRANCH  16  18
ENDBRANCH  15  16
ENDBRANCH  14  15
ENDBRANCH  11  14
ENDBRANCH   2  10
BRANCH   1  23
HETATM   23  C2  UNL     1     -19.970  15.609  31.044  1.00  0.00     0.296 C 
HETATM   24  O2  UNL     1     -21.034  15.984  30.503  1.00  0.00    -0.259 OA
BRANCH  23  25
HETATM   25  O1  UNL     1     -19.422  14.446  30.544  1.00  0.00    -0.322 OA
HETATM   26  C1  UNL     1     -19.639  14.065  29.208  1.00  0.00     0.213 C 
ENDBRANCH  23  25
ENDBRANCH   1  23
TORSDOF 7
ENDMDL
MODEL 5
REMARK VINA RESULT: -6.595267200      3.603      5.930
REMARK  7 active torsions:
REMARK  status: ('A' for Active; 'I' for Inactive)
REMARK    1  A    between atoms: O1_2  and  C2_3 
REMARK    2  A    between atoms: C2_3  and  C3_5 
REMARK    3  A    between atoms: C4_6  and  N1_7 
REMARK       I    between atoms: N1_7  and  C5_9 
REMARK    4  A    between atoms: C5_9  and  C6_11 
REMARK    5  A    between atoms: C6_11  and  O4_12 
REMARK    6  A    between atoms: O4_12  and  C7_13 
REMARK    7  A    between atoms: C7_13  and  C8_15 
ROOT
HETATM    1  C3  UNL     1     -17.688  15.358  31.198  1.00  0.00     0.080 A 
HETATM    2  C4  UNL     1     -18.443  14.263  30.880  1.00  0.00     0.094 A 
HETATM    3  S1  UNL     1     -19.980  14.637  31.533  1.00  0.00    -0.074 SA
HETATM    4  C12 UNL     1     -19.635  16.155  32.186  1.00  0.00     0.001 A 
HETATM    5  C13 UNL     1     -18.311  16.356  31.884  1.00  0.00    -0.024 A 
HETATM    6  C14 UNL     1     -17.791  17.698  32.385  1.00  0.00     0.051 C 
HETATM    7  C15 UNL     1     -17.710  17.574  33.901  1.00  0.00     0.079 C 
HETATM    8  S2  UNL     1     -19.466  17.568  34.453  1.00  0.00    -0.164 SA
HETATM    9  C16 UNL     1     -20.430  17.193  32.956  1.00  0.00     0.120 C 
ENDROOT
BRANCH   2  10
HETATM   10  N1  UNL     1     -18.133  13.047  30.178  1.00  0.00    -0.319 N 
HETATM   11  C5  UNL     1     -18.568  12.916  28.838  1.00  0.00     0.246 C 
HETATM   12  O3  UNL     1     -19.199  13.838  28.300  1.00  0.00    -0.271 OA
ATOM     13  H1  UNL     1     -17.613  12.297  30.636  1.00  0.00     0.169 HD
BRANCH  11  14
HETATM   14  C6  UNL     1     -18.268  11.686  28.092  1.00  0.00     0.281 C 
BRANCH  14  15
HETATM   15  O4  UNL     1     -16.860  11.563  27.884  1.00  0.00    -0.310 OA
BRANCH  15  16
HETATM   16  C7  UNL     1     -16.404  10.317  27.410  1.00  0.00     0.288 C 
HETATM   17  O5  UNL     1     -16.342   9.320  28.175  1.00  0.00    -0.262 OA
BRANCH  16  18
HETATM   18  C8  UNL     1     -15.986  10.148  26.006  1.00  0.00     0.221 C 
HETATM   19  C9  UNL     1     -14.801  11.043  25.729  1.00  0.00     0.044 C 
HETATM   20  C10 UNL     1     -13.767  10.038  25.208  1.00  0.00     0.029 C 
HETATM   21  C11 UNL     1     -14.705   8.928  24.720  1.00  0.00     0.169 C 
HETATM   22  O6  UNL     1     -15.589   8.849  25.790  1.00  0.00    -0.376 OA
ENDBRANCH  16  18
ENDBRANCH  15  16
ENDBRANCH  14  15
ENDBRANCH  11  14
ENDBRANCH   2  10
BRANCH   1  23
HETATM   23  C2  UNL     1     -16.246  15.418  30.803  1.00  0.00     0.296 C 
HETATM   24  O2  UNL     1     -15.704  16.465  30.387  1.00  0.00    -0.259 OA
BRANCH  23  25
HETATM   25  O1  UNL     1     -15.430  14.309  30.874  1.00  0.00    -0.322 OA
HETATM   26  C1  UNL     1     -14.612  13.946  29.790  1.00  0.00     0.213 C 
ENDBRANCH  23  25
ENDBRANCH   1  23
TORSDOF 7
ENDMDL
