MODEL 1
REMARK VINA RESULT: -5.639572753      0.000      0.000
REMARK  7 active torsions:
REMARK  status: ('A' for Active; 'I' for Inactive)
REMARK    1  A    between atoms: C2_2  and  O1_3 
REMARK    2  A    between atoms: O1_3  and  C3_4 
REMARK    3  A    between atoms: C3_4  and  C4_6 
REMARK    4  A    between atoms: C7_11  and  C8_12 
REMARK    5  A    between atoms: N2_14  and  N3_16 
REMARK    6  A    between atoms: C12_21  and  C13_22 
REMARK    7  A    between atoms: C13_22  and  O4_24 
ROOT
HETATM    1  C8  UNL     1     -18.100   9.770  28.111  1.00  0.00     0.049 C 
HETATM    2  C9  UNL     1     -17.930   8.432  28.788  1.00  0.00     0.072 C 
HETATM    3  N2  UNL     1     -17.190  10.582  28.367  1.00  0.00    -0.298 N 
ATOM      4  H2  UNL     1     -16.530  10.133  29.001  1.00  0.00     0.187 HD
ENDROOT
BRANCH   1   5
HETATM    5  C7  UNL     1     -19.239  10.010  27.242  1.00  0.00     0.063 A 
HETATM    6  N1  UNL     1     -20.323  10.773  27.565  1.00  0.00    -0.357 N 
HETATM    7  C5  UNL     1     -21.166  10.818  26.543  1.00  0.00     0.022 A 
ATOM      8  H1  UNL     1     -20.464  11.240  28.461  1.00  0.00     0.166 HD
HETATM    9  C4  UNL     1     -20.666  10.091  25.522  1.00  0.00     0.069 A 
HETATM   10  C6  UNL     1     -22.481  11.551  26.490  1.00  0.00     0.069 C 
HETATM   11  C15 UNL     1     -19.430   9.572  25.970  1.00  0.00    -0.015 A 
HETATM   12  C16 UNL     1     -18.607   8.707  25.079  1.00  0.00     0.052 C 
BRANCH   9  13
HETATM   13  C3  UNL     1     -21.280   9.877  24.202  1.00  0.00     0.295 C 
HETATM   14  O2  UNL     1     -20.881  10.480  23.178  1.00  0.00    -0.259 OA
BRANCH  13  15
HETATM   15  O1  UNL     1     -22.328   8.971  24.123  1.00  0.00    -0.318 OA
BRANCH  15  16
HETATM   16  C2  UNL     1     -22.214   7.650  24.625  1.00  0.00     0.174 C 
HETATM   17  C1  UNL     1     -21.505   6.820  23.574  1.00  0.00     0.034 C 
ENDBRANCH  15  16
ENDBRANCH  13  15
ENDBRANCH   9  13
ENDBRANCH   1   5
BRANCH   3  18
HETATM   18  N3  UNL     1     -16.754  11.828  28.120  1.00  0.00    -0.260 N 
HETATM   19  C10 UNL     1     -15.530  12.024  27.376  1.00  0.00     0.156 C 
HETATM   20  S1  UNL     1     -14.838  11.083  26.250  1.00  0.00    -0.051 SA
HETATM   21  S2  UNL     1     -14.874  13.576  27.949  1.00  0.00    -0.096 SA
HETATM   22  C11 UNL     1     -16.369  14.054  28.906  1.00  0.00     0.119 C 
HETATM   23  C12 UNL     1     -17.366  13.040  28.459  1.00  0.00     0.219 C 
BRANCH  23  24
HETATM   24  C13 UNL     1     -18.432  12.933  29.454  1.00  0.00     0.284 C 
HETATM   25  O3  UNL     1     -18.140  12.707  30.696  1.00  0.00    -0.263 OA
BRANCH  24  26
HETATM   26  O4  UNL     1     -19.793  13.047  29.241  1.00  0.00    -0.325 OA
HETATM   27  C14 UNL     1     -20.442  14.207  28.805  1.00  0.00     0.213 C 
ENDBRANCH  24  26
ENDBRANCH  23  24
ENDBRANCH   3  18
TORSDOF 7
ENDMDL
MODEL 2
REMARK VINA RESULT: -5.564948470      1.797      2.462
REMARK  7 active torsions:
REMARK  status: ('A' for Active; 'I' for Inactive)
REMARK    1  A    between atoms: C2_2  and  O1_3 
REMARK    2  A    between atoms: O1_3  and  C3_4 
REMARK    3  A    between atoms: C3_4  and  C4_6 
REMARK    4  A    between atoms: C7_11  and  C8_12 
REMARK    5  A    between atoms: N2_14  and  N3_16 
REMARK    6  A    between atoms: C12_21  and  C13_22 
REMARK    7  A    between atoms: C13_22  and  O4_24 
ROOT
HETATM    1  C8  UNL     1     -17.838   9.125  27.733  1.00  0.00     0.049 C 
HETATM    2  C9  UNL     1     -18.033   8.219  28.924  1.00  0.00     0.072 C 
HETATM    3  N2  UNL     1     -16.646   9.266  27.399  1.00  0.00    -0.298 N 
ATOM      4  H2  UNL     1     -16.068   8.720  28.037  1.00  0.00     0.187 HD
ENDROOT
BRANCH   1   5
HETATM    5  C7  UNL     1     -18.985   9.733  27.082  1.00  0.00     0.063 A 
HETATM    6  N1  UNL     1     -19.573  10.904  27.462  1.00  0.00    -0.357 N 
HETATM    7  C5  UNL     1     -20.570  11.198  26.640  1.00  0.00     0.022 A 
ATOM      8  H1  UNL     1     -19.286  11.470  28.261  1.00  0.00     0.166 HD
HETATM    9  C4  UNL     1     -20.671  10.236  25.700  1.00  0.00     0.069 A 
HETATM   10  C6  UNL     1     -21.473  12.403  26.712  1.00  0.00     0.069 C 
HETATM   11  C15 UNL     1     -19.653   9.295  25.983  1.00  0.00    -0.015 A 
HETATM   12  C16 UNL     1     -19.484   8.086  25.128  1.00  0.00     0.052 C 
BRANCH   9  13
HETATM   13  C3  UNL     1     -21.641  10.171  24.596  1.00  0.00     0.295 C 
HETATM   14  O2  UNL     1     -21.307  10.370  23.405  1.00  0.00    -0.259 OA
BRANCH  13  15
HETATM   15  O1  UNL     1     -22.958   9.878  24.919  1.00  0.00    -0.318 OA
BRANCH  15  16
HETATM   16  C2  UNL     1     -23.315   8.680  25.591  1.00  0.00     0.174 C 
HETATM   17  C1  UNL     1     -23.123   7.535  24.619  1.00  0.00     0.034 C 
ENDBRANCH  15  16
ENDBRANCH  13  15
ENDBRANCH   9  13
ENDBRANCH   1   5
BRANCH   3  18
HETATM   18  N3  UNL     1     -15.837   9.868  26.512  1.00  0.00    -0.260 N 
HETATM   19  C10 UNL     1     -15.221   9.089  25.460  1.00  0.00     0.156 C 
HETATM   20  S1  UNL     1     -15.738   7.732  24.738  1.00  0.00    -0.051 SA
HETATM   21  S2  UNL     1     -13.704   9.934  25.075  1.00  0.00    -0.096 SA
HETATM   22  C11 UNL     1     -14.078  11.429  26.079  1.00  0.00     0.119 C 
HETATM   23  C12 UNL     1     -15.513  11.227  26.421  1.00  0.00     0.219 C 
BRANCH  23  24
HETATM   24  C13 UNL     1     -15.849  12.018  27.603  1.00  0.00     0.284 C 
HETATM   25  O3  UNL     1     -14.906  12.476  28.367  1.00  0.00    -0.263 OA
BRANCH  24  26
HETATM   26  O4  UNL     1     -17.109  12.370  28.049  1.00  0.00    -0.325 OA
HETATM   27  C14 UNL     1     -17.400  13.502  28.818  1.00  0.00     0.213 C 
ENDBRANCH  24  26
ENDBRANCH  23  24
ENDBRANCH   3  18
TORSDOF 7
ENDMDL
MODEL 3
REMARK VINA RESULT: -5.508836810      2.924      6.897
REMARK  7 active torsions:
REMARK  status: ('A' for Active; 'I' for Inactive)
REMARK    1  A    between atoms: C2_2  and  O1_3 
REMARK    2  A    between atoms: O1_3  and  C3_4 
REMARK    3  A    between atoms: C3_4  and  C4_6 
REMARK    4  A    between atoms: C7_11  and  C8_12 
REMARK    5  A    between atoms: N2_14  and  N3_16 
REMARK    6  A    between atoms: C12_21  and  C13_22 
REMARK    7  A    between atoms: C13_22  and  O4_24 
ROOT
HETATM    1  C8  UNL     1     -18.743  10.011  27.958  1.00  0.00     0.049 C 
HETATM    2  C9  UNL     1     -18.157   8.652  28.251  1.00  0.00     0.072 C 
HETATM    3  N2  UNL     1     -19.861   9.969  27.409  1.00  0.00    -0.298 N 
ATOM      4  H2  UNL     1     -20.117   8.990  27.279  1.00  0.00     0.187 HD
ENDROOT
BRANCH   1   5
HETATM    5  C7  UNL     1     -18.016  11.214  28.324  1.00  0.00     0.063 A 
HETATM    6  N1  UNL     1     -18.527  12.246  29.057  1.00  0.00    -0.357 N 
HETATM    7  C5  UNL     1     -17.597  13.171  29.244  1.00  0.00     0.022 A 
ATOM      8  H1  UNL     1     -19.483  12.296  29.408  1.00  0.00     0.166 HD
HETATM    9  C4  UNL     1     -16.453  12.781  28.645  1.00  0.00     0.069 A 
HETATM   10  C6  UNL     1     -17.753  14.466  29.999  1.00  0.00     0.069 C 
HETATM   11  C15 UNL     1     -16.721  11.525  28.054  1.00  0.00    -0.015 A 
HETATM   12  C16 UNL     1     -15.659  10.805  27.297  1.00  0.00     0.052 C 
BRANCH   9  13
HETATM   13  C3  UNL     1     -15.176  13.511  28.610  1.00  0.00     0.295 C 
HETATM   14  O2  UNL     1     -14.196  13.171  29.314  1.00  0.00    -0.259 OA
BRANCH  13  15
HETATM   15  O1  UNL     1     -15.087  14.604  27.759  1.00  0.00    -0.318 OA
BRANCH  15  16
HETATM   16  C2  UNL     1     -14.270  15.723  28.062  1.00  0.00     0.174 C 
HETATM   17  C1  UNL     1     -14.984  16.540  29.119  1.00  0.00     0.034 C 
ENDBRANCH  15  16
ENDBRANCH  13  15
ENDBRANCH   9  13
ENDBRANCH   1   5
BRANCH   3  18
HETATM   18  N3  UNL     1     -20.855  10.730  26.924  1.00  0.00    -0.260 N 
HETATM   19  C10 UNL     1     -21.831  11.295  27.829  1.00  0.00     0.156 C 
HETATM   20  S1  UNL     1     -21.682  11.706  29.391  1.00  0.00    -0.051 SA
HETATM   21  S2  UNL     1     -23.319  11.470  26.868  1.00  0.00    -0.096 SA
HETATM   22  C11 UNL     1     -22.527  11.089  25.252  1.00  0.00     0.119 C 
HETATM   23  C12 UNL     1     -21.078  11.117  25.598  1.00  0.00     0.219 C 
BRANCH  23  24
HETATM   24  C13 UNL     1     -20.324  10.359  24.601  1.00  0.00     0.284 C 
HETATM   25  O3  UNL     1     -20.044  10.895  23.454  1.00  0.00    -0.263 OA
BRANCH  24  26
HETATM   26  O4  UNL     1     -19.838   9.070  24.716  1.00  0.00    -0.325 OA
HETATM   27  C14 UNL     1     -20.612   7.909  24.607  1.00  0.00     0.213 C 
ENDBRANCH  24  26
ENDBRANCH  23  24
ENDBRANCH   3  18
TORSDOF 7
ENDMDL
MODEL 4
REMARK VINA RESULT: -5.481035087      2.341      6.977
REMARK  7 active torsions:
REMARK  status: ('A' for Active; 'I' for Inactive)
REMARK    1  A    between atoms: C2_2  and  O1_3 
REMARK    2  A    between atoms: O1_3  and  C3_4 
REMARK    3  A    between atoms: C3_4  and  C4_6 
REMARK    4  A    between atoms: C7_11  and  C8_12 
REMARK    5  A    between atoms: N2_14  and  N3_16 
REMARK    6  A    between atoms: C12_21  and  C13_22 
REMARK    7  A    between atoms: C13_22  and  O4_24 
ROOT
HETATM    1  C8  UNL     1     -19.272  10.956  27.930  1.00  0.00     0.049 C 
HETATM    2  C9  UNL     1     -20.553  11.609  28.386  1.00  0.00     0.072 C 
HETATM    3  N2  UNL     1     -19.431   9.817  27.449  1.00  0.00    -0.298 N 
ATOM      4  H2  UNL     1     -20.425   9.591  27.488  1.00  0.00     0.187 HD
ENDROOT
BRANCH   1   5
HETATM    5  C7  UNL     1     -18.007  11.659  28.060  1.00  0.00     0.063 A 
HETATM    6  N1  UNL     1     -16.905  11.438  27.286  1.00  0.00    -0.357 N 
HETATM    7  C5  UNL     1     -15.932  12.267  27.638  1.00  0.00     0.022 A 
ATOM      8  H1  UNL     1     -16.840  10.738  26.547  1.00  0.00     0.166 HD
HETATM    9  C4  UNL     1     -16.360  13.054  28.646  1.00  0.00     0.069 A 
HETATM   10  C6  UNL     1     -14.554  12.348  27.033  1.00  0.00     0.069 C 
HETATM   11  C15 UNL     1     -17.692  12.664  28.918  1.00  0.00    -0.015 A 
HETATM   12  C16 UNL     1     -18.471  13.337  29.995  1.00  0.00     0.052 C 
BRANCH   9  13
HETATM   13  C3  UNL     1     -15.599  14.110  29.332  1.00  0.00     0.295 C 
HETATM   14  O2  UNL     1     -14.916  13.878  30.357  1.00  0.00    -0.259 OA
BRANCH  13  15
HETATM   15  O1  UNL     1     -15.661  15.390  28.800  1.00  0.00    -0.318 OA
BRANCH  15  16
HETATM   16  C2  UNL     1     -14.519  16.230  28.737  1.00  0.00     0.174 C 
HETATM   17  C1  UNL     1     -13.471  15.518  27.907  1.00  0.00     0.034 C 
ENDBRANCH  15  16
ENDBRANCH  13  15
ENDBRANCH   9  13
ENDBRANCH   1   5
BRANCH   3  18
HETATM   18  N3  UNL     1     -18.784   8.777  26.900  1.00  0.00    -0.260 N 
HETATM   19  C10 UNL     1     -17.633   8.215  27.571  1.00  0.00     0.156 C 
HETATM   20  S1  UNL     1     -17.271   8.176  29.152  1.00  0.00    -0.051 SA
HETATM   21  S2  UNL     1     -16.621   7.529  26.277  1.00  0.00    -0.096 SA
HETATM   22  C11 UNL     1     -17.879   7.730  24.950  1.00  0.00     0.119 C 
HETATM   23  C12 UNL     1     -19.100   8.086  25.725  1.00  0.00     0.219 C 
BRANCH  23  24
HETATM   24  C13 UNL     1     -20.052   8.767  24.849  1.00  0.00     0.284 C 
HETATM   25  O3  UNL     1     -19.820   9.981  24.457  1.00  0.00    -0.263 OA
BRANCH  24  26
HETATM   26  O4  UNL     1     -21.240   8.267  24.349  1.00  0.00    -0.325 OA
HETATM   27  C14 UNL     1     -22.496   8.443  24.940  1.00  0.00     0.213 C 
ENDBRANCH  24  26
ENDBRANCH  23  24
ENDBRANCH   3  18
TORSDOF 7
ENDMDL
MODEL 5
REMARK VINA RESULT: -5.451737081      4.227      6.475
REMARK  7 active torsions:
REMARK  status: ('A' for Active; 'I' for Inactive)
REMARK    1  A    between atoms: C2_2  and  O1_3 
REMARK    2  A    between atoms: O1_3  and  C3_4 
REMARK    3  A    between atoms: C3_4  and  C4_6 
REMARK    4  A    between atoms: C7_11  and  C8_12 
REMARK    5  A    between atoms: N2_14  and  N3_16 
REMARK    6  A    between atoms: C12_21  and  C13_22 
REMARK    7  A    between atoms: C13_22  and  O4_24 
ROOT
HETATM    1  C8  UNL     1     -21.487   9.749  24.116  1.00  0.00     0.049 C 
HETATM    2  C9  UNL     1     -21.329  10.394  22.761  1.00  0.00     0.072 C 
HETATM    3  N2  UNL     1     -22.669   9.494  24.417  1.00  0.00    -0.298 N 
ATOM      4  H2  UNL     1     -23.267   9.800  23.649  1.00  0.00     0.187 HD
ENDROOT
BRANCH   1   5
HETATM    5  C7  UNL     1     -20.319   9.470  24.933  1.00  0.00     0.063 A 
HETATM    6  N1  UNL     1     -19.650  10.392  25.685  1.00  0.00    -0.357 N 
HETATM    7  C5  UNL     1     -18.655   9.809  26.337  1.00  0.00     0.022 A 
ATOM      8  H1  UNL     1     -19.882  11.384  25.736  1.00  0.00     0.166 HD
HETATM    9  C4  UNL     1     -18.637   8.493  26.038  1.00  0.00     0.069 A 
HETATM   10  C6  UNL     1     -17.677  10.473  27.272  1.00  0.00     0.069 C 
HETATM   11  C15 UNL     1     -19.705   8.275  25.137  1.00  0.00    -0.015 A 
HETATM   12  C16 UNL     1     -19.969   6.913  24.595  1.00  0.00     0.052 C 
BRANCH   9  13
HETATM   13  C3  UNL     1     -17.698   7.481  26.545  1.00  0.00     0.295 C 
HETATM   14  O2  UNL     1     -17.824   6.967  27.681  1.00  0.00    -0.259 OA
BRANCH  13  15
HETATM   15  O1  UNL     1     -16.652   7.105  25.713  1.00  0.00    -0.318 OA
BRANCH  15  16
HETATM   16  C2  UNL     1     -15.849   8.062  25.042  1.00  0.00     0.174 C 
HETATM   17  C1  UNL     1     -14.775   7.309  24.285  1.00  0.00     0.034 C 
ENDBRANCH  15  16
ENDBRANCH  13  15
ENDBRANCH   9  13
ENDBRANCH   1   5
BRANCH   3  18
HETATM   18  N3  UNL     1     -23.450   8.967  25.374  1.00  0.00    -0.260 N 
HETATM   19  C10 UNL     1     -24.232   7.784  25.089  1.00  0.00     0.156 C 
HETATM   20  S1  UNL     1     -23.947   6.581  24.039  1.00  0.00    -0.051 SA
HETATM   21  S2  UNL     1     -25.649   7.887  26.161  1.00  0.00    -0.096 SA
HETATM   22  C11 UNL     1     -25.016   9.302  27.150  1.00  0.00     0.119 C 
HETATM   23  C12 UNL     1     -23.599   9.393  26.699  1.00  0.00     0.219 C 
BRANCH  23  24
HETATM   24  C13 UNL     1     -23.084  10.733  26.975  1.00  0.00     0.284 C 
HETATM   25  O3  UNL     1     -22.080  10.887  27.782  1.00  0.00    -0.263 OA
BRANCH  24  26
HETATM   26  O4  UNL     1     -23.545  11.932  26.467  1.00  0.00    -0.325 OA
HETATM   27  C14 UNL     1     -23.844  13.065  27.233  1.00  0.00     0.213 C 
ENDBRANCH  24  26
ENDBRANCH  23  24
ENDBRANCH   3  18
TORSDOF 7
ENDMDL
