MODEL 1
REMARK VINA RESULT: -8.233184235      0.000      0.000
REMARK  5 active torsions:
REMARK  status: ('A' for Active; 'I' for Inactive)
REMARK    1  A    between atoms: O1_2  and  C2_3 
REMARK    2  A    between atoms: N1_6  and  C5_7 
REMARK    3  A    between atoms: C5_7  and  C6_8 
REMARK    4  A    between atoms: C6_8  and  O2_9 
REMARK    5  A    between atoms: O2_9  and  C7_10 
ROOT
HETATM    1  C7  UNL     1     -16.565  13.181  28.418  1.00  0.00     0.167 A 
HETATM    2  N2  UNL     1     -15.314  13.462  28.115  1.00  0.00    -0.303 N 
ATOM      3  H2  UNL     1     -14.781  12.921  27.434  1.00  0.00     0.176 HD
HETATM    4  S1  UNL     1     -14.666  14.771  28.930  1.00  0.00     0.031 SA
HETATM    5  C8  UNL     1     -15.755  15.499  30.005  1.00  0.00     0.241 A 
HETATM    6  O3  UNL     1     -15.383  16.490  30.671  1.00  0.00    -0.278 OA
HETATM    7  C9  UNL     1     -17.056  14.932  30.091  1.00  0.00     0.051 A 
HETATM    8  C10 UNL     1     -18.045  15.408  30.907  1.00  0.00    -0.027 A 
HETATM    9  C11 UNL     1     -19.247  14.767  30.880  1.00  0.00    -0.008 A 
HETATM   10  S2  UNL     1     -19.011  13.526  29.746  1.00  0.00    -0.089 SA
HETATM   11  C12 UNL     1     -17.375  13.852  29.325  1.00  0.00     0.072 A 
HETATM   12  C13 UNL     1     -20.544  15.006  31.615  1.00  0.00     0.074 C 
HETATM   13  C14 UNL     1     -20.892  16.457  31.447  1.00  0.00     0.237 C 
HETATM   14  N3  UNL     1     -20.147  17.328  32.293  1.00  0.00    -0.074 N 
ATOM     15  H31 UNL     1     -20.733  17.668  33.055  1.00  0.00     0.277 HD
ATOM     16  H32 UNL     1     -19.954  18.208  31.814  1.00  0.00     0.277 HD
HETATM   17  C15 UNL     1     -18.940  16.768  32.807  1.00  0.00     0.237 C 
HETATM   18  C16 UNL     1     -17.828  16.596  31.837  1.00  0.00     0.068 C 
ENDROOT
BRANCH   1  19
HETATM   19  O2  UNL     1     -17.145  12.106  27.772  1.00  0.00    -0.333 OA
BRANCH  19  20
HETATM   20  C6  UNL     1     -17.095  10.773  28.140  1.00  0.00     0.197 C 
BRANCH  20  21
HETATM   21  C5  UNL     1     -18.420  10.080  28.054  1.00  0.00     0.148 C 
BRANCH  21  22
HETATM   22  N1  UNL     1     -18.423   8.982  27.130  1.00  0.00    -0.391 N 
HETATM   23  C4  UNL     1     -17.960   7.770  27.679  1.00  0.00     0.060 C 
HETATM   24  C3  UNL     1     -16.559   7.358  27.240  1.00  0.00     0.076 C 
HETATM   25  C2  UNL     1     -16.504   7.479  25.748  1.00  0.00     0.127 C 
HETATM   26  C18 UNL     1     -16.661   8.959  25.423  1.00  0.00     0.052 C 
HETATM   27  C17 UNL     1     -18.098   9.292  25.788  1.00  0.00     0.124 C 
BRANCH  25  28
HETATM   28  O1  UNL     1     -15.341   6.956  25.202  1.00  0.00    -0.390 OA
HETATM   29  C1  UNL     1     -14.657   7.835  24.397  1.00  0.00     0.202 C 
ENDBRANCH  25  28
ENDBRANCH  21  22
ENDBRANCH  20  21
ENDBRANCH  19  20
ENDBRANCH   1  19
TORSDOF 5
ENDMDL
MODEL 2
REMARK VINA RESULT: -8.182612111      1.044      1.114
REMARK  5 active torsions:
REMARK  status: ('A' for Active; 'I' for Inactive)
REMARK    1  A    between atoms: O1_2  and  C2_3 
REMARK    2  A    between atoms: N1_6  and  C5_7 
REMARK    3  A    between atoms: C5_7  and  C6_8 
REMARK    4  A    between atoms: C6_8  and  O2_9 
REMARK    5  A    between atoms: O2_9  and  C7_10 
ROOT
HETATM    1  C7  UNL     1     -17.508  13.259  28.866  1.00  0.00     0.167 A 
HETATM    2  N2  UNL     1     -16.310  13.383  28.331  1.00  0.00    -0.303 N 
ATOM      3  H2  UNL     1     -15.968  12.757  27.603  1.00  0.00     0.176 HD
HETATM    4  S1  UNL     1     -15.393  14.644  28.936  1.00  0.00     0.031 SA
HETATM    5  C8  UNL     1     -16.187  15.536  30.138  1.00  0.00     0.241 A 
HETATM    6  O3  UNL     1     -15.599  16.506  30.665  1.00  0.00    -0.278 OA
HETATM    7  C9  UNL     1     -17.502  15.125  30.487  1.00  0.00     0.051 A 
HETATM    8  C10 UNL     1     -18.272  15.744  31.433  1.00  0.00    -0.027 A 
HETATM    9  C11 UNL     1     -19.518  15.243  31.657  1.00  0.00    -0.008 A 
HETATM   10  S2  UNL     1     -19.622  13.936  30.579  1.00  0.00    -0.089 SA
HETATM   11  C12 UNL     1     -18.065  14.056  29.858  1.00  0.00     0.072 A 
HETATM   12  C13 UNL     1     -20.629  15.658  32.593  1.00  0.00     0.074 C 
HETATM   13  C14 UNL     1     -20.849  17.131  32.398  1.00  0.00     0.237 C 
HETATM   14  N3  UNL     1     -19.876  17.948  33.043  1.00  0.00    -0.074 N 
ATOM     15  H31 UNL     1     -20.275  18.384  33.874  1.00  0.00     0.277 HD
ATOM     16  H32 UNL     1     -19.683  18.779  32.484  1.00  0.00     0.277 HD
HETATM   17  C15 UNL     1     -18.661  17.278  33.371  1.00  0.00     0.237 C 
HETATM   18  C16 UNL     1     -17.767  16.939  32.233  1.00  0.00     0.068 C 
ENDROOT
BRANCH   1  19
HETATM   19  O2  UNL     1     -18.303  12.229  28.401  1.00  0.00    -0.333 OA
BRANCH  19  20
HETATM   20  C6  UNL     1     -17.979  10.888  28.309  1.00  0.00     0.197 C 
BRANCH  20  21
HETATM   21  C5  UNL     1     -18.862  10.122  27.372  1.00  0.00     0.148 C 
BRANCH  21  22
HETATM   22  N1  UNL     1     -18.245   9.861  26.103  1.00  0.00    -0.391 N 
HETATM   23  C4  UNL     1     -18.726   8.705  25.459  1.00  0.00     0.060 C 
HETATM   24  C3  UNL     1     -17.782   7.508  25.491  1.00  0.00     0.076 C 
HETATM   25  C2  UNL     1     -16.430   7.993  25.068  1.00  0.00     0.127 C 
HETATM   26  C18 UNL     1     -15.960   8.968  26.141  1.00  0.00     0.052 C 
HETATM   27  C17 UNL     1     -16.869  10.177  25.999  1.00  0.00     0.124 C 
BRANCH  25  28
HETATM   28  O1  UNL     1     -15.518   6.966  24.876  1.00  0.00    -0.390 OA
HETATM   29  C1  UNL     1     -14.551   7.244  23.941  1.00  0.00     0.202 C 
ENDBRANCH  25  28
ENDBRANCH  21  22
ENDBRANCH  20  21
ENDBRANCH  19  20
ENDBRANCH   1  19
TORSDOF 5
ENDMDL
MODEL 3
REMARK VINA RESULT: -8.145840267      1.168      1.581
REMARK  5 active torsions:
REMARK  status: ('A' for Active; 'I' for Inactive)
REMARK    1  A    between atoms: O1_2  and  C2_3 
REMARK    2  A    between atoms: N1_6  and  C5_7 
REMARK    3  A    between atoms: C5_7  and  C6_8 
REMARK    4  A    between atoms: C6_8  and  O2_9 
REMARK    5  A    between atoms: O2_9  and  C7_10 
ROOT
HETATM    1  C7  UNL     1     -18.011  13.230  29.262  1.00  0.00     0.167 A 
HETATM    2  N2  UNL     1     -16.853  13.249  28.635  1.00  0.00    -0.303 N 
ATOM      3  H2  UNL     1     -16.605  12.564  27.922  1.00  0.00     0.176 HD
HETATM    4  S1  UNL     1     -15.821  14.483  29.094  1.00  0.00     0.031 SA
HETATM    5  C8  UNL     1     -16.467  15.487  30.295  1.00  0.00     0.241 A 
HETATM    6  O3  UNL     1     -15.786  16.447  30.719  1.00  0.00    -0.278 OA
HETATM    7  C9  UNL     1     -17.773  15.178  30.763  1.00  0.00     0.051 A 
HETATM    8  C10 UNL     1     -18.431  15.896  31.725  1.00  0.00    -0.027 A 
HETATM    9  C11 UNL     1     -19.684  15.486  32.070  1.00  0.00    -0.008 A 
HETATM   10  S2  UNL     1     -19.945  14.130  31.082  1.00  0.00    -0.089 SA
HETATM   11  C12 UNL     1     -18.444  14.113  30.243  1.00  0.00     0.072 A 
HETATM   12  C13 UNL     1     -20.693  16.021  33.057  1.00  0.00     0.074 C 
HETATM   13  C14 UNL     1     -20.843  17.491  32.791  1.00  0.00     0.237 C 
HETATM   14  N3  UNL     1     -19.777  18.280  33.314  1.00  0.00    -0.074 N 
ATOM     15  H31 UNL     1     -20.086  18.786  34.144  1.00  0.00     0.277 HD
ATOM     16  H32 UNL     1     -19.580  19.066  32.693  1.00  0.00     0.277 HD
HETATM   17  C15 UNL     1     -18.581  17.555  33.591  1.00  0.00     0.237 C 
HETATM   18  C16 UNL     1     -17.798  17.100  32.413  1.00  0.00     0.068 C 
ENDROOT
BRANCH   1  19
HETATM   19  O2  UNL     1     -18.898  12.227  28.919  1.00  0.00    -0.333 OA
BRANCH  19  20
HETATM   20  C6  UNL     1     -18.878  11.435  27.785  1.00  0.00     0.197 C 
BRANCH  20  21
HETATM   21  C5  UNL     1     -18.718   9.974  28.079  1.00  0.00     0.148 C 
BRANCH  21  22
HETATM   22  N1  UNL     1     -17.382   9.499  27.860  1.00  0.00    -0.391 N 
HETATM   23  C4  UNL     1     -16.734  10.096  26.762  1.00  0.00     0.060 C 
HETATM   24  C3  UNL     1     -16.612   9.210  25.526  1.00  0.00     0.076 C 
HETATM   25  C2  UNL     1     -16.079   7.885  25.976  1.00  0.00     0.127 C 
HETATM   26  C18 UNL     1     -17.145   7.266  26.872  1.00  0.00     0.052 C 
HETATM   27  C17 UNL     1     -17.155   8.127  28.123  1.00  0.00     0.124 C 
BRANCH  25  28
HETATM   28  O1  UNL     1     -15.745   7.046  24.923  1.00  0.00    -0.390 OA
HETATM   29  C1  UNL     1     -14.670   7.477  24.184  1.00  0.00     0.202 C 
ENDBRANCH  25  28
ENDBRANCH  21  22
ENDBRANCH  20  21
ENDBRANCH  19  20
ENDBRANCH   1  19
TORSDOF 5
ENDMDL
MODEL 4
REMARK VINA RESULT: -8.098833911      1.561      2.141
REMARK  5 active torsions:
REMARK  status: ('A' for Active; 'I' for Inactive)
REMARK    1  A    between atoms: O1_2  and  C2_3 
REMARK    2  A    between atoms: N1_6  and  C5_7 
REMARK    3  A    between atoms: C5_7  and  C6_8 
REMARK    4  A    between atoms: C6_8  and  O2_9 
REMARK    5  A    between atoms: O2_9  and  C7_10 
ROOT
HETATM    1  C7  UNL     1     -15.647  13.128  28.018  1.00  0.00     0.167 A 
HETATM    2  N2  UNL     1     -14.457  13.658  27.817  1.00  0.00    -0.303 N 
ATOM      3  H2  UNL     1     -13.774  13.246  27.182  1.00  0.00     0.176 HD
HETATM    4  S1  UNL     1     -14.151  15.056  28.682  1.00  0.00     0.031 SA
HETATM    5  C8  UNL     1     -15.446  15.535  29.666  1.00  0.00     0.241 A 
HETATM    6  O3  UNL     1     -15.334  16.569  30.360  1.00  0.00    -0.278 OA
HETATM    7  C9  UNL     1     -16.609  14.718  29.646  1.00  0.00     0.051 A 
HETATM    8  C10 UNL     1     -17.735  14.974  30.379  1.00  0.00    -0.027 A 
HETATM    9  C11 UNL     1     -18.778  14.106  30.255  1.00  0.00    -0.008 A 
HETATM   10  S2  UNL     1     -18.209  12.956  29.143  1.00  0.00    -0.089 SA
HETATM   11  C12 UNL     1     -16.644  13.609  28.856  1.00  0.00     0.072 A 
HETATM   12  C13 UNL     1     -20.151  14.069  30.883  1.00  0.00     0.074 C 
HETATM   13  C14 UNL     1     -20.769  15.424  30.687  1.00  0.00     0.237 C 
HETATM   14  N3  UNL     1     -20.282  16.413  31.591  1.00  0.00    -0.074 N 
ATOM     15  H31 UNL     1     -20.983  16.616  32.303  1.00  0.00     0.277 HD
ATOM     16  H32 UNL     1     -20.232  17.321  31.129  1.00  0.00     0.277 HD
HETATM   17  C15 UNL     1     -19.032  16.097  32.200  1.00  0.00     0.237 C 
HETATM   18  C16 UNL     1     -17.835  16.166  31.324  1.00  0.00     0.068 C 
ENDROOT
BRANCH   1  19
HETATM   19  O2  UNL     1     -15.946  11.969  27.327  1.00  0.00    -0.333 OA
BRANCH  19  20
HETATM   20  C6  UNL     1     -15.525  10.683  27.614  1.00  0.00     0.197 C 
BRANCH  20  21
HETATM   21  C5  UNL     1     -16.648   9.697  27.722  1.00  0.00     0.148 C 
BRANCH  21  22
HETATM   22  N1  UNL     1     -16.750   8.831  26.583  1.00  0.00    -0.391 N 
HETATM   23  C4  UNL     1     -17.601   9.313  25.570  1.00  0.00     0.060 C 
HETATM   24  C3  UNL     1     -18.952   8.612  25.475  1.00  0.00     0.076 C 
HETATM   25  C2  UNL     1     -18.691   7.137  25.480  1.00  0.00     0.127 C 
HETATM   26  C18 UNL     1     -18.104   6.802  26.846  1.00  0.00     0.052 C 
HETATM   27  C17 UNL     1     -16.726   7.441  26.849  1.00  0.00     0.124 C 
BRANCH  25  28
HETATM   28  O1  UNL     1     -19.824   6.383  25.212  1.00  0.00    -0.390 OA
HETATM   29  C1  UNL     1     -20.734   7.011  24.396  1.00  0.00     0.202 C 
ENDBRANCH  25  28
ENDBRANCH  21  22
ENDBRANCH  20  21
ENDBRANCH  19  20
ENDBRANCH   1  19
TORSDOF 5
ENDMDL
MODEL 5
REMARK VINA RESULT: -8.073120333      1.675      2.236
REMARK  5 active torsions:
REMARK  status: ('A' for Active; 'I' for Inactive)
REMARK    1  A    between atoms: O1_2  and  C2_3 
REMARK    2  A    between atoms: N1_6  and  C5_7 
REMARK    3  A    between atoms: C5_7  and  C6_8 
REMARK    4  A    between atoms: C6_8  and  O2_9 
REMARK    5  A    between atoms: O2_9  and  C7_10 
ROOT
HETATM    1  C7  UNL     1     -15.355  12.972  28.047  1.00  0.00     0.167 A 
HETATM    2  N2  UNL     1     -14.197  13.513  27.731  1.00  0.00    -0.303 N 
ATOM      3  H2  UNL     1     -13.526  13.051  27.117  1.00  0.00     0.176 HD
HETATM    4  S1  UNL     1     -13.908  15.014  28.409  1.00  0.00     0.031 SA
HETATM    5  C8  UNL     1     -15.177  15.564  29.389  1.00  0.00     0.241 A 
HETATM    6  O3  UNL     1     -15.075  16.677  29.950  1.00  0.00    -0.278 OA
HETATM    7  C9  UNL     1     -16.308  14.713  29.520  1.00  0.00     0.051 A 
HETATM    8  C10 UNL     1     -17.411  15.017  30.270  1.00  0.00    -0.027 A 
HETATM    9  C11 UNL     1     -18.424  14.107  30.298  1.00  0.00    -0.008 A 
HETATM   10  S2  UNL     1     -17.859  12.852  29.304  1.00  0.00    -0.089 SA
HETATM   11  C12 UNL     1     -16.333  13.517  28.869  1.00  0.00     0.072 A 
HETATM   12  C13 UNL     1     -19.767  14.100  30.989  1.00  0.00     0.074 C 
HETATM   13  C14 UNL     1     -20.443  15.400  30.664  1.00  0.00     0.237 C 
HETATM   14  N3  UNL     1     -19.957  16.506  31.421  1.00  0.00    -0.074 N 
ATOM     15  H31 UNL     1     -20.634  16.769  32.136  1.00  0.00     0.277 HD
ATOM     16  H32 UNL     1     -19.962  17.353  30.854  1.00  0.00     0.277 HD
HETATM   17  C15 UNL     1     -18.671  16.306  32.004  1.00  0.00     0.237 C 
HETATM   18  C16 UNL     1     -17.516  16.310  31.071  1.00  0.00     0.068 C 
ENDROOT
BRANCH   1  19
HETATM   19  O2  UNL     1     -15.638  11.730  27.513  1.00  0.00    -0.333 OA
BRANCH  19  20
HETATM   20  C6  UNL     1     -15.078  11.146  26.391  1.00  0.00     0.197 C 
BRANCH  20  21
HETATM   21  C5  UNL     1     -16.083  10.491  25.493  1.00  0.00     0.148 C 
BRANCH  21  22
HETATM   22  N1  UNL     1     -16.991   9.631  26.197  1.00  0.00    -0.391 N 
HETATM   23  C4  UNL     1     -16.681   8.262  26.095  1.00  0.00     0.060 C 
HETATM   24  C3  UNL     1     -17.586   7.462  25.163  1.00  0.00     0.076 C 
HETATM   25  C2  UNL     1     -19.001   7.800  25.517  1.00  0.00     0.127 C 
HETATM   26  C18 UNL     1     -19.196   9.274  25.181  1.00  0.00     0.052 C 
HETATM   27  C17 UNL     1     -18.351  10.024  26.196  1.00  0.00     0.124 C 
BRANCH  25  28
HETATM   28  O1  UNL     1     -19.930   7.000  24.868  1.00  0.00    -0.390 OA
HETATM   29  C1  UNL     1     -21.063   7.669  24.473  1.00  0.00     0.202 C 
ENDBRANCH  25  28
ENDBRANCH  21  22
ENDBRANCH  20  21
ENDBRANCH  19  20
ENDBRANCH   1  19
TORSDOF 5
ENDMDL
