MODEL 1
REMARK VINA RESULT: -8.101667101      0.000      0.000
REMARK  4 active torsions:
REMARK  status: ('A' for Active; 'I' for Inactive)
REMARK    1  A    between atoms: C3_3  and  C5_5 
REMARK    2  A    between atoms: C9_11  and  N2_12 
REMARK    3  A    between atoms: C10_18  and  N4_19 
REMARK    4  A    between atoms: N4_19  and  C11_21 
ROOT
HETATM    1  C5  UNL     1      24.821  26.828  28.782  1.00  0.00     0.075 C 
HETATM    2  C6  UNL     1      25.070  26.004  27.496  1.00  0.00     0.035 C 
HETATM    3  C7  UNL     1      25.967  26.560  29.670  1.00  0.00     0.001 C 
HETATM    4  C8  UNL     1      26.741  25.311  29.550  1.00  0.00     0.064 C 
HETATM    5  N1  UNL     1      26.260  27.470  30.548  1.00  0.00    -0.353 N 
ATOM      6  H1  UNL     1      27.043  27.333  31.188  1.00  0.00     0.163 HD
HETATM    7  C9  UNL     1      25.471  28.677  30.614  1.00  0.00     0.387 C 
HETATM    8  N3  UNL     1      25.117  29.111  29.283  1.00  0.00    -0.336 N 
ATOM      9  H3  UNL     1      25.115  30.104  29.051  1.00  0.00     0.164 HD
HETATM   10  C10 UNL     1      24.808  28.246  28.402  1.00  0.00     0.095 C 
ENDROOT
BRANCH  10  11
HETATM   11  N4  UNL     1      24.457  28.679  27.082  1.00  0.00    -0.369 N 
ATOM     12  H4  UNL     1      23.733  28.150  26.594  1.00  0.00     0.161 HD
BRANCH  11  13
HETATM   13  C11 UNL     1      25.033  29.784  26.390  1.00  0.00     0.032 C 
HETATM   14  C12 UNL     1      26.249  29.451  25.570  1.00  0.00     0.035 C 
HETATM   15  C13 UNL     1      26.608  30.618  24.668  1.00  0.00    -0.012 C 
HETATM   16  C14 UNL     1      27.103  31.717  25.606  1.00  0.00     0.009 C 
HETATM   17  C18 UNL     1      25.488  31.083  23.802  1.00  0.00     0.009 C 
HETATM   18  C15 UNL     1      25.943  32.076  26.498  1.00  0.00    -0.012 C 
HETATM   19  C16 UNL     1      24.874  32.659  25.597  1.00  0.00     0.009 C 
HETATM   20  C20 UNL     1      25.444  30.927  27.328  1.00  0.00     0.035 C 
HETATM   21  C17 UNL     1      24.378  31.556  24.712  1.00  0.00    -0.012 C 
HETATM   22  C19 UNL     1      23.925  30.390  25.521  1.00  0.00     0.035 C 
ENDBRANCH  11  13
ENDBRANCH  10  11
BRANCH   1  23
HETATM   23  C3  UNL     1      23.517  26.349  29.299  1.00  0.00    -0.067 C 
HETATM   24  C2  UNL     1      22.514  25.976  28.533  1.00  0.00    -0.027 C 
HETATM   25  C1  UNL     1      21.232  25.495  29.109  1.00  0.00     0.036 C 
HETATM   26  C4  UNL     1      23.346  26.278  30.776  1.00  0.00     0.044 C 
ENDBRANCH   1  23
BRANCH   7  27
HETATM   27  N2  UNL     1      26.240  29.754  31.229  1.00  0.00    -0.041 N 
ATOM     28  H23 UNL     1      26.638  29.473  32.125  1.00  0.00     0.279 HD
ATOM     29  H22 UNL     1      27.110  29.934  30.727  1.00  0.00     0.279 HD
ATOM     30  H21 UNL     1      25.669  30.595  31.315  1.00  0.00     0.279 HD
ENDBRANCH   7  27
TORSDOF 4
ENDMDL
MODEL 2
REMARK VINA RESULT: -7.763823664      4.138      6.140
REMARK  4 active torsions:
REMARK  status: ('A' for Active; 'I' for Inactive)
REMARK    1  A    between atoms: C3_3  and  C5_5 
REMARK    2  A    between atoms: C9_11  and  N2_12 
REMARK    3  A    between atoms: C10_18  and  N4_19 
REMARK    4  A    between atoms: N4_19  and  C11_21 
ROOT
HETATM    1  C5  UNL     1      27.220  33.489  30.463  1.00  0.00     0.075 C 
HETATM    2  C6  UNL     1      27.388  31.996  30.835  1.00  0.00     0.035 C 
HETATM    3  C7  UNL     1      28.581  34.051  30.397  1.00  0.00     0.001 C 
HETATM    4  C8  UNL     1      29.688  33.443  31.156  1.00  0.00     0.064 C 
HETATM    5  N1  UNL     1      28.754  35.093  29.642  1.00  0.00    -0.353 N 
ATOM      6  H1  UNL     1      29.676  35.521  29.562  1.00  0.00     0.163 HD
HETATM    7  C9  UNL     1      27.633  35.641  28.915  1.00  0.00     0.387 C 
HETATM    8  N3  UNL     1      26.798  34.574  28.415  1.00  0.00    -0.336 N 
ATOM      9  H3  UNL     1      26.375  34.645  27.489  1.00  0.00     0.164 HD
HETATM   10  C10 UNL     1      26.593  33.546  29.136  1.00  0.00     0.095 C 
ENDROOT
BRANCH  10  11
HETATM   11  N4  UNL     1      25.764  32.488  28.638  1.00  0.00    -0.369 N 
ATOM     12  H4  UNL     1      25.153  32.021  29.307  1.00  0.00     0.161 HD
BRANCH  11  13
HETATM   13  C11 UNL     1      25.721  32.034  27.288  1.00  0.00     0.032 C 
HETATM   14  C12 UNL     1      26.967  32.306  26.491  1.00  0.00     0.035 C 
HETATM   15  C13 UNL     1      26.925  31.546  25.178  1.00  0.00    -0.012 C 
HETATM   16  C14 UNL     1      25.825  32.216  24.357  1.00  0.00     0.009 C 
HETATM   17  C18 UNL     1      26.698  30.082  25.331  1.00  0.00     0.009 C 
HETATM   18  C15 UNL     1      24.540  32.022  25.121  1.00  0.00    -0.012 C 
HETATM   19  C16 UNL     1      24.279  30.529  25.149  1.00  0.00     0.009 C 
HETATM   20  C20 UNL     1      24.556  32.637  26.491  1.00  0.00     0.035 C 
HETATM   21  C17 UNL     1      25.349  29.899  25.989  1.00  0.00    -0.012 C 
HETATM   22  C19 UNL     1      25.409  30.534  27.334  1.00  0.00     0.035 C 
ENDBRANCH  11  13
ENDBRANCH  10  11
BRANCH   1  23
HETATM   23  C3  UNL     1      26.370  34.058  31.536  1.00  0.00    -0.067 C 
HETATM   24  C2  UNL     1      25.199  33.570  31.886  1.00  0.00    -0.027 C 
HETATM   25  C1  UNL     1      24.397  34.177  32.977  1.00  0.00     0.036 C 
HETATM   26  C4  UNL     1      26.888  35.249  32.265  1.00  0.00     0.044 C 
ENDBRANCH   1  23
BRANCH   7  27
HETATM   27  N2  UNL     1      28.099  36.402  27.761  1.00  0.00    -0.041 N 
ATOM     28  H23 UNL     1      27.651  37.316  27.703  1.00  0.00     0.279 HD
ATOM     29  H22 UNL     1      29.064  36.713  27.875  1.00  0.00     0.279 HD
ATOM     30  H21 UNL     1      27.972  35.863  26.904  1.00  0.00     0.279 HD
ENDBRANCH   7  27
TORSDOF 4
ENDMDL
MODEL 3
REMARK VINA RESULT: -7.548259424      4.239      6.235
REMARK  4 active torsions:
REMARK  status: ('A' for Active; 'I' for Inactive)
REMARK    1  A    between atoms: C3_3  and  C5_5 
REMARK    2  A    between atoms: C9_11  and  N2_12 
REMARK    3  A    between atoms: C10_18  and  N4_19 
REMARK    4  A    between atoms: N4_19  and  C11_21 
ROOT
HETATM    1  C5  UNL     1      27.120  33.495  30.513  1.00  0.00     0.075 C 
HETATM    2  C6  UNL     1      27.163  31.979  30.822  1.00  0.00     0.035 C 
HETATM    3  C7  UNL     1      28.523  33.942  30.449  1.00  0.00     0.001 C 
HETATM    4  C8  UNL     1      29.583  33.211  31.167  1.00  0.00     0.064 C 
HETATM    5  N1  UNL     1      28.776  34.995  29.734  1.00  0.00    -0.353 N 
ATOM      6  H1  UNL     1      29.731  35.347  29.658  1.00  0.00     0.163 HD
HETATM    7  C9  UNL     1      27.698  35.666  29.047  1.00  0.00     0.387 C 
HETATM    8  N3  UNL     1      26.769  34.696  28.516  1.00  0.00    -0.336 N 
ATOM      9  H3  UNL     1      26.343  34.841  27.601  1.00  0.00     0.164 HD
HETATM   10  C10 UNL     1      26.485  33.660  29.199  1.00  0.00     0.095 C 
ENDROOT
BRANCH  10  11
HETATM   11  N4  UNL     1      25.563  32.698  28.671  1.00  0.00    -0.369 N 
ATOM     12  H4  UNL     1      24.765  32.448  29.255  1.00  0.00     0.161 HD
BRANCH  11  13
HETATM   13  C11 UNL     1      25.665  32.061  27.400  1.00  0.00     0.032 C 
HETATM   14  C12 UNL     1      25.561  30.561  27.436  1.00  0.00     0.035 C 
HETATM   15  C13 UNL     1      25.401  30.014  26.030  1.00  0.00    -0.012 C 
HETATM   16  C14 UNL     1      26.744  30.260  25.345  1.00  0.00     0.009 C 
HETATM   17  C18 UNL     1      24.267  30.611  25.271  1.00  0.00     0.009 C 
HETATM   18  C15 UNL     1      26.942  31.753  25.310  1.00  0.00    -0.012 C 
HETATM   19  C16 UNL     1      25.842  32.311  24.430  1.00  0.00     0.009 C 
HETATM   20  C20 UNL     1      26.976  32.387  26.672  1.00  0.00     0.035 C 
HETATM   21  C17 UNL     1      24.540  32.092  25.138  1.00  0.00    -0.012 C 
HETATM   22  C19 UNL     1      24.578  32.672  26.509  1.00  0.00     0.035 C 
ENDBRANCH  11  13
ENDBRANCH  10  11
BRANCH   1  23
HETATM   23  C3  UNL     1      26.334  34.090  31.621  1.00  0.00    -0.067 C 
HETATM   24  C2  UNL     1      26.721  35.136  32.320  1.00  0.00    -0.027 C 
HETATM   25  C1  UNL     1      25.886  35.693  33.413  1.00  0.00     0.036 C 
HETATM   26  C4  UNL     1      25.023  33.464  31.947  1.00  0.00     0.044 C 
ENDBRANCH   1  23
BRANCH   7  27
HETATM   27  N2  UNL     1      28.214  36.432  27.917  1.00  0.00    -0.041 N 
ATOM     28  H23 UNL     1      28.564  37.345  28.205  1.00  0.00     0.279 HD
ATOM     29  H22 UNL     1      29.087  36.041  27.560  1.00  0.00     0.279 HD
ATOM     30  H21 UNL     1      27.506  36.510  27.187  1.00  0.00     0.279 HD
ENDBRANCH   7  27
TORSDOF 4
ENDMDL
MODEL 4
REMARK VINA RESULT: -7.059552542      3.063      7.072
REMARK  4 active torsions:
REMARK  status: ('A' for Active; 'I' for Inactive)
REMARK    1  A    between atoms: C3_3  and  C5_5 
REMARK    2  A    between atoms: C9_11  and  N2_12 
REMARK    3  A    between atoms: C10_18  and  N4_19 
REMARK    4  A    between atoms: N4_19  and  C11_21 
ROOT
HETATM    1  C5  UNL     1      24.593  27.028  29.737  1.00  0.00     0.075 C 
HETATM    2  C6  UNL     1      23.949  27.217  28.342  1.00  0.00     0.035 C 
HETATM    3  C7  UNL     1      25.107  28.352  30.134  1.00  0.00     0.001 C 
HETATM    4  C8  UNL     1      25.462  29.361  29.119  1.00  0.00     0.064 C 
HETATM    5  N1  UNL     1      25.226  28.582  31.406  1.00  0.00    -0.353 N 
ATOM      6  H1  UNL     1      25.579  29.481  31.734  1.00  0.00     0.163 HD
HETATM    7  C9  UNL     1      24.856  27.558  32.353  1.00  0.00     0.387 C 
HETATM    8  N3  UNL     1      23.672  26.867  31.899  1.00  0.00    -0.336 N 
ATOM      9  H3  UNL     1      22.953  26.587  32.567  1.00  0.00     0.164 HD
HETATM   10  C10 UNL     1      23.531  26.610  30.661  1.00  0.00     0.095 C 
ENDROOT
BRANCH  10  11
HETATM   11  N4  UNL     1      22.356  25.925  30.212  1.00  0.00    -0.369 N 
ATOM     12  H4  UNL     1      21.542  26.496  29.983  1.00  0.00     0.161 HD
BRANCH  11  13
HETATM   13  C11 UNL     1      22.225  24.514  30.057  1.00  0.00     0.032 C 
HETATM   14  C12 UNL     1      23.210  23.699  30.850  1.00  0.00     0.035 C 
HETATM   15  C13 UNL     1      22.811  22.235  30.835  1.00  0.00    -0.012 C 
HETATM   16  C14 UNL     1      23.039  21.768  29.398  1.00  0.00     0.009 C 
HETATM   17  C18 UNL     1      21.416  21.981  31.292  1.00  0.00     0.009 C 
HETATM   18  C15 UNL     1      22.110  22.578  28.531  1.00  0.00    -0.012 C 
HETATM   19  C16 UNL     1      20.701  22.201  28.942  1.00  0.00     0.009 C 
HETATM   20  C20 UNL     1      22.361  24.057  28.598  1.00  0.00     0.035 C 
HETATM   21  C17 UNL     1      20.489  22.701  30.339  1.00  0.00    -0.012 C 
HETATM   22  C19 UNL     1      20.782  24.157  30.431  1.00  0.00     0.035 C 
ENDBRANCH  11  13
ENDBRANCH  10  11
BRANCH   1  23
HETATM   23  C3  UNL     1      25.638  25.995  29.540  1.00  0.00    -0.067 C 
HETATM   24  C2  UNL     1      26.427  25.553  30.496  1.00  0.00    -0.027 C 
HETATM   25  C1  UNL     1      27.450  24.509  30.240  1.00  0.00     0.036 C 
HETATM   26  C4  UNL     1      25.789  25.422  28.174  1.00  0.00     0.044 C 
ENDBRANCH   1  23
BRANCH   7  27
HETATM   27  N2  UNL     1      24.539  28.153  33.647  1.00  0.00    -0.041 N 
ATOM     28  H23 UNL     1      24.192  27.460  34.310  1.00  0.00     0.279 HD
ATOM     29  H22 UNL     1      25.379  28.437  34.151  1.00  0.00     0.279 HD
ATOM     30  H21 UNL     1      23.885  28.927  33.532  1.00  0.00     0.279 HD
ENDBRANCH   7  27
TORSDOF 4
ENDMDL
MODEL 5
REMARK VINA RESULT: -6.975852596      3.061      7.064
REMARK  4 active torsions:
REMARK  status: ('A' for Active; 'I' for Inactive)
REMARK    1  A    between atoms: C3_3  and  C5_5 
REMARK    2  A    between atoms: C9_11  and  N2_12 
REMARK    3  A    between atoms: C10_18  and  N4_19 
REMARK    4  A    between atoms: N4_19  and  C11_21 
ROOT
HETATM    1  C5  UNL     1      24.584  27.046  29.732  1.00  0.00     0.075 C 
HETATM    2  C6  UNL     1      23.938  27.245  28.339  1.00  0.00     0.035 C 
HETATM    3  C7  UNL     1      25.106  28.365  30.133  1.00  0.00     0.001 C 
HETATM    4  C8  UNL     1      25.464  29.377  29.123  1.00  0.00     0.064 C 
HETATM    5  N1  UNL     1      25.229  28.589  31.406  1.00  0.00    -0.353 N 
ATOM      6  H1  UNL     1      25.587  29.485  31.737  1.00  0.00     0.163 HD
HETATM    7  C9  UNL     1      24.856  27.562  32.350  1.00  0.00     0.387 C 
HETATM    8  N3  UNL     1      23.667  26.880  31.895  1.00  0.00    -0.336 N 
ATOM      9  H3  UNL     1      22.948  26.601  32.563  1.00  0.00     0.164 HD
HETATM   10  C10 UNL     1      23.522  26.629  30.656  1.00  0.00     0.095 C 
ENDROOT
BRANCH  10  11
HETATM   11  N4  UNL     1      22.342  25.952  30.206  1.00  0.00    -0.369 N 
ATOM     12  H4  UNL     1      21.567  26.531  29.881  1.00  0.00     0.161 HD
BRANCH  11  13
HETATM   13  C11 UNL     1      22.157  24.539  30.174  1.00  0.00     0.032 C 
HETATM   14  C12 UNL     1      20.857  24.060  30.759  1.00  0.00     0.035 C 
HETATM   15  C13 UNL     1      20.641  22.595  30.425  1.00  0.00    -0.012 C 
HETATM   16  C14 UNL     1      21.694  21.837  31.231  1.00  0.00     0.009 C 
HETATM   17  C18 UNL     1      20.718  22.287  28.970  1.00  0.00     0.009 C 
HETATM   18  C15 UNL     1      23.037  22.300  30.727  1.00  0.00    -0.012 C 
HETATM   19  C16 UNL     1      23.127  21.860  29.280  1.00  0.00     0.009 C 
HETATM   20  C20 UNL     1      23.269  23.774  30.905  1.00  0.00     0.035 C 
HETATM   21  C17 UNL     1      22.112  22.643  28.505  1.00  0.00    -0.012 C 
HETATM   22  C19 UNL     1      22.300  24.106  28.711  1.00  0.00     0.035 C 
ENDBRANCH  11  13
ENDBRANCH  10  11
BRANCH   1  23
HETATM   23  C3  UNL     1      25.623  26.009  29.527  1.00  0.00    -0.067 C 
HETATM   24  C2  UNL     1      26.432  25.580  30.473  1.00  0.00    -0.027 C 
HETATM   25  C1  UNL     1      27.448  24.529  30.211  1.00  0.00     0.036 C 
HETATM   26  C4  UNL     1      25.744  25.414  28.167  1.00  0.00     0.044 C 
ENDBRANCH   1  23
BRANCH   7  27
HETATM   27  N2  UNL     1      24.544  28.153  33.647  1.00  0.00    -0.041 N 
ATOM     28  H23 UNL     1      23.542  28.299  33.768  1.00  0.00     0.279 HD
ATOM     29  H22 UNL     1      24.695  27.494  34.411  1.00  0.00     0.279 HD
ATOM     30  H21 UNL     1      25.071  29.016  33.781  1.00  0.00     0.279 HD
ENDBRANCH   7  27
TORSDOF 4
ENDMDL
