MODEL 1
REMARK VINA RESULT: -6.662944812      0.000      0.000
REMARK  3 active torsions:
REMARK  status: ('A' for Active; 'I' for Inactive)
REMARK    1  A    between atoms: C2_2  and  N1_3 
REMARK    2  A    between atoms: C5_6  and  N2_7 
REMARK    3  A    between atoms: N2_7  and  C6_9 
ROOT
HETATM    1  C6  UNL     1      -3.670   4.674  12.752  1.00  0.00     0.085 C 
HETATM    2  C7  UNL     1      -4.045   5.787  11.850  1.00  0.00     0.030 C 
HETATM    3  C8  UNL     1      -2.926   6.740  11.520  1.00  0.00    -0.012 C 
HETATM    4  C9  UNL     1      -1.560   6.150  11.563  1.00  0.00     0.010 C 
HETATM    5  C10 UNL     1      -1.132   6.342  13.001  1.00  0.00    -0.006 C 
HETATM    6  C11 UNL     1      -1.375   5.034  13.717  1.00  0.00     0.012 C 
HETATM    7  C12 UNL     1      -2.865   5.116  13.981  1.00  0.00     0.009 C 
HETATM    8  C13 UNL     1      -3.116   6.513  14.405  1.00  0.00     0.016 C 
HETATM    9  C14 UNL     1      -2.103   7.313  13.628  1.00  0.00    -0.040 C 
HETATM   10  C15 UNL     1      -1.436   8.345  14.470  1.00  0.00     0.015 C 
HETATM   11  C16 UNL     1      -2.820   7.915  12.447  1.00  0.00     0.014 C 
ENDROOT
BRANCH   1  12
HETATM   12  N2  UNL     1      -4.787   3.963  13.219  1.00  0.00    -0.391 N 
ATOM     13  H2  UNL     1      -5.596   3.881  12.604  1.00  0.00     0.159 HD
BRANCH  12  14
HETATM   14  C5  UNL     1      -4.853   3.363  14.473  1.00  0.00    -0.011 C 
HETATM   15  C4  UNL     1      -4.570   1.844  14.438  1.00  0.00     0.072 C 
HETATM   16  C3  UNL     1      -4.488   1.462  15.906  1.00  0.00     0.127 C 
HETATM   17  N1  UNL     1      -5.849   1.424  16.375  1.00  0.00    -0.393 N 
HETATM   18  C18 UNL     1      -6.624   2.556  16.064  1.00  0.00     0.063 C 
HETATM   19  C17 UNL     1      -5.900   3.720  15.448  1.00  0.00     0.096 C 
BRANCH  17  20
HETATM   20  C2  UNL     1      -6.009   0.841  17.663  1.00  0.00     0.117 C 
HETATM   21  C1  UNL     1      -6.211   1.927  18.699  1.00  0.00     0.026 C 
ENDBRANCH  17  20
ENDBRANCH  12  14
ENDBRANCH   1  12
TORSDOF 3
ENDMDL
MODEL 2
REMARK VINA RESULT: -6.448354867      0.864      1.428
REMARK  3 active torsions:
REMARK  status: ('A' for Active; 'I' for Inactive)
REMARK    1  A    between atoms: C2_2  and  N1_3 
REMARK    2  A    between atoms: C5_6  and  N2_7 
REMARK    3  A    between atoms: N2_7  and  C6_9 
ROOT
HETATM    1  C6  UNL     1      -3.992   5.572  13.088  1.00  0.00     0.085 C 
HETATM    2  C7  UNL     1      -4.025   6.635  12.058  1.00  0.00     0.030 C 
HETATM    3  C8  UNL     1      -2.673   7.145  11.631  1.00  0.00    -0.012 C 
HETATM    4  C9  UNL     1      -1.559   6.166  11.757  1.00  0.00     0.010 C 
HETATM    5  C10 UNL     1      -1.055   6.378  13.167  1.00  0.00    -0.006 C 
HETATM    6  C11 UNL     1      -1.675   5.304  14.029  1.00  0.00     0.012 C 
HETATM    7  C12 UNL     1      -3.057   5.878  14.266  1.00  0.00     0.009 C 
HETATM    8  C13 UNL     1      -2.848   7.323  14.520  1.00  0.00     0.016 C 
HETATM    9  C14 UNL     1      -1.656   7.670  13.665  1.00  0.00    -0.040 C 
HETATM   10  C15 UNL     1      -0.679   8.530  14.387  1.00  0.00     0.015 C 
HETATM   11  C16 UNL     1      -2.181   8.326  12.414  1.00  0.00     0.014 C 
ENDROOT
BRANCH   1  12
HETATM   12  N2  UNL     1      -5.263   5.306  13.624  1.00  0.00    -0.391 N 
ATOM     13  H2  UNL     1      -5.989   6.012  13.512  1.00  0.00     0.159 HD
BRANCH  12  14
HETATM   14  C5  UNL     1      -5.588   4.133  14.299  1.00  0.00    -0.011 C 
HETATM   15  C4  UNL     1      -6.165   4.382  15.711  1.00  0.00     0.072 C 
HETATM   16  C3  UNL     1      -6.632   3.006  16.154  1.00  0.00     0.127 C 
HETATM   17  N1  UNL     1      -5.438   2.290  16.523  1.00  0.00    -0.393 N 
HETATM   18  C18 UNL     1      -4.398   2.326  15.577  1.00  0.00     0.063 C 
HETATM   19  C17 UNL     1      -4.720   2.943  14.245  1.00  0.00     0.096 C 
BRANCH  17  20
HETATM   20  C2  UNL     1      -5.677   1.065  17.206  1.00  0.00     0.117 C 
HETATM   21  C1  UNL     1      -7.161   0.761  17.213  1.00  0.00     0.026 C 
ENDBRANCH  17  20
ENDBRANCH  12  14
ENDBRANCH   1  12
TORSDOF 3
ENDMDL
MODEL 3
REMARK VINA RESULT: -6.400891329      1.042      2.537
REMARK  3 active torsions:
REMARK  status: ('A' for Active; 'I' for Inactive)
REMARK    1  A    between atoms: C2_2  and  N1_3 
REMARK    2  A    between atoms: C5_6  and  N2_7 
REMARK    3  A    between atoms: N2_7  and  C6_9 
ROOT
HETATM    1  C6  UNL     1      -3.154   4.559  13.131  1.00  0.00     0.085 C 
HETATM    2  C7  UNL     1      -1.712   4.802  13.366  1.00  0.00     0.030 C 
HETATM    3  C8  UNL     1      -1.277   6.235  13.209  1.00  0.00    -0.012 C 
HETATM    4  C9  UNL     1      -2.332   7.250  13.487  1.00  0.00     0.010 C 
HETATM    5  C10 UNL     1      -3.008   7.439  12.147  1.00  0.00    -0.006 C 
HETATM    6  C11 UNL     1      -4.262   6.596  12.158  1.00  0.00     0.012 C 
HETATM    7  C12 UNL     1      -3.696   5.223  11.859  1.00  0.00     0.009 C 
HETATM    8  C13 UNL     1      -2.681   5.434  10.800  1.00  0.00     0.016 C 
HETATM    9  C14 UNL     1      -2.120   6.800  11.106  1.00  0.00    -0.040 C 
HETATM   10  C15 UNL     1      -1.965   7.631   9.881  1.00  0.00     0.015 C 
HETATM   11  C16 UNL     1      -0.814   6.594  11.828  1.00  0.00     0.014 C 
ENDROOT
BRANCH   1  12
HETATM   12  N2  UNL     1      -3.461   3.191  13.050  1.00  0.00    -0.391 N 
ATOM     13  H2  UNL     1      -2.997   2.636  12.331  1.00  0.00     0.159 HD
BRANCH  12  14
HETATM   14  C5  UNL     1      -4.362   2.548  13.893  1.00  0.00    -0.011 C 
HETATM   15  C4  UNL     1      -4.548   3.267  15.249  1.00  0.00     0.072 C 
HETATM   16  C3  UNL     1      -5.704   2.523  15.893  1.00  0.00     0.127 C 
HETATM   17  N1  UNL     1      -5.150   1.283  16.372  1.00  0.00    -0.393 N 
HETATM   18  C18 UNL     1      -4.385   0.565  15.437  1.00  0.00     0.063 C 
HETATM   19  C17 UNL     1      -4.389   1.080  14.024  1.00  0.00     0.096 C 
BRANCH  17  20
HETATM   20  C2  UNL     1      -6.014   0.548  17.231  1.00  0.00     0.117 C 
HETATM   21  C1  UNL     1      -7.442   1.020  17.051  1.00  0.00     0.026 C 
ENDBRANCH  17  20
ENDBRANCH  12  14
ENDBRANCH   1  12
TORSDOF 3
ENDMDL
MODEL 4
REMARK VINA RESULT: -6.269409143      0.858      1.893
REMARK  3 active torsions:
REMARK  status: ('A' for Active; 'I' for Inactive)
REMARK    1  A    between atoms: C2_2  and  N1_3 
REMARK    2  A    between atoms: C5_6  and  N2_7 
REMARK    3  A    between atoms: N2_7  and  C6_9 
ROOT
HETATM    1  C6  UNL     1      -3.388   4.656  13.003  1.00  0.00     0.085 C 
HETATM    2  C7  UNL     1      -2.527   4.477  11.811  1.00  0.00     0.030 C 
HETATM    3  C8  UNL     1      -1.325   5.383  11.755  1.00  0.00    -0.012 C 
HETATM    4  C9  UNL     1      -0.804   5.824  13.079  1.00  0.00     0.010 C 
HETATM    5  C10 UNL     1      -1.586   7.086  13.368  1.00  0.00    -0.006 C 
HETATM    6  C11 UNL     1      -2.718   6.708  14.295  1.00  0.00     0.012 C 
HETATM    7  C12 UNL     1      -3.715   6.122  13.317  1.00  0.00     0.009 C 
HETATM    8  C13 UNL     1      -3.688   7.019  12.138  1.00  0.00     0.016 C 
HETATM    9  C14 UNL     1      -2.260   7.497  12.081  1.00  0.00    -0.040 C 
HETATM   10  C15 UNL     1      -2.166   8.958  11.812  1.00  0.00     0.015 C 
HETATM   11  C16 UNL     1      -1.557   6.676  11.031  1.00  0.00     0.014 C 
ENDROOT
BRANCH   1  12
HETATM   12  N2  UNL     1      -4.609   3.972  12.890  1.00  0.00    -0.391 N 
ATOM     13  H2  UNL     1      -5.128   4.056  12.017  1.00  0.00     0.159 HD
BRANCH  12  14
HETATM   14  C5  UNL     1      -5.151   3.185  13.902  1.00  0.00    -0.011 C 
HETATM   15  C4  UNL     1      -5.753   4.012  15.061  1.00  0.00     0.072 C 
HETATM   16  C3  UNL     1      -6.456   2.971  15.915  1.00  0.00     0.127 C 
HETATM   17  N1  UNL     1      -5.413   2.295  16.641  1.00  0.00    -0.393 N 
HETATM   18  C18 UNL     1      -4.333   1.842  15.862  1.00  0.00     0.063 C 
HETATM   19  C17 UNL     1      -4.483   1.958  14.371  1.00  0.00     0.096 C 
BRANCH  17  20
HETATM   20  C2  UNL     1      -5.879   1.451  17.688  1.00  0.00     0.117 C 
HETATM   21  C1  UNL     1      -7.225   0.865  17.315  1.00  0.00     0.026 C 
ENDBRANCH  17  20
ENDBRANCH  12  14
ENDBRANCH   1  12
TORSDOF 3
ENDMDL
MODEL 5
REMARK VINA RESULT: -6.102497641      0.971      1.206
REMARK  3 active torsions:
REMARK  status: ('A' for Active; 'I' for Inactive)
REMARK    1  A    between atoms: C2_2  and  N1_3 
REMARK    2  A    between atoms: C5_6  and  N2_7 
REMARK    3  A    between atoms: N2_7  and  C6_9 
ROOT
HETATM    1  C6  UNL     1      -3.172   3.793  12.382  1.00  0.00     0.085 C 
HETATM    2  C7  UNL     1      -3.320   4.235  10.977  1.00  0.00     0.030 C 
HETATM    3  C8  UNL     1      -2.268   5.202  10.502  1.00  0.00    -0.012 C 
HETATM    4  C9  UNL     1      -0.950   5.088  11.187  1.00  0.00     0.010 C 
HETATM    5  C10 UNL     1      -1.085   6.013  12.376  1.00  0.00    -0.006 C 
HETATM    6  C11 UNL     1      -1.424   5.154  13.573  1.00  0.00     0.012 C 
HETATM    7  C12 UNL     1      -2.909   4.938  13.368  1.00  0.00     0.009 C 
HETATM    8  C13 UNL     1      -3.445   6.251  12.936  1.00  0.00     0.016 C 
HETATM    9  C14 UNL     1      -2.314   6.858  12.146  1.00  0.00    -0.040 C 
HETATM   10  C15 UNL     1      -2.105   8.295  12.477  1.00  0.00     0.015 C 
HETATM   11  C16 UNL     1      -2.625   6.647  10.687  1.00  0.00     0.014 C 
ENDROOT
BRANCH   1  12
HETATM   12  N2  UNL     1      -4.299   3.094  12.846  1.00  0.00    -0.391 N 
ATOM     13  H2  UNL     1      -5.053   2.906  12.186  1.00  0.00     0.159 HD
BRANCH  12  14
HETATM   14  C5  UNL     1      -4.445   2.645  14.155  1.00  0.00    -0.011 C 
HETATM   15  C4  UNL     1      -4.476   1.103  14.271  1.00  0.00     0.072 C 
HETATM   16  C3  UNL     1      -4.427   0.856  15.768  1.00  0.00     0.127 C 
HETATM   17  N1  UNL     1      -5.752   1.143  16.254  1.00  0.00    -0.393 N 
HETATM   18  C18 UNL     1      -6.292   2.373  15.838  1.00  0.00     0.063 C 
HETATM   19  C17 UNL     1      -5.367   3.300  15.101  1.00  0.00     0.096 C 
BRANCH  17  20
HETATM   20  C2  UNL     1      -5.986   0.731  17.595  1.00  0.00     0.117 C 
HETATM   21  C1  UNL     1      -6.238   1.943  18.469  1.00  0.00     0.026 C 
ENDBRANCH  17  20
ENDBRANCH  12  14
ENDBRANCH   1  12
TORSDOF 3
ENDMDL
