MODEL 1
REMARK VINA RESULT: -6.409622841      0.000      0.000
REMARK  3 active torsions:
REMARK  status: ('A' for Active; 'I' for Inactive)
REMARK    1  A    between atoms: N1_2  and  C2_3 
REMARK    2  A    between atoms: N1_2  and  C12_13 
REMARK    3  A    between atoms: C2_3  and  C3_4 
ROOT
HETATM    1  C1  UNL     1      -4.521   0.777  13.881  1.00  0.00     0.310 C 
HETATM    2  N1  UNL     1      -4.604   2.241  13.928  1.00  0.00     0.089 N 
ENDROOT
BRANCH   2   3
HETATM    3  C2  UNL     1      -3.421   2.771  13.379  1.00  0.00     0.282 C 
BRANCH   3   4
HETATM    4  C3  UNL     1      -3.300   4.152  12.934  1.00  0.00    -0.010 C 
HETATM    5  C4  UNL     1      -2.434   4.331  11.697  1.00  0.00     0.016 C 
HETATM    6  C5  UNL     1      -1.863   5.711  11.952  1.00  0.00    -0.013 C 
HETATM    7  C6  UNL     1      -2.953   6.751  12.015  1.00  0.00     0.009 C 
HETATM    8  C10 UNL     1      -1.298   5.492  13.344  1.00  0.00     0.010 C 
HETATM    9  C7  UNL     1      -3.996   6.390  13.028  1.00  0.00    -0.013 C 
HETATM   10  C8  UNL     1      -3.382   6.103  14.396  1.00  0.00     0.010 C 
HETATM   11  C11 UNL     1      -4.532   4.978  12.722  1.00  0.00     0.016 C 
HETATM   12  C9  UNL     1      -2.511   4.912  14.034  1.00  0.00    -0.004 C 
ENDBRANCH   3   4
ENDBRANCH   2   3
BRANCH   2  13
HETATM   13  C12 UNL     1      -4.844   2.645  15.333  1.00  0.00     0.226 C 
HETATM   14  C13 UNL     1      -4.380   1.621  16.299  1.00  0.00     0.069 C 
HETATM   15  C14 UNL     1      -5.265   1.409  17.502  1.00  0.00     0.188 C 
HETATM   16  C15 UNL     1      -6.362   0.429  17.169  1.00  0.00     0.035 C 
HETATM   17  N2  UNL     1      -5.979   2.599  17.876  1.00  0.00    -0.067 N 
HETATM   18  C16 UNL     1      -7.502   1.285  16.671  1.00  0.00     0.035 C 
HETATM   19  C17 UNL     1      -6.927   2.695  16.786  1.00  0.00     0.188 C 
HETATM   20  C18 UNL     1      -6.263   3.120  15.534  1.00  0.00     0.069 C 
ATOM     21  H22 UNL     1      -6.383   2.594  18.813  1.00  0.00     0.278 HD
ATOM     22  H21 UNL     1      -5.404   3.426  18.035  1.00  0.00     0.278 HD
ENDBRANCH   2  13
TORSDOF 3
ENDMDL
MODEL 2
REMARK VINA RESULT: -6.167754230      2.605      4.605
REMARK  3 active torsions:
REMARK  status: ('A' for Active; 'I' for Inactive)
REMARK    1  A    between atoms: N1_2  and  C2_3 
REMARK    2  A    between atoms: N1_2  and  C12_13 
REMARK    3  A    between atoms: C2_3  and  C3_4 
ROOT
HETATM    1  C1  UNL     1      -3.129   3.901   9.932  1.00  0.00     0.310 C 
HETATM    2  N1  UNL     1      -3.858   4.554  11.025  1.00  0.00     0.089 N 
ENDROOT
BRANCH   2   3
HETATM    3  C2  UNL     1      -3.504   5.917  11.043  1.00  0.00     0.282 C 
BRANCH   3   4
HETATM    4  C3  UNL     1      -4.473   6.992  10.891  1.00  0.00    -0.010 C 
HETATM    5  C4  UNL     1      -5.701   6.850  11.776  1.00  0.00     0.016 C 
HETATM    6  C5  UNL     1      -6.752   7.510  10.907  1.00  0.00    -0.013 C 
HETATM    7  C6  UNL     1      -6.420   8.960  10.654  1.00  0.00     0.009 C 
HETATM    8  C10 UNL     1      -6.547   6.719   9.627  1.00  0.00     0.010 C 
HETATM    9  C7  UNL     1      -5.048   9.115  10.074  1.00  0.00    -0.013 C 
HETATM   10  C8  UNL     1      -4.855   8.246   8.833  1.00  0.00     0.010 C 
HETATM   11  C11 UNL     1      -4.027   8.418  10.996  1.00  0.00     0.016 C 
HETATM   12  C9  UNL     1      -5.053   6.874   9.456  1.00  0.00    -0.004 C 
ENDBRANCH   3   4
ENDBRANCH   2   3
BRANCH   2  13
HETATM   13  C12 UNL     1      -3.542   3.838  12.282  1.00  0.00     0.226 C 
HETATM   14  C13 UNL     1      -4.707   3.092  12.813  1.00  0.00     0.069 C 
HETATM   15  C14 UNL     1      -4.869   3.115  14.313  1.00  0.00     0.188 C 
HETATM   16  C15 UNL     1      -5.620   4.353  14.731  1.00  0.00     0.035 C 
HETATM   17  N2  UNL     1      -3.614   3.234  15.001  1.00  0.00    -0.067 N 
HETATM   18  C16 UNL     1      -4.548   5.386  14.984  1.00  0.00     0.035 C 
HETATM   19  C17 UNL     1      -3.268   4.606  14.688  1.00  0.00     0.188 C 
HETATM   20  C18 UNL     1      -2.855   4.746  13.274  1.00  0.00     0.069 C 
ATOM     21  H22 UNL     1      -3.630   2.999  15.993  1.00  0.00     0.278 HD
ATOM     22  H21 UNL     1      -2.910   2.536  14.759  1.00  0.00     0.278 HD
ENDBRANCH   2  13
TORSDOF 3
ENDMDL
MODEL 3
REMARK VINA RESULT: -6.135377109      3.344      5.395
REMARK  3 active torsions:
REMARK  status: ('A' for Active; 'I' for Inactive)
REMARK    1  A    between atoms: N1_2  and  C2_3 
REMARK    2  A    between atoms: N1_2  and  C12_13 
REMARK    3  A    between atoms: C2_3  and  C3_4 
ROOT
HETATM    1  C1  UNL     1      -4.431   3.101  10.567  1.00  0.00     0.310 C 
HETATM    2  N1  UNL     1      -4.344   4.291  11.420  1.00  0.00     0.089 N 
ENDROOT
BRANCH   2   3
HETATM    3  C2  UNL     1      -3.995   5.392  10.614  1.00  0.00     0.282 C 
BRANCH   3   4
HETATM    4  C3  UNL     1      -4.716   6.657  10.641  1.00  0.00    -0.010 C 
HETATM    5  C4  UNL     1      -5.877   6.688  11.621  1.00  0.00     0.016 C 
HETATM    6  C5  UNL     1      -6.819   7.637  10.910  1.00  0.00    -0.013 C 
HETATM    7  C6  UNL     1      -6.199   9.003  10.747  1.00  0.00     0.009 C 
HETATM    8  C10 UNL     1      -6.885   6.953   9.556  1.00  0.00     0.010 C 
HETATM    9  C7  UNL     1      -4.872   8.923  10.057  1.00  0.00    -0.013 C 
HETATM   10  C8  UNL     1      -4.964   8.162   8.737  1.00  0.00     0.010 C 
HETATM   11  C11 UNL     1      -3.963   7.939  10.821  1.00  0.00     0.016 C 
HETATM   12  C9  UNL     1      -5.410   6.807   9.261  1.00  0.00    -0.004 C 
ENDBRANCH   3   4
ENDBRANCH   2   3
BRANCH   2  13
HETATM   13  C12 UNL     1      -3.372   4.012  12.502  1.00  0.00     0.226 C 
HETATM   14  C13 UNL     1      -3.819   4.543  13.811  1.00  0.00     0.069 C 
HETATM   15  C14 UNL     1      -2.738   5.144  14.675  1.00  0.00     0.188 C 
HETATM   16  C15 UNL     1      -2.518   6.587  14.297  1.00  0.00     0.035 C 
HETATM   17  N2  UNL     1      -1.455   4.538  14.453  1.00  0.00    -0.067 N 
HETATM   18  C16 UNL     1      -1.439   6.546  13.241  1.00  0.00     0.035 C 
HETATM   19  C17 UNL     1      -1.142   5.052  13.135  1.00  0.00     0.188 C 
HETATM   20  C18 UNL     1      -1.971   4.401  12.096  1.00  0.00     0.069 C 
ATOM     21  H22 UNL     1      -0.753   4.714  15.173  1.00  0.00     0.278 HD
ATOM     22  H21 UNL     1      -1.424   3.523  14.550  1.00  0.00     0.278 HD
ENDBRANCH   2  13
TORSDOF 3
ENDMDL
MODEL 4
REMARK VINA RESULT: -6.112554351      3.080      4.814
REMARK  3 active torsions:
REMARK  status: ('A' for Active; 'I' for Inactive)
REMARK    1  A    between atoms: N1_2  and  C2_3 
REMARK    2  A    between atoms: N1_2  and  C12_13 
REMARK    3  A    between atoms: C2_3  and  C3_4 
ROOT
HETATM    1  C1  UNL     1      -3.693   3.997  10.055  1.00  0.00     0.310 C 
HETATM    2  N1  UNL     1      -4.191   4.996  11.007  1.00  0.00     0.089 N 
ENDROOT
BRANCH   2   3
HETATM    3  C2  UNL     1      -3.827   6.274  10.541  1.00  0.00     0.282 C 
BRANCH   3   4
HETATM    4  C3  UNL     1      -4.791   7.239  10.032  1.00  0.00    -0.010 C 
HETATM    5  C4  UNL     1      -4.719   8.600  10.705  1.00  0.00     0.016 C 
HETATM    6  C5  UNL     1      -6.167   9.034  10.616  1.00  0.00    -0.013 C 
HETATM    7  C6  UNL     1      -6.615   9.153   9.180  1.00  0.00     0.009 C 
HETATM    8  C10 UNL     1      -6.829   7.823  11.247  1.00  0.00     0.010 C 
HETATM    9  C7  UNL     1      -6.372   7.883   8.424  1.00  0.00    -0.013 C 
HETATM   10  C8  UNL     1      -6.987   6.676   9.130  1.00  0.00     0.010 C 
HETATM   11  C11 UNL     1      -4.888   7.490   8.559  1.00  0.00     0.016 C 
HETATM   12  C9  UNL     1      -6.199   6.720  10.429  1.00  0.00    -0.004 C 
ENDBRANCH   3   4
ENDBRANCH   2   3
BRANCH   2  13
HETATM   13  C12 UNL     1      -3.645   4.670  12.345  1.00  0.00     0.226 C 
HETATM   14  C13 UNL     1      -4.046   3.318  12.801  1.00  0.00     0.069 C 
HETATM   15  C14 UNL     1      -4.381   3.196  14.267  1.00  0.00     0.188 C 
HETATM   16  C15 UNL     1      -5.822   3.574  14.500  1.00  0.00     0.035 C 
HETATM   17  N2  UNL     1      -3.653   4.133  15.078  1.00  0.00    -0.067 N 
HETATM   18  C16 UNL     1      -5.789   5.056  14.786  1.00  0.00     0.035 C 
HETATM   19  C17 UNL     1      -4.297   5.373  14.697  1.00  0.00     0.188 C 
HETATM   20  C18 UNL     1      -3.905   5.783  13.331  1.00  0.00     0.069 C 
ATOM     21  H22 UNL     1      -3.638   3.932  16.078  1.00  0.00     0.278 HD
ATOM     22  H21 UNL     1      -2.638   4.112  14.972  1.00  0.00     0.278 HD
ENDBRANCH   2  13
TORSDOF 3
ENDMDL
MODEL 5
REMARK VINA RESULT: -6.093044673      1.102      1.813
REMARK  3 active torsions:
REMARK  status: ('A' for Active; 'I' for Inactive)
REMARK    1  A    between atoms: N1_2  and  C2_3 
REMARK    2  A    between atoms: N1_2  and  C12_13 
REMARK    3  A    between atoms: C2_3  and  C3_4 
ROOT
HETATM    1  C1  UNL     1      -3.237   2.498  15.961  1.00  0.00     0.310 C 
HETATM    2  N1  UNL     1      -4.203   2.755  14.888  1.00  0.00     0.089 N 
ENDROOT
BRANCH   2   3
HETATM    3  C2  UNL     1      -4.330   4.148  14.729  1.00  0.00     0.282 C 
BRANCH   3   4
HETATM    4  C3  UNL     1      -3.717   4.882  13.631  1.00  0.00    -0.010 C 
HETATM    5  C4  UNL     1      -3.131   3.995  12.544  1.00  0.00     0.016 C 
HETATM    6  C5  UNL     1      -1.979   4.858  12.069  1.00  0.00    -0.013 C 
HETATM    7  C6  UNL     1      -2.474   6.167  11.505  1.00  0.00     0.009 C 
HETATM    8  C10 UNL     1      -1.295   5.113  13.400  1.00  0.00     0.010 C 
HETATM    9  C7  UNL     1      -3.339   6.895  12.487  1.00  0.00    -0.013 C 
HETATM   10  C8  UNL     1      -2.645   7.064  13.837  1.00  0.00     0.010 C 
HETATM   11  C11 UNL     1      -4.484   5.966  12.938  1.00  0.00     0.016 C 
HETATM   12  C9  UNL     1      -2.471   5.602  14.213  1.00  0.00    -0.004 C 
ENDBRANCH   3   4
ENDBRANCH   2   3
BRANCH   2  13
HETATM   13  C12 UNL     1      -5.472   2.077  15.239  1.00  0.00     0.226 C 
HETATM   14  C13 UNL     1      -6.458   3.004  15.843  1.00  0.00     0.069 C 
HETATM   15  C14 UNL     1      -7.274   2.440  16.980  1.00  0.00     0.188 C 
HETATM   16  C15 UNL     1      -6.520   2.583  18.277  1.00  0.00     0.035 C 
HETATM   17  N2  UNL     1      -7.476   1.023  16.862  1.00  0.00    -0.067 N 
HETATM   18  C16 UNL     1      -5.733   1.301  18.407  1.00  0.00     0.035 C 
HETATM   19  C17 UNL     1      -6.140   0.539  17.148  1.00  0.00     0.188 C 
HETATM   20  C18 UNL     1      -5.220   0.810  16.021  1.00  0.00     0.069 C 
ATOM     21  H22 UNL     1      -8.219   0.633  17.442  1.00  0.00     0.278 HD
ATOM     22  H21 UNL     1      -7.880   0.706  15.981  1.00  0.00     0.278 HD
ENDBRANCH   2  13
TORSDOF 3
ENDMDL
