MODEL 1
REMARK VINA RESULT: -9.110702357      0.000      0.000
REMARK  11 active torsions:
REMARK  status: ('A' for Active; 'I' for Inactive)
REMARK    1  A    between atoms: C3_5  and  N3_6 
REMARK       I    between atoms: N3_6  and  C4_8 
REMARK    2  A    between atoms: C4_8  and  C5_10 
REMARK    3  A    between atoms: C5_10  and  O2_11 
REMARK    4  A    between atoms: O2_11  and  C6_12 
REMARK    5  A    between atoms: C6_12  and  C7_14 
REMARK    6  A    between atoms: C9_16  and  N4_17 
REMARK       I    between atoms: N4_17  and  C10_19 
REMARK    7  A    between atoms: C10_19  and  C11_21 
REMARK    8  A    between atoms: C13_25  and  N6_26 
REMARK    9  A    between atoms: N6_26  and  C14_28 
REMARK   10  A    between atoms: C16_38  and  N10_39 
REMARK   11  A    between atoms: C18_43  and  N11_44 
ROOT
HETATM    1  C7  UNL     1      13.836  -7.079  -1.144  1.00  0.00     0.044 A 
HETATM    2  C8  UNL     1      15.143  -7.065  -1.525  1.00  0.00     0.047 A 
HETATM    3  C9  UNL     1      16.184  -7.655  -0.759  1.00  0.00     0.038 A 
HETATM    4  C17 UNL     1      15.820  -8.260   0.415  1.00  0.00     0.065 A 
HETATM    5  C18 UNL     1      14.492  -8.275   0.807  1.00  0.00     0.106 A 
HETATM    6  C19 UNL     1      13.509  -7.692   0.040  1.00  0.00     0.053 A 
ENDROOT
BRANCH   3   7
HETATM    7  N4  UNL     1      17.500  -7.606  -1.255  1.00  0.00    -0.323 N 
HETATM    8  C10 UNL     1      18.616  -7.217  -0.521  1.00  0.00     0.261 C 
HETATM    9  O4  UNL     1      18.588  -6.857   0.660  1.00  0.00    -0.267 OA
ATOM     10  H4  UNL     1      17.647  -7.878  -2.227  1.00  0.00     0.169 HD
BRANCH   8  11
HETATM   11  C11 UNL     1      19.970  -7.213  -1.154  1.00  0.00     0.092 A 
HETATM   12  C12 UNL     1      20.227  -8.206  -2.069  1.00  0.00     0.127 A 
HETATM   13  N5  UNL     1      21.462  -8.215  -2.655  1.00  0.00    -0.200 N 
HETATM   14  C13 UNL     1      22.392  -7.284  -2.347  1.00  0.00     0.685 A 
ATOM     15  H5  UNL     1      21.687  -8.939  -3.338  1.00  0.00     0.183 HD
HETATM   16  N9  UNL     1      22.090  -6.332  -1.443  1.00  0.00    -0.176 N 
HETATM   17  C16 UNL     1      20.897  -6.256  -0.823  1.00  0.00     0.132 A 
ATOM     18  H9  UNL     1      22.799  -5.635  -1.216  1.00  0.00     0.186 HD
BRANCH  14  19
HETATM   19  N6  UNL     1      23.655  -7.348  -2.990  1.00  0.00    -0.168 N 
ATOM     20  H6  UNL     1      23.742  -7.727  -3.933  1.00  0.00     0.186 HD
BRANCH  19  21
HETATM   21  C14 UNL     1      24.695  -6.914  -2.349  1.00  0.00     0.181 A 
HETATM   22  N7  UNL     1      25.130  -5.653  -2.272  1.00  0.00    -0.278 N 
HETATM   23  N8  UNL     1      26.177  -5.409  -1.594  1.00  0.00    -0.282 N 
ATOM     24  H7  UNL     1      24.631  -4.902  -2.749  1.00  0.00     0.189 HD
HETATM   25  C15 UNL     1      26.819  -6.390  -0.979  1.00  0.00     0.163 A 
ATOM     26  H8  UNL     1      26.525  -4.452  -1.522  1.00  0.00     0.188 HD
HETATM   27 CL1  UNL     1      28.284  -6.300   0.015  1.00  0.00    -0.055 Cl
HETATM   28  S1  UNL     1      25.858  -7.738  -1.403  1.00  0.00    -0.021 SA
ENDBRANCH  19  21
ENDBRANCH  14  19
BRANCH  17  29
HETATM   29  N10 UNL     1      20.639  -5.333   0.037  1.00  0.00    -0.384 N 
ATOM     30 2H10 UNL     1      19.833  -5.391   0.661  1.00  0.00     0.157 HD
ATOM     31 1H10 UNL     1      21.229  -4.506   0.130  1.00  0.00     0.157 HD
ENDBRANCH  17  29
ENDBRANCH   8  11
ENDBRANCH   3   7
BRANCH   1  32
HETATM   32  C6  UNL     1      12.803  -6.465  -1.954  1.00  0.00     0.293 C 
HETATM   33  O3  UNL     1      12.829  -6.496  -3.217  1.00  0.00    -0.259 OA
BRANCH  32  34
HETATM   34  O2  UNL     1      11.736  -5.812  -1.357  1.00  0.00    -0.308 OA
BRANCH  34  35
HETATM   35  C5  UNL     1      10.458  -6.370  -1.246  1.00  0.00     0.282 C 
BRANCH  35  36
HETATM   36  C4  UNL     1       9.375  -5.587  -1.862  1.00  0.00     0.246 C 
HETATM   37  N3  UNL     1       9.292  -4.192  -1.651  1.00  0.00    -0.318 N 
ATOM     38  H3  UNL     1       9.980  -3.713  -1.070  1.00  0.00     0.169 HD
HETATM   39  O1  UNL     1       8.527  -6.161  -2.576  1.00  0.00    -0.271 OA
BRANCH  37  40
HETATM   40  C3  UNL     1       8.224  -3.462  -2.267  1.00  0.00     0.145 A 
HETATM   41  C2  UNL     1       7.022  -3.225  -1.616  1.00  0.00     0.154 A 
HETATM   42  N1  UNL     1       6.084  -2.531  -2.282  1.00  0.00    -0.290 N 
HETATM   43  N2  UNL     1       6.836  -3.717  -0.299  1.00  0.00    -0.080 NA
HETATM   44  C1  UNL     1       4.826  -2.279  -1.610  1.00  0.00     0.162 C 
HETATM   45  C22 UNL     1       6.280  -2.074  -3.530  1.00  0.00     0.332 A 
HETATM   46  N12 UNL     1       7.446  -2.292  -4.189  1.00  0.00    -0.269 N 
HETATM   47  O8  UNL     1       5.344  -1.435  -4.070  1.00  0.00    -0.246 OA
HETATM   48  C20 UNL     1       8.420  -2.993  -3.545  1.00  0.00     0.281 A 
HETATM   49  C21 UNL     1       7.651  -1.795  -5.537  1.00  0.00     0.164 C 
HETATM   50  O7  UNL     1       9.497  -3.200  -4.139  1.00  0.00    -0.265 OA
ENDBRANCH  37  40
ENDBRANCH  35  36
ENDBRANCH  34  35
ENDBRANCH  32  34
ENDBRANCH   1  32
BRANCH   5  51
HETATM   51  N11 UNL     1      14.149  -8.909   2.031  1.00  0.00    -0.116 N 
HETATM   52  O5  UNL     1      13.062  -8.653   2.581  1.00  0.00    -0.532 OA
HETATM   53  O6  UNL     1      14.977  -9.812   2.649  1.00  0.00    -0.532 OA
ENDBRANCH   5  51
TORSDOF 11
ENDMDL
MODEL 2
REMARK VINA RESULT: -9.072270079      0.640      1.618
REMARK  11 active torsions:
REMARK  status: ('A' for Active; 'I' for Inactive)
REMARK    1  A    between atoms: C3_5  and  N3_6 
REMARK       I    between atoms: N3_6  and  C4_8 
REMARK    2  A    between atoms: C4_8  and  C5_10 
REMARK    3  A    between atoms: C5_10  and  O2_11 
REMARK    4  A    between atoms: O2_11  and  C6_12 
REMARK    5  A    between atoms: C6_12  and  C7_14 
REMARK    6  A    between atoms: C9_16  and  N4_17 
REMARK       I    between atoms: N4_17  and  C10_19 
REMARK    7  A    between atoms: C10_19  and  C11_21 
REMARK    8  A    between atoms: C13_25  and  N6_26 
REMARK    9  A    between atoms: N6_26  and  C14_28 
REMARK   10  A    between atoms: C16_38  and  N10_39 
REMARK   11  A    between atoms: C18_43  and  N11_44 
ROOT
HETATM    1  C7  UNL     1      13.951  -7.044  -1.266  1.00  0.00     0.044 A 
HETATM    2  C8  UNL     1      15.263  -7.027  -1.628  1.00  0.00     0.047 A 
HETATM    3  C9  UNL     1      16.294  -7.617  -0.850  1.00  0.00     0.038 A 
HETATM    4  C17 UNL     1      15.914  -8.226   0.318  1.00  0.00     0.065 A 
HETATM    5  C18 UNL     1      14.581  -8.244   0.691  1.00  0.00     0.106 A 
HETATM    6  C19 UNL     1      13.608  -7.660  -0.088  1.00  0.00     0.053 A 
ENDROOT
BRANCH   3   7
HETATM    7  N4  UNL     1      17.617  -7.566  -1.327  1.00  0.00    -0.323 N 
HETATM    8  C10 UNL     1      18.723  -7.182  -0.575  1.00  0.00     0.261 C 
HETATM    9  O4  UNL     1      18.678  -6.831   0.609  1.00  0.00    -0.267 OA
ATOM     10  H4  UNL     1      17.777  -7.830  -2.299  1.00  0.00     0.169 HD
BRANCH   8  11
HETATM   11  C11 UNL     1      20.086  -7.174  -1.188  1.00  0.00     0.092 A 
HETATM   12  C12 UNL     1      20.355  -8.159  -2.108  1.00  0.00     0.127 A 
HETATM   13  N5  UNL     1      21.598  -8.165  -2.677  1.00  0.00    -0.200 N 
HETATM   14  C13 UNL     1      22.524  -7.237  -2.348  1.00  0.00     0.685 A 
ATOM     15  H5  UNL     1      21.831  -8.883  -3.363  1.00  0.00     0.183 HD
HETATM   16  N9  UNL     1      22.210  -6.292  -1.440  1.00  0.00    -0.176 N 
HETATM   17  C16 UNL     1      21.008  -6.221  -0.836  1.00  0.00     0.132 A 
ATOM     18  H9  UNL     1      22.916  -5.597  -1.198  1.00  0.00     0.186 HD
BRANCH  14  19
HETATM   19  N6  UNL     1      23.795  -7.297  -2.974  1.00  0.00    -0.168 N 
ATOM     20  H6  UNL     1      23.895  -7.669  -3.918  1.00  0.00     0.186 HD
BRANCH  19  21
HETATM   21  C14 UNL     1      24.827  -6.867  -2.317  1.00  0.00     0.181 A 
HETATM   22  N7  UNL     1      25.284  -5.613  -2.259  1.00  0.00    -0.278 N 
HETATM   23  N8  UNL     1      26.317  -5.371  -1.559  1.00  0.00    -0.282 N 
ATOM     24  H7  UNL     1      24.813  -4.864  -2.767  1.00  0.00     0.189 HD
HETATM   25  C15 UNL     1      26.923  -6.348  -0.903  1.00  0.00     0.163 A 
ATOM     26  H8  UNL     1      26.681  -4.420  -1.502  1.00  0.00     0.188 HD
HETATM   27 CL1  UNL     1      28.363  -6.261   0.128  1.00  0.00    -0.055 Cl
HETATM   28  S1  UNL     1      25.947  -7.688  -1.319  1.00  0.00    -0.021 SA
ENDBRANCH  19  21
ENDBRANCH  14  19
BRANCH  17  29
HETATM   29  N10 UNL     1      20.739  -5.304   0.028  1.00  0.00    -0.384 N 
ATOM     30 2H10 UNL     1      20.178  -4.487  -0.215  1.00  0.00     0.157 HD
ATOM     31 1H10 UNL     1      21.076  -5.358   0.989  1.00  0.00     0.157 HD
ENDBRANCH  17  29
ENDBRANCH   8  11
ENDBRANCH   3   7
BRANCH   1  32
HETATM   32  C6  UNL     1      12.929  -6.429  -2.089  1.00  0.00     0.293 C 
HETATM   33  O3  UNL     1      13.022  -6.370  -3.348  1.00  0.00    -0.259 OA
BRANCH  32  34
HETATM   34  O2  UNL     1      11.796  -5.879  -1.509  1.00  0.00    -0.308 OA
BRANCH  34  35
HETATM   35  C5  UNL     1      10.541  -6.496  -1.536  1.00  0.00     0.282 C 
BRANCH  35  36
HETATM   36  C4  UNL     1       9.455  -5.686  -2.111  1.00  0.00     0.246 C 
HETATM   37  N3  UNL     1       9.358  -4.307  -1.816  1.00  0.00    -0.318 N 
ATOM     38  H3  UNL     1      10.039  -3.859  -1.202  1.00  0.00     0.169 HD
HETATM   39  O1  UNL     1       8.617  -6.222  -2.865  1.00  0.00    -0.271 OA
BRANCH  37  40
HETATM   40  C3  UNL     1       8.288  -3.550  -2.393  1.00  0.00     0.145 A 
HETATM   41  C2  UNL     1       8.398  -2.951  -3.640  1.00  0.00     0.154 A 
HETATM   42  N1  UNL     1       7.337  -2.263  -4.092  1.00  0.00    -0.290 N 
HETATM   43  N2  UNL     1       9.604  -3.088  -4.373  1.00  0.00    -0.080 NA
HETATM   44  C1  UNL     1       7.443  -1.635  -5.392  1.00  0.00     0.162 C 
HETATM   45  C22 UNL     1       6.202  -2.144  -3.382  1.00  0.00     0.332 A 
HETATM   46  N12 UNL     1       6.069  -2.719  -2.160  1.00  0.00    -0.269 N 
HETATM   47  O8  UNL     1       5.264  -1.480  -3.888  1.00  0.00    -0.246 OA
HETATM   48  C20 UNL     1       7.125  -3.426  -1.669  1.00  0.00     0.281 A 
HETATM   49  C21 UNL     1       4.840  -2.587  -1.398  1.00  0.00     0.164 C 
HETATM   50  O7  UNL     1       7.016  -3.960  -0.548  1.00  0.00    -0.265 OA
ENDBRANCH  37  40
ENDBRANCH  35  36
ENDBRANCH  34  35
ENDBRANCH  32  34
ENDBRANCH   1  32
BRANCH   5  51
HETATM   51  N11 UNL     1      14.222  -8.882   1.908  1.00  0.00    -0.116 N 
HETATM   52  O5  UNL     1      13.142  -8.603   2.462  1.00  0.00    -0.532 OA
HETATM   53  O6  UNL     1      15.027  -9.811   2.518  1.00  0.00    -0.532 OA
ENDBRANCH   5  51
TORSDOF 11
ENDMDL
MODEL 3
REMARK VINA RESULT: -8.925094619      1.107      2.080
REMARK  11 active torsions:
REMARK  status: ('A' for Active; 'I' for Inactive)
REMARK    1  A    between atoms: C3_5  and  N3_6 
REMARK       I    between atoms: N3_6  and  C4_8 
REMARK    2  A    between atoms: C4_8  and  C5_10 
REMARK    3  A    between atoms: C5_10  and  O2_11 
REMARK    4  A    between atoms: O2_11  and  C6_12 
REMARK    5  A    between atoms: C6_12  and  C7_14 
REMARK    6  A    between atoms: C9_16  and  N4_17 
REMARK       I    between atoms: N4_17  and  C10_19 
REMARK    7  A    between atoms: C10_19  and  C11_21 
REMARK    8  A    between atoms: C13_25  and  N6_26 
REMARK    9  A    between atoms: N6_26  and  C14_28 
REMARK   10  A    between atoms: C16_38  and  N10_39 
REMARK   11  A    between atoms: C18_43  and  N11_44 
ROOT
HETATM    1  C7  UNL     1      13.970  -6.923  -1.538  1.00  0.00     0.044 A 
HETATM    2  C8  UNL     1      15.293  -6.935  -1.860  1.00  0.00     0.047 A 
HETATM    3  C9  UNL     1      16.283  -7.569  -1.063  1.00  0.00     0.038 A 
HETATM    4  C17 UNL     1      15.850  -8.189   0.081  1.00  0.00     0.065 A 
HETATM    5  C18 UNL     1      14.506  -8.177   0.413  1.00  0.00     0.106 A 
HETATM    6  C19 UNL     1      13.574  -7.552  -0.384  1.00  0.00     0.053 A 
ENDROOT
BRANCH   3   7
HETATM    7  N4  UNL     1      17.620  -7.545  -1.499  1.00  0.00    -0.323 N 
HETATM    8  C10 UNL     1      18.711  -7.189  -0.711  1.00  0.00     0.261 C 
HETATM    9  O4  UNL     1      18.637  -6.842   0.472  1.00  0.00    -0.267 OA
ATOM     10  H4  UNL     1      17.805  -7.809  -2.466  1.00  0.00     0.169 HD
BRANCH   8  11
HETATM   11  C11 UNL     1      20.092  -7.210  -1.282  1.00  0.00     0.092 A 
HETATM   12  C12 UNL     1      20.357  -8.177  -2.222  1.00  0.00     0.127 A 
HETATM   13  N5  UNL     1      21.617  -8.208  -2.752  1.00  0.00    -0.200 N 
HETATM   14  C13 UNL     1      22.562  -7.321  -2.368  1.00  0.00     0.685 A 
ATOM     15  H5  UNL     1      21.848  -8.913  -3.452  1.00  0.00     0.183 HD
HETATM   16  N9  UNL     1      22.250  -6.393  -1.442  1.00  0.00    -0.176 N 
HETATM   17  C16 UNL     1      21.034  -6.298  -0.874  1.00  0.00     0.132 A 
ATOM     18  H9  UNL     1      22.971  -5.729  -1.158  1.00  0.00     0.186 HD
BRANCH  14  19
HETATM   19  N6  UNL     1      23.849  -7.406  -2.956  1.00  0.00    -0.168 N 
ATOM     20  H6  UNL     1      23.982  -7.859  -3.860  1.00  0.00     0.186 HD
BRANCH  19  21
HETATM   21  C14 UNL     1      24.854  -6.893  -2.316  1.00  0.00     0.181 A 
HETATM   22  N7  UNL     1      25.287  -5.631  -2.368  1.00  0.00    -0.278 N 
HETATM   23  N8  UNL     1      26.297  -5.302  -1.667  1.00  0.00    -0.282 N 
ATOM     24  H7  UNL     1      24.818  -4.944  -2.959  1.00  0.00     0.189 HD
HETATM   25  C15 UNL     1      26.901  -6.199  -0.904  1.00  0.00     0.163 A 
ATOM     26  H8  UNL     1      26.642  -4.343  -1.693  1.00  0.00     0.188 HD
HETATM   27 CL1  UNL     1      28.308  -5.984   0.152  1.00  0.00    -0.055 Cl
HETATM   28  S1  UNL     1      25.960  -7.592  -1.214  1.00  0.00    -0.021 SA
ENDBRANCH  19  21
ENDBRANCH  14  19
BRANCH  17  29
HETATM   29  N10 UNL     1      20.767  -5.398   0.009  1.00  0.00    -0.384 N 
ATOM     30 2H10 UNL     1      20.398  -5.642   0.928  1.00  0.00     0.157 HD
ATOM     31 1H10 UNL     1      20.914  -4.406  -0.176  1.00  0.00     0.157 HD
ENDBRANCH  17  29
ENDBRANCH   8  11
ENDBRANCH   3   7
BRANCH   1  32
HETATM   32  C6  UNL     1      12.991  -6.264  -2.379  1.00  0.00     0.293 C 
HETATM   33  O3  UNL     1      11.794  -6.662  -2.460  1.00  0.00    -0.259 OA
BRANCH  32  34
HETATM   34  O2  UNL     1      13.344  -5.156  -3.134  1.00  0.00    -0.308 OA
BRANCH  34  35
HETATM   35  C5  UNL     1      12.571  -4.670  -4.194  1.00  0.00     0.282 C 
BRANCH  35  36
HETATM   36  C4  UNL     1      11.357  -3.938  -3.803  1.00  0.00     0.246 C 
HETATM   37  N3  UNL     1      10.082  -4.524  -3.975  1.00  0.00    -0.318 N 
ATOM     38  H3  UNL     1       9.990  -5.459  -4.371  1.00  0.00     0.169 HD
HETATM   39  O1  UNL     1      11.456  -2.793  -3.315  1.00  0.00    -0.271 OA
BRANCH  37  40
HETATM   40  C3  UNL     1       8.921  -3.781  -3.582  1.00  0.00     0.145 A 
HETATM   41  C2  UNL     1       8.352  -2.816  -4.401  1.00  0.00     0.154 A 
HETATM   42  N1  UNL     1       7.265  -2.176  -3.938  1.00  0.00    -0.290 N 
HETATM   43  N2  UNL     1       8.931  -2.551  -5.667  1.00  0.00    -0.080 NA
HETATM   44  C1  UNL     1       6.665  -1.167  -4.786  1.00  0.00     0.162 C 
HETATM   45  C22 UNL     1       6.733  -2.443  -2.734  1.00  0.00     0.332 A 
HETATM   46  N12 UNL     1       7.269  -3.381  -1.915  1.00  0.00    -0.269 N 
HETATM   47  O8  UNL     1       5.716  -1.791  -2.390  1.00  0.00    -0.246 OA
HETATM   48  C20 UNL     1       8.373  -4.051  -2.350  1.00  0.00     0.281 A 
HETATM   49  C21 UNL     1       6.688  -3.664  -0.615  1.00  0.00     0.164 C 
HETATM   50  O7  UNL     1       8.876  -4.916  -1.607  1.00  0.00    -0.265 OA
ENDBRANCH  37  40
ENDBRANCH  35  36
ENDBRANCH  34  35
ENDBRANCH  32  34
ENDBRANCH   1  32
BRANCH   5  51
HETATM   51  N11 UNL     1      14.092  -8.828   1.605  1.00  0.00    -0.116 N 
HETATM   52  O5  UNL     1      14.914  -9.483   2.274  1.00  0.00    -0.532 OA
HETATM   53  O6  UNL     1      12.802  -8.768   2.067  1.00  0.00    -0.532 OA
ENDBRANCH   5  51
TORSDOF 11
ENDMDL
MODEL 4
REMARK VINA RESULT: -8.871045180      1.268      1.616
REMARK  11 active torsions:
REMARK  status: ('A' for Active; 'I' for Inactive)
REMARK    1  A    between atoms: C3_5  and  N3_6 
REMARK       I    between atoms: N3_6  and  C4_8 
REMARK    2  A    between atoms: C4_8  and  C5_10 
REMARK    3  A    between atoms: C5_10  and  O2_11 
REMARK    4  A    between atoms: O2_11  and  C6_12 
REMARK    5  A    between atoms: C6_12  and  C7_14 
REMARK    6  A    between atoms: C9_16  and  N4_17 
REMARK       I    between atoms: N4_17  and  C10_19 
REMARK    7  A    between atoms: C10_19  and  C11_21 
REMARK    8  A    between atoms: C13_25  and  N6_26 
REMARK    9  A    between atoms: N6_26  and  C14_28 
REMARK   10  A    between atoms: C16_38  and  N10_39 
REMARK   11  A    between atoms: C18_43  and  N11_44 
ROOT
HETATM    1  C7  UNL     1      13.870  -6.955  -1.678  1.00  0.00     0.044 A 
HETATM    2  C8  UNL     1      15.201  -6.981  -1.959  1.00  0.00     0.047 A 
HETATM    3  C9  UNL     1      16.163  -7.602  -1.119  1.00  0.00     0.038 A 
HETATM    4  C17 UNL     1      15.693  -8.194   0.025  1.00  0.00     0.065 A 
HETATM    5  C18 UNL     1      14.339  -8.168   0.315  1.00  0.00     0.106 A 
HETATM    6  C19 UNL     1      13.436  -7.556  -0.523  1.00  0.00     0.053 A 
ENDROOT
BRANCH   3   7
HETATM    7  N4  UNL     1      17.514  -7.594  -1.514  1.00  0.00    -0.323 N 
HETATM    8  C10 UNL     1      18.580  -7.210  -0.707  1.00  0.00     0.261 C 
HETATM    9  O4  UNL     1      18.471  -6.820   0.460  1.00  0.00    -0.267 OA
ATOM     10  H4  UNL     1      17.727  -7.893  -2.465  1.00  0.00     0.169 HD
BRANCH   8  11
HETATM   11  C11 UNL     1      19.977  -7.251  -1.234  1.00  0.00     0.092 A 
HETATM   12  C12 UNL     1      20.303  -8.317  -2.039  1.00  0.00     0.127 A 
HETATM   13  N5  UNL     1      21.578  -8.368  -2.528  1.00  0.00    -0.200 N 
HETATM   14  C13 UNL     1      22.482  -7.408  -2.233  1.00  0.00     0.685 A 
ATOM     15  H5  UNL     1      21.853  -9.146  -3.128  1.00  0.00     0.183 HD
HETATM   16  N9  UNL     1      22.113  -6.384  -1.439  1.00  0.00    -0.176 N 
HETATM   17  C16 UNL     1      20.877  -6.263  -0.919  1.00  0.00     0.132 A 
ATOM     18  H9  UNL     1      22.803  -5.665  -1.221  1.00  0.00     0.186 HD
BRANCH  14  19
HETATM   19  N6  UNL     1      23.789  -7.518  -2.772  1.00  0.00    -0.168 N 
ATOM     20  H6  UNL     1      23.931  -7.687  -3.768  1.00  0.00     0.186 HD
BRANCH  19  21
HETATM   21  C14 UNL     1      24.800  -7.401  -1.968  1.00  0.00     0.181 A 
HETATM   22  N7  UNL     1      25.172  -8.250  -1.007  1.00  0.00    -0.278 N 
HETATM   23  N8  UNL     1      26.198  -7.972  -0.309  1.00  0.00    -0.282 N 
ATOM     24  H7  UNL     1      24.642  -9.105  -0.835  1.00  0.00     0.189 HD
HETATM   25  C15 UNL     1      26.879  -6.860  -0.537  1.00  0.00     0.163 A 
ATOM     26  H8  UNL     1      26.498  -8.609   0.429  1.00  0.00     0.188 HD
HETATM   27 CL1  UNL     1      28.327  -6.262   0.292  1.00  0.00    -0.055 Cl
HETATM   28  S1  UNL     1      25.990  -6.181  -1.829  1.00  0.00    -0.021 SA
ENDBRANCH  19  21
ENDBRANCH  14  19
BRANCH  17  29
HETATM   29  N10 UNL     1      20.554  -5.271  -0.163  1.00  0.00    -0.384 N 
ATOM     30 2H10 UNL     1      20.501  -5.365   0.851  1.00  0.00     0.157 HD
ATOM     31 1H10 UNL     1      20.340  -4.352  -0.548  1.00  0.00     0.157 HD
ENDBRANCH  17  29
ENDBRANCH   8  11
ENDBRANCH   3   7
BRANCH   1  32
HETATM   32  C6  UNL     1      12.920  -6.310  -2.563  1.00  0.00     0.293 C 
HETATM   33  O3  UNL     1      11.736  -6.730  -2.703  1.00  0.00    -0.259 OA
BRANCH  32  34
HETATM   34  O2  UNL     1      13.288  -5.192  -3.296  1.00  0.00    -0.308 OA
BRANCH  34  35
HETATM   35  C5  UNL     1      12.480  -4.620  -4.284  1.00  0.00     0.282 C 
BRANCH  35  36
HETATM   36  C4  UNL     1      11.274  -3.938  -3.792  1.00  0.00     0.246 C 
HETATM   37  N3  UNL     1      10.004  -4.546  -3.922  1.00  0.00    -0.318 N 
ATOM     38  H3  UNL     1       9.911  -5.464  -4.358  1.00  0.00     0.169 HD
HETATM   39  O1  UNL     1      11.374  -2.815  -3.254  1.00  0.00    -0.271 OA
BRANCH  37  40
HETATM   40  C3  UNL     1       8.851  -3.852  -3.430  1.00  0.00     0.145 A 
HETATM   41  C2  UNL     1       8.307  -4.119  -2.182  1.00  0.00     0.154 A 
HETATM   42  N1  UNL     1       7.225  -3.413  -1.816  1.00  0.00    -0.290 N 
HETATM   43  N2  UNL     1       8.905  -5.108  -1.360  1.00  0.00    -0.080 NA
HETATM   44  C1  UNL     1       6.650  -3.685  -0.514  1.00  0.00     0.162 C 
HETATM   45  C22 UNL     1       6.673  -2.480  -2.609  1.00  0.00     0.332 A 
HETATM   46  N12 UNL     1       7.185  -2.200  -3.834  1.00  0.00    -0.269 N 
HETATM   47  O8  UNL     1       5.662  -1.873  -2.179  1.00  0.00    -0.246 OA
HETATM   48  C20 UNL     1       8.283  -2.897  -4.240  1.00  0.00     0.281 A 
HETATM   49  C21 UNL     1       6.584  -1.191  -4.687  1.00  0.00     0.164 C 
HETATM   50  O7  UNL     1       8.764  -2.649  -5.363  1.00  0.00    -0.265 OA
ENDBRANCH  37  40
ENDBRANCH  35  36
ENDBRANCH  34  35
ENDBRANCH  32  34
ENDBRANCH   1  32
BRANCH   5  51
HETATM   51  N11 UNL     1      13.886  -8.791   1.509  1.00  0.00    -0.116 N 
HETATM   52  O5  UNL     1      12.684  -8.728   1.825  1.00  0.00    -0.532 OA
HETATM   53  O6  UNL     1      14.730  -9.473   2.349  1.00  0.00    -0.532 OA
ENDBRANCH   5  51
TORSDOF 11
ENDMDL
MODEL 5
REMARK VINA RESULT: -8.762490352      2.145      2.883
REMARK  11 active torsions:
REMARK  status: ('A' for Active; 'I' for Inactive)
REMARK    1  A    between atoms: C3_5  and  N3_6 
REMARK       I    between atoms: N3_6  and  C4_8 
REMARK    2  A    between atoms: C4_8  and  C5_10 
REMARK    3  A    between atoms: C5_10  and  O2_11 
REMARK    4  A    between atoms: O2_11  and  C6_12 
REMARK    5  A    between atoms: C6_12  and  C7_14 
REMARK    6  A    between atoms: C9_16  and  N4_17 
REMARK       I    between atoms: N4_17  and  C10_19 
REMARK    7  A    between atoms: C10_19  and  C11_21 
REMARK    8  A    between atoms: C13_25  and  N6_26 
REMARK    9  A    between atoms: N6_26  and  C14_28 
REMARK   10  A    between atoms: C16_38  and  N10_39 
REMARK   11  A    between atoms: C18_43  and  N11_44 
ROOT
HETATM    1  C7  UNL     1      13.991  -6.934  -1.562  1.00  0.00     0.044 A 
HETATM    2  C8  UNL     1      15.312  -6.987  -1.887  1.00  0.00     0.047 A 
HETATM    3  C9  UNL     1      16.285  -7.644  -1.088  1.00  0.00     0.038 A 
HETATM    4  C17 UNL     1      15.838  -8.244   0.061  1.00  0.00     0.065 A 
HETATM    5  C18 UNL     1      14.496  -8.191   0.395  1.00  0.00     0.106 A 
HETATM    6  C19 UNL     1      13.580  -7.544  -0.403  1.00  0.00     0.053 A 
ENDROOT
BRANCH   3   7
HETATM    7  N4  UNL     1      17.622  -7.661  -1.527  1.00  0.00    -0.323 N 
HETATM    8  C10 UNL     1      18.721  -7.296  -0.756  1.00  0.00     0.261 C 
HETATM    9  O4  UNL     1      18.657  -6.904   0.414  1.00  0.00    -0.267 OA
ATOM     10  H4  UNL     1      17.799  -7.965  -2.485  1.00  0.00     0.169 HD
BRANCH   8  11
HETATM   11  C11 UNL     1      20.100  -7.364  -1.328  1.00  0.00     0.092 A 
HETATM   12  C12 UNL     1      20.369  -8.418  -2.167  1.00  0.00     0.127 A 
HETATM   13  N5  UNL     1      21.627  -8.493  -2.698  1.00  0.00    -0.200 N 
HETATM   14  C13 UNL     1      22.566  -7.565  -2.409  1.00  0.00     0.685 A 
ATOM     15  H5  UNL     1      21.861  -9.264  -3.324  1.00  0.00     0.183 HD
HETATM   16  N9  UNL     1      22.251  -6.551  -1.581  1.00  0.00    -0.176 N 
HETATM   17  C16 UNL     1      21.036  -6.409  -1.019  1.00  0.00     0.132 A 
ATOM     18  H9  UNL     1      22.968  -5.857  -1.368  1.00  0.00     0.186 HD
BRANCH  14  19
HETATM   19  N6  UNL     1      23.852  -7.699  -2.992  1.00  0.00    -0.168 N 
ATOM     20  H6  UNL     1      24.582  -8.241  -2.528  1.00  0.00     0.186 HD
BRANCH  19  21
HETATM   21  C14 UNL     1      24.079  -7.116  -4.128  1.00  0.00     0.181 A 
HETATM   22  N7  UNL     1      24.992  -6.176  -4.386  1.00  0.00    -0.278 N 
HETATM   23  N8  UNL     1      25.075  -5.713  -5.568  1.00  0.00    -0.282 N 
ATOM     24  H7  UNL     1      25.610  -5.835  -3.650  1.00  0.00     0.189 HD
HETATM   25  C15 UNL     1      24.268  -6.160  -6.518  1.00  0.00     0.163 A 
ATOM     26  H8  UNL     1      25.765  -4.995  -5.786  1.00  0.00     0.188 HD
HETATM   27 CL1  UNL     1      24.193  -5.676  -8.222  1.00  0.00    -0.055 Cl
HETATM   28  S1  UNL     1      23.341  -7.310  -5.658  1.00  0.00    -0.021 SA
ENDBRANCH  19  21
ENDBRANCH  14  19
BRANCH  17  29
HETATM   29  N10 UNL     1      20.766  -5.427  -0.230  1.00  0.00    -0.384 N 
ATOM     30 2H10 UNL     1      19.884  -5.376   0.281  1.00  0.00     0.157 HD
ATOM     31 1H10 UNL     1      21.422  -4.660  -0.085  1.00  0.00     0.157 HD
ENDBRANCH  17  29
ENDBRANCH   8  11
ENDBRANCH   3   7
BRANCH   1  32
HETATM   32  C6  UNL     1      13.029  -6.253  -2.406  1.00  0.00     0.293 C 
HETATM   33  O3  UNL     1      11.828  -6.636  -2.504  1.00  0.00    -0.259 OA
BRANCH  32  34
HETATM   34  O2  UNL     1      13.403  -5.142  -3.145  1.00  0.00    -0.308 OA
BRANCH  34  35
HETATM   35  C5  UNL     1      12.646  -4.631  -4.203  1.00  0.00     0.282 C 
BRANCH  35  36
HETATM   36  C4  UNL     1      11.429  -3.904  -3.811  1.00  0.00     0.246 C 
HETATM   37  N3  UNL     1      10.154  -4.481  -4.011  1.00  0.00    -0.318 N 
ATOM     38  H3  UNL     1      10.064  -5.407  -4.429  1.00  0.00     0.169 HD
HETATM   39  O1  UNL     1      11.525  -2.770  -3.296  1.00  0.00    -0.271 OA
BRANCH  37  40
HETATM   40  C3  UNL     1       8.991  -3.744  -3.616  1.00  0.00     0.145 A 
HETATM   41  C2  UNL     1       8.426  -2.769  -4.426  1.00  0.00     0.154 A 
HETATM   42  N1  UNL     1       7.337  -2.135  -3.962  1.00  0.00    -0.290 N 
HETATM   43  N2  UNL     1       9.012  -2.488  -5.686  1.00  0.00    -0.080 NA
HETATM   44  C1  UNL     1       6.741  -1.116  -4.802  1.00  0.00     0.162 C 
HETATM   45  C22 UNL     1       6.797  -2.416  -2.765  1.00  0.00     0.332 A 
HETATM   46  N12 UNL     1       7.329  -3.364  -1.954  1.00  0.00    -0.269 N 
HETATM   47  O8  UNL     1       5.778  -1.769  -2.418  1.00  0.00    -0.246 OA
HETATM   48  C20 UNL     1       8.435  -4.028  -2.390  1.00  0.00     0.281 A 
HETATM   49  C21 UNL     1       6.741  -3.663  -0.660  1.00  0.00     0.164 C 
HETATM   50  O7  UNL     1       8.934  -4.902  -1.655  1.00  0.00    -0.265 OA
ENDBRANCH  37  40
ENDBRANCH  35  36
ENDBRANCH  34  35
ENDBRANCH  32  34
ENDBRANCH   1  32
BRANCH   5  51
HETATM   51  N11 UNL     1      14.067  -8.821   1.593  1.00  0.00    -0.116 N 
HETATM   52  O5  UNL     1      14.873  -9.487   2.270  1.00  0.00    -0.532 OA
HETATM   53  O6  UNL     1      12.777  -8.730   2.052  1.00  0.00    -0.532 OA
ENDBRANCH   5  51
TORSDOF 11
ENDMDL
