MODEL 1
REMARK VINA RESULT: -7.653053292      0.000      0.000
REMARK  13 active torsions:
REMARK  status: ('A' for Active; 'I' for Inactive)
REMARK       I    between atoms: C1_4  and  N2_5 
REMARK       I    between atoms: C1_4  and  N13_49 
REMARK    1  A    between atoms: N2_5  and  C2_7 
REMARK    2  A    between atoms: C2_7  and  C3_8 
REMARK    3  A    between atoms: C3_8  and  N3_9 
REMARK    4  A    between atoms: C3_8  and  C4_13 
REMARK    5  A    between atoms: C4_13  and  O1_14 
REMARK    6  A    between atoms: C4_13  and  N4_16 
REMARK    7  A    between atoms: N4_16  and  C5_18 
REMARK    8  A    between atoms: C6_21  and  C7_22 
REMARK    9  A    between atoms: C7_22  and  C8_23 
REMARK   10  A    between atoms: C8_23  and  N6_24 
REMARK   11  A    between atoms: C12_36  and  C13_37 
REMARK   12  A    between atoms: C14_41  and  N10_42 
REMARK   13  A    between atoms: N13_49  and  N14_51 
ROOT
HETATM    1  C5  UNL     1      13.155  -5.711  -1.212  1.00  0.00     0.124 A 
HETATM    2  N5  UNL     1      12.412  -5.231  -0.185  1.00  0.00    -0.331 N 
ATOM      3  H5  UNL     1      11.428  -5.012  -0.338  1.00  0.00     0.168 HD
HETATM    4  C6  UNL     1      12.945  -5.040   1.024  1.00  0.00     0.085 A 
HETATM    5  N7  UNL     1      14.264  -5.328   1.247  1.00  0.00    -0.331 N 
ATOM      6  H7  UNL     1      14.653  -5.176   2.178  1.00  0.00     0.168 HD
HETATM    7  C9  UNL     1      15.058  -5.804   0.278  1.00  0.00     0.124 A 
HETATM    8  C10 UNL     1      14.480  -5.998  -0.983  1.00  0.00     0.119 A 
HETATM    9  C11 UNL     1      15.364  -6.509  -2.004  1.00  0.00     0.261 C 
HETATM   10  O2  UNL     1      14.964  -6.720  -3.160  1.00  0.00    -0.267 OA
HETATM   11  N8  UNL     1      16.735  -6.772  -1.654  1.00  0.00    -0.329 N 
ATOM     12  H8  UNL     1      17.272  -7.472  -2.166  1.00  0.00     0.165 HD
HETATM   13  C12 UNL     1      17.347  -6.033  -0.569  1.00  0.00     0.257 C 
HETATM   14  N12 UNL     1      16.434  -6.096   0.541  1.00  0.00    -0.348 N 
ATOM     15  H12 UNL     1      16.754  -6.339   1.478  1.00  0.00     0.163 HD
ENDROOT
BRANCH   1  16
HETATM   16  N4  UNL     1      12.553  -5.938  -2.480  1.00  0.00    -0.347 N 
ATOM     17  H4  UNL     1      12.972  -5.568  -3.333  1.00  0.00     0.163 HD
BRANCH  16  18
HETATM   18  C4  UNL     1      11.300  -6.726  -2.528  1.00  0.00     0.251 C 
BRANCH  18  19
HETATM   19  C3  UNL     1      11.639  -8.063  -3.140  1.00  0.00     0.249 C 
BRANCH  19  20
HETATM   20  C2  UNL     1      12.427  -8.936  -2.203  1.00  0.00     0.175 C 
BRANCH  20  21
HETATM   21  N2  UNL     1      13.511  -9.609  -2.895  1.00  0.00    -0.223 N 
HETATM   22  C1  UNL     1      14.670  -9.929  -2.160  1.00  0.00     0.691 C 
HETATM   23  N1  UNL     1      15.813  -9.931  -2.776  1.00  0.00    -0.233 N 
HETATM   24  N13 UNL     1      14.541 -10.234  -0.783  1.00  0.00    -0.072 N 
ATOM     25  H12 UNL     1      15.905  -9.711  -3.767  1.00  0.00     0.174 HD
ATOM     26  H11 UNL     1      16.652 -10.162  -2.243  1.00  0.00     0.174 HD
ATOM     27  H13 UNL     1      14.029  -9.613  -0.157  1.00  0.00     0.212 HD
ATOM     28  H2  UNL     1      13.436  -9.844  -3.885  1.00  0.00     0.177 HD
BRANCH  24  29
HETATM   29  N14 UNL     1      15.131 -11.401  -0.304  1.00  0.00    -0.024 N 
HETATM   30  O4  UNL     1      16.334 -11.429   0.060  1.00  0.00    -0.516 OA
HETATM   31  O5  UNL     1      14.379 -12.553  -0.227  1.00  0.00    -0.516 OA
ENDBRANCH  24  29
ENDBRANCH  20  21
ENDBRANCH  19  20
BRANCH  19  32
HETATM   32  N3  UNL     1      12.438  -7.885  -4.339  1.00  0.00    -0.069 N 
ATOM     33  H33 UNL     1      13.378  -8.271  -4.252  1.00  0.00     0.275 HD
ATOM     34  H32 UNL     1      12.127  -8.469  -5.116  1.00  0.00     0.275 HD
ATOM     35  H31 UNL     1      12.434  -6.890  -4.562  1.00  0.00     0.275 HD
ENDBRANCH  19  32
ENDBRANCH  18  19
BRANCH  18  36
HETATM   36  O1  UNL     1      10.454  -5.998  -3.398  1.00  0.00    -0.375 OA
ATOM     37  H1  UNL     1       9.551  -6.257  -3.263  1.00  0.00     0.212 HD
ENDBRANCH  18  36
ENDBRANCH  16  18
ENDBRANCH   1  16
BRANCH   4  38
HETATM   38  C7  UNL     1      12.102  -4.531   2.126  1.00  0.00     0.104 C 
BRANCH  38  39
HETATM   39  C8  UNL     1      12.633  -4.906   3.481  1.00  0.00     0.237 C 
BRANCH  39  40
HETATM   40  N6  UNL     1      12.037  -6.145   3.884  1.00  0.00    -0.079 N 
ATOM     41  H63 UNL     1      12.413  -6.943   3.370  1.00  0.00     0.274 HD
ATOM     42  H62 UNL     1      12.325  -6.431   4.820  1.00  0.00     0.274 HD
ATOM     43  H61 UNL     1      11.024  -6.067   3.795  1.00  0.00     0.274 HD
ENDBRANCH  39  40
ENDBRANCH  38  39
ENDBRANCH   4  38
BRANCH  13  44
HETATM   44  C13 UNL     1      18.671  -6.582  -0.275  1.00  0.00     0.148 A 
HETATM   45  N9  UNL     1      19.194  -7.788  -0.541  1.00  0.00    -0.241 N 
HETATM   46  O3  UNL     1      20.433  -7.829  -0.084  1.00  0.00    -0.200 OA
ATOM     47  H9  UNL     1      18.713  -8.550  -1.018  1.00  0.00     0.196 HD
HETATM   48  C14 UNL     1      20.737  -6.682   0.475  1.00  0.00     0.242 A 
HETATM   49  N11 UNL     1      19.641  -5.902   0.357  1.00  0.00    -0.306 N 
ATOM     50  H11 UNL     1      19.562  -4.943   0.696  1.00  0.00     0.171 HD
BRANCH  48  51
HETATM   51  N10 UNL     1      21.883  -6.437   1.006  1.00  0.00    -0.364 N 
ATOM     52 2H10 UNL     1      22.148  -6.329   1.985  1.00  0.00     0.159 HD
ATOM     53 1H10 UNL     1      22.736  -6.308   0.463  1.00  0.00     0.159 HD
ENDBRANCH  48  51
ENDBRANCH  13  44
TORSDOF 13
ENDMDL
MODEL 2
REMARK VINA RESULT: -7.279227187      2.969      7.359
REMARK  13 active torsions:
REMARK  status: ('A' for Active; 'I' for Inactive)
REMARK       I    between atoms: C1_4  and  N2_5 
REMARK       I    between atoms: C1_4  and  N13_49 
REMARK    1  A    between atoms: N2_5  and  C2_7 
REMARK    2  A    between atoms: C2_7  and  C3_8 
REMARK    3  A    between atoms: C3_8  and  N3_9 
REMARK    4  A    between atoms: C3_8  and  C4_13 
REMARK    5  A    between atoms: C4_13  and  O1_14 
REMARK    6  A    between atoms: C4_13  and  N4_16 
REMARK    7  A    between atoms: N4_16  and  C5_18 
REMARK    8  A    between atoms: C6_21  and  C7_22 
REMARK    9  A    between atoms: C7_22  and  C8_23 
REMARK   10  A    between atoms: C8_23  and  N6_24 
REMARK   11  A    between atoms: C12_36  and  C13_37 
REMARK   12  A    between atoms: C14_41  and  N10_42 
REMARK   13  A    between atoms: N13_49  and  N14_51 
ROOT
HETATM    1  C5  UNL     1      15.205  -7.887  -1.647  1.00  0.00     0.124 A 
HETATM    2  N5  UNL     1      14.722  -8.506  -0.543  1.00  0.00    -0.331 N 
ATOM      3  H5  UNL     1      15.367  -8.794   0.193  1.00  0.00     0.168 HD
HETATM    4  C6  UNL     1      13.417  -8.746  -0.400  1.00  0.00     0.085 A 
HETATM    5  N7  UNL     1      12.537  -8.368  -1.378  1.00  0.00    -0.331 N 
ATOM      6  H7  UNL     1      11.543  -8.559  -1.250  1.00  0.00     0.168 HD
HETATM    7  C9  UNL     1      12.945  -7.753  -2.497  1.00  0.00     0.124 A 
HETATM    8  C10 UNL     1      14.318  -7.510  -2.627  1.00  0.00     0.119 A 
HETATM    9  C11 UNL     1      14.722  -6.850  -3.846  1.00  0.00     0.261 C 
HETATM   10  O2  UNL     1      15.914  -6.584  -4.073  1.00  0.00    -0.267 OA
HETATM   11  N8  UNL     1      13.709  -6.502  -4.806  1.00  0.00    -0.329 N 
ATOM     12  H8  UNL     1      13.853  -5.722  -5.447  1.00  0.00     0.165 HD
HETATM   13  C12 UNL     1      12.482  -7.270  -4.855  1.00  0.00     0.257 C 
HETATM   14  N12 UNL     1      12.003  -7.370  -3.502  1.00  0.00    -0.348 N 
ATOM     15  H12 UNL     1      11.029  -7.175  -3.269  1.00  0.00     0.163 HD
ENDROOT
BRANCH   1  16
HETATM   16  N4  UNL     1      16.597  -7.613  -1.757  1.00  0.00    -0.347 N 
ATOM     17  H4  UNL     1      17.074  -7.680  -2.656  1.00  0.00     0.163 HD
BRANCH  16  18
HETATM   18  C4  UNL     1      17.332  -7.227  -0.531  1.00  0.00     0.251 C 
BRANCH  18  19
HETATM   19  C3  UNL     1      18.164  -6.016  -0.876  1.00  0.00     0.249 C 
BRANCH  19  20
HETATM   20  C2  UNL     1      18.625  -5.274   0.348  1.00  0.00     0.175 C 
BRANCH  20  21
HETATM   21  N2  UNL     1      19.170  -6.183   1.341  1.00  0.00    -0.223 N 
HETATM   22  C1  UNL     1      18.862  -5.947   2.696  1.00  0.00     0.691 C 
HETATM   23  N1  UNL     1      19.740  -6.273   3.596  1.00  0.00    -0.233 N 
HETATM   24  N13 UNL     1      17.613  -5.366   3.020  1.00  0.00    -0.072 N 
ATOM     25  H12 UNL     1      20.640  -6.691   3.362  1.00  0.00     0.174 HD
ATOM     26  H11 UNL     1      19.517  -6.101   4.576  1.00  0.00     0.174 HD
ATOM     27  H13 UNL     1      17.296  -4.515   2.555  1.00  0.00     0.212 HD
ATOM     28  H2  UNL     1      19.758  -6.970   1.066  1.00  0.00     0.177 HD
BRANCH  24  29
HETATM   29  N14 UNL     1      16.825  -5.984   3.989  1.00  0.00    -0.024 N 
HETATM   30  O4  UNL     1      17.311  -6.377   5.080  1.00  0.00    -0.516 OA
HETATM   31  O5  UNL     1      15.481  -6.170   3.746  1.00  0.00    -0.516 OA
ENDBRANCH  24  29
ENDBRANCH  20  21
ENDBRANCH  19  20
BRANCH  19  32
HETATM   32  N3  UNL     1      17.396  -5.084  -1.681  1.00  0.00    -0.069 N 
ATOM     33  H33 UNL     1      16.589  -5.516  -2.130  1.00  0.00     0.275 HD
ATOM     34  H32 UNL     1      16.886  -4.400  -1.123  1.00  0.00     0.275 HD
ATOM     35  H31 UNL     1      18.041  -4.656  -2.346  1.00  0.00     0.275 HD
ENDBRANCH  19  32
ENDBRANCH  18  19
BRANCH  18  36
HETATM   36  O1  UNL     1      18.175  -8.330  -0.260  1.00  0.00    -0.375 OA
ATOM     37  H1  UNL     1      17.978  -9.043  -0.856  1.00  0.00     0.212 HD
ENDBRANCH  18  36
ENDBRANCH  16  18
ENDBRANCH   1  16
BRANCH   4  38
HETATM   38  C7  UNL     1      12.921  -9.408   0.826  1.00  0.00     0.104 C 
BRANCH  38  39
HETATM   39  C8  UNL     1      12.215  -8.457   1.751  1.00  0.00     0.237 C 
BRANCH  39  40
HETATM   40  N6  UNL     1      13.194  -7.653   2.421  1.00  0.00    -0.079 N 
ATOM     41  H63 UNL     1      14.073  -7.599   1.906  1.00  0.00     0.274 HD
ATOM     42  H62 UNL     1      12.960  -6.660   2.406  1.00  0.00     0.274 HD
ATOM     43  H61 UNL     1      13.319  -8.009   3.369  1.00  0.00     0.274 HD
ENDBRANCH  39  40
ENDBRANCH  38  39
ENDBRANCH   4  38
BRANCH  13  44
HETATM   44  C13 UNL     1      11.533  -6.637  -5.772  1.00  0.00     0.148 A 
HETATM   45  N9  UNL     1      10.504  -5.812  -5.530  1.00  0.00    -0.241 N 
HETATM   46  O3  UNL     1       9.929  -5.494  -6.676  1.00  0.00    -0.200 OA
ATOM     47  H9  UNL     1      10.211  -5.484  -4.609  1.00  0.00     0.196 HD
HETATM   48  C14 UNL     1      10.554  -6.089  -7.665  1.00  0.00     0.242 A 
HETATM   49  N11 UNL     1      11.555  -6.802  -7.104  1.00  0.00    -0.306 N 
ATOM     50  H11 UNL     1      12.225  -7.377  -7.615  1.00  0.00     0.171 HD
BRANCH  48  51
HETATM   51  N10 UNL     1      10.211  -5.959  -8.898  1.00  0.00    -0.364 N 
ATOM     52 2H10 UNL     1       9.832  -6.642  -9.554  1.00  0.00     0.159 HD
ATOM     53 1H10 UNL     1      10.285  -5.080  -9.410  1.00  0.00     0.159 HD
ENDBRANCH  48  51
ENDBRANCH  13  44
TORSDOF 13
ENDMDL
MODEL 3
REMARK VINA RESULT: -7.217697439      2.887      7.362
REMARK  13 active torsions:
REMARK  status: ('A' for Active; 'I' for Inactive)
REMARK       I    between atoms: C1_4  and  N2_5 
REMARK       I    between atoms: C1_4  and  N13_49 
REMARK    1  A    between atoms: N2_5  and  C2_7 
REMARK    2  A    between atoms: C2_7  and  C3_8 
REMARK    3  A    between atoms: C3_8  and  N3_9 
REMARK    4  A    between atoms: C3_8  and  C4_13 
REMARK    5  A    between atoms: C4_13  and  O1_14 
REMARK    6  A    between atoms: C4_13  and  N4_16 
REMARK    7  A    between atoms: N4_16  and  C5_18 
REMARK    8  A    between atoms: C6_21  and  C7_22 
REMARK    9  A    between atoms: C7_22  and  C8_23 
REMARK   10  A    between atoms: C8_23  and  N6_24 
REMARK   11  A    between atoms: C12_36  and  C13_37 
REMARK   12  A    between atoms: C14_41  and  N10_42 
REMARK   13  A    between atoms: N13_49  and  N14_51 
ROOT
HETATM    1  C5  UNL     1      16.504  -5.460  -0.084  1.00  0.00     0.124 A 
HETATM    2  N5  UNL     1      17.781  -5.895   0.045  1.00  0.00    -0.331 N 
ATOM      3  H5  UNL     1      18.489  -5.267   0.424  1.00  0.00     0.168 HD
HETATM    4  C6  UNL     1      18.129  -7.132  -0.315  1.00  0.00     0.085 A 
HETATM    5  N7  UNL     1      17.193  -7.989  -0.827  1.00  0.00    -0.331 N 
ATOM      6  H7  UNL     1      17.477  -8.931  -1.096  1.00  0.00     0.168 HD
HETATM    7  C9  UNL     1      15.912  -7.625  -0.984  1.00  0.00     0.124 A 
HETATM    8  C10 UNL     1      15.567  -6.324  -0.599  1.00  0.00     0.119 A 
HETATM    9  C11 UNL     1      14.180  -5.964  -0.785  1.00  0.00     0.261 C 
HETATM   10  O2  UNL     1      13.758  -4.837  -0.481  1.00  0.00    -0.267 OA
HETATM   11  N8  UNL     1      13.285  -6.947  -1.336  1.00  0.00    -0.329 N 
ATOM     12  H8  UNL     1      12.289  -6.913  -1.123  1.00  0.00     0.165 HD
HETATM   13  C12 UNL     1      13.812  -7.986  -2.197  1.00  0.00     0.257 C 
HETATM   14  N12 UNL     1      14.955  -8.542  -1.522  1.00  0.00    -0.348 N 
ATOM     15  H12 UNL     1      15.078  -9.550  -1.430  1.00  0.00     0.163 HD
ENDROOT
BRANCH   1  16
HETATM   16  N4  UNL     1      16.153  -4.148   0.341  1.00  0.00    -0.347 N 
ATOM     17  H4  UNL     1      15.372  -3.651  -0.085  1.00  0.00     0.163 HD
BRANCH  16  18
HETATM   18  C4  UNL     1      16.954  -3.525   1.419  1.00  0.00     0.251 C 
BRANCH  18  19
HETATM   19  C3  UNL     1      15.982  -2.997   2.446  1.00  0.00     0.249 C 
BRANCH  19  20
HETATM   20  C2  UNL     1      15.034  -4.057   2.932  1.00  0.00     0.175 C 
BRANCH  20  21
HETATM   21  N2  UNL     1      15.369  -4.487   4.278  1.00  0.00    -0.223 N 
HETATM   22  C1  UNL     1      16.088  -5.689   4.430  1.00  0.00     0.691 C 
HETATM   23  N1  UNL     1      15.879  -6.405   5.493  1.00  0.00    -0.233 N 
HETATM   24  N13 UNL     1      17.009  -6.065   3.423  1.00  0.00    -0.072 N 
ATOM     25  H12 UNL     1      15.215  -6.134   6.219  1.00  0.00     0.174 HD
ATOM     26  H11 UNL     1      16.399  -7.275   5.603  1.00  0.00     0.174 HD
ATOM     27  H13 UNL     1      16.731  -6.080   2.441  1.00  0.00     0.212 HD
ATOM     28  H2  UNL     1      15.091  -3.934   5.089  1.00  0.00     0.177 HD
BRANCH  24  29
HETATM   29  N14 UNL     1      18.303  -6.414   3.802  1.00  0.00    -0.024 N 
HETATM   30  O4  UNL     1      19.296  -6.138   3.082  1.00  0.00    -0.516 OA
HETATM   31  O5  UNL     1      18.500  -7.077   4.994  1.00  0.00    -0.516 OA
ENDBRANCH  24  29
ENDBRANCH  20  21
ENDBRANCH  19  20
BRANCH  19  32
HETATM   32  N3  UNL     1      15.181  -1.925   1.883  1.00  0.00    -0.069 N 
ATOM     33  H33 UNL     1      15.207  -1.902   0.863  1.00  0.00     0.275 HD
ATOM     34  H32 UNL     1      14.178  -2.081   1.985  1.00  0.00     0.275 HD
ATOM     35  H31 UNL     1      15.495  -1.054   2.310  1.00  0.00     0.275 HD
ENDBRANCH  19  32
ENDBRANCH  18  19
BRANCH  18  36
HETATM   36  O1  UNL     1      17.624  -2.449   0.789  1.00  0.00    -0.375 OA
ATOM     37  H1  UNL     1      17.260  -2.303  -0.076  1.00  0.00     0.212 HD
ENDBRANCH  18  36
ENDBRANCH  16  18
ENDBRANCH   1  16
BRANCH   4  38
HETATM   38  C7  UNL     1      19.528  -7.580  -0.145  1.00  0.00     0.104 C 
BRANCH  38  39
HETATM   39  C8  UNL     1      20.500  -6.435  -0.093  1.00  0.00     0.237 C 
BRANCH  39  40
HETATM   40  N6  UNL     1      21.455  -6.688   0.946  1.00  0.00    -0.079 N 
ATOM     41  H63 UNL     1      22.417  -6.575   0.626  1.00  0.00     0.274 HD
ATOM     42  H62 UNL     1      21.457  -5.961   1.660  1.00  0.00     0.274 HD
ATOM     43  H61 UNL     1      21.280  -7.615   1.334  1.00  0.00     0.274 HD
ENDBRANCH  39  40
ENDBRANCH  38  39
ENDBRANCH   4  38
BRANCH  13  44
HETATM   44  C13 UNL     1      12.768  -8.966  -2.493  1.00  0.00     0.148 A 
HETATM   45  N9  UNL     1      12.728  -9.951  -3.403  1.00  0.00    -0.241 N 
HETATM   46  O3  UNL     1      11.572 -10.584  -3.301  1.00  0.00    -0.200 OA
ATOM     47  H9  UNL     1      13.469 -10.174  -4.067  1.00  0.00     0.196 HD
HETATM   48  C14 UNL     1      10.853 -10.041  -2.348  1.00  0.00     0.242 A 
HETATM   49  N11 UNL     1      11.595  -9.032  -1.842  1.00  0.00    -0.306 N 
ATOM     50  H11 UNL     1      11.309  -8.415  -1.081  1.00  0.00     0.171 HD
BRANCH  48  51
HETATM   51  N10 UNL     1       9.678 -10.455  -2.026  1.00  0.00    -0.364 N 
ATOM     52 2H10 UNL     1       8.943 -10.869  -2.599  1.00  0.00     0.159 HD
ATOM     53 1H10 UNL     1       9.311 -10.412  -1.075  1.00  0.00     0.159 HD
ENDBRANCH  48  51
ENDBRANCH  13  44
TORSDOF 13
ENDMDL
MODEL 4
REMARK VINA RESULT: -7.200833986      0.926      1.118
REMARK  13 active torsions:
REMARK  status: ('A' for Active; 'I' for Inactive)
REMARK       I    between atoms: C1_4  and  N2_5 
REMARK       I    between atoms: C1_4  and  N13_49 
REMARK    1  A    between atoms: N2_5  and  C2_7 
REMARK    2  A    between atoms: C2_7  and  C3_8 
REMARK    3  A    between atoms: C3_8  and  N3_9 
REMARK    4  A    between atoms: C3_8  and  C4_13 
REMARK    5  A    between atoms: C4_13  and  O1_14 
REMARK    6  A    between atoms: C4_13  and  N4_16 
REMARK    7  A    between atoms: N4_16  and  C5_18 
REMARK    8  A    between atoms: C6_21  and  C7_22 
REMARK    9  A    between atoms: C7_22  and  C8_23 
REMARK   10  A    between atoms: C8_23  and  N6_24 
REMARK   11  A    between atoms: C12_36  and  C13_37 
REMARK   12  A    between atoms: C14_41  and  N10_42 
REMARK   13  A    between atoms: N13_49  and  N14_51 
ROOT
HETATM    1  C5  UNL     1      13.059  -5.704  -1.360  1.00  0.00     0.124 A 
HETATM    2  N5  UNL     1      12.295  -5.246  -0.338  1.00  0.00    -0.331 N 
ATOM      3  H5  UNL     1      11.316  -5.017  -0.509  1.00  0.00     0.168 HD
HETATM    4  C6  UNL     1      12.800  -5.087   0.887  1.00  0.00     0.085 A 
HETATM    5  N7  UNL     1      14.112  -5.387   1.133  1.00  0.00    -0.331 N 
ATOM      6  H7  UNL     1      14.480  -5.261   2.076  1.00  0.00     0.168 HD
HETATM    7  C9  UNL     1      14.926  -5.844   0.171  1.00  0.00     0.124 A 
HETATM    8  C10 UNL     1      14.377  -6.003  -1.107  1.00  0.00     0.119 A 
HETATM    9  C11 UNL     1      15.283  -6.493  -2.120  1.00  0.00     0.261 C 
HETATM   10  O2  UNL     1      14.908  -6.673  -3.290  1.00  0.00    -0.267 OA
HETATM   11  N8  UNL     1      16.644  -6.771  -1.745  1.00  0.00    -0.329 N 
ATOM     12  H8  UNL     1      17.189  -7.461  -2.262  1.00  0.00     0.165 HD
HETATM   13  C12 UNL     1      17.234  -6.063  -0.628  1.00  0.00     0.257 C 
HETATM   14  N12 UNL     1      16.294  -6.149   0.458  1.00  0.00    -0.348 N 
ATOM     15  H12 UNL     1      16.591  -6.416   1.396  1.00  0.00     0.163 HD
ENDROOT
BRANCH   1  16
HETATM   16  N4  UNL     1      12.486  -5.896  -2.647  1.00  0.00    -0.347 N 
ATOM     17  H4  UNL     1      12.984  -5.614  -3.490  1.00  0.00     0.163 HD
BRANCH  16  18
HETATM   18  C4  UNL     1      11.144  -6.517  -2.728  1.00  0.00     0.251 C 
BRANCH  18  19
HETATM   19  C3  UNL     1      11.348  -7.970  -3.084  1.00  0.00     0.249 C 
BRANCH  19  20
HETATM   20  C2  UNL     1      11.619  -8.820  -1.874  1.00  0.00     0.175 C 
BRANCH  20  21
HETATM   21  N2  UNL     1      12.972  -9.347  -1.892  1.00  0.00    -0.223 N 
HETATM   22  C1  UNL     1      13.564  -9.694  -0.661  1.00  0.00     0.691 C 
HETATM   23  N1  UNL     1      14.850  -9.562  -0.534  1.00  0.00    -0.233 N 
HETATM   24  N13 UNL     1      12.737 -10.171   0.383  1.00  0.00    -0.072 N 
ATOM     25  H12 UNL     1      15.446  -9.217  -1.286  1.00  0.00     0.174 HD
ATOM     26  H11 UNL     1      15.278  -9.813   0.357  1.00  0.00     0.174 HD
ATOM     27  H13 UNL     1      11.899  -9.659   0.661  1.00  0.00     0.212 HD
ATOM     28  H2  UNL     1      13.478  -9.462  -2.770  1.00  0.00     0.177 HD
BRANCH  24  29
HETATM   29  N14 UNL     1      13.092 -11.357   1.023  1.00  0.00    -0.024 N 
HETATM   30  O4  UNL     1      12.858 -11.541   2.245  1.00  0.00    -0.516 OA
HETATM   31  O5  UNL     1      13.714 -12.352   0.300  1.00  0.00    -0.516 OA
ENDBRANCH  24  29
ENDBRANCH  20  21
ENDBRANCH  19  20
BRANCH  19  32
HETATM   32  N3  UNL     1      12.480  -8.120  -3.980  1.00  0.00    -0.069 N 
ATOM     33  H33 UNL     1      12.920  -7.231  -4.218  1.00  0.00     0.275 HD
ATOM     34  H32 UNL     1      13.289  -8.551  -3.531  1.00  0.00     0.275 HD
ATOM     35  H31 UNL     1      12.154  -8.636  -4.797  1.00  0.00     0.275 HD
ENDBRANCH  19  32
ENDBRANCH  18  19
BRANCH  18  36
HETATM   36  O1  UNL     1      10.504  -5.844  -3.796  1.00  0.00    -0.375 OA
ATOM     37  H1  UNL     1       9.578  -5.747  -3.610  1.00  0.00     0.212 HD
ENDBRANCH  18  36
ENDBRANCH  16  18
ENDBRANCH   1  16
BRANCH   4  38
HETATM   38  C7  UNL     1      11.934  -4.601   1.981  1.00  0.00     0.104 C 
BRANCH  38  39
HETATM   39  C8  UNL     1      12.442  -4.996   3.340  1.00  0.00     0.237 C 
BRANCH  39  40
HETATM   40  N6  UNL     1      11.847  -6.246   3.710  1.00  0.00    -0.079 N 
ATOM     41  H63 UNL     1      11.810  -6.376   4.721  1.00  0.00     0.274 HD
ATOM     42  H62 UNL     1      10.844  -6.270   3.527  1.00  0.00     0.274 HD
ATOM     43  H61 UNL     1      12.347  -7.000   3.238  1.00  0.00     0.274 HD
ENDBRANCH  39  40
ENDBRANCH  38  39
ENDBRANCH   4  38
BRANCH  13  44
HETATM   44  C13 UNL     1      18.548  -6.626  -0.317  1.00  0.00     0.148 A 
HETATM   45  N9  UNL     1      19.022  -7.871  -0.471  1.00  0.00    -0.241 N 
HETATM   46  O3  UNL     1      20.274  -7.909  -0.049  1.00  0.00    -0.200 OA
ATOM     47  H9  UNL     1      18.500  -8.661  -0.851  1.00  0.00     0.196 HD
HETATM   48  C14 UNL     1      20.633  -6.723   0.378  1.00  0.00     0.242 A 
HETATM   49  N11 UNL     1      19.560  -5.919   0.212  1.00  0.00    -0.306 N 
ATOM     50  H11 UNL     1      19.524  -4.929   0.451  1.00  0.00     0.171 HD
BRANCH  48  51
HETATM   51  N10 UNL     1      21.803  -6.465   0.847  1.00  0.00    -0.364 N 
ATOM     52 2H10 UNL     1      22.663  -7.013   0.819  1.00  0.00     0.159 HD
ATOM     53 1H10 UNL     1      22.028  -5.605   1.348  1.00  0.00     0.159 HD
ENDBRANCH  48  51
ENDBRANCH  13  44
TORSDOF 13
ENDMDL
MODEL 5
REMARK VINA RESULT: -7.193384778      2.786      7.151
REMARK  13 active torsions:
REMARK  status: ('A' for Active; 'I' for Inactive)
REMARK       I    between atoms: C1_4  and  N2_5 
REMARK       I    between atoms: C1_4  and  N13_49 
REMARK    1  A    between atoms: N2_5  and  C2_7 
REMARK    2  A    between atoms: C2_7  and  C3_8 
REMARK    3  A    between atoms: C3_8  and  N3_9 
REMARK    4  A    between atoms: C3_8  and  C4_13 
REMARK    5  A    between atoms: C4_13  and  O1_14 
REMARK    6  A    between atoms: C4_13  and  N4_16 
REMARK    7  A    between atoms: N4_16  and  C5_18 
REMARK    8  A    between atoms: C6_21  and  C7_22 
REMARK    9  A    between atoms: C7_22  and  C8_23 
REMARK   10  A    between atoms: C8_23  and  N6_24 
REMARK   11  A    between atoms: C12_36  and  C13_37 
REMARK   12  A    between atoms: C14_41  and  N10_42 
REMARK   13  A    between atoms: N13_49  and  N14_51 
ROOT
HETATM    1  C5  UNL     1      16.306  -5.366  -0.126  1.00  0.00     0.124 A 
HETATM    2  N5  UNL     1      17.598  -5.766  -0.035  1.00  0.00    -0.331 N 
ATOM      3  H5  UNL     1      18.301  -5.115   0.316  1.00  0.00     0.168 HD
HETATM    4  C6  UNL     1      17.968  -6.997  -0.396  1.00  0.00     0.085 A 
HETATM    5  N7  UNL     1      17.038  -7.882  -0.870  1.00  0.00    -0.331 N 
ATOM      6  H7  UNL     1      17.340  -8.819  -1.140  1.00  0.00     0.168 HD
HETATM    7  C9  UNL     1      15.744  -7.554  -0.988  1.00  0.00     0.124 A 
HETATM    8  C10 UNL     1      15.377  -6.259  -0.604  1.00  0.00     0.119 A 
HETATM    9  C11 UNL     1      13.976  -5.938  -0.747  1.00  0.00     0.261 C 
HETATM   10  O2  UNL     1      13.534  -4.819  -0.439  1.00  0.00    -0.267 OA
HETATM   11  N8  UNL     1      13.090  -6.949  -1.261  1.00  0.00    -0.329 N 
ATOM     12  H8  UNL     1      12.101  -6.939  -1.016  1.00  0.00     0.165 HD
HETATM   13  C12 UNL     1      13.617  -7.982  -2.130  1.00  0.00     0.257 C 
HETATM   14  N12 UNL     1      14.795  -8.501  -1.487  1.00  0.00    -0.348 N 
ATOM     15  H12 UNL     1      14.948  -9.505  -1.391  1.00  0.00     0.163 HD
ENDROOT
BRANCH   1  16
HETATM   16  N4  UNL     1      15.935  -4.060   0.299  1.00  0.00    -0.347 N 
ATOM     17  H4  UNL     1      15.185  -3.551  -0.168  1.00  0.00     0.163 HD
BRANCH  16  18
HETATM   18  C4  UNL     1      16.667  -3.461   1.438  1.00  0.00     0.251 C 
BRANCH  18  19
HETATM   19  C3  UNL     1      15.679  -2.618   2.206  1.00  0.00     0.249 C 
BRANCH  19  20
HETATM   20  C2  UNL     1      15.264  -3.263   3.500  1.00  0.00     0.175 C 
BRANCH  20  21
HETATM   21  N2  UNL     1      15.793  -4.610   3.610  1.00  0.00    -0.223 N 
HETATM   22  C1  UNL     1      14.888  -5.657   3.880  1.00  0.00     0.691 C 
HETATM   23  N1  UNL     1      15.306  -6.674   4.570  1.00  0.00    -0.233 N 
HETATM   24  N13 UNL     1      13.565  -5.558   3.387  1.00  0.00    -0.072 N 
ATOM     25  H12 UNL     1      16.260  -6.745   4.925  1.00  0.00     0.174 HD
ATOM     26  H11 UNL     1      14.651  -7.431   4.766  1.00  0.00     0.174 HD
ATOM     27  H13 UNL     1      13.009  -4.718   3.550  1.00  0.00     0.212 HD
ATOM     28  H2  UNL     1      16.789  -4.794   3.495  1.00  0.00     0.177 HD
BRANCH  24  29
HETATM   29  N14 UNL     1      13.039  -6.634   2.675  1.00  0.00    -0.024 N 
HETATM   30  O4  UNL     1      13.554  -7.779   2.739  1.00  0.00    -0.516 OA
HETATM   31  O5  UNL     1      11.930  -6.438   1.881  1.00  0.00    -0.516 OA
ENDBRANCH  24  29
ENDBRANCH  20  21
ENDBRANCH  19  20
BRANCH  19  32
HETATM   32  N3  UNL     1      14.475  -2.405   1.424  1.00  0.00    -0.069 N 
ATOM     33  H33 UNL     1      13.621  -2.515   1.970  1.00  0.00     0.275 HD
ATOM     34  H32 UNL     1      14.338  -1.429   1.160  1.00  0.00     0.275 HD
ATOM     35  H31 UNL     1      14.520  -3.033   0.621  1.00  0.00     0.275 HD
ENDBRANCH  19  32
ENDBRANCH  18  19
BRANCH  18  36
HETATM   36  O1  UNL     1      17.644  -2.632   0.836  1.00  0.00    -0.375 OA
ATOM     37  H1  UNL     1      18.197  -3.148   0.261  1.00  0.00     0.212 HD
ENDBRANCH  18  36
ENDBRANCH  16  18
ENDBRANCH   1  16
BRANCH   4  38
HETATM   38  C7  UNL     1      19.382  -7.406  -0.268  1.00  0.00     0.104 C 
BRANCH  38  39
HETATM   39  C8  UNL     1      20.112  -6.639   0.799  1.00  0.00     0.237 C 
BRANCH  39  40
HETATM   40  N6  UNL     1      21.501  -6.574   0.452  1.00  0.00    -0.079 N 
ATOM     41  H63 UNL     1      21.674  -5.976  -0.356  1.00  0.00     0.274 HD
ATOM     42  H62 UNL     1      22.050  -6.051   1.135  1.00  0.00     0.274 HD
ATOM     43  H61 UNL     1      21.851  -7.523   0.316  1.00  0.00     0.274 HD
ENDBRANCH  39  40
ENDBRANCH  38  39
ENDBRANCH   4  38
BRANCH  13  44
HETATM   44  C13 UNL     1      12.590  -8.992  -2.384  1.00  0.00     0.148 A 
HETATM   45  N9  UNL     1      12.476  -9.891  -3.373  1.00  0.00    -0.241 N 
HETATM   46  O3  UNL     1      11.376 -10.599  -3.185  1.00  0.00    -0.200 OA
ATOM     47  H9  UNL     1      13.132 -10.008  -4.145  1.00  0.00     0.196 HD
HETATM   48  C14 UNL     1      10.765 -10.188  -2.100  1.00  0.00     0.242 A 
HETATM   49  N11 UNL     1      11.519  -9.187  -1.597  1.00  0.00    -0.306 N 
ATOM     50  H11 UNL     1      11.308  -8.660  -0.749  1.00  0.00     0.171 HD
BRANCH  48  51
HETATM   51  N10 UNL     1       9.665 -10.699  -1.672  1.00  0.00    -0.364 N 
ATOM     52 2H10 UNL     1       9.501 -11.456  -1.007  1.00  0.00     0.159 HD
ATOM     53 1H10 UNL     1       8.744 -10.381  -1.974  1.00  0.00     0.159 HD
ENDBRANCH  48  51
ENDBRANCH  13  44
TORSDOF 13
ENDMDL
