MODEL 1
REMARK VINA RESULT: -6.165573893      0.000      0.000
REMARK  10 active torsions:
REMARK  status: ('A' for Active; 'I' for Inactive)
REMARK    1  A    between atoms: C3_3  and  C4_4 
REMARK    2  A    between atoms: C4_4  and  C5_5 
REMARK    3  A    between atoms: C5_5  and  O1_6 
REMARK    4  A    between atoms: C6_8  and  C7_9 
REMARK    5  A    between atoms: C7_9  and  C8_10 
REMARK    6  A    between atoms: C8_10  and  O2_11 
REMARK    7  A    between atoms: O2_11  and  C9_12 
REMARK    8  A    between atoms: C9_12  and  C10_13 
REMARK    9  A    between atoms: C10_13  and  C11_14 
REMARK   10  A    between atoms: C11_14  and  O3_15 
ROOT
HETATM    1  C8  UNL     1       5.388   0.805  -3.157  1.00  0.00     0.171 C 
ENDROOT
BRANCH   1   2
HETATM    2  C7  UNL     1       3.958   1.234  -3.520  1.00  0.00     0.056 C 
BRANCH   2   3
HETATM    3  C6  UNL     1       3.209   1.266  -2.236  1.00  0.00     0.007 C 
HETATM    4  C5  UNL     1       1.887   1.281  -2.256  1.00  0.00     0.043 C 
BRANCH   4   5
HETATM    5  C4  UNL     1       1.172   1.314  -0.947  1.00  0.00     0.090 C 
BRANCH   5   6
HETATM    6  C3  UNL     1       2.053   1.052   0.199  1.00  0.00    -0.025 C 
HETATM    7  C2  UNL     1       2.193  -0.189   0.646  1.00  0.00    -0.035 C 
HETATM    8  C1  UNL     1       3.072  -0.482   1.796  1.00  0.00     0.036 C 
ENDBRANCH   5   6
ENDBRANCH   4   5
BRANCH   4   9
HETATM    9  O1  UNL     1       1.215   1.266  -3.460  1.00  0.00    -0.365 OA
ATOM     10  H1  UNL     1       0.700   0.519  -3.744  1.00  0.00     0.217 HD
ENDBRANCH   4   9
ENDBRANCH   2   3
ENDBRANCH   1   2
BRANCH   1  11
HETATM   11  O2  UNL     1       5.267  -0.222  -2.259  1.00  0.00    -0.390 OA
BRANCH  11  12
HETATM   12  C9  UNL     1       6.189  -1.245  -2.461  1.00  0.00     0.179 C 
BRANCH  12  13
HETATM   13  C10 UNL     1       6.357  -2.110  -1.254  1.00  0.00     0.002 C 
HETATM   14  C12 UNL     1       5.075  -2.430  -0.553  1.00  0.00     0.014 C 
HETATM   15  C13 UNL     1       5.441  -3.674   0.231  1.00  0.00     0.001 C 
HETATM   16  C14 UNL     1       6.236  -4.469  -0.764  1.00  0.00     0.001 C 
HETATM   17  C15 UNL     1       6.876  -3.446  -1.680  1.00  0.00     0.014 C 
BRANCH  13  18
HETATM   18  C11 UNL     1       7.288  -1.413  -0.283  1.00  0.00     0.175 C 
BRANCH  18  19
HETATM   19  O3  UNL     1       6.698  -0.305   0.299  1.00  0.00    -0.400 OA
ATOM     20  H3  UNL     1       7.340   0.283   0.680  1.00  0.00     0.209 HD
ENDBRANCH  18  19
ENDBRANCH  13  18
ENDBRANCH  12  13
ENDBRANCH  11  12
ENDBRANCH   1  11
TORSDOF 10
ENDMDL
MODEL 2
REMARK VINA RESULT: -6.155423856      2.031      6.014
REMARK  10 active torsions:
REMARK  status: ('A' for Active; 'I' for Inactive)
REMARK    1  A    between atoms: C3_3  and  C4_4 
REMARK    2  A    between atoms: C4_4  and  C5_5 
REMARK    3  A    between atoms: C5_5  and  O1_6 
REMARK    4  A    between atoms: C6_8  and  C7_9 
REMARK    5  A    between atoms: C7_9  and  C8_10 
REMARK    6  A    between atoms: C8_10  and  O2_11 
REMARK    7  A    between atoms: O2_11  and  C9_12 
REMARK    8  A    between atoms: C9_12  and  C10_13 
REMARK    9  A    between atoms: C10_13  and  C11_14 
REMARK   10  A    between atoms: C11_14  and  O3_15 
ROOT
HETATM    1  C8  UNL     1       6.231  -0.403  -0.358  1.00  0.00     0.171 C 
ENDROOT
BRANCH   1   2
HETATM    2  C7  UNL     1       5.628  -1.206  -1.520  1.00  0.00     0.056 C 
BRANCH   2   3
HETATM    3  C6  UNL     1       6.303  -2.530  -1.487  1.00  0.00     0.007 C 
HETATM    4  C5  UNL     1       5.776  -3.510  -0.773  1.00  0.00     0.043 C 
BRANCH   4   5
HETATM    5  C4  UNL     1       6.484  -4.823  -0.765  1.00  0.00     0.090 C 
BRANCH   5   6
HETATM    6  C3  UNL     1       5.656  -5.923  -0.252  1.00  0.00    -0.025 C 
HETATM    7  C2  UNL     1       6.087  -6.641   0.777  1.00  0.00    -0.035 C 
HETATM    8  C1  UNL     1       5.275  -7.751   1.315  1.00  0.00     0.036 C 
ENDBRANCH   5   6
ENDBRANCH   4   5
BRANCH   4   9
HETATM    9  O1  UNL     1       4.609  -3.300  -0.068  1.00  0.00    -0.365 OA
ATOM     10  H1  UNL     1       4.036  -2.563  -0.246  1.00  0.00     0.217 HD
ENDBRANCH   4   9
ENDBRANCH   2   3
ENDBRANCH   1   2
BRANCH   1  11
HETATM   11  O2  UNL     1       5.262   0.477   0.046  1.00  0.00    -0.390 OA
BRANCH  11  12
HETATM   12  C9  UNL     1       4.003   0.192  -0.473  1.00  0.00     0.179 C 
BRANCH  12  13
HETATM   13  C10 UNL     1       2.899   0.740   0.371  1.00  0.00     0.002 C 
HETATM   14  C12 UNL     1       3.104   2.160   0.794  1.00  0.00     0.014 C 
HETATM   15  C13 UNL     1       1.694   2.600   1.130  1.00  0.00     0.001 C 
HETATM   16  C14 UNL     1       0.890   2.024   0.002  1.00  0.00     0.001 C 
HETATM   17  C15 UNL     1       1.642   0.785  -0.440  1.00  0.00     0.014 C 
BRANCH  13  18
HETATM   18  C11 UNL     1       2.757  -0.126   1.606  1.00  0.00     0.175 C 
BRANCH  18  19
HETATM   19  O3  UNL     1       3.462  -1.310   1.495  1.00  0.00    -0.400 OA
ATOM     20  H3  UNL     1       3.041  -1.922   0.902  1.00  0.00     0.209 HD
ENDBRANCH  18  19
ENDBRANCH  13  18
ENDBRANCH  12  13
ENDBRANCH  11  12
ENDBRANCH   1  11
TORSDOF 10
ENDMDL
MODEL 3
REMARK VINA RESULT: -6.057952925      2.069      5.763
REMARK  10 active torsions:
REMARK  status: ('A' for Active; 'I' for Inactive)
REMARK    1  A    between atoms: C3_3  and  C4_4 
REMARK    2  A    between atoms: C4_4  and  C5_5 
REMARK    3  A    between atoms: C5_5  and  O1_6 
REMARK    4  A    between atoms: C6_8  and  C7_9 
REMARK    5  A    between atoms: C7_9  and  C8_10 
REMARK    6  A    between atoms: C8_10  and  O2_11 
REMARK    7  A    between atoms: O2_11  and  C9_12 
REMARK    8  A    between atoms: C9_12  and  C10_13 
REMARK    9  A    between atoms: C10_13  and  C11_14 
REMARK   10  A    between atoms: C11_14  and  O3_15 
ROOT
HETATM    1  C8  UNL     1       6.498   0.835   1.188  1.00  0.00     0.171 C 
ENDROOT
BRANCH   1   2
HETATM    2  C7  UNL     1       7.600  -0.114   0.695  1.00  0.00     0.056 C 
BRANCH   2   3
HETATM    3  C6  UNL     1       6.894  -1.251   0.049  1.00  0.00     0.007 C 
HETATM    4  C5  UNL     1       7.298  -1.678  -1.135  1.00  0.00     0.043 C 
BRANCH   4   5
HETATM    5  C4  UNL     1       6.562  -2.820  -1.751  1.00  0.00     0.090 C 
BRANCH   5   6
HETATM    6  C3  UNL     1       6.027  -3.765  -0.762  1.00  0.00    -0.025 C 
HETATM    7  C2  UNL     1       6.393  -5.039  -0.809  1.00  0.00    -0.035 C 
HETATM    8  C1  UNL     1       5.871  -6.010   0.174  1.00  0.00     0.036 C 
ENDBRANCH   5   6
ENDBRANCH   4   5
BRANCH   4   9
HETATM    9  O1  UNL     1       8.368  -1.071  -1.759  1.00  0.00    -0.365 OA
ATOM     10  H1  UNL     1       9.026  -0.585  -1.276  1.00  0.00     0.217 HD
ENDBRANCH   4   9
ENDBRANCH   2   3
ENDBRANCH   1   2
BRANCH   1  11
HETATM   11  O2  UNL     1       5.309   0.185   0.985  1.00  0.00    -0.390 OA
BRANCH  11  12
HETATM   12  C9  UNL     1       4.195   0.963   1.283  1.00  0.00     0.179 C 
BRANCH  12  13
HETATM   13  C10 UNL     1       3.033   0.662   0.394  1.00  0.00     0.002 C 
HETATM   14  C12 UNL     1       1.958   1.701   0.423  1.00  0.00     0.014 C 
HETATM   15  C13 UNL     1       1.230   1.446  -0.881  1.00  0.00     0.001 C 
HETATM   16  C14 UNL     1       2.355   1.232  -1.850  1.00  0.00     0.001 C 
HETATM   17  C15 UNL     1       3.494   0.663  -1.029  1.00  0.00     0.014 C 
BRANCH  13  18
HETATM   18  C11 UNL     1       2.440  -0.671   0.805  1.00  0.00     0.175 C 
BRANCH  18  19
HETATM   19  O3  UNL     1       2.765  -1.004   2.108  1.00  0.00    -0.400 OA
ATOM     20  H3  UNL     1       2.215  -0.556   2.739  1.00  0.00     0.209 HD
ENDBRANCH  18  19
ENDBRANCH  13  18
ENDBRANCH  12  13
ENDBRANCH  11  12
ENDBRANCH   1  11
TORSDOF 10
ENDMDL
MODEL 4
REMARK VINA RESULT: -6.010250085      2.527      6.064
REMARK  10 active torsions:
REMARK  status: ('A' for Active; 'I' for Inactive)
REMARK    1  A    between atoms: C3_3  and  C4_4 
REMARK    2  A    between atoms: C4_4  and  C5_5 
REMARK    3  A    between atoms: C5_5  and  O1_6 
REMARK    4  A    between atoms: C6_8  and  C7_9 
REMARK    5  A    between atoms: C7_9  and  C8_10 
REMARK    6  A    between atoms: C8_10  and  O2_11 
REMARK    7  A    between atoms: O2_11  and  C9_12 
REMARK    8  A    between atoms: C9_12  and  C10_13 
REMARK    9  A    between atoms: C10_13  and  C11_14 
REMARK   10  A    between atoms: C11_14  and  O3_15 
ROOT
HETATM    1  C8  UNL     1       6.638  -0.918  -0.666  1.00  0.00     0.171 C 
ENDROOT
BRANCH   1   2
HETATM    2  C7  UNL     1       6.120  -2.119  -1.472  1.00  0.00     0.056 C 
BRANCH   2   3
HETATM    3  C6  UNL     1       5.561  -3.065  -0.472  1.00  0.00     0.007 C 
HETATM    4  C5  UNL     1       5.976  -4.320  -0.462  1.00  0.00     0.043 C 
BRANCH   4   5
HETATM    5  C4  UNL     1       5.390  -5.239   0.556  1.00  0.00     0.090 C 
BRANCH   5   6
HETATM    6  C3  UNL     1       6.017  -6.567   0.566  1.00  0.00    -0.025 C 
HETATM    7  C2  UNL     1       5.453  -7.552   1.253  1.00  0.00    -0.035 C 
HETATM    8  C1  UNL     1       6.062  -8.897   1.280  1.00  0.00     0.036 C 
ENDBRANCH   5   6
ENDBRANCH   4   5
BRANCH   4   9
HETATM    9  O1  UNL     1       6.921  -4.741  -1.374  1.00  0.00    -0.365 OA
ATOM     10  H1  UNL     1       6.886  -5.599  -1.781  1.00  0.00     0.217 HD
ENDBRANCH   4   9
ENDBRANCH   2   3
ENDBRANCH   1   2
BRANCH   1  11
HETATM   11  O2  UNL     1       5.839  -0.824   0.443  1.00  0.00    -0.390 OA
BRANCH  11  12
HETATM   12  C9  UNL     1       5.498   0.485   0.770  1.00  0.00     0.179 C 
BRANCH  12  13
HETATM   13  C10 UNL     1       4.021   0.710   0.762  1.00  0.00     0.002 C 
HETATM   14  C12 UNL     1       3.460   1.021  -0.589  1.00  0.00     0.014 C 
HETATM   15  C13 UNL     1       1.996   0.672  -0.415  1.00  0.00     0.001 C 
HETATM   16  C14 UNL     1       2.052  -0.620   0.346  1.00  0.00     0.001 C 
HETATM   17  C15 UNL     1       3.332  -0.559   1.154  1.00  0.00     0.014 C 
BRANCH  13  18
HETATM   18  C11 UNL     1       3.700   1.854   1.703  1.00  0.00     0.175 C 
BRANCH  18  19
HETATM   19  O3  UNL     1       3.180   1.409   2.905  1.00  0.00    -0.400 OA
ATOM     20  H3  UNL     1       2.657   0.623   2.799  1.00  0.00     0.209 HD
ENDBRANCH  18  19
ENDBRANCH  13  18
ENDBRANCH  12  13
ENDBRANCH  11  12
ENDBRANCH   1  11
TORSDOF 10
ENDMDL
MODEL 5
REMARK VINA RESULT: -5.954411177      1.813      6.047
REMARK  10 active torsions:
REMARK  status: ('A' for Active; 'I' for Inactive)
REMARK    1  A    between atoms: C3_3  and  C4_4 
REMARK    2  A    between atoms: C4_4  and  C5_5 
REMARK    3  A    between atoms: C5_5  and  O1_6 
REMARK    4  A    between atoms: C6_8  and  C7_9 
REMARK    5  A    between atoms: C7_9  and  C8_10 
REMARK    6  A    between atoms: C8_10  and  O2_11 
REMARK    7  A    between atoms: O2_11  and  C9_12 
REMARK    8  A    between atoms: C9_12  and  C10_13 
REMARK    9  A    between atoms: C10_13  and  C11_14 
REMARK   10  A    between atoms: C11_14  and  O3_15 
ROOT
HETATM    1  C8  UNL     1       4.749   0.185  -2.216  1.00  0.00     0.171 C 
ENDROOT
BRANCH   1   2
HETATM    2  C7  UNL     1       5.518  -0.294  -0.975  1.00  0.00     0.056 C 
BRANCH   2   3
HETATM    3  C6  UNL     1       5.574  -1.775  -1.083  1.00  0.00     0.007 C 
HETATM    4  C5  UNL     1       6.687  -2.355  -1.499  1.00  0.00     0.043 C 
BRANCH   4   5
HETATM    5  C4  UNL     1       6.703  -3.844  -1.595  1.00  0.00     0.090 C 
BRANCH   5   6
HETATM    6  C3  UNL     1       6.102  -4.504  -0.429  1.00  0.00    -0.025 C 
HETATM    7  C2  UNL     1       6.155  -5.826  -0.327  1.00  0.00    -0.035 C 
HETATM    8  C1  UNL     1       5.560  -6.517   0.836  1.00  0.00     0.036 C 
ENDBRANCH   5   6
ENDBRANCH   4   5
BRANCH   4   9
HETATM    9  O1  UNL     1       7.784  -1.586  -1.826  1.00  0.00    -0.365 OA
ATOM     10  H1  UNL     1       7.891  -0.696  -1.510  1.00  0.00     0.217 HD
ENDBRANCH   4   9
ENDBRANCH   2   3
ENDBRANCH   1   2
BRANCH   1  11
HETATM   11  O2  UNL     1       3.566   0.705  -1.759  1.00  0.00    -0.390 OA
BRANCH  11  12
HETATM   12  C9  UNL     1       3.672   1.310  -0.511  1.00  0.00     0.179 C 
BRANCH  12  13
HETATM   13  C10 UNL     1       2.355   1.418   0.186  1.00  0.00     0.002 C 
HETATM   14  C12 UNL     1       2.143   2.722   0.888  1.00  0.00     0.014 C 
HETATM   15  C13 UNL     1       0.634   2.774   1.016  1.00  0.00     0.001 C 
HETATM   16  C14 UNL     1       0.171   2.303  -0.331  1.00  0.00     0.001 C 
HETATM   17  C15 UNL     1       1.260   1.376  -0.832  1.00  0.00     0.014 C 
BRANCH  13  18
HETATM   18  C11 UNL     1       2.246   0.293   1.196  1.00  0.00     0.175 C 
BRANCH  18  19
HETATM   19  O3  UNL     1       2.448  -0.947   0.616  1.00  0.00    -0.400 OA
ATOM     20  H3  UNL     1       3.079  -1.468   1.098  1.00  0.00     0.209 HD
ENDBRANCH  18  19
ENDBRANCH  13  18
ENDBRANCH  12  13
ENDBRANCH  11  12
ENDBRANCH   1  11
TORSDOF 10
ENDMDL
