MODEL 1
REMARK VINA RESULT: -9.194955466      0.000      0.000
REMARK  6 active torsions:
REMARK  status: ('A' for Active; 'I' for Inactive)
REMARK    1  A    between atoms: C8_10  and  N2_11 
REMARK    2  A    between atoms: C11_14  and  N3_15 
REMARK    3  A    between atoms: C14_21  and  N5_22 
REMARK    4  A    between atoms: C15_27  and  O1_28 
REMARK    5  A    between atoms: O1_28  and  C16_29 
REMARK    6  A    between atoms: C16_29  and  C17_30 
ROOT
HETATM    1  N3  UNL     1     -17.817 -39.548 -12.266  1.00  0.00    -0.306 N 
HETATM    2  C12 UNL     1     -19.047 -39.171 -12.651  1.00  0.00     0.158 A 
HETATM    3 BR1  UNL     1     -20.673 -40.149 -12.436  1.00  0.00    -0.010 Br
HETATM    4  N4  UNL     1     -19.006 -37.962 -13.236  1.00  0.00    -0.330 N 
ATOM      5  H4  UNL     1     -19.801 -37.448 -13.617  1.00  0.00     0.168 HD
HETATM    6  C13 UNL     1     -17.731 -37.554 -13.227  1.00  0.00     0.123 A 
HETATM    7  C14 UNL     1     -17.130 -36.397 -13.696  1.00  0.00     0.133 A 
HETATM    8  N6  UNL     1     -15.804 -36.273 -13.540  1.00  0.00    -0.306 N 
ATOM      9  H6  UNL     1     -15.342 -35.428 -13.877  1.00  0.00     0.171 HD
HETATM   10  C15 UNL     1     -15.069 -37.226 -12.955  1.00  0.00     0.226 A 
HETATM   11  N7  UNL     1     -15.673 -38.334 -12.512  1.00  0.00    -0.306 N 
ATOM     12  H7  UNL     1     -15.106 -39.055 -12.067  1.00  0.00     0.171 HD
HETATM   13  C22 UNL     1     -16.996 -38.535 -12.629  1.00  0.00     0.144 A 
ENDROOT
BRANCH   1  14
HETATM   14  C11 UNL     1     -17.433 -40.774 -11.603  1.00  0.00     0.097 C 
HETATM   15  C10 UNL     1     -16.559 -40.590 -10.412  1.00  0.00     0.045 C 
HETATM   16  C9  UNL     1     -15.433 -41.630 -10.402  1.00  0.00     0.125 C 
HETATM   17  N2  UNL     1     -15.919 -42.958 -10.707  1.00  0.00    -0.380 N 
HETATM   18  C24 UNL     1     -16.802 -43.099 -11.852  1.00  0.00     0.125 C 
HETATM   19  C23 UNL     1     -16.788 -41.765 -12.582  1.00  0.00     0.045 C 
BRANCH  17  20
HETATM   20  C8  UNL     1     -15.548 -44.081  -9.923  1.00  0.00     0.042 A 
HETATM   21  C7  UNL     1     -15.576 -44.019  -8.549  1.00  0.00     0.047 A 
HETATM   22  C6  UNL     1     -15.198 -45.150  -7.843  1.00  0.00     0.090 A 
HETATM   23  N1  UNL     1     -14.813 -46.285  -8.450  1.00  0.00    -0.368 N 
HETATM   24  C5  UNL     1     -14.783 -46.356  -9.789  1.00  0.00     0.022 A 
ATOM     25  H1  UNL     1     -14.543 -47.094  -7.891  1.00  0.00     0.165 HD
HETATM   26  C4  UNL     1     -14.356 -47.616 -10.429  1.00  0.00     0.095 C 
HETATM   27  C25 UNL     1     -15.150 -45.251 -10.520  1.00  0.00     0.015 A 
HETATM   28  C2  UNL     1     -14.118 -47.432 -11.919  1.00  0.00     0.059 C 
HETATM   29  C1  UNL     1     -12.729 -46.876 -12.105  1.00  0.00     0.046 C 
HETATM   30  C3  UNL     1     -14.181 -48.790 -12.621  1.00  0.00     0.046 C 
HETATM   31  O2  UNL     1     -15.115 -46.646 -12.451  1.00  0.00    -0.376 OA
HETATM   32  C26 UNL     1     -15.118 -45.338 -11.997  1.00  0.00     0.211 C 
ENDBRANCH  17  20
ENDBRANCH   1  14
BRANCH   7  33
HETATM   33  N5  UNL     1     -17.840 -35.455 -14.271  1.00  0.00    -0.383 N 
ATOM     34  H52 UNL     1     -18.834 -35.344 -14.072  1.00  0.00     0.157 HD
ATOM     35  H51 UNL     1     -17.412 -34.810 -14.934  1.00  0.00     0.157 HD
ENDBRANCH   7  33
BRANCH  10  36
HETATM   36  O1  UNL     1     -13.705 -37.006 -12.840  1.00  0.00    -0.321 OA
BRANCH  36  37
HETATM   37  C16 UNL     1     -13.083 -36.119 -11.968  1.00  0.00     0.183 C 
BRANCH  37  38
HETATM   38  C17 UNL     1     -12.299 -36.750 -10.865  1.00  0.00     0.010 C 
HETATM   39  C18 UNL     1     -12.041 -38.223 -11.098  1.00  0.00     0.007 C 
HETATM   40  C19 UNL     1     -10.752 -38.297 -11.889  1.00  0.00     0.000 C 
HETATM   41  C20 UNL     1     -10.111 -36.950 -11.859  1.00  0.00     0.000 C 
HETATM   42  C21 UNL     1     -10.906 -36.108 -10.895  1.00  0.00     0.007 C 
ENDBRANCH  37  38
ENDBRANCH  36  37
ENDBRANCH  10  36
TORSDOF 6
ENDMDL
MODEL 2
REMARK VINA RESULT: -8.877507008      3.589      8.345
REMARK  6 active torsions:
REMARK  status: ('A' for Active; 'I' for Inactive)
REMARK    1  A    between atoms: C8_10  and  N2_11 
REMARK    2  A    between atoms: C11_14  and  N3_15 
REMARK    3  A    between atoms: C14_21  and  N5_22 
REMARK    4  A    between atoms: C15_27  and  O1_28 
REMARK    5  A    between atoms: O1_28  and  C16_29 
REMARK    6  A    between atoms: C16_29  and  C17_30 
ROOT
HETATM    1  N3  UNL     1     -14.687 -36.781 -12.864  1.00  0.00    -0.306 N 
HETATM    2  C12 UNL     1     -15.660 -35.856 -12.907  1.00  0.00     0.158 A 
HETATM    3 BR1  UNL     1     -15.445 -33.959 -12.968  1.00  0.00    -0.010 Br
HETATM    4  N4  UNL     1     -16.868 -36.444 -12.900  1.00  0.00    -0.330 N 
ATOM      5  H4  UNL     1     -17.771 -35.970 -12.926  1.00  0.00     0.168 HD
HETATM    6  C13 UNL     1     -16.670 -37.767 -12.854  1.00  0.00     0.123 A 
HETATM    7  C14 UNL     1     -17.558 -38.831 -12.828  1.00  0.00     0.133 A 
HETATM    8  N6  UNL     1     -17.048 -40.070 -12.781  1.00  0.00    -0.306 N 
ATOM      9  H6  UNL     1     -17.684 -40.868 -12.763  1.00  0.00     0.171 HD
HETATM   10  C15 UNL     1     -15.728 -40.291 -12.758  1.00  0.00     0.226 A 
HETATM   11  N7  UNL     1     -14.893 -39.248 -12.783  1.00  0.00    -0.306 N 
ATOM     12  H7  UNL     1     -13.889 -39.424 -12.765  1.00  0.00     0.171 HD
HETATM   13  C22 UNL     1     -15.323 -37.976 -12.831  1.00  0.00     0.144 A 
ENDROOT
BRANCH   1  14
HETATM   14  C11 UNL     1     -13.258 -36.564 -12.856  1.00  0.00     0.097 C 
HETATM   15  C10 UNL     1     -12.571 -36.890 -14.136  1.00  0.00     0.045 C 
HETATM   16  C9  UNL     1     -11.261 -37.639 -13.871  1.00  0.00     0.125 C 
HETATM   17  N2  UNL     1     -10.492 -37.028 -12.809  1.00  0.00    -0.380 N 
HETATM   18  C24 UNL     1     -11.199 -36.685 -11.586  1.00  0.00     0.125 C 
HETATM   19  C23 UNL     1     -12.583 -37.305 -11.693  1.00  0.00     0.045 C 
BRANCH  17  20
HETATM   20  C8  UNL     1      -9.103 -36.774 -12.951  1.00  0.00     0.042 A 
HETATM   21  C7  UNL     1      -8.527 -35.668 -12.369  1.00  0.00     0.047 A 
HETATM   22  C6  UNL     1      -7.167 -35.478 -12.549  1.00  0.00     0.090 A 
HETATM   23  N1  UNL     1      -6.407 -36.326 -13.263  1.00  0.00    -0.368 N 
HETATM   24  C5  UNL     1      -6.959 -37.407 -13.834  1.00  0.00     0.022 A 
ATOM     25  H1  UNL     1      -5.409 -36.147 -13.370  1.00  0.00     0.165 HD
HETATM   26  C4  UNL     1      -6.100 -38.322 -14.611  1.00  0.00     0.095 C 
HETATM   27  C25 UNL     1      -8.307 -37.626 -13.675  1.00  0.00     0.015 A 
HETATM   28  C2  UNL     1      -6.925 -39.322 -15.405  1.00  0.00     0.059 C 
HETATM   29  C1  UNL     1      -7.362 -38.657 -16.685  1.00  0.00     0.046 C 
HETATM   30  C3  UNL     1      -6.057 -40.528 -15.772  1.00  0.00     0.046 C 
HETATM   31  O2  UNL     1      -7.963 -39.783 -14.628  1.00  0.00    -0.376 OA
HETATM   32  C26 UNL     1      -8.908 -38.823 -14.305  1.00  0.00     0.211 C 
ENDBRANCH  17  20
ENDBRANCH   1  14
BRANCH   7  33
HETATM   33  N5  UNL     1     -18.854 -38.628 -12.850  1.00  0.00    -0.383 N 
ATOM     34  H52 UNL     1     -19.432 -38.972 -13.618  1.00  0.00     0.157 HD
ATOM     35  H51 UNL     1     -19.317 -38.119 -12.098  1.00  0.00     0.157 HD
ENDBRANCH   7  33
BRANCH  10  36
HETATM   36  O1  UNL     1     -15.298 -41.609 -12.708  1.00  0.00    -0.321 OA
BRANCH  36  37
HETATM   37  C16 UNL     1     -15.038 -42.349 -11.559  1.00  0.00     0.183 C 
BRANCH  37  38
HETATM   38  C17 UNL     1     -16.227 -43.003 -10.938  1.00  0.00     0.010 C 
HETATM   39  C18 UNL     1     -16.091 -44.507 -10.853  1.00  0.00     0.007 C 
HETATM   40  C19 UNL     1     -15.404 -44.786  -9.533  1.00  0.00     0.000 C 
HETATM   41  C20 UNL     1     -15.412 -43.528  -8.730  1.00  0.00     0.000 C 
HETATM   42  C21 UNL     1     -16.269 -42.538  -9.477  1.00  0.00     0.007 C 
ENDBRANCH  37  38
ENDBRANCH  36  37
ENDBRANCH  10  36
TORSDOF 6
ENDMDL
MODEL 3
REMARK VINA RESULT: -8.832782046      3.501      7.991
REMARK  6 active torsions:
REMARK  status: ('A' for Active; 'I' for Inactive)
REMARK    1  A    between atoms: C8_10  and  N2_11 
REMARK    2  A    between atoms: C11_14  and  N3_15 
REMARK    3  A    between atoms: C14_21  and  N5_22 
REMARK    4  A    between atoms: C15_27  and  O1_28 
REMARK    5  A    between atoms: O1_28  and  C16_29 
REMARK    6  A    between atoms: C16_29  and  C17_30 
ROOT
HETATM    1  N3  UNL     1     -15.189 -35.924 -13.417  1.00  0.00    -0.306 N 
HETATM    2  C12 UNL     1     -15.955 -34.882 -13.779  1.00  0.00     0.158 A 
HETATM    3 BR1  UNL     1     -15.363 -33.172 -14.388  1.00  0.00    -0.010 Br
HETATM    4  N4  UNL     1     -17.257 -35.193 -13.660  1.00  0.00    -0.330 N 
ATOM      5  H4  UNL     1     -18.045 -34.581 -13.869  1.00  0.00     0.168 HD
HETATM    6  C13 UNL     1     -17.330 -36.453 -13.215  1.00  0.00     0.123 A 
HETATM    7  C14 UNL     1     -18.414 -37.265 -12.920  1.00  0.00     0.133 A 
HETATM    8  N6  UNL     1     -18.164 -38.508 -12.484  1.00  0.00    -0.306 N 
ATOM      9  H6  UNL     1     -18.948 -39.123 -12.263  1.00  0.00     0.171 HD
HETATM   10  C15 UNL     1     -16.916 -38.966 -12.331  1.00  0.00     0.226 A 
HETATM   11  N7  UNL     1     -15.888 -38.163 -12.622  1.00  0.00    -0.306 N 
ATOM     12  H7  UNL     1     -14.939 -38.519 -12.503  1.00  0.00     0.171 HD
HETATM   13  C22 UNL     1     -16.052 -36.906 -13.064  1.00  0.00     0.144 A 
ENDROOT
BRANCH   1  14
HETATM   14  C11 UNL     1     -13.745 -36.000 -13.403  1.00  0.00     0.097 C 
HETATM   15  C10 UNL     1     -13.154 -36.833 -14.487  1.00  0.00     0.045 C 
HETATM   16  C9  UNL     1     -12.019 -37.705 -13.939  1.00  0.00     0.125 C 
HETATM   17  N2  UNL     1     -11.130 -36.958 -13.076  1.00  0.00    -0.380 N 
HETATM   18  C24 UNL     1     -11.738 -36.123 -12.054  1.00  0.00     0.125 C 
HETATM   19  C23 UNL     1     -13.220 -36.463 -12.037  1.00  0.00     0.045 C 
BRANCH  17  20
HETATM   20  C8  UNL     1      -9.720 -37.037 -13.218  1.00  0.00     0.042 A 
HETATM   21  C7  UNL     1      -8.888 -36.354 -12.362  1.00  0.00     0.047 A 
HETATM   22  C6  UNL     1      -7.521 -36.472 -12.558  1.00  0.00     0.090 A 
HETATM   23  N1  UNL     1      -6.995 -37.221 -13.541  1.00  0.00    -0.368 N 
HETATM   24  C5  UNL     1      -7.797 -37.891 -14.380  1.00  0.00     0.022 A 
ATOM     25  H1  UNL     1      -5.982 -37.280 -13.649  1.00  0.00     0.165 HD
HETATM   26  C4  UNL     1      -7.191 -38.707 -15.451  1.00  0.00     0.095 C 
HETATM   27  C25 UNL     1      -9.159 -37.796 -14.215  1.00  0.00     0.015 A 
HETATM   28  C2  UNL     1      -8.231 -39.165 -16.461  1.00  0.00     0.059 C 
HETATM   29  C1  UNL     1      -8.449 -38.045 -17.447  1.00  0.00     0.046 C 
HETATM   30  C3  UNL     1      -7.702 -40.376 -17.231  1.00  0.00     0.046 C 
HETATM   31  O2  UNL     1      -9.371 -39.562 -15.800  1.00  0.00    -0.376 OA
HETATM   32  C26 UNL     1     -10.038 -38.541 -15.143  1.00  0.00     0.211 C 
ENDBRANCH  17  20
ENDBRANCH   1  14
BRANCH   7  33
HETATM   33  N5  UNL     1     -19.642 -36.828 -13.066  1.00  0.00    -0.383 N 
ATOM     34  H52 UNL     1     -20.184 -36.493 -12.268  1.00  0.00     0.157 HD
ATOM     35  H51 UNL     1     -20.087 -36.811 -13.983  1.00  0.00     0.157 HD
ENDBRANCH   7  33
BRANCH  10  36
HETATM   36  O1  UNL     1     -16.760 -40.266 -11.874  1.00  0.00    -0.321 OA
BRANCH  36  37
HETATM   37  C16 UNL     1     -16.299 -40.649 -10.618  1.00  0.00     0.183 C 
BRANCH  37  38
HETATM   38  C17 UNL     1     -15.147 -41.597 -10.621  1.00  0.00     0.010 C 
HETATM   39  C18 UNL     1     -15.101 -42.468  -9.385  1.00  0.00     0.007 C 
HETATM   40  C19 UNL     1     -15.943 -43.685  -9.705  1.00  0.00     0.000 C 
HETATM   41  C20 UNL     1     -16.220 -43.685 -11.172  1.00  0.00     0.000 C 
HETATM   42  C21 UNL     1     -15.391 -42.579 -11.773  1.00  0.00     0.007 C 
ENDBRANCH  37  38
ENDBRANCH  36  37
ENDBRANCH  10  36
TORSDOF 6
ENDMDL
MODEL 4
REMARK VINA RESULT: -8.745637318      6.736     10.647
REMARK  6 active torsions:
REMARK  status: ('A' for Active; 'I' for Inactive)
REMARK    1  A    between atoms: C8_10  and  N2_11 
REMARK    2  A    between atoms: C11_14  and  N3_15 
REMARK    3  A    between atoms: C14_21  and  N5_22 
REMARK    4  A    between atoms: C15_27  and  O1_28 
REMARK    5  A    between atoms: O1_28  and  C16_29 
REMARK    6  A    between atoms: C16_29  and  C17_30 
ROOT
HETATM    1  N3  UNL     1      -9.534 -37.692 -13.043  1.00  0.00    -0.306 N 
HETATM    2  C12 UNL     1      -9.163 -36.505 -12.536  1.00  0.00     0.158 A 
HETATM    3 BR1  UNL     1      -7.529 -35.572 -12.862  1.00  0.00    -0.010 Br
HETATM    4  N4  UNL     1     -10.120 -36.020 -11.728  1.00  0.00    -0.330 N 
ATOM      5  H4  UNL     1     -10.089 -35.137 -11.217  1.00  0.00     0.168 HD
HETATM    6  C13 UNL     1     -11.123 -36.905 -11.715  1.00  0.00     0.123 A 
HETATM    7  C14 UNL     1     -12.343 -36.908 -11.057  1.00  0.00     0.133 A 
HETATM    8  N6  UNL     1     -13.154 -37.959 -11.247  1.00  0.00    -0.306 N 
ATOM      9  H6  UNL     1     -14.057 -37.979 -10.772  1.00  0.00     0.171 HD
HETATM   10  C15 UNL     1     -12.813 -38.981 -12.040  1.00  0.00     0.226 A 
HETATM   11  N7  UNL     1     -11.630 -38.955 -12.664  1.00  0.00    -0.306 N 
ATOM     12  H7  UNL     1     -11.378 -39.737 -13.267  1.00  0.00     0.171 HD
HETATM   13  C22 UNL     1     -10.761 -37.940 -12.527  1.00  0.00     0.144 A 
ENDROOT
BRANCH   1  14
HETATM   14  C11 UNL     1      -8.793 -38.538 -13.950  1.00  0.00     0.097 C 
HETATM   15  C10 UNL     1      -7.430 -38.912 -13.480  1.00  0.00     0.045 C 
HETATM   16  C9  UNL     1      -6.419 -38.819 -14.628  1.00  0.00     0.125 C 
HETATM   17  N2  UNL     1      -6.922 -39.421 -15.844  1.00  0.00    -0.380 N 
HETATM   18  C24 UNL     1      -8.270 -39.068 -16.255  1.00  0.00     0.125 C 
HETATM   19  C23 UNL     1      -8.716 -37.925 -15.355  1.00  0.00     0.045 C 
BRANCH  17  20
HETATM   20  C8  UNL     1      -6.132 -40.319 -16.607  1.00  0.00     0.042 A 
HETATM   21  C7  UNL     1      -6.404 -41.668 -16.610  1.00  0.00     0.047 A 
HETATM   22  C6  UNL     1      -5.592 -42.490 -17.375  1.00  0.00     0.090 A 
HETATM   23  N1  UNL     1      -4.566 -42.017 -18.101  1.00  0.00    -0.368 N 
HETATM   24  C5  UNL     1      -4.292 -40.704 -18.106  1.00  0.00     0.022 A 
ATOM     25  H1  UNL     1      -3.993 -42.658 -18.650  1.00  0.00     0.165 HD
HETATM   26  C4  UNL     1      -3.158 -40.212 -18.913  1.00  0.00     0.095 C 
HETATM   27  C25 UNL     1      -5.077 -39.860 -17.357  1.00  0.00     0.015 A 
HETATM   28  C2  UNL     1      -2.826 -38.765 -18.587  1.00  0.00     0.059 C 
HETATM   29  C1  UNL     1      -1.949 -38.752 -17.361  1.00  0.00     0.046 C 
HETATM   30  C3  UNL     1      -2.035 -38.146 -19.741  1.00  0.00     0.046 C 
HETATM   31  O2  UNL     1      -3.991 -38.045 -18.453  1.00  0.00    -0.376 OA
HETATM   32  C26 UNL     1      -4.771 -38.412 -17.370  1.00  0.00     0.211 C 
ENDBRANCH  17  20
ENDBRANCH   1  14
BRANCH   7  33
HETATM   33  N5  UNL     1     -12.688 -35.912 -10.276  1.00  0.00    -0.383 N 
ATOM     34  H52 UNL     1     -12.679 -36.007  -9.260  1.00  0.00     0.157 HD
ATOM     35  H51 UNL     1     -12.976 -35.015 -10.667  1.00  0.00     0.157 HD
ENDBRANCH   7  33
BRANCH  10  36
HETATM   36  O1  UNL     1     -13.719 -40.023 -12.172  1.00  0.00    -0.321 OA
BRANCH  36  37
HETATM   37  C16 UNL     1     -14.402 -40.657 -11.140  1.00  0.00     0.183 C 
BRANCH  37  38
HETATM   38  C17 UNL     1     -15.704 -41.278 -11.522  1.00  0.00     0.010 C 
HETATM   39  C18 UNL     1     -15.557 -42.710 -11.987  1.00  0.00     0.007 C 
HETATM   40  C19 UNL     1     -15.658 -43.562 -10.739  1.00  0.00     0.000 C 
HETATM   41  C20 UNL     1     -16.154 -42.700  -9.627  1.00  0.00     0.000 C 
HETATM   42  C21 UNL     1     -16.536 -41.376 -10.237  1.00  0.00     0.007 C 
ENDBRANCH  37  38
ENDBRANCH  36  37
ENDBRANCH  10  36
TORSDOF 6
ENDMDL
MODEL 5
REMARK VINA RESULT: -8.667905087      1.450      1.972
REMARK  6 active torsions:
REMARK  status: ('A' for Active; 'I' for Inactive)
REMARK    1  A    between atoms: C8_10  and  N2_11 
REMARK    2  A    between atoms: C11_14  and  N3_15 
REMARK    3  A    between atoms: C14_21  and  N5_22 
REMARK    4  A    between atoms: C15_27  and  O1_28 
REMARK    5  A    between atoms: O1_28  and  C16_29 
REMARK    6  A    between atoms: C16_29  and  C17_30 
ROOT
HETATM    1  N3  UNL     1     -16.634 -38.022 -12.954  1.00  0.00    -0.306 N 
HETATM    2  C12 UNL     1     -17.731 -37.335 -13.314  1.00  0.00     0.158 A 
HETATM    3 BR1  UNL     1     -19.548 -37.782 -12.932  1.00  0.00    -0.010 Br
HETATM    4  N4  UNL     1     -17.391 -36.239 -14.012  1.00  0.00    -0.330 N 
ATOM      5  H4  UNL     1     -18.033 -35.548 -14.402  1.00  0.00     0.168 HD
HETATM    6  C13 UNL     1     -16.056 -36.218 -14.102  1.00  0.00     0.123 A 
HETATM    7  C14 UNL     1     -15.187 -35.323 -14.706  1.00  0.00     0.133 A 
HETATM    8  N6  UNL     1     -13.872 -35.576 -14.626  1.00  0.00    -0.306 N 
ATOM      9  H6  UNL     1     -13.215 -34.930 -15.062  1.00  0.00     0.171 HD
HETATM   10  C15 UNL     1     -13.398 -36.654 -13.988  1.00  0.00     0.226 A 
HETATM   11  N7  UNL     1     -14.257 -37.502 -13.415  1.00  0.00    -0.306 N 
ATOM     12  H7  UNL     1     -13.888 -38.320 -12.931  1.00  0.00     0.171 HD
HETATM   13  C22 UNL     1     -15.588 -37.320 -13.449  1.00  0.00     0.144 A 
ENDROOT
BRANCH   1  14
HETATM   14  C11 UNL     1     -16.567 -39.251 -12.197  1.00  0.00     0.097 C 
HETATM   15  C10 UNL     1     -15.240 -39.532 -11.582  1.00  0.00     0.045 C 
HETATM   16  C9  UNL     1     -14.868 -41.010 -11.752  1.00  0.00     0.125 C 
HETATM   17  N2  UNL     1     -15.976 -41.887 -11.441  1.00  0.00    -0.380 N 
HETATM   18  C24 UNL     1     -17.267 -41.563 -12.025  1.00  0.00     0.125 C 
HETATM   19  C23 UNL     1     -17.024 -40.453 -13.036  1.00  0.00     0.045 C 
BRANCH  17  20
HETATM   20  C8  UNL     1     -15.812 -43.019 -10.603  1.00  0.00     0.042 A 
HETATM   21  C7  UNL     1     -15.834 -42.890  -9.233  1.00  0.00     0.047 A 
HETATM   22  C6  UNL     1     -15.664 -44.036  -8.473  1.00  0.00     0.090 A 
HETATM   23  N1  UNL     1     -15.482 -45.248  -9.024  1.00  0.00    -0.368 N 
HETATM   24  C5  UNL     1     -15.459 -45.385 -10.358  1.00  0.00     0.022 A 
ATOM     25  H1  UNL     1     -15.361 -46.065  -8.426  1.00  0.00     0.165 HD
HETATM   26  C4  UNL     1     -15.258 -46.728 -10.936  1.00  0.00     0.095 C 
HETATM   27  C25 UNL     1     -15.624 -44.268 -11.143  1.00  0.00     0.015 A 
HETATM   28  C2  UNL     1     -14.985 -46.659 -12.430  1.00  0.00     0.059 C 
HETATM   29  C1  UNL     1     -13.520 -46.364 -12.624  1.00  0.00     0.046 C 
HETATM   30  C3  UNL     1     -15.283 -48.016 -13.071  1.00  0.00     0.046 C 
HETATM   31  O2  UNL     1     -15.826 -45.736 -13.008  1.00  0.00    -0.376 OA
HETATM   32  C26 UNL     1     -15.601 -44.428 -12.614  1.00  0.00     0.211 C 
ENDBRANCH  17  20
ENDBRANCH   1  14
BRANCH   7  33
HETATM   33  N5  UNL     1     -15.639 -34.264 -15.334  1.00  0.00    -0.383 N 
ATOM     34  H52 UNL     1     -15.098 -33.400 -15.375  1.00  0.00     0.157 HD
ATOM     35  H51 UNL     1     -16.547 -34.279 -15.798  1.00  0.00     0.157 HD
ENDBRANCH   7  33
BRANCH  10  36
HETATM   36  O1  UNL     1     -12.022 -36.830 -13.960  1.00  0.00    -0.321 OA
BRANCH  36  37
HETATM   37  C16 UNL     1     -11.345 -37.960 -13.512  1.00  0.00     0.183 C 
BRANCH  37  38
HETATM   38  C17 UNL     1     -10.416 -37.736 -12.366  1.00  0.00     0.010 C 
HETATM   39  C18 UNL     1     -10.232 -36.271 -12.037  1.00  0.00     0.007 C 
HETATM   40  C19 UNL     1     -11.330 -35.926 -11.054  1.00  0.00     0.000 C 
HETATM   41  C20 UNL     1     -11.946 -37.201 -10.581  1.00  0.00     0.000 C 
HETATM   42  C21 UNL     1     -11.102 -38.323 -11.126  1.00  0.00     0.007 C 
ENDBRANCH  37  38
ENDBRANCH  36  37
ENDBRANCH  10  36
TORSDOF 6
ENDMDL
