MODEL 1
REMARK VINA RESULT: -7.652569501      0.000      0.000
REMARK  5 active torsions:
REMARK  status: ('A' for Active; 'I' for Inactive)
REMARK    1  A    between atoms: C2_2  and  O1_3 
REMARK    2  A    between atoms: O1_3  and  C3_4 
REMARK    3  A    between atoms: C3_4  and  C4_6 
REMARK    4  A    between atoms: C5_7  and  C6_8 
REMARK    5  A    between atoms: N1_11  and  O4_13 
ROOT
HETATM    1  C4  UNL     1      17.521   0.696  13.880  1.00  0.00     0.081 C 
HETATM    2  C5  UNL     1      16.748  -0.022  13.093  1.00  0.00     0.020 C 
ENDROOT
BRANCH   1   3
HETATM    3  C3  UNL     1      17.135   1.071  15.236  1.00  0.00     0.287 C 
HETATM    4  O2  UNL     1      17.963   1.289  16.144  1.00  0.00    -0.260 OA
BRANCH   3   5
HETATM    5  O1  UNL     1      15.799   1.188  15.530  1.00  0.00    -0.278 OA
BRANCH   5   6
HETATM    6  C2  UNL     1      15.240   2.066  16.414  1.00  0.00     0.086 C 
HETATM    7  C1  UNL     1      14.958   1.723  17.827  1.00  0.00     0.079 C 
HETATM    8  C8  UNL     1      14.935   3.278  16.002  1.00  0.00     0.132 C 
HETATM    9 CL1  UNL     1      15.246   3.739  14.338  1.00  0.00    -0.068 Cl
HETATM   10 CL2  UNL     1      14.208   4.442  17.124  1.00  0.00    -0.068 Cl
ENDBRANCH   5   6
ENDBRANCH   3   5
ENDBRANCH   1   3
BRANCH   2  11
HETATM   11  C6  UNL     1      17.228  -0.351  11.735  1.00  0.00     0.229 A 
HETATM   12  O3  UNL     1      18.586  -0.017  11.447  1.00  0.00    -0.318 OA
HETATM   13  C7  UNL     1      18.092  -1.390  11.467  1.00  0.00     0.172 A 
HETATM   14  N1  UNL     1      18.648  -2.540  11.263  1.00  0.00    -0.248 N 
ATOM     15  H1  UNL     1      19.642  -2.567  11.034  1.00  0.00     0.196 HD
BRANCH  14  16
HETATM   16  O4  UNL     1      17.969  -3.712  11.338  1.00  0.00    -0.288 OA
ATOM     17  H4  UNL     1      17.986  -4.272  12.107  1.00  0.00     0.244 HD
ENDBRANCH  14  16
ENDBRANCH   2  11
TORSDOF 5
ENDMDL
MODEL 2
REMARK VINA RESULT: -7.615146439      1.029      1.491
REMARK  5 active torsions:
REMARK  status: ('A' for Active; 'I' for Inactive)
REMARK    1  A    between atoms: C2_2  and  O1_3 
REMARK    2  A    between atoms: O1_3  and  C3_4 
REMARK    3  A    between atoms: C3_4  and  C4_6 
REMARK    4  A    between atoms: C5_7  and  C6_8 
REMARK    5  A    between atoms: N1_11  and  O4_13 
ROOT
HETATM    1  C4  UNL     1      17.495   0.279  13.742  1.00  0.00     0.081 C 
HETATM    2  C5  UNL     1      16.794   0.499  12.649  1.00  0.00     0.020 C 
ENDROOT
BRANCH   1   3
HETATM    3  C3  UNL     1      17.102   0.799  15.047  1.00  0.00     0.287 C 
HETATM    4  O2  UNL     1      17.865   0.800  16.035  1.00  0.00    -0.260 OA
BRANCH   3   5
HETATM    5  O1  UNL     1      15.837   1.310  15.199  1.00  0.00    -0.278 OA
BRANCH   5   6
HETATM    6  C2  UNL     1      15.520   2.580  15.587  1.00  0.00     0.086 C 
HETATM    7  C1  UNL     1      16.147   3.786  14.997  1.00  0.00     0.079 C 
HETATM    8  C8  UNL     1      14.615   2.753  16.526  1.00  0.00     0.132 C 
HETATM    9 CL1  UNL     1      13.841   1.360  17.260  1.00  0.00    -0.068 Cl
HETATM   10 CL2  UNL     1      14.181   4.389  17.052  1.00  0.00    -0.068 Cl
ENDBRANCH   5   6
ENDBRANCH   3   5
ENDBRANCH   1   3
BRANCH   2  11
HETATM   11  C6  UNL     1      17.272  -0.071  11.372  1.00  0.00     0.229 A 
HETATM   12  O3  UNL     1      18.637   0.186  11.038  1.00  0.00    -0.318 OA
HETATM   13  C7  UNL     1      18.121  -1.153  11.296  1.00  0.00     0.172 A 
HETATM   14  N1  UNL     1      18.659  -2.330  11.300  1.00  0.00    -0.248 N 
ATOM     15  H1  UNL     1      19.652  -2.411  11.085  1.00  0.00     0.196 HD
BRANCH  14  16
HETATM   16  O4  UNL     1      17.961  -3.460  11.576  1.00  0.00    -0.288 OA
ATOM     17  H4  UNL     1      17.467  -3.581  12.380  1.00  0.00     0.244 HD
ENDBRANCH  14  16
ENDBRANCH   2  11
TORSDOF 5
ENDMDL
MODEL 3
REMARK VINA RESULT: -7.272947185      1.354      1.653
REMARK  5 active torsions:
REMARK  status: ('A' for Active; 'I' for Inactive)
REMARK    1  A    between atoms: C2_2  and  O1_3 
REMARK    2  A    between atoms: O1_3  and  C3_4 
REMARK    3  A    between atoms: C3_4  and  C4_6 
REMARK    4  A    between atoms: C5_7  and  C6_8 
REMARK    5  A    between atoms: N1_11  and  O4_13 
ROOT
HETATM    1  C4  UNL     1      17.399   0.450  13.574  1.00  0.00     0.081 C 
HETATM    2  C5  UNL     1      16.723   0.257  12.461  1.00  0.00     0.020 C 
ENDROOT
BRANCH   1   3
HETATM    3  C3  UNL     1      16.780   0.960  14.793  1.00  0.00     0.287 C 
HETATM    4  O2  UNL     1      16.132   0.239  15.579  1.00  0.00    -0.260 OA
BRANCH   3   5
HETATM    5  O1  UNL     1      16.913   2.293  15.090  1.00  0.00    -0.278 OA
BRANCH   5   6
HETATM    6  C2  UNL     1      15.926   3.235  15.038  1.00  0.00     0.086 C 
HETATM    7  C1  UNL     1      14.866   3.353  16.067  1.00  0.00     0.079 C 
HETATM    8  C8  UNL     1      15.906   4.083  14.032  1.00  0.00     0.132 C 
HETATM    9 CL1  UNL     1      17.136   3.989  12.786  1.00  0.00    -0.068 Cl
HETATM   10 CL2  UNL     1      14.637   5.318  13.936  1.00  0.00    -0.068 Cl
ENDBRANCH   5   6
ENDBRANCH   3   5
ENDBRANCH   1   3
BRANCH   2  11
HETATM   11  C6  UNL     1      17.438  -0.263  11.277  1.00  0.00     0.229 A 
HETATM   12  O3  UNL     1      18.853  -0.068  11.258  1.00  0.00    -0.318 OA
HETATM   13  C7  UNL     1      18.233  -1.388  11.305  1.00  0.00     0.172 A 
HETATM   14  N1  UNL     1      18.703  -2.593  11.339  1.00  0.00    -0.248 N 
ATOM     15  H1  UNL     1      19.715  -2.720  11.335  1.00  0.00     0.196 HD
BRANCH  14  16
HETATM   16  O4  UNL     1      17.912  -3.694  11.380  1.00  0.00    -0.288 OA
ATOM     17  H4  UNL     1      17.193  -3.792  11.994  1.00  0.00     0.244 HD
ENDBRANCH  14  16
ENDBRANCH   2  11
TORSDOF 5
ENDMDL
MODEL 4
REMARK VINA RESULT: -7.272353136      1.411      2.027
REMARK  5 active torsions:
REMARK  status: ('A' for Active; 'I' for Inactive)
REMARK    1  A    between atoms: C2_2  and  O1_3 
REMARK    2  A    between atoms: O1_3  and  C3_4 
REMARK    3  A    between atoms: C3_4  and  C4_6 
REMARK    4  A    between atoms: C5_7  and  C6_8 
REMARK    5  A    between atoms: N1_11  and  O4_13 
ROOT
HETATM    1  C4  UNL     1      17.412   0.455  13.602  1.00  0.00     0.081 C 
HETATM    2  C5  UNL     1      16.720   0.231  12.504  1.00  0.00     0.020 C 
ENDROOT
BRANCH   1   3
HETATM    3  C3  UNL     1      16.802   0.959  14.828  1.00  0.00     0.287 C 
HETATM    4  O2  UNL     1      16.098   0.252  15.577  1.00  0.00    -0.260 OA
BRANCH   3   5
HETATM    5  O1  UNL     1      17.008   2.271  15.174  1.00  0.00    -0.278 OA
BRANCH   5   6
HETATM    6  C2  UNL     1      16.491   3.365  14.540  1.00  0.00     0.086 C 
HETATM    7  C1  UNL     1      17.099   3.958  13.326  1.00  0.00     0.079 C 
HETATM    8  C8  UNL     1      15.402   3.926  15.022  1.00  0.00     0.132 C 
HETATM    9 CL1  UNL     1      14.642   3.266  16.457  1.00  0.00    -0.068 Cl
HETATM   10 CL2  UNL     1      14.707   5.346  14.222  1.00  0.00    -0.068 Cl
ENDBRANCH   5   6
ENDBRANCH   3   5
ENDBRANCH   1   3
BRANCH   2  11
HETATM   11  C6  UNL     1      17.428  -0.280  11.311  1.00  0.00     0.229 A 
HETATM   12  O3  UNL     1      18.842  -0.080  11.282  1.00  0.00    -0.318 OA
HETATM   13  C7  UNL     1      18.227  -1.402  11.327  1.00  0.00     0.172 A 
HETATM   14  N1  UNL     1      18.702  -2.606  11.351  1.00  0.00    -0.248 N 
ATOM     15  H1  UNL     1      19.714  -2.729  11.337  1.00  0.00     0.196 HD
BRANCH  14  16
HETATM   16  O4  UNL     1      17.914  -3.710  11.393  1.00  0.00    -0.288 OA
ATOM     17  H4  UNL     1      17.821  -4.308  10.660  1.00  0.00     0.244 HD
ENDBRANCH  14  16
ENDBRANCH   2  11
TORSDOF 5
ENDMDL
MODEL 5
REMARK VINA RESULT: -7.066860133      1.853      2.348
REMARK  5 active torsions:
REMARK  status: ('A' for Active; 'I' for Inactive)
REMARK    1  A    between atoms: C2_2  and  O1_3 
REMARK    2  A    between atoms: O1_3  and  C3_4 
REMARK    3  A    between atoms: C3_4  and  C4_6 
REMARK    4  A    between atoms: C5_7  and  C6_8 
REMARK    5  A    between atoms: N1_11  and  O4_13 
ROOT
HETATM    1  C4  UNL     1      17.223   1.321  13.700  1.00  0.00     0.081 C 
HETATM    2  C5  UNL     1      17.231   0.037  13.408  1.00  0.00     0.020 C 
ENDROOT
BRANCH   1   3
HETATM    3  C3  UNL     1      17.257   1.816  15.072  1.00  0.00     0.287 C 
HETATM    4  O2  UNL     1      17.716   1.152  16.024  1.00  0.00    -0.260 OA
BRANCH   3   5
HETATM    5  O1  UNL     1      16.761   3.069  15.331  1.00  0.00    -0.278 OA
BRANCH   5   6
HETATM    6  C2  UNL     1      17.287   4.252  14.897  1.00  0.00     0.086 C 
HETATM    7  C1  UNL     1      18.740   4.540  14.898  1.00  0.00     0.079 C 
HETATM    8  C8  UNL     1      16.474   5.188  14.454  1.00  0.00     0.132 C 
HETATM    9 CL1  UNL     1      14.744   4.902  14.431  1.00  0.00    -0.068 Cl
HETATM   10 CL2  UNL     1      17.126   6.734  13.883  1.00  0.00    -0.068 Cl
ENDBRANCH   5   6
ENDBRANCH   3   5
ENDBRANCH   1   3
BRANCH   2  11
HETATM   11  C6  UNL     1      17.195  -0.367  11.987  1.00  0.00     0.229 A 
HETATM   12  O3  UNL     1      18.315   0.021  11.191  1.00  0.00    -0.318 OA
HETATM   13  C7  UNL     1      17.979  -1.372  11.464  1.00  0.00     0.172 A 
HETATM   14  N1  UNL     1      18.510  -2.501  11.122  1.00  0.00    -0.248 N 
ATOM     15  H1  UNL     1      19.345  -2.488  10.537  1.00  0.00     0.196 HD
BRANCH  14  16
HETATM   16  O4  UNL     1      18.007  -3.701  11.507  1.00  0.00    -0.288 OA
ATOM     17  H4  UNL     1      17.995  -4.463  10.939  1.00  0.00     0.244 HD
ENDBRANCH  14  16
ENDBRANCH   2  11
TORSDOF 5
ENDMDL
