MODEL 1
REMARK VINA RESULT: -6.239728835      0.000      0.000
REMARK  4 active torsions:
REMARK  status: ('A' for Active; 'I' for Inactive)
REMARK    1  A    between atoms: N1_1  and  C1_5 
REMARK    2  A    between atoms: C1_5  and  C2_6 
REMARK    3  A    between atoms: C2_6  and  C3_7 
REMARK    4  A    between atoms: C2_6  and  N2_9 
ROOT
HETATM    1  C1  UNL     1      17.101   3.310  13.544  1.00  0.00     0.148 C 
HETATM    2  C6  UNL     1      17.449   3.841  14.930  1.00  0.00     0.041 C 
HETATM    3  C7  UNL     1      17.874   5.258  14.736  1.00  0.00     0.002 C 
HETATM    4  C8  UNL     1      16.839   6.285  14.904  1.00  0.00     0.000 C 
HETATM    5  C9  UNL     1      15.432   5.928  14.707  1.00  0.00     0.000 C 
HETATM    6  C10 UNL     1      15.101   4.783  13.844  1.00  0.00     0.002 C 
HETATM    7  C11 UNL     1      16.194   4.335  12.914  1.00  0.00     0.041 C 
ENDROOT
BRANCH   1   8
HETATM    8  N1  UNL     1      18.336   3.243  12.792  1.00  0.00    -0.068 N 
ATOM      9  H13 UNL     1      18.956   4.028  12.987  1.00  0.00     0.275 HD
ATOM     10  H12 UNL     1      18.951   2.495  13.116  1.00  0.00     0.275 HD
ATOM     11  H11 UNL     1      18.109   3.160  11.802  1.00  0.00     0.275 HD
ENDBRANCH   1   8
BRANCH   1  12
HETATM   12  C2  UNL     1      16.496   1.941  13.594  1.00  0.00     0.173 C 
BRANCH  12  13
HETATM   13  C3  UNL     1      17.201   1.107  14.642  1.00  0.00     0.252 C 
HETATM   14  F1  UNL     1      16.253   0.672  15.561  1.00  0.00    -0.253 F 
ENDBRANCH  12  13
BRANCH  12  15
HETATM   15  N2  UNL     1      16.741   1.301  12.315  1.00  0.00    -0.277 N 
HETATM   16  C4  UNL     1      16.124   1.556  11.155  1.00  0.00     0.202 A 
HETATM   17  N3  UNL     1      16.625   0.755  10.181  1.00  0.00    -0.346 N 
HETATM   18  C5  UNL     1      17.568  -0.005  10.765  1.00  0.00     0.198 A 
ATOM     19  H3  UNL     1      16.343   0.733   9.201  1.00  0.00     0.167 HD
HETATM   20  N4  UNL     1      17.624   0.342  12.062  1.00  0.00    -0.293 N 
ATOM     21  H4  UNL     1      18.253  -0.071  12.751  1.00  0.00     0.188 HD
ENDBRANCH  12  15
ENDBRANCH   1  12
TORSDOF 4
ENDMDL
MODEL 2
REMARK VINA RESULT: -5.789527102      2.388      3.418
REMARK  4 active torsions:
REMARK  status: ('A' for Active; 'I' for Inactive)
REMARK    1  A    between atoms: N1_1  and  C1_5 
REMARK    2  A    between atoms: C1_5  and  C2_6 
REMARK    3  A    between atoms: C2_6  and  C3_7 
REMARK    4  A    between atoms: C2_6  and  N2_9 
ROOT
HETATM    1  C1  UNL     1      16.592   2.085  15.351  1.00  0.00     0.148 C 
HETATM    2  C6  UNL     1      15.658   1.184  16.149  1.00  0.00     0.041 C 
HETATM    3  C7  UNL     1      15.784   1.614  17.573  1.00  0.00     0.002 C 
HETATM    4  C8  UNL     1      14.802   2.593  18.054  1.00  0.00     0.000 C 
HETATM    5  C9  UNL     1      14.141   3.482  17.095  1.00  0.00     0.000 C 
HETATM    6  C10 UNL     1      14.816   3.783  15.822  1.00  0.00     0.002 C 
HETATM    7  C11 UNL     1      16.291   3.496  15.785  1.00  0.00     0.041 C 
ENDROOT
BRANCH   1   8
HETATM    8  N1  UNL     1      17.945   1.747  15.738  1.00  0.00    -0.068 N 
ATOM      9  H13 UNL     1      18.045   1.629  16.745  1.00  0.00     0.275 HD
ATOM     10  H12 UNL     1      18.206   0.801  15.458  1.00  0.00     0.275 HD
ATOM     11  H11 UNL     1      18.576   2.454  15.362  1.00  0.00     0.275 HD
ENDBRANCH   1   8
BRANCH   1  12
HETATM   12  C2  UNL     1      16.452   1.883  13.873  1.00  0.00     0.173 C 
BRANCH  12  13
HETATM   13  C3  UNL     1      17.152   0.605  13.462  1.00  0.00     0.252 C 
HETATM   14  F1  UNL     1      16.734   0.275  12.179  1.00  0.00    -0.253 F 
ENDBRANCH  12  13
BRANCH  12  15
HETATM   15  N2  UNL     1      17.144   2.972  13.209  1.00  0.00    -0.277 N 
HETATM   16  C4  UNL     1      16.589   4.000  12.558  1.00  0.00     0.202 A 
HETATM   17  N3  UNL     1      17.560   4.814  12.070  1.00  0.00    -0.346 N 
HETATM   18  C5  UNL     1      18.731   4.264  12.434  1.00  0.00     0.198 A 
ATOM     19  H3  UNL     1      17.427   5.672  11.533  1.00  0.00     0.167 HD
HETATM   20  N4  UNL     1      18.458   3.145  13.126  1.00  0.00    -0.293 N 
ATOM     21  H4  UNL     1      19.157   2.521  13.528  1.00  0.00     0.188 HD
ENDBRANCH  12  15
ENDBRANCH   1  12
TORSDOF 4
ENDMDL
MODEL 3
REMARK VINA RESULT: -5.673247516      2.126      2.726
REMARK  4 active torsions:
REMARK  status: ('A' for Active; 'I' for Inactive)
REMARK    1  A    between atoms: N1_1  and  C1_5 
REMARK    2  A    between atoms: C1_5  and  C2_6 
REMARK    3  A    between atoms: C2_6  and  C3_7 
REMARK    4  A    between atoms: C2_6  and  N2_9 
ROOT
HETATM    1  C1  UNL     1      16.832   3.564  13.640  1.00  0.00     0.148 C 
HETATM    2  C6  UNL     1      15.357   3.332  13.939  1.00  0.00     0.041 C 
HETATM    3  C7  UNL     1      15.222   3.387  15.425  1.00  0.00     0.002 C 
HETATM    4  C8  UNL     1      14.853   4.683  16.005  1.00  0.00     0.000 C 
HETATM    5  C9  UNL     1      15.153   5.914  15.269  1.00  0.00     0.000 C 
HETATM    6  C10 UNL     1      16.255   5.909  14.294  1.00  0.00     0.002 C 
HETATM    7  C11 UNL     1      17.238   4.781  14.431  1.00  0.00     0.041 C 
ENDROOT
BRANCH   1   8
HETATM    8  N1  UNL     1      17.555   2.412  14.134  1.00  0.00    -0.068 N 
ATOM      9  H13 UNL     1      17.380   2.237  15.123  1.00  0.00     0.275 HD
ATOM     10  H12 UNL     1      17.187   1.533  13.769  1.00  0.00     0.275 HD
ATOM     11  H11 UNL     1      18.545   2.537  13.928  1.00  0.00     0.275 HD
ENDBRANCH   1   8
BRANCH   1  12
HETATM   12  C2  UNL     1      17.100   3.702  12.172  1.00  0.00     0.173 C 
BRANCH  12  13
HETATM   13  C3  UNL     1      15.793   3.683  11.408  1.00  0.00     0.252 C 
HETATM   14  F1  UNL     1      15.447   4.995  11.106  1.00  0.00    -0.253 F 
ENDBRANCH  12  13
BRANCH  12  15
HETATM   15  N2  UNL     1      17.851   2.536  11.746  1.00  0.00    -0.277 N 
HETATM   16  C4  UNL     1      17.353   1.360  11.347  1.00  0.00     0.202 A 
HETATM   17  N3  UNL     1      18.367   0.515  11.028  1.00  0.00    -0.346 N 
HETATM   18  C5  UNL     1      19.506   1.197  11.240  1.00  0.00     0.198 A 
ATOM     19  H3  UNL     1      18.282  -0.445  10.695  1.00  0.00     0.167 HD
HETATM   20  N4  UNL     1      19.172   2.423  11.676  1.00  0.00    -0.293 N 
ATOM     21  H4  UNL     1      19.835   3.159  11.917  1.00  0.00     0.188 HD
ENDBRANCH  12  15
ENDBRANCH   1  12
TORSDOF 4
ENDMDL
MODEL 4
REMARK VINA RESULT: -5.665195996      1.889      2.577
REMARK  4 active torsions:
REMARK  status: ('A' for Active; 'I' for Inactive)
REMARK    1  A    between atoms: N1_1  and  C1_5 
REMARK    2  A    between atoms: C1_5  and  C2_6 
REMARK    3  A    between atoms: C2_6  and  C3_7 
REMARK    4  A    between atoms: C2_6  and  N2_9 
ROOT
HETATM    1  C1  UNL     1      16.952   3.368  13.801  1.00  0.00     0.148 C 
HETATM    2  C6  UNL     1      15.705   4.151  13.407  1.00  0.00     0.041 C 
HETATM    3  C7  UNL     1      15.012   4.496  14.683  1.00  0.00     0.002 C 
HETATM    4  C8  UNL     1      15.318   5.809  15.263  1.00  0.00     0.000 C 
HETATM    5  C9  UNL     1      16.590   6.460  14.943  1.00  0.00     0.000 C 
HETATM    6  C10 UNL     1      17.734   5.627  14.538  1.00  0.00     0.002 C 
HETATM    7  C11 UNL     1      17.629   4.168  14.883  1.00  0.00     0.041 C 
ENDROOT
BRANCH   1   8
HETATM    8  N1  UNL     1      16.506   2.106  14.351  1.00  0.00    -0.068 N 
ATOM      9  H13 UNL     1      15.635   2.193  14.873  1.00  0.00     0.275 HD
ATOM     10  H12 UNL     1      16.176   1.461  13.633  1.00  0.00     0.275 HD
ATOM     11  H11 UNL     1      17.260   1.712  14.913  1.00  0.00     0.275 HD
ENDBRANCH   1   8
BRANCH   1  12
HETATM   12  C2  UNL     1      17.844   3.091  12.630  1.00  0.00     0.173 C 
BRANCH  12  13
HETATM   13  C3  UNL     1      17.759   4.232  11.639  1.00  0.00     0.252 C 
HETATM   14  F1  UNL     1      19.021   4.802  11.523  1.00  0.00    -0.253 F 
ENDBRANCH  12  13
BRANCH  12  15
HETATM   15  N2  UNL     1      17.336   1.911  11.955  1.00  0.00    -0.277 N 
HETATM   16  C4  UNL     1      16.417   1.872  10.984  1.00  0.00     0.202 A 
HETATM   17  N3  UNL     1      16.202   0.587  10.604  1.00  0.00    -0.346 N 
HETATM   18  C5  UNL     1      17.011  -0.171  11.365  1.00  0.00     0.198 A 
ATOM     19  H3  UNL     1      15.555   0.261   9.886  1.00  0.00     0.167 HD
HETATM   20  N4  UNL     1      17.692   0.652  12.179  1.00  0.00    -0.293 N 
ATOM     21  H4  UNL     1      18.383   0.353  12.868  1.00  0.00     0.188 HD
ENDBRANCH  12  15
ENDBRANCH   1  12
TORSDOF 4
ENDMDL
MODEL 5
REMARK VINA RESULT: -5.638289204      2.390      3.223
REMARK  4 active torsions:
REMARK  status: ('A' for Active; 'I' for Inactive)
REMARK    1  A    between atoms: N1_1  and  C1_5 
REMARK    2  A    between atoms: C1_5  and  C2_6 
REMARK    3  A    between atoms: C2_6  and  C3_7 
REMARK    4  A    between atoms: C2_6  and  N2_9 
ROOT
HETATM    1  C1  UNL     1      17.252   3.525  14.153  1.00  0.00     0.148 C 
HETATM    2  C6  UNL     1      17.072   2.107  14.680  1.00  0.00     0.041 C 
HETATM    3  C7  UNL     1      17.175   2.202  16.167  1.00  0.00     0.002 C 
HETATM    4  C8  UNL     1      15.914   2.341  16.905  1.00  0.00     0.000 C 
HETATM    5  C9  UNL     1      14.744   2.910  16.232  1.00  0.00     0.000 C 
HETATM    6  C10 UNL     1      14.949   3.810  15.086  1.00  0.00     0.002 C 
HETATM    7  C11 UNL     1      16.326   4.397  14.960  1.00  0.00     0.041 C 
ENDROOT
BRANCH   1   8
HETATM    8  N1  UNL     1      18.622   3.910  14.421  1.00  0.00    -0.068 N 
ATOM      9  H13 UNL     1      18.686   4.759  14.981  1.00  0.00     0.275 HD
ATOM     10  H12 UNL     1      19.085   3.276  15.074  1.00  0.00     0.275 HD
ATOM     11  H11 UNL     1      19.117   3.987  13.534  1.00  0.00     0.275 HD
ENDBRANCH   1   8
BRANCH   1  12
HETATM   12  C2  UNL     1      17.010   3.619  12.678  1.00  0.00     0.173 C 
BRANCH  12  13
HETATM   13  C3  UNL     1      16.246   2.401  12.205  1.00  0.00     0.252 C 
HETATM   14  F1  UNL     1      15.285   2.818  11.291  1.00  0.00    -0.253 F 
ENDBRANCH  12  13
BRANCH  12  15
HETATM   15  N2  UNL     1      18.299   3.588  12.013  1.00  0.00    -0.277 N 
HETATM   16  C4  UNL     1      18.953   4.625  11.476  1.00  0.00     0.202 A 
HETATM   17  N3  UNL     1      20.129   4.202  10.944  1.00  0.00    -0.346 N 
HETATM   18  C5  UNL     1      20.187   2.877  11.165  1.00  0.00     0.198 A 
ATOM     19  H3  UNL     1      20.828   4.775  10.472  1.00  0.00     0.167 HD
HETATM   20  N4  UNL     1      19.067   2.523  11.816  1.00  0.00    -0.293 N 
ATOM     21  H4  UNL     1      18.839   1.574  12.115  1.00  0.00     0.188 HD
ENDBRANCH  12  15
ENDBRANCH   1  12
TORSDOF 4
ENDMDL
