MODEL 1
REMARK VINA RESULT: -6.681767584      0.000      0.000
REMARK  8 active torsions:
REMARK  status: ('A' for Active; 'I' for Inactive)
REMARK    1  A    between atoms: N2_6  and  C4_8 
REMARK    2  A    between atoms: C4_8  and  C6_10 
REMARK    3  A    between atoms: C6_10  and  C7_11 
REMARK    4  A    between atoms: C7_11  and  C8_12 
REMARK    5  A    between atoms: C8_12  and  C9_13 
REMARK    6  A    between atoms: C9_13  and  C10_14 
REMARK    7  A    between atoms: C10_14  and  C11_15 
REMARK    8  A    between atoms: C13_19  and  N4_20 
ROOT
HETATM    1  C1  UNL     1      15.080   6.701  12.673  1.00  0.00     0.064 C 
HETATM    2  C2  UNL     1      15.865   5.782  13.214  1.00  0.00     0.127 A 
HETATM    3  N1  UNL     1      17.178   5.539  12.712  1.00  0.00    -0.177 N 
ATOM      4  H1  UNL     1      17.547   6.068  11.922  1.00  0.00     0.185 HD
HETATM    5  C3  UNL     1      17.951   4.534  13.350  1.00  0.00     0.694 A 
HETATM    6  N2  UNL     1      19.143   4.294  12.915  1.00  0.00    -0.221 N 
ATOM      7  H2  UNL     1      19.685   3.569  13.385  1.00  0.00     0.178 HD
HETATM    8  N3  UNL     1      17.397   3.827  14.441  1.00  0.00    -0.022 N 
ATOM      9  H3  UNL     1      17.978   3.112  14.877  1.00  0.00     0.203 HD
HETATM   10  C13 UNL     1      16.226   4.008  14.927  1.00  0.00     0.696 A 
HETATM   11  N5  UNL     1      15.419   5.009  14.313  1.00  0.00    -0.176 N 
ATOM     12  H5  UNL     1      14.482   5.174  14.680  1.00  0.00     0.185 HD
ENDROOT
BRANCH   6  13
HETATM   13  C4  UNL     1      19.758   4.987  11.805  1.00  0.00     0.095 C 
HETATM   14  C5  UNL     1      20.784   5.938  12.441  1.00  0.00     0.032 C 
BRANCH  13  15
HETATM   15  C6  UNL     1      20.496   3.965  10.932  1.00  0.00     0.025 C 
BRANCH  15  16
HETATM   16  C7  UNL     1      19.534   2.948  10.375  1.00  0.00     0.002 C 
BRANCH  16  17
HETATM   17  C8  UNL     1      19.757   1.573  10.958  1.00  0.00     0.000 C 
BRANCH  17  18
HETATM   18  C9  UNL     1      18.448   1.063  11.495  1.00  0.00     0.000 C 
BRANCH  18  19
HETATM   19  C10 UNL     1      17.692   0.244  10.443  1.00  0.00    -0.000 C 
BRANCH  19  20
HETATM   20  C11 UNL     1      16.236   0.648  10.598  1.00  0.00    -0.005 C 
HETATM   21  C12 UNL     1      16.097   2.013  11.226  1.00  0.00     0.005 C 
ENDBRANCH  19  20
ENDBRANCH  18  19
ENDBRANCH  17  18
ENDBRANCH  16  17
ENDBRANCH  15  16
ENDBRANCH  13  15
ENDBRANCH   6  13
BRANCH  10  22
HETATM   22  N4  UNL     1      15.720   3.263  16.031  1.00  0.00    -0.217 N 
HETATM   23  C14 UNL     1      14.451   3.559  16.666  1.00  0.00     0.141 C 
HETATM   24  C15 UNL     1      13.574   2.356  16.821  1.00  0.00     0.020 C 
HETATM   25  C16 UNL     1      14.322   1.108  17.202  1.00  0.00     0.003 C 
HETATM   26  C17 UNL     1      15.721   1.492  17.657  1.00  0.00     0.020 C 
HETATM   27  C18 UNL     1      16.495   2.156  16.557  1.00  0.00     0.141 C 
ENDBRANCH  10  22
TORSDOF 8
ENDMDL
MODEL 2
REMARK VINA RESULT: -6.678688913      1.805      7.164
REMARK  8 active torsions:
REMARK  status: ('A' for Active; 'I' for Inactive)
REMARK    1  A    between atoms: N2_6  and  C4_8 
REMARK    2  A    between atoms: C4_8  and  C6_10 
REMARK    3  A    between atoms: C6_10  and  C7_11 
REMARK    4  A    between atoms: C7_11  and  C8_12 
REMARK    5  A    between atoms: C8_12  and  C9_13 
REMARK    6  A    between atoms: C9_13  and  C10_14 
REMARK    7  A    between atoms: C10_14  and  C11_15 
REMARK    8  A    between atoms: C13_19  and  N4_20 
ROOT
HETATM    1  C1  UNL     1      17.750  -0.179  10.981  1.00  0.00     0.064 C 
HETATM    2  C2  UNL     1      18.055   1.008  11.482  1.00  0.00     0.127 A 
HETATM    3  N1  UNL     1      17.439   1.489  12.676  1.00  0.00    -0.177 N 
ATOM      4  H1  UNL     1      16.748   0.929  13.176  1.00  0.00     0.185 HD
HETATM    5  C3  UNL     1      17.823   2.773  13.143  1.00  0.00     0.694 A 
HETATM    6  N2  UNL     1      17.281   3.231  14.222  1.00  0.00    -0.221 N 
ATOM      7  H2  UNL     1      17.567   4.156  14.544  1.00  0.00     0.178 HD
HETATM    8  N3  UNL     1      18.784   3.512  12.418  1.00  0.00    -0.022 N 
ATOM      9  H3  UNL     1      19.038   4.430  12.780  1.00  0.00     0.203 HD
HETATM   10  C13 UNL     1      19.364   3.124  11.343  1.00  0.00     0.696 A 
HETATM   11  N5  UNL     1      19.005   1.840  10.842  1.00  0.00    -0.176 N 
ATOM     12  H5  UNL     1      19.451   1.506   9.988  1.00  0.00     0.185 HD
ENDROOT
BRANCH   6  13
HETATM   13  C4  UNL     1      16.294   2.519  15.003  1.00  0.00     0.095 C 
HETATM   14  C5  UNL     1      17.055   1.988  16.227  1.00  0.00     0.032 C 
BRANCH  13  15
HETATM   15  C6  UNL     1      15.222   3.511  15.470  1.00  0.00     0.025 C 
BRANCH  15  16
HETATM   16  C7  UNL     1      14.685   4.301  14.304  1.00  0.00     0.002 C 
BRANCH  16  17
HETATM   17  C8  UNL     1      14.902   5.787  14.475  1.00  0.00     0.000 C 
BRANCH  17  18
HETATM   18  C9  UNL     1      14.480   6.480  13.209  1.00  0.00     0.000 C 
BRANCH  18  19
HETATM   19  C10 UNL     1      15.691   6.892  12.365  1.00  0.00    -0.000 C 
BRANCH  19  20
HETATM   20  C11 UNL     1      15.138   7.840  11.315  1.00  0.00    -0.005 C 
HETATM   21  C12 UNL     1      13.739   8.294  11.649  1.00  0.00     0.005 C 
ENDBRANCH  19  20
ENDBRANCH  18  19
ENDBRANCH  17  18
ENDBRANCH  16  17
ENDBRANCH  15  16
ENDBRANCH  13  15
ENDBRANCH   6  13
BRANCH  10  22
HETATM   22  N4  UNL     1      20.328   3.914  10.653  1.00  0.00    -0.217 N 
HETATM   23  C14 UNL     1      21.230   4.825  11.329  1.00  0.00     0.141 C 
HETATM   24  C15 UNL     1      22.661   4.644  10.931  1.00  0.00     0.020 C 
HETATM   25  C16 UNL     1      22.850   4.363   9.466  1.00  0.00     0.003 C 
HETATM   26  C17 UNL     1      21.556   4.681   8.734  1.00  0.00     0.020 C 
HETATM   27  C18 UNL     1      20.426   3.816   9.210  1.00  0.00     0.141 C 
ENDBRANCH  10  22
TORSDOF 8
ENDMDL
MODEL 3
REMARK VINA RESULT: -6.543728749      1.832      7.080
REMARK  8 active torsions:
REMARK  status: ('A' for Active; 'I' for Inactive)
REMARK    1  A    between atoms: N2_6  and  C4_8 
REMARK    2  A    between atoms: C4_8  and  C6_10 
REMARK    3  A    between atoms: C6_10  and  C7_11 
REMARK    4  A    between atoms: C7_11  and  C8_12 
REMARK    5  A    between atoms: C8_12  and  C9_13 
REMARK    6  A    between atoms: C9_13  and  C10_14 
REMARK    7  A    between atoms: C10_14  and  C11_15 
REMARK    8  A    between atoms: C13_19  and  N4_20 
ROOT
HETATM    1  C1  UNL     1      17.677  -0.252  10.989  1.00  0.00     0.064 C 
HETATM    2  C2  UNL     1      17.986   0.931  11.497  1.00  0.00     0.127 A 
HETATM    3  N1  UNL     1      17.387   1.400  12.703  1.00  0.00    -0.177 N 
ATOM      4  H1  UNL     1      16.704   0.835  13.207  1.00  0.00     0.185 HD
HETATM    5  C3  UNL     1      17.775   2.681  13.175  1.00  0.00     0.694 A 
HETATM    6  N2  UNL     1      17.247   3.130  14.265  1.00  0.00    -0.221 N 
ATOM      7  H2  UNL     1      17.537   4.051  14.591  1.00  0.00     0.178 HD
HETATM    8  N3  UNL     1      18.725   3.427  12.443  1.00  0.00    -0.022 N 
ATOM      9  H3  UNL     1      18.983   4.344  12.809  1.00  0.00     0.203 HD
HETATM   10  C13 UNL     1      19.290   3.050  11.358  1.00  0.00     0.696 A 
HETATM   11  N5  UNL     1      18.927   1.769  10.850  1.00  0.00    -0.176 N 
ATOM     12  H5  UNL     1      19.361   1.444   9.988  1.00  0.00     0.185 HD
ENDROOT
BRANCH   6  13
HETATM   13  C4  UNL     1      16.272   2.409  15.053  1.00  0.00     0.095 C 
HETATM   14  C5  UNL     1      17.050   1.870  16.264  1.00  0.00     0.032 C 
BRANCH  13  15
HETATM   15  C6  UNL     1      15.205   3.395  15.542  1.00  0.00     0.025 C 
BRANCH  15  16
HETATM   16  C7  UNL     1      14.708   4.249  14.404  1.00  0.00     0.002 C 
BRANCH  16  17
HETATM   17  C8  UNL     1      15.061   5.706  14.589  1.00  0.00     0.000 C 
BRANCH  17  18
HETATM   18  C9  UNL     1      15.276   6.322  13.234  1.00  0.00     0.000 C 
BRANCH  18  19
HETATM   19  C10 UNL     1      16.768   6.493  12.927  1.00  0.00    -0.000 C 
BRANCH  19  20
HETATM   20  C11 UNL     1      17.432   6.685  14.279  1.00  0.00    -0.005 C 
HETATM   21  C12 UNL     1      18.934   6.579  14.188  1.00  0.00     0.005 C 
ENDBRANCH  19  20
ENDBRANCH  18  19
ENDBRANCH  17  18
ENDBRANCH  16  17
ENDBRANCH  15  16
ENDBRANCH  13  15
ENDBRANCH   6  13
BRANCH  10  22
HETATM   22  N4  UNL     1      20.244   3.847  10.661  1.00  0.00    -0.217 N 
HETATM   23  C14 UNL     1      21.124   4.786  11.328  1.00  0.00     0.141 C 
HETATM   24  C15 UNL     1      22.562   4.625  10.941  1.00  0.00     0.020 C 
HETATM   25  C16 UNL     1      22.764   4.326   9.481  1.00  0.00     0.003 C 
HETATM   26  C17 UNL     1      21.469   4.608   8.737  1.00  0.00     0.020 C 
HETATM   27  C18 UNL     1      20.353   3.729   9.220  1.00  0.00     0.141 C 
ENDBRANCH  10  22
TORSDOF 8
ENDMDL
MODEL 4
REMARK VINA RESULT: -6.527045389      2.345      4.824
REMARK  8 active torsions:
REMARK  status: ('A' for Active; 'I' for Inactive)
REMARK    1  A    between atoms: N2_6  and  C4_8 
REMARK    2  A    between atoms: C4_8  and  C6_10 
REMARK    3  A    between atoms: C6_10  and  C7_11 
REMARK    4  A    between atoms: C7_11  and  C8_12 
REMARK    5  A    between atoms: C8_12  and  C9_13 
REMARK    6  A    between atoms: C9_13  and  C10_14 
REMARK    7  A    between atoms: C10_14  and  C11_15 
REMARK    8  A    between atoms: C13_19  and  N4_20 
ROOT
HETATM    1  C1  UNL     1      17.448  -0.633  11.529  1.00  0.00     0.064 C 
HETATM    2  C2  UNL     1      17.497   0.567  12.086  1.00  0.00     0.127 A 
HETATM    3  N1  UNL     1      18.166   1.654  11.448  1.00  0.00    -0.177 N 
ATOM      4  H1  UNL     1      18.623   1.535  10.544  1.00  0.00     0.185 HD
HETATM    5  C3  UNL     1      18.172   2.906  12.116  1.00  0.00     0.694 A 
HETATM    6  N2  UNL     1      18.770   3.906  11.560  1.00  0.00    -0.221 N 
ATOM      7  H2  UNL     1      18.764   4.799  12.053  1.00  0.00     0.178 HD
HETATM    8  N3  UNL     1      17.524   3.023  13.367  1.00  0.00    -0.022 N 
ATOM      9  H3  UNL     1      17.547   3.936  13.820  1.00  0.00     0.203 HD
HETATM   10  C13 UNL     1      16.912   2.080  13.978  1.00  0.00     0.696 A 
HETATM   11  N5  UNL     1      16.884   0.806  13.340  1.00  0.00    -0.176 N 
ATOM     12  H5  UNL     1      16.404   0.036  13.805  1.00  0.00     0.185 HD
ENDROOT
BRANCH   6  13
HETATM   13  C4  UNL     1      19.446   3.842  10.283  1.00  0.00     0.095 C 
HETATM   14  C5  UNL     1      19.181   5.202   9.618  1.00  0.00     0.032 C 
BRANCH  13  15
HETATM   15  C6  UNL     1      20.952   3.690  10.529  1.00  0.00     0.025 C 
BRANCH  15  16
HETATM   16  C7  UNL     1      21.739   4.271   9.383  1.00  0.00     0.002 C 
BRANCH  16  17
HETATM   17  C8  UNL     1      23.083   4.801   9.826  1.00  0.00     0.000 C 
BRANCH  17  18
HETATM   18  C9  UNL     1      23.056   4.986  11.317  1.00  0.00     0.000 C 
BRANCH  18  19
HETATM   19  C10 UNL     1      23.827   6.242  11.740  1.00  0.00    -0.000 C 
BRANCH  19  20
HETATM   20  C11 UNL     1      24.972   5.734  12.598  1.00  0.00    -0.005 C 
HETATM   21  C12 UNL     1      26.290   5.787  11.864  1.00  0.00     0.005 C 
ENDBRANCH  19  20
ENDBRANCH  18  19
ENDBRANCH  17  18
ENDBRANCH  16  17
ENDBRANCH  15  16
ENDBRANCH  13  15
ENDBRANCH   6  13
BRANCH  10  22
HETATM   22  N4  UNL     1      16.276   2.257  15.241  1.00  0.00    -0.217 N 
HETATM   23  C14 UNL     1      15.728   3.526  15.676  1.00  0.00     0.141 C 
HETATM   24  C15 UNL     1      14.323   3.422  16.180  1.00  0.00     0.020 C 
HETATM   25  C16 UNL     1      14.064   2.183  16.993  1.00  0.00     0.003 C 
HETATM   26  C17 UNL     1      15.395   1.550  17.363  1.00  0.00     0.020 C 
HETATM   27  C18 UNL     1      16.163   1.129  16.145  1.00  0.00     0.141 C 
ENDBRANCH  10  22
TORSDOF 8
ENDMDL
MODEL 5
REMARK VINA RESULT: -6.513473054      2.968      6.000
REMARK  8 active torsions:
REMARK  status: ('A' for Active; 'I' for Inactive)
REMARK    1  A    between atoms: N2_6  and  C4_8 
REMARK    2  A    between atoms: C4_8  and  C6_10 
REMARK    3  A    between atoms: C6_10  and  C7_11 
REMARK    4  A    between atoms: C7_11  and  C8_12 
REMARK    5  A    between atoms: C8_12  and  C9_13 
REMARK    6  A    between atoms: C9_13  and  C10_14 
REMARK    7  A    between atoms: C10_14  and  C11_15 
REMARK    8  A    between atoms: C13_19  and  N4_20 
ROOT
HETATM    1  C1  UNL     1      14.994   5.454  14.944  1.00  0.00     0.064 C 
HETATM    2  C2  UNL     1      15.802   5.321  13.903  1.00  0.00     0.127 A 
HETATM    3  N1  UNL     1      16.192   6.446  13.118  1.00  0.00    -0.177 N 
ATOM      4  H1  UNL     1      15.859   7.385  13.339  1.00  0.00     0.185 HD
HETATM    5  C3  UNL     1      17.059   6.213  12.019  1.00  0.00     0.694 A 
HETATM    6  N2  UNL     1      17.427   7.215  11.292  1.00  0.00    -0.221 N 
ATOM      7  H2  UNL     1      18.050   7.030  10.507  1.00  0.00     0.178 HD
HETATM    8  N3  UNL     1      17.494   4.896  11.752  1.00  0.00    -0.022 N 
ATOM      9  H3  UNL     1      18.117   4.762  10.955  1.00  0.00     0.203 HD
HETATM   10  C13 UNL     1      17.173   3.856  12.425  1.00  0.00     0.696 A 
HETATM   11  N5  UNL     1      16.303   4.048  13.537  1.00  0.00    -0.176 N 
ATOM     12  H5  UNL     1      16.030   3.237  14.091  1.00  0.00     0.185 HD
ENDROOT
BRANCH   6  13
HETATM   13  C4  UNL     1      17.013   8.582  11.521  1.00  0.00     0.095 C 
HETATM   14  C5  UNL     1      18.292   9.421  11.373  1.00  0.00     0.032 C 
BRANCH  13  15
HETATM   15  C6  UNL     1      16.018   8.987  10.427  1.00  0.00     0.025 C 
BRANCH  15  16
HETATM   16  C7  UNL     1      14.647   9.210  11.011  1.00  0.00     0.002 C 
BRANCH  16  17
HETATM   17  C8  UNL     1      13.630   8.233  10.468  1.00  0.00     0.000 C 
BRANCH  17  18
HETATM   18  C9  UNL     1      14.198   7.590   9.233  1.00  0.00     0.000 C 
BRANCH  18  19
HETATM   19  C10 UNL     1      13.115   7.360   8.172  1.00  0.00    -0.000 C 
BRANCH  19  20
HETATM   20  C11 UNL     1      12.127   8.498   8.362  1.00  0.00    -0.005 C 
HETATM   21  C12 UNL     1      12.320   9.586   7.334  1.00  0.00     0.005 C 
ENDBRANCH  19  20
ENDBRANCH  18  19
ENDBRANCH  17  18
ENDBRANCH  16  17
ENDBRANCH  15  16
ENDBRANCH  13  15
ENDBRANCH   6  13
BRANCH  10  22
HETATM   22  N4  UNL     1      17.644   2.549  12.108  1.00  0.00    -0.217 N 
HETATM   23  C14 UNL     1      16.988   1.341  12.569  1.00  0.00     0.141 C 
HETATM   24  C15 UNL     1      16.726   0.356  11.473  1.00  0.00     0.020 C 
HETATM   25  C16 UNL     1      17.842   0.259  10.469  1.00  0.00     0.003 C 
HETATM   26  C17 UNL     1      19.076   0.942  11.036  1.00  0.00     0.020 C 
HETATM   27  C18 UNL     1      18.831   2.400  11.288  1.00  0.00     0.141 C 
ENDBRANCH  10  22
TORSDOF 8
ENDMDL
