MODEL 1
REMARK VINA RESULT: -6.219895072      0.000      0.000
REMARK  3 active torsions:
REMARK  status: ('A' for Active; 'I' for Inactive)
REMARK    1  A    between atoms: C1_2  and  C2_4 
REMARK    2  A    between atoms: C2_4  and  N1_5 
REMARK    3  A    between atoms: N1_5  and  C3_7 
ROOT
HETATM    1  C3  UNL     1      15.997   3.552  15.042  1.00  0.00     0.030 C 
HETATM    2  C4  UNL     1      15.187   4.706  15.500  1.00  0.00     0.035 C 
HETATM    3  C5  UNL     1      15.719   5.953  14.802  1.00  0.00    -0.012 C 
HETATM    4  C6  UNL     1      17.150   6.248  15.157  1.00  0.00     0.009 C 
HETATM    5  C7  UNL     1      17.990   5.053  14.749  1.00  0.00    -0.012 C 
HETATM    6  C8  UNL     1      17.933   4.796  13.272  1.00  0.00     0.009 C 
HETATM    7  C9  UNL     1      16.485   4.638  12.845  1.00  0.00    -0.012 C 
HETATM    8  C10 UNL     1      15.669   5.821  13.284  1.00  0.00     0.009 C 
HETATM    9  C11 UNL     1      15.885   3.425  13.521  1.00  0.00     0.035 C 
HETATM   10  C12 UNL     1      17.446   3.857  15.454  1.00  0.00     0.035 C 
ENDROOT
BRANCH   1  11
HETATM   11  N1  UNL     1      15.716   2.268  15.593  1.00  0.00    -0.388 N 
ATOM     12  H1  UNL     1      15.168   1.580  15.076  1.00  0.00     0.159 HD
BRANCH  11  13
HETATM   13  C2  UNL     1      16.220   1.985  16.871  1.00  0.00     0.126 C 
BRANCH  13  14
HETATM   14  C1  UNL     1      15.065   1.594  17.785  1.00  0.00     0.391 C 
HETATM   15  F1  UNL     1      14.811   2.521  18.768  1.00  0.00    -0.209 F 
HETATM   16  F2  UNL     1      13.921   1.338  17.051  1.00  0.00    -0.209 F 
ENDBRANCH  13  14
ENDBRANCH  11  13
ENDBRANCH   1  11
TORSDOF 3
ENDMDL
MODEL 2
REMARK VINA RESULT: -6.203331678      0.302      1.956
REMARK  3 active torsions:
REMARK  status: ('A' for Active; 'I' for Inactive)
REMARK    1  A    between atoms: C1_2  and  C2_4 
REMARK    2  A    between atoms: C2_4  and  N1_5 
REMARK    3  A    between atoms: N1_5  and  C3_7 
ROOT
HETATM    1  C3  UNL     1      16.031   3.579  15.182  1.00  0.00     0.030 C 
HETATM    2  C4  UNL     1      17.459   3.882  15.435  1.00  0.00     0.035 C 
HETATM    3  C5  UNL     1      17.777   5.215  14.766  1.00  0.00    -0.012 C 
HETATM    4  C6  UNL     1      17.591   5.172  13.275  1.00  0.00     0.009 C 
HETATM    5  C7  UNL     1      16.146   4.805  12.993  1.00  0.00    -0.012 C 
HETATM    6  C8  UNL     1      15.185   5.819  13.541  1.00  0.00     0.009 C 
HETATM    7  C9  UNL     1      15.439   6.002  15.027  1.00  0.00    -0.012 C 
HETATM    8  C10 UNL     1      16.882   6.338  15.281  1.00  0.00     0.009 C 
HETATM    9  C11 UNL     1      15.164   4.704  15.752  1.00  0.00     0.035 C 
HETATM   10  C12 UNL     1      15.875   3.497  13.655  1.00  0.00     0.035 C 
ENDROOT
BRANCH   1  11
HETATM   11  N1  UNL     1      15.503   2.351  15.676  1.00  0.00    -0.388 N 
ATOM     12  H1  UNL     1      14.723   1.885  15.212  1.00  0.00     0.159 HD
BRANCH  11  13
HETATM   13  C2  UNL     1      16.096   1.805  16.825  1.00  0.00     0.126 C 
BRANCH  13  14
HETATM   14  C1  UNL     1      15.014   1.544  17.865  1.00  0.00     0.391 C 
HETATM   15  F1  UNL     1      14.976   2.492  18.860  1.00  0.00    -0.209 F 
HETATM   16  F2  UNL     1      13.774   1.420  17.266  1.00  0.00    -0.209 F 
ENDBRANCH  13  14
ENDBRANCH  11  13
ENDBRANCH   1  11
TORSDOF 3
ENDMDL
MODEL 3
REMARK VINA RESULT: -6.181058720      0.425      1.931
REMARK  3 active torsions:
REMARK  status: ('A' for Active; 'I' for Inactive)
REMARK    1  A    between atoms: C1_2  and  C2_4 
REMARK    2  A    between atoms: C2_4  and  N1_5 
REMARK    3  A    between atoms: N1_5  and  C3_7 
ROOT
HETATM    1  C3  UNL     1      15.927   3.735  14.996  1.00  0.00     0.030 C 
HETATM    2  C4  UNL     1      15.817   3.420  13.552  1.00  0.00     0.035 C 
HETATM    3  C5  UNL     1      16.628   4.458  12.785  1.00  0.00    -0.012 C 
HETATM    4  C6  UNL     1      16.104   5.855  12.975  1.00  0.00     0.009 C 
HETATM    5  C7  UNL     1      16.154   6.178  14.456  1.00  0.00    -0.012 C 
HETATM    6  C8  UNL     1      17.552   6.141  14.999  1.00  0.00     0.009 C 
HETATM    7  C9  UNL     1      18.173   4.789  14.696  1.00  0.00    -0.012 C 
HETATM    8  C10 UNL     1      18.087   4.481  13.228  1.00  0.00     0.009 C 
HETATM    9  C11 UNL     1      17.400   3.703  15.411  1.00  0.00     0.035 C 
HETATM   10  C12 UNL     1      15.347   5.148  15.170  1.00  0.00     0.035 C 
ENDROOT
BRANCH   1  11
HETATM   11  N1  UNL     1      15.212   2.922  15.922  1.00  0.00    -0.388 N 
ATOM     12  H1  UNL     1      14.194   2.958  15.981  1.00  0.00     0.159 HD
BRANCH  11  13
HETATM   13  C2  UNL     1      15.959   2.070  16.749  1.00  0.00     0.126 C 
BRANCH  13  14
HETATM   14  C1  UNL     1      15.069   1.573  17.883  1.00  0.00     0.391 C 
HETATM   15  F1  UNL     1      15.065   2.407  18.976  1.00  0.00    -0.209 F 
HETATM   16  F2  UNL     1      13.779   1.353  17.435  1.00  0.00    -0.209 F 
ENDBRANCH  13  14
ENDBRANCH  11  13
ENDBRANCH   1  11
TORSDOF 3
ENDMDL
MODEL 4
REMARK VINA RESULT: -5.892197900      3.012      3.374
REMARK  3 active torsions:
REMARK  status: ('A' for Active; 'I' for Inactive)
REMARK    1  A    between atoms: C1_2  and  C2_4 
REMARK    2  A    between atoms: C2_4  and  N1_5 
REMARK    3  A    between atoms: N1_5  and  C3_7 
ROOT
HETATM    1  C3  UNL     1      16.908   4.123  13.641  1.00  0.00     0.030 C 
HETATM    2  C4  UNL     1      15.464   4.020  13.960  1.00  0.00     0.035 C 
HETATM    3  C5  UNL     1      14.946   5.428  14.231  1.00  0.00    -0.012 C 
HETATM    4  C6  UNL     1      15.615   6.072  15.413  1.00  0.00     0.009 C 
HETATM    5  C7  UNL     1      17.104   6.135  15.132  1.00  0.00    -0.012 C 
HETATM    6  C8  UNL     1      17.420   6.967  13.923  1.00  0.00     0.009 C 
HETATM    7  C9  UNL     1      16.644   6.435  12.731  1.00  0.00    -0.012 C 
HETATM    8  C10 UNL     1      15.176   6.357  13.044  1.00  0.00     0.009 C 
HETATM    9  C11 UNL     1      17.094   5.026  12.419  1.00  0.00     0.035 C 
HETATM   10  C12 UNL     1      17.575   4.744  14.879  1.00  0.00     0.035 C 
ENDROOT
BRANCH   1  11
HETATM   11  N1  UNL     1      17.632   2.922  13.391  1.00  0.00    -0.388 N 
ATOM     12  H1  UNL     1      18.605   2.945  13.083  1.00  0.00     0.159 HD
BRANCH  11  13
HETATM   13  C2  UNL     1      16.959   1.706  13.582  1.00  0.00     0.126 C 
BRANCH  13  14
HETATM   14  C1  UNL     1      16.949   0.932  12.269  1.00  0.00     0.391 C 
HETATM   15  F1  UNL     1      16.857  -0.429  12.440  1.00  0.00    -0.209 F 
HETATM   16  F2  UNL     1      15.941   1.386  11.438  1.00  0.00    -0.209 F 
ENDBRANCH  13  14
ENDBRANCH  11  13
ENDBRANCH   1  11
TORSDOF 3
ENDMDL
MODEL 5
REMARK VINA RESULT: -5.889110582      3.409      4.605
REMARK  3 active torsions:
REMARK  status: ('A' for Active; 'I' for Inactive)
REMARK    1  A    between atoms: C1_2  and  C2_4 
REMARK    2  A    between atoms: C2_4  and  N1_5 
REMARK    3  A    between atoms: N1_5  and  C3_7 
ROOT
HETATM    1  C3  UNL     1      16.716   2.848  13.239  1.00  0.00     0.030 C 
HETATM    2  C4  UNL     1      17.888   3.751  13.330  1.00  0.00     0.035 C 
HETATM    3  C5  UNL     1      17.853   4.422  14.698  1.00  0.00    -0.012 C 
HETATM    4  C6  UNL     1      16.625   5.267  14.896  1.00  0.00     0.009 C 
HETATM    5  C7  UNL     1      15.410   4.371  14.750  1.00  0.00    -0.012 C 
HETATM    6  C8  UNL     1      15.381   3.281  15.780  1.00  0.00     0.009 C 
HETATM    7  C9  UNL     1      16.675   2.489  15.711  1.00  0.00    -0.012 C 
HETATM    8  C10 UNL     1      17.862   3.402  15.832  1.00  0.00     0.009 C 
HETATM    9  C11 UNL     1      16.786   1.812  14.364  1.00  0.00     0.035 C 
HETATM   10  C12 UNL     1      15.475   3.740  13.401  1.00  0.00     0.035 C 
ENDROOT
BRANCH   1  11
HETATM   11  N1  UNL     1      16.506   2.134  12.024  1.00  0.00    -0.388 N 
ATOM     12  H1  UNL     1      16.137   2.599  11.194  1.00  0.00     0.159 HD
BRANCH  11  13
HETATM   13  C2  UNL     1      16.825   0.768  12.009  1.00  0.00     0.126 C 
BRANCH  13  14
HETATM   14  C1  UNL     1      18.023   0.547  11.094  1.00  0.00     0.391 C 
HETATM   15  F1  UNL     1      19.206   1.002  11.627  1.00  0.00    -0.209 F 
HETATM   16  F2  UNL     1      18.132  -0.784  10.737  1.00  0.00    -0.209 F 
ENDBRANCH  13  14
ENDBRANCH  11  13
ENDBRANCH   1  11
TORSDOF 3
ENDMDL
