MODEL 1
REMARK VINA RESULT: -6.860315494      0.000      0.000
REMARK  3 active torsions:
REMARK  status: ('A' for Active; 'I' for Inactive)
REMARK    1  A    between atoms: C3_8  and  C4_9 
REMARK       I    between atoms: C4_9  and  N3_11 
REMARK    2  A    between atoms: N3_11  and  N4_13 
REMARK    3  A    between atoms: C8_17  and  C9_18 
ROOT
HETATM    1  C4  UNL     1     -23.304  -3.787  79.359  1.00  0.00     0.276 C 
HETATM    2  O1  UNL     1     -24.276  -3.291  78.670  1.00  0.00    -0.266 OA
HETATM    3  N3  UNL     1     -22.779  -4.983  78.884  1.00  0.00    -0.284 N 
ATOM      4  H3  UNL     1     -22.000  -5.414  79.383  1.00  0.00     0.184 HD
ENDROOT
BRANCH   1   5
HETATM    5  C3  UNL     1     -22.904  -3.016  80.527  1.00  0.00     0.115 A 
HETATM    6  C2  UNL     1     -23.484  -2.742  81.731  1.00  0.00     0.046 A 
HETATM    7  C1  UNL     1     -24.851  -3.249  82.162  1.00  0.00     0.071 C 
HETATM    8  N1  UNL     1     -22.817  -1.958  82.545  1.00  0.00    -0.298 N 
HETATM    9  N2  UNL     1     -21.678  -1.481  82.210  1.00  0.00    -0.269 N 
ATOM     10  H1  UNL     1     -23.211  -1.726  83.457  1.00  0.00     0.187 HD
HETATM   11  S1  UNL     1     -21.421  -2.098  80.680  1.00  0.00     0.009 SA
ATOM     12  H2  UNL     1     -21.069  -0.867  82.751  1.00  0.00     0.195 HD
ENDBRANCH   1   5
BRANCH   3  13
HETATM   13  N4  UNL     1     -23.277  -5.606  77.760  1.00  0.00    -0.223 NA
HETATM   14  C5  UNL     1     -22.377  -5.899  76.700  1.00  0.00     0.114 C 
HETATM   15  C6  UNL     1     -22.855  -7.175  76.019  1.00  0.00     0.018 C 
HETATM   16  C7  UNL     1     -24.230  -7.358  76.603  1.00  0.00     0.023 C 
HETATM   17  C8  UNL     1     -24.022  -6.817  78.019  1.00  0.00     0.089 C 
BRANCH  17  18
HETATM   18  C9  UNL     1     -25.311  -6.596  78.744  1.00  0.00     0.106 C 
HETATM   19 BR1  UNL     1     -26.784  -6.960  77.538  1.00  0.00    -0.095 Br
ENDBRANCH  17  18
ENDBRANCH   3  13
TORSDOF 3
ENDMDL
MODEL 2
REMARK VINA RESULT: -6.617654166      1.223      1.606
REMARK  3 active torsions:
REMARK  status: ('A' for Active; 'I' for Inactive)
REMARK    1  A    between atoms: C3_8  and  C4_9 
REMARK       I    between atoms: C4_9  and  N3_11 
REMARK    2  A    between atoms: N3_11  and  N4_13 
REMARK    3  A    between atoms: C8_17  and  C9_18 
ROOT
HETATM    1  C4  UNL     1     -23.815  -3.870  79.398  1.00  0.00     0.276 C 
HETATM    2  O1  UNL     1     -24.551  -3.257  78.533  1.00  0.00    -0.266 OA
HETATM    3  N3  UNL     1     -23.274  -5.080  78.977  1.00  0.00    -0.284 N 
ATOM      4  H3  UNL     1     -22.673  -5.602  79.615  1.00  0.00     0.184 HD
ENDROOT
BRANCH   1   5
HETATM    5  C3  UNL     1     -23.661  -3.200  80.681  1.00  0.00     0.115 A 
HETATM    6  C2  UNL     1     -22.679  -2.442  81.247  1.00  0.00     0.046 A 
HETATM    7  C1  UNL     1     -21.364  -2.092  80.569  1.00  0.00     0.071 C 
HETATM    8  N1  UNL     1     -22.887  -2.024  82.473  1.00  0.00    -0.298 N 
HETATM    9  N2  UNL     1     -23.965  -2.323  83.095  1.00  0.00    -0.269 N 
ATOM     10  H1  UNL     1     -22.180  -1.452  82.937  1.00  0.00     0.187 HD
HETATM   11  S1  UNL     1     -24.817  -3.245  81.996  1.00  0.00     0.009 SA
ATOM     12  H2  UNL     1     -24.238  -2.060  84.042  1.00  0.00     0.195 HD
ENDBRANCH   1   5
BRANCH   3  13
HETATM   13  N4  UNL     1     -23.524  -5.597  77.723  1.00  0.00    -0.223 NA
HETATM   14  C5  UNL     1     -22.417  -5.848  76.869  1.00  0.00     0.114 C 
HETATM   15  C6  UNL     1     -22.761  -7.049  75.998  1.00  0.00     0.018 C 
HETATM   16  C7  UNL     1     -24.236  -7.217  76.246  1.00  0.00     0.023 C 
HETATM   17  C8  UNL     1     -24.337  -6.791  77.712  1.00  0.00     0.089 C 
BRANCH  17  18
HETATM   18  C9  UNL     1     -25.750  -6.569  78.150  1.00  0.00     0.106 C 
HETATM   19 BR1  UNL     1     -26.947  -7.245  76.783  1.00  0.00    -0.095 Br
ENDBRANCH  17  18
ENDBRANCH   3  13
TORSDOF 3
ENDMDL
MODEL 3
REMARK VINA RESULT: -5.949185573      1.481      2.098
REMARK  3 active torsions:
REMARK  status: ('A' for Active; 'I' for Inactive)
REMARK    1  A    between atoms: C3_8  and  C4_9 
REMARK       I    between atoms: C4_9  and  N3_11 
REMARK    2  A    between atoms: N3_11  and  N4_13 
REMARK    3  A    between atoms: C8_17  and  C9_18 
ROOT
HETATM    1  C4  UNL     1     -23.811  -4.241  79.536  1.00  0.00     0.276 C 
HETATM    2  O1  UNL     1     -24.804  -3.807  78.835  1.00  0.00    -0.266 OA
HETATM    3  N3  UNL     1     -23.472  -5.575  79.337  1.00  0.00    -0.284 N 
ATOM      4  H3  UNL     1     -22.685  -5.968  79.856  1.00  0.00     0.184 HD
ENDROOT
BRANCH   1   5
HETATM    5  C3  UNL     1     -23.195  -3.267  80.424  1.00  0.00     0.115 A 
HETATM    6  C2  UNL     1     -23.536  -2.730  81.631  1.00  0.00     0.046 A 
HETATM    7  C1  UNL     1     -24.799  -3.080  82.402  1.00  0.00     0.071 C 
HETATM    8  N1  UNL     1     -22.725  -1.825  82.127  1.00  0.00    -0.298 N 
HETATM    9  N2  UNL     1     -21.668  -1.475  81.496  1.00  0.00    -0.269 N 
ATOM     10  H1  UNL     1     -22.939  -1.397  83.028  1.00  0.00     0.187 HD
HETATM   11  S1  UNL     1     -21.707  -2.400  80.108  1.00  0.00     0.009 SA
ATOM     12  H2  UNL     1     -20.967  -0.789  81.776  1.00  0.00     0.195 HD
ENDBRANCH   1   5
BRANCH   3  13
HETATM   13  N4  UNL     1     -24.164  -6.384  78.462  1.00  0.00    -0.223 NA
HETATM   14  C5  UNL     1     -25.579  -6.448  78.583  1.00  0.00     0.114 C 
HETATM   15  C6  UNL     1     -26.158  -6.670  77.192  1.00  0.00     0.018 C 
HETATM   16  C7  UNL     1     -24.937  -7.019  76.385  1.00  0.00     0.023 C 
HETATM   17  C8  UNL     1     -23.877  -6.149  77.065  1.00  0.00     0.089 C 
BRANCH  17  18
HETATM   18  C9  UNL     1     -22.485  -6.519  76.660  1.00  0.00     0.106 C 
HETATM   19 BR1  UNL     1     -22.569  -7.774  75.185  1.00  0.00    -0.095 Br
ENDBRANCH  17  18
ENDBRANCH   3  13
TORSDOF 3
ENDMDL
MODEL 4
REMARK VINA RESULT: -5.722754986      2.500      3.381
REMARK  3 active torsions:
REMARK  status: ('A' for Active; 'I' for Inactive)
REMARK    1  A    between atoms: C3_8  and  C4_9 
REMARK       I    between atoms: C4_9  and  N3_11 
REMARK    2  A    between atoms: N3_11  and  N4_13 
REMARK    3  A    between atoms: C8_17  and  C9_18 
ROOT
HETATM    1  C4  UNL     1     -23.868  -5.853  78.644  1.00  0.00     0.276 C 
HETATM    2  O1  UNL     1     -23.566  -7.088  78.863  1.00  0.00    -0.266 OA
HETATM    3  N3  UNL     1     -25.109  -5.632  78.056  1.00  0.00    -0.284 N 
ATOM      4  H3  UNL     1     -25.404  -4.673  77.871  1.00  0.00     0.184 HD
ENDROOT
BRANCH   1   5
HETATM    5  C3  UNL     1     -22.865  -4.879  79.048  1.00  0.00     0.115 A 
HETATM    6  C2  UNL     1     -22.875  -3.784  79.861  1.00  0.00     0.046 A 
HETATM    7  C1  UNL     1     -24.097  -3.281  80.612  1.00  0.00     0.071 C 
HETATM    8  N1  UNL     1     -21.753  -3.111  79.961  1.00  0.00    -0.298 N 
HETATM    9  N2  UNL     1     -20.708  -3.478  79.320  1.00  0.00    -0.269 N 
ATOM     10  H1  UNL     1     -21.713  -2.285  80.558  1.00  0.00     0.187 HD
HETATM   11  S1  UNL     1     -21.206  -4.837  78.490  1.00  0.00     0.009 SA
ATOM     12  H2  UNL     1     -19.786  -3.041  79.317  1.00  0.00     0.195 HD
ENDBRANCH   1   5
BRANCH   3  13
HETATM   13  N4  UNL     1     -25.952  -6.668  77.714  1.00  0.00    -0.223 NA
HETATM   14  C5  UNL     1     -27.139  -6.844  78.473  1.00  0.00     0.114 C 
HETATM   15  C6  UNL     1     -28.210  -7.403  77.545  1.00  0.00     0.018 C 
HETATM   16  C7  UNL     1     -27.414  -7.788  76.327  1.00  0.00     0.023 C 
HETATM   17  C8  UNL     1     -26.340  -6.697  76.322  1.00  0.00     0.089 C 
BRANCH  17  18
HETATM   18  C9  UNL     1     -25.216  -7.003  75.383  1.00  0.00     0.106 C 
HETATM   19 BR1  UNL     1     -24.760  -8.881  75.534  1.00  0.00    -0.095 Br
ENDBRANCH  17  18
ENDBRANCH   3  13
TORSDOF 3
ENDMDL
MODEL 5
REMARK VINA RESULT: -5.703044769      3.156      5.953
REMARK  3 active torsions:
REMARK  status: ('A' for Active; 'I' for Inactive)
REMARK    1  A    between atoms: C3_8  and  C4_9 
REMARK       I    between atoms: C4_9  and  N3_11 
REMARK    2  A    between atoms: N3_11  and  N4_13 
REMARK    3  A    between atoms: C8_17  and  C9_18 
ROOT
HETATM    1  C4  UNL     1     -23.163  -5.774  78.062  1.00  0.00     0.276 C 
HETATM    2  O1  UNL     1     -22.545  -6.525  78.911  1.00  0.00    -0.266 OA
HETATM    3  N3  UNL     1     -23.189  -4.418  78.367  1.00  0.00    -0.284 N 
ATOM      4  H3  UNL     1     -23.653  -3.776  77.724  1.00  0.00     0.184 HD
ENDROOT
BRANCH   1   5
HETATM    5  C3  UNL     1     -23.735  -6.462  76.914  1.00  0.00     0.115 A 
HETATM    6  C2  UNL     1     -24.979  -6.931  76.609  1.00  0.00     0.046 A 
HETATM    7  C1  UNL     1     -26.188  -6.822  77.524  1.00  0.00     0.071 C 
HETATM    8  N1  UNL     1     -25.113  -7.546  75.457  1.00  0.00    -0.298 N 
HETATM    9  N2  UNL     1     -24.115  -7.691  74.670  1.00  0.00    -0.269 N 
ATOM     10  H1  UNL     1     -26.026  -7.913  75.185  1.00  0.00     0.187 HD
HETATM   11  S1  UNL     1     -22.854  -6.962  75.486  1.00  0.00     0.009 SA
ATOM     12  H2  UNL     1     -24.094  -8.145  73.757  1.00  0.00     0.195 HD
ENDBRANCH   1   5
BRANCH   3  13
HETATM   13  N4  UNL     1     -22.608  -3.913  79.510  1.00  0.00    -0.223 NA
HETATM   14  C5  UNL     1     -21.287  -3.397  79.420  1.00  0.00     0.114 C 
HETATM   15  C6  UNL     1     -21.160  -2.260  80.426  1.00  0.00     0.018 C 
HETATM   16  C7  UNL     1     -22.405  -2.420  81.255  1.00  0.00     0.023 C 
HETATM   17  C8  UNL     1     -23.397  -2.919  80.201  1.00  0.00     0.089 C 
BRANCH  17  18
HETATM   18  C9  UNL     1     -24.656  -3.454  80.806  1.00  0.00     0.106 C 
HETATM   19 BR1  UNL     1     -24.721  -2.949  82.676  1.00  0.00    -0.095 Br
ENDBRANCH  17  18
ENDBRANCH   3  13
TORSDOF 3
ENDMDL
