MODEL 1
REMARK VINA RESULT: -7.996251981      0.000      0.000
REMARK  5 active torsions:
REMARK  status: ('A' for Active; 'I' for Inactive)
REMARK    1  A    between atoms: C2_2  and  C3_3 
REMARK    2  A    between atoms: N1_5  and  N2_7 
REMARK    3  A    between atoms: N2_7  and  C4_9 
REMARK    4  A    between atoms: C5_13  and  N6_14 
REMARK    5  A    between atoms: N6_14  and  N7_16 
ROOT
HETATM    1  C4  UNL     1     -40.528 -21.373   8.950  1.00  0.00     0.250 C 
HETATM    2  N3  UNL     1     -39.186 -21.615   8.395  1.00  0.00    -0.100 NA
HETATM    3  N4  UNL     1     -38.434 -21.579   9.599  1.00  0.00    -0.036 NA
HETATM    4  N5  UNL     1     -39.105 -22.569  10.365  1.00  0.00    -0.099 NA
HETATM    5  C5  UNL     1     -40.525 -22.350  10.097  1.00  0.00     0.256 C 
ENDROOT
BRANCH   1   6
HETATM    6  N2  UNL     1     -41.547 -21.674   7.969  1.00  0.00    -0.311 N 
ATOM      7  H2  UNL     1     -42.286 -20.995   7.787  1.00  0.00     0.182 HD
BRANCH   6   8
HETATM    8  N1  UNL     1     -41.533 -22.865   7.277  1.00  0.00    -0.305 N 
HETATM    9  C2  UNL     1     -41.596 -22.911   5.995  1.00  0.00     0.059 C 
HETATM   10  C1  UNL     1     -41.687 -21.614   5.260  1.00  0.00     0.073 C 
ATOM     11  H1  UNL     1     -41.470 -23.738   7.800  1.00  0.00     0.186 HD
BRANCH   9  12
HETATM   12  C3  UNL     1     -41.579 -24.174   5.274  1.00  0.00     0.284 C 
HETATM   13  O1  UNL     1     -40.583 -24.926   5.410  1.00  0.00    -0.300 OA
ENDBRANCH   9  12
ENDBRANCH   6   8
ENDBRANCH   1   6
BRANCH   5  14
HETATM   14  N6  UNL     1     -41.214 -21.839  11.257  1.00  0.00    -0.252 N 
ATOM     15  H6  UNL     1     -41.384 -20.838  11.362  1.00  0.00     0.188 HD
BRANCH  14  16
HETATM   16  N7  UNL     1     -41.643 -22.737  12.231  1.00  0.00    -0.042 N 
HETATM   17  O2  UNL     1     -42.841 -23.118  12.237  1.00  0.00    -0.517 OA
HETATM   18  O3  UNL     1     -40.813 -23.230  13.192  1.00  0.00    -0.517 OA
ENDBRANCH  14  16
ENDBRANCH   5  14
TORSDOF 5
ENDMDL
MODEL 2
REMARK VINA RESULT: -7.779545160      1.196      1.529
REMARK  5 active torsions:
REMARK  status: ('A' for Active; 'I' for Inactive)
REMARK    1  A    between atoms: C2_2  and  C3_3 
REMARK    2  A    between atoms: N1_5  and  N2_7 
REMARK    3  A    between atoms: N2_7  and  C4_9 
REMARK    4  A    between atoms: C5_13  and  N6_14 
REMARK    5  A    between atoms: N6_14  and  N7_16 
ROOT
HETATM    1  C4  UNL     1     -40.577 -22.013  10.215  1.00  0.00     0.250 C 
HETATM    2  N3  UNL     1     -39.174 -22.270   9.852  1.00  0.00    -0.100 NA
HETATM    3  N4  UNL     1     -38.809 -23.106  10.940  1.00  0.00    -0.036 NA
HETATM    4  N5  UNL     1     -39.795 -24.123  10.840  1.00  0.00    -0.099 NA
HETATM    5  C5  UNL     1     -41.034 -23.413  10.531  1.00  0.00     0.256 C 
ENDROOT
BRANCH   1   6
HETATM    6  N2  UNL     1     -41.294 -21.433   9.100  1.00  0.00    -0.311 N 
ATOM      7  H2  UNL     1     -41.542 -20.445   9.121  1.00  0.00     0.182 HD
BRANCH   6   8
HETATM    8  N1  UNL     1     -41.646 -22.200   8.011  1.00  0.00    -0.305 N 
HETATM    9  C2  UNL     1     -41.090 -22.052   6.863  1.00  0.00     0.059 C 
HETATM   10  C1  UNL     1     -40.032 -21.004   6.738  1.00  0.00     0.073 C 
ATOM     11  H1  UNL     1     -42.371 -22.909   8.121  1.00  0.00     0.186 HD
BRANCH   9  12
HETATM   12  C3  UNL     1     -41.468 -22.867   5.720  1.00  0.00     0.284 C 
HETATM   13  O1  UNL     1     -41.065 -24.055   5.674  1.00  0.00    -0.300 OA
ENDBRANCH   9  12
ENDBRANCH   6   8
ENDBRANCH   1   6
BRANCH   5  14
HETATM   14  N6  UNL     1     -41.962 -23.453  11.636  1.00  0.00    -0.252 N 
ATOM     15  H6  UNL     1     -42.880 -23.885  11.529  1.00  0.00     0.188 HD
BRANCH  14  16
HETATM   16  N7  UNL     1     -41.581 -22.890  12.850  1.00  0.00    -0.042 N 
HETATM   17  O2  UNL     1     -41.512 -21.639  12.959  1.00  0.00    -0.517 OA
HETATM   18  O3  UNL     1     -41.274 -23.640  13.945  1.00  0.00    -0.517 OA
ENDBRANCH  14  16
ENDBRANCH   5  14
TORSDOF 5
ENDMDL
MODEL 3
REMARK VINA RESULT: -7.675942694      1.191      1.475
REMARK  5 active torsions:
REMARK  status: ('A' for Active; 'I' for Inactive)
REMARK    1  A    between atoms: C2_2  and  C3_3 
REMARK    2  A    between atoms: N1_5  and  N2_7 
REMARK    3  A    between atoms: N2_7  and  C4_9 
REMARK    4  A    between atoms: C5_13  and  N6_14 
REMARK    5  A    between atoms: N6_14  and  N7_16 
ROOT
HETATM    1  C4  UNL     1     -40.813 -21.068   8.493  1.00  0.00     0.250 C 
HETATM    2  N3  UNL     1     -39.783 -20.416   7.669  1.00  0.00    -0.100 NA
HETATM    3  N4  UNL     1     -38.806 -20.179   8.673  1.00  0.00    -0.036 NA
HETATM    4  N5  UNL     1     -38.623 -21.492   9.183  1.00  0.00    -0.099 NA
HETATM    5  C5  UNL     1     -39.967 -22.060   9.248  1.00  0.00     0.256 C 
ENDROOT
BRANCH   1   6
HETATM    6  N2  UNL     1     -41.806 -21.707   7.658  1.00  0.00    -0.311 N 
ATOM      7  H2  UNL     1     -42.717 -21.267   7.532  1.00  0.00     0.182 HD
BRANCH   6   8
HETATM    8  N1  UNL     1     -41.536 -22.904   7.031  1.00  0.00    -0.305 N 
HETATM    9  C2  UNL     1     -41.634 -23.045   5.759  1.00  0.00     0.059 C 
HETATM   10  C1  UNL     1     -42.056 -21.855   4.961  1.00  0.00     0.073 C 
ATOM     11  H1  UNL     1     -41.250 -23.703   7.596  1.00  0.00     0.186 HD
BRANCH   9  12
HETATM   12  C3  UNL     1     -41.347 -24.312   5.106  1.00  0.00     0.284 C 
HETATM   13  O1  UNL     1     -40.540 -25.099   5.658  1.00  0.00    -0.300 OA
ENDBRANCH   9  12
ENDBRANCH   6   8
ENDBRANCH   1   6
BRANCH   5  14
HETATM   14  N6  UNL     1     -40.408 -22.236  10.611  1.00  0.00    -0.252 N 
ATOM     15  H6  UNL     1     -40.911 -21.491  11.095  1.00  0.00     0.188 HD
BRANCH  14  16
HETATM   16  N7  UNL     1     -40.134 -23.440  11.253  1.00  0.00    -0.042 N 
HETATM   17  O2  UNL     1     -40.083 -23.475  12.509  1.00  0.00    -0.517 OA
HETATM   18  O3  UNL     1     -39.914 -24.601  10.576  1.00  0.00    -0.517 OA
ENDBRANCH  14  16
ENDBRANCH   5  14
TORSDOF 5
ENDMDL
MODEL 4
REMARK VINA RESULT: -7.494021614      2.442      4.863
REMARK  5 active torsions:
REMARK  status: ('A' for Active; 'I' for Inactive)
REMARK    1  A    between atoms: C2_2  and  C3_3 
REMARK    2  A    between atoms: N1_5  and  N2_7 
REMARK    3  A    between atoms: N2_7  and  C4_9 
REMARK    4  A    between atoms: C5_13  and  N6_14 
REMARK    5  A    between atoms: N6_14  and  N7_16 
ROOT
HETATM    1  C4  UNL     1     -39.127 -20.488   8.211  1.00  0.00     0.250 C 
HETATM    2  N3  UNL     1     -38.766 -19.067   8.084  1.00  0.00    -0.100 NA
HETATM    3  N4  UNL     1     -38.324 -19.065   6.735  1.00  0.00    -0.036 NA
HETATM    4  N5  UNL     1     -39.464 -19.598   6.078  1.00  0.00    -0.099 NA
HETATM    5  C5  UNL     1     -39.929 -20.676   6.949  1.00  0.00     0.256 C 
ENDROOT
BRANCH   1   6
HETATM    6  N2  UNL     1     -39.913 -20.710   9.405  1.00  0.00    -0.311 N 
ATOM      7  H2  UNL     1     -40.654 -20.053   9.649  1.00  0.00     0.182 HD
BRANCH   6   8
HETATM    8  N1  UNL     1     -39.673 -21.797  10.217  1.00  0.00    -0.305 N 
HETATM    9  C2  UNL     1     -40.493 -22.782  10.298  1.00  0.00     0.059 C 
HETATM   10  C1  UNL     1     -41.737 -22.716   9.474  1.00  0.00     0.073 C 
ATOM     11  H1  UNL     1     -38.817 -21.819  10.770  1.00  0.00     0.186 HD
BRANCH   9  12
HETATM   12  C3  UNL     1     -40.230 -23.925  11.157  1.00  0.00     0.284 C 
HETATM   13  O1  UNL     1     -39.852 -24.997  10.626  1.00  0.00    -0.300 OA
ENDBRANCH   9  12
ENDBRANCH   6   8
ENDBRANCH   1   6
BRANCH   5  14
HETATM   14  N6  UNL     1     -39.719 -21.973   6.352  1.00  0.00    -0.252 N 
ATOM     15  H6  UNL     1     -38.778 -22.353   6.252  1.00  0.00     0.188 HD
BRANCH  14  16
HETATM   16  N7  UNL     1     -40.827 -22.695   5.915  1.00  0.00    -0.042 N 
HETATM   17  O2  UNL     1     -41.769 -22.095   5.340  1.00  0.00    -0.517 OA
HETATM   18  O3  UNL     1     -40.939 -24.042   6.085  1.00  0.00    -0.517 OA
ENDBRANCH  14  16
ENDBRANCH   5  14
TORSDOF 5
ENDMDL
MODEL 5
REMARK VINA RESULT: -7.424233909      2.354      2.882
REMARK  5 active torsions:
REMARK  status: ('A' for Active; 'I' for Inactive)
REMARK    1  A    between atoms: C2_2  and  C3_3 
REMARK    2  A    between atoms: N1_5  and  N2_7 
REMARK    3  A    between atoms: N2_7  and  C4_9 
REMARK    4  A    between atoms: C5_13  and  N6_14 
REMARK    5  A    between atoms: N6_14  and  N7_16 
ROOT
HETATM    1  C4  UNL     1     -40.332 -22.018  10.632  1.00  0.00     0.250 C 
HETATM    2  N3  UNL     1     -39.020 -22.466  10.136  1.00  0.00    -0.100 NA
HETATM    3  N4  UNL     1     -38.841 -23.604  10.967  1.00  0.00    -0.036 NA
HETATM    4  N5  UNL     1     -40.026 -24.333  10.683  1.00  0.00    -0.099 NA
HETATM    5  C5  UNL     1     -41.082 -23.325  10.628  1.00  0.00     0.256 C 
ENDROOT
BRANCH   1   6
HETATM    6  N2  UNL     1     -40.911 -21.044   9.733  1.00  0.00    -0.311 N 
ATOM      7  H2  UNL     1     -41.926 -20.979   9.648  1.00  0.00     0.182 HD
BRANCH   6   8
HETATM    8  N1  UNL     1     -40.111 -20.203   8.992  1.00  0.00    -0.305 N 
HETATM    9  C2  UNL     1     -39.975 -20.334   7.722  1.00  0.00     0.059 C 
HETATM   10  C1  UNL     1     -40.721 -21.445   7.058  1.00  0.00     0.073 C 
ATOM     11  H1  UNL     1     -39.611 -19.452   9.467  1.00  0.00     0.186 HD
BRANCH   9  12
HETATM   12  C3  UNL     1     -39.128 -19.441   6.948  1.00  0.00     0.284 C 
HETATM   13  O1  UNL     1     -38.082 -19.905   6.434  1.00  0.00    -0.300 OA
ENDBRANCH   9  12
ENDBRANCH   6   8
ENDBRANCH   1   6
BRANCH   5  14
HETATM   14  N6  UNL     1     -41.990 -23.441  11.744  1.00  0.00    -0.252 N 
ATOM     15  H6  UNL     1     -42.872 -23.945  11.646  1.00  0.00     0.188 HD
BRANCH  14  16
HETATM   16  N7  UNL     1     -41.640 -22.853  12.956  1.00  0.00    -0.042 N 
HETATM   17  O2  UNL     1     -41.576 -21.600  13.040  1.00  0.00    -0.517 OA
HETATM   18  O3  UNL     1     -41.360 -23.581  14.073  1.00  0.00    -0.517 OA
ENDBRANCH  14  16
ENDBRANCH   5  14
TORSDOF 5
ENDMDL
