MODEL 1
REMARK VINA RESULT: -7.239856088      0.000      0.000
REMARK  7 active torsions:
REMARK  status: ('A' for Active; 'I' for Inactive)
REMARK    1  A    between atoms: C1_2  and  C2_4 
REMARK    2  A    between atoms: C2_4  and  N2_5 
REMARK    3  A    between atoms: C2_4  and  C3_9 
REMARK    4  A    between atoms: C3_9  and  N3_10 
REMARK    5  A    between atoms: C3_9  and  C4_14 
REMARK    6  A    between atoms: C5_15  and  N4_16 
REMARK    7  A    between atoms: N4_16  and  O2_18 
ROOT
HETATM    1  C3  UNL     1     -39.672 -22.022   9.277  1.00  0.00     0.265 C 
ENDROOT
BRANCH   1   2
HETATM    2  C2  UNL     1     -40.270 -22.153   7.911  1.00  0.00     0.306 C 
BRANCH   2   3
HETATM    3  C1  UNL     1     -39.498 -21.387   6.896  1.00  0.00     0.264 C 
HETATM    4  N1  UNL     1     -38.192 -21.739   6.499  1.00  0.00    -0.060 NA
HETATM    5  O1  UNL     1     -40.024 -20.387   6.367  1.00  0.00    -0.274 OA
ENDBRANCH   2   3
BRANCH   2   6
HETATM    6  N2  UNL     1     -41.630 -21.686   7.836  1.00  0.00    -0.065 N 
ATOM      7  H23 UNL     1     -41.754 -20.745   8.208  1.00  0.00     0.275 HD
ATOM      8  H22 UNL     1     -41.936 -21.489   6.883  1.00  0.00     0.275 HD
ATOM      9  H21 UNL     1     -42.206 -22.384   8.307  1.00  0.00     0.275 HD
ENDBRANCH   2   6
ENDBRANCH   1   2
BRANCH   1  10
HETATM   10  N3  UNL     1     -39.171 -20.674   9.531  1.00  0.00    -0.068 N 
ATOM     11  H33 UNL     1     -39.374 -20.051   8.748  1.00  0.00     0.275 HD
ATOM     12  H32 UNL     1     -39.716 -20.207  10.256  1.00  0.00     0.275 HD
ATOM     13  H31 UNL     1     -38.176 -20.670   9.758  1.00  0.00     0.275 HD
ENDBRANCH   1  10
BRANCH   1  14
HETATM   14  C4  UNL     1     -40.454 -22.566  10.382  1.00  0.00     0.099 A 
HETATM   15  C5  UNL     1     -41.373 -21.826  11.141  1.00  0.00     0.203 A 
HETATM   16  O3  UNL     1     -41.860 -22.648  12.023  1.00  0.00    -0.214 OA
HETATM   17  N5  UNL     1     -41.357 -23.820  11.913  1.00  0.00    -0.223 N 
HETATM   18  C6  UNL     1     -40.460 -23.846  10.895  1.00  0.00     0.278 A 
ATOM     19  H5  UNL     1     -41.596 -24.617  12.503  1.00  0.00     0.198 HD
HETATM   20  O4  UNL     1     -39.804 -24.857  10.544  1.00  0.00    -0.266 OA
BRANCH  15  21
HETATM   21  N4  UNL     1     -41.708 -20.467  10.987  1.00  0.00    -0.245 N 
ATOM     22  H4  UNL     1     -41.883 -19.944  11.846  1.00  0.00     0.196 HD
BRANCH  21  23
HETATM   23  O2  UNL     1     -41.814 -19.843   9.944  1.00  0.00    -0.288 OA
ATOM     24  H2  UNL     1     -41.111 -19.496   9.407  1.00  0.00     0.244 HD
ENDBRANCH  21  23
ENDBRANCH  15  21
ENDBRANCH   1  14
TORSDOF 7
ENDMDL
MODEL 2
REMARK VINA RESULT: -7.030861391      1.082      2.658
REMARK  7 active torsions:
REMARK  status: ('A' for Active; 'I' for Inactive)
REMARK    1  A    between atoms: C1_2  and  C2_4 
REMARK    2  A    between atoms: C2_4  and  N2_5 
REMARK    3  A    between atoms: C2_4  and  C3_9 
REMARK    4  A    between atoms: C3_9  and  N3_10 
REMARK    5  A    between atoms: C3_9  and  C4_14 
REMARK    6  A    between atoms: C5_15  and  N4_16 
REMARK    7  A    between atoms: N4_16  and  O2_18 
ROOT
HETATM    1  C3  UNL     1     -39.825 -21.959   9.172  1.00  0.00     0.265 C 
ENDROOT
BRANCH   1   2
HETATM    2  C2  UNL     1     -40.128 -21.557   7.763  1.00  0.00     0.306 C 
BRANCH   2   3
HETATM    3  C1  UNL     1     -39.440 -20.293   7.389  1.00  0.00     0.264 C 
HETATM    4  N1  UNL     1     -38.324 -20.252   6.529  1.00  0.00    -0.060 NA
HETATM    5  O1  UNL     1     -39.864 -19.215   7.854  1.00  0.00    -0.274 OA
ENDBRANCH   2   3
BRANCH   2   6
HETATM    6  N2  UNL     1     -41.533 -21.352   7.518  1.00  0.00    -0.065 N 
ATOM      7  H23 UNL     1     -41.802 -20.368   7.520  1.00  0.00     0.275 HD
ATOM      8  H22 UNL     1     -41.809 -21.558   6.558  1.00  0.00     0.275 HD
ATOM      9  H21 UNL     1     -42.035 -21.908   8.209  1.00  0.00     0.275 HD
ENDBRANCH   2   6
ENDBRANCH   1   2
BRANCH   1  10
HETATM   10  N3  UNL     1     -38.690 -21.222   9.721  1.00  0.00    -0.068 N 
ATOM     11  H33 UNL     1     -37.815 -21.726   9.572  1.00  0.00     0.275 HD
ATOM     12  H32 UNL     1     -38.491 -20.386   9.172  1.00  0.00     0.275 HD
ATOM     13  H31 UNL     1     -38.821 -20.993  10.707  1.00  0.00     0.275 HD
ENDBRANCH   1  10
BRANCH   1  14
HETATM   14  C4  UNL     1     -40.961 -22.036  10.083  1.00  0.00     0.099 A 
HETATM   15  C5  UNL     1     -41.397 -23.216  10.705  1.00  0.00     0.203 A 
HETATM   16  O3  UNL     1     -42.424 -22.885  11.430  1.00  0.00    -0.214 OA
HETATM   17  N5  UNL     1     -42.690 -21.637  11.341  1.00  0.00    -0.223 N 
HETATM   18  C6  UNL     1     -41.807 -21.033  10.506  1.00  0.00     0.278 A 
ATOM     19  H5  UNL     1     -43.454 -21.165  11.825  1.00  0.00     0.198 HD
HETATM   20  O4  UNL     1     -41.812 -19.811  10.220  1.00  0.00    -0.266 OA
BRANCH  15  21
HETATM   21  N4  UNL     1     -40.841 -24.504  10.577  1.00  0.00    -0.245 N 
ATOM     22  H4  UNL     1     -41.448 -25.221  10.180  1.00  0.00     0.196 HD
BRANCH  21  23
HETATM   23  O2  UNL     1     -39.716 -24.859  10.887  1.00  0.00    -0.288 OA
ATOM     24  H2  UNL     1     -39.386 -25.031  11.761  1.00  0.00     0.244 HD
ENDBRANCH  21  23
ENDBRANCH  15  21
ENDBRANCH   1  14
TORSDOF 7
ENDMDL
MODEL 3
REMARK VINA RESULT: -6.993172378      1.805      4.963
REMARK  7 active torsions:
REMARK  status: ('A' for Active; 'I' for Inactive)
REMARK    1  A    between atoms: C1_2  and  C2_4 
REMARK    2  A    between atoms: C2_4  and  N2_5 
REMARK    3  A    between atoms: C2_4  and  C3_9 
REMARK    4  A    between atoms: C3_9  and  N3_10 
REMARK    5  A    between atoms: C3_9  and  C4_14 
REMARK    6  A    between atoms: C5_15  and  N4_16 
REMARK    7  A    between atoms: N4_16  and  O2_18 
ROOT
HETATM    1  C3  UNL     1     -41.328 -21.671   9.326  1.00  0.00     0.265 C 
ENDROOT
BRANCH   1   2
HETATM    2  C2  UNL     1     -40.611 -22.751  10.074  1.00  0.00     0.306 C 
BRANCH   2   3
HETATM    3  C1  UNL     1     -41.385 -23.208  11.259  1.00  0.00     0.264 C 
HETATM    4  N1  UNL     1     -42.742 -22.884  11.461  1.00  0.00    -0.060 NA
HETATM    5  O1  UNL     1     -40.814 -23.913  12.117  1.00  0.00    -0.274 OA
ENDBRANCH   2   3
BRANCH   2   6
HETATM    6  N2  UNL     1     -39.315 -22.347  10.556  1.00  0.00    -0.065 N 
ATOM      7  H23 UNL     1     -38.553 -22.915  10.187  1.00  0.00     0.275 HD
ATOM      8  H22 UNL     1     -39.005 -21.453  10.176  1.00  0.00     0.275 HD
ATOM      9  H21 UNL     1     -39.367 -22.355  11.575  1.00  0.00     0.275 HD
ENDBRANCH   2   6
ENDBRANCH   1   2
BRANCH   1  10
HETATM   10  N3  UNL     1     -41.646 -20.529  10.179  1.00  0.00    -0.068 N 
ATOM     11  H33 UNL     1     -42.348 -20.774  10.878  1.00  0.00     0.275 HD
ATOM     12  H32 UNL     1     -40.869 -20.305  10.802  1.00  0.00     0.275 HD
ATOM     13  H31 UNL     1     -41.932 -19.713   9.638  1.00  0.00     0.275 HD
ENDBRANCH   1  10
BRANCH   1  14
HETATM   14  C4  UNL     1     -40.765 -21.291   8.036  1.00  0.00     0.099 A 
HETATM   15  C5  UNL     1     -41.147 -21.853   6.809  1.00  0.00     0.203 A 
HETATM   16  O3  UNL     1     -40.427 -21.265   5.900  1.00  0.00    -0.214 OA
HETATM   17  N5  UNL     1     -39.634 -20.399   6.406  1.00  0.00    -0.223 N 
HETATM   18  C6  UNL     1     -39.790 -20.357   7.753  1.00  0.00     0.278 A 
ATOM     19  H5  UNL     1     -38.980 -19.823   5.875  1.00  0.00     0.198 HD
HETATM   20  O4  UNL     1     -39.149 -19.604   8.527  1.00  0.00    -0.266 OA
BRANCH  15  21
HETATM   21  N4  UNL     1     -42.116 -22.853   6.593  1.00  0.00    -0.245 N 
ATOM     22  H4  UNL     1     -42.364 -23.424   7.401  1.00  0.00     0.196 HD
BRANCH  21  23
HETATM   23  O2  UNL     1     -42.691 -23.114   5.549  1.00  0.00    -0.288 OA
ATOM     24  H2  UNL     1     -43.246 -23.864   5.369  1.00  0.00     0.244 HD
ENDBRANCH  21  23
ENDBRANCH  15  21
ENDBRANCH   1  14
TORSDOF 7
ENDMDL
MODEL 4
REMARK VINA RESULT: -6.730203448      1.882      4.579
REMARK  7 active torsions:
REMARK  status: ('A' for Active; 'I' for Inactive)
REMARK    1  A    between atoms: C1_2  and  C2_4 
REMARK    2  A    between atoms: C2_4  and  N2_5 
REMARK    3  A    between atoms: C2_4  and  C3_9 
REMARK    4  A    between atoms: C3_9  and  N3_10 
REMARK    5  A    between atoms: C3_9  and  C4_14 
REMARK    6  A    between atoms: C5_15  and  N4_16 
REMARK    7  A    between atoms: N4_16  and  O2_18 
ROOT
HETATM    1  C3  UNL     1     -41.651 -21.942   9.296  1.00  0.00     0.265 C 
ENDROOT
BRANCH   1   2
HETATM    2  C2  UNL     1     -41.586 -23.175  10.141  1.00  0.00     0.306 C 
BRANCH   2   3
HETATM    3  C1  UNL     1     -41.791 -22.867  11.582  1.00  0.00     0.264 C 
HETATM    4  N1  UNL     1     -40.764 -22.383  12.417  1.00  0.00    -0.060 NA
HETATM    5  O1  UNL     1     -42.922 -23.042  12.081  1.00  0.00    -0.274 OA
ENDBRANCH   2   3
BRANCH   2   6
HETATM    6  N2  UNL     1     -40.328 -23.869  10.042  1.00  0.00    -0.065 N 
ATOM      7  H23 UNL     1     -40.075 -24.368  10.894  1.00  0.00     0.275 HD
ATOM      8  H22 UNL     1     -40.363 -24.680   9.424  1.00  0.00     0.275 HD
ATOM      9  H21 UNL     1     -39.634 -23.178   9.759  1.00  0.00     0.275 HD
ENDBRANCH   2   6
ENDBRANCH   1   2
BRANCH   1  10
HETATM   10  N3  UNL     1     -41.580 -20.723  10.096  1.00  0.00    -0.068 N 
ATOM     11  H33 UNL     1     -40.710 -20.680  10.628  1.00  0.00     0.275 HD
ATOM     12  H32 UNL     1     -41.449 -19.901   9.505  1.00  0.00     0.275 HD
ATOM     13  H31 UNL     1     -42.391 -20.614  10.704  1.00  0.00     0.275 HD
ENDBRANCH   1  10
BRANCH   1  14
HETATM   14  C4  UNL     1     -40.789 -21.915   8.121  1.00  0.00     0.099 A 
HETATM   15  C5  UNL     1     -39.458 -21.470   8.126  1.00  0.00     0.203 A 
HETATM   16  O3  UNL     1     -39.029 -21.595   6.905  1.00  0.00    -0.214 OA
HETATM   17  N5  UNL     1     -39.930 -22.065   6.127  1.00  0.00    -0.223 N 
HETATM   18  C6  UNL     1     -41.071 -22.294   6.825  1.00  0.00     0.278 A 
ATOM     19  H5  UNL     1     -39.808 -22.242   5.130  1.00  0.00     0.198 HD
HETATM   20  O4  UNL     1     -42.131 -22.755   6.335  1.00  0.00    -0.266 OA
BRANCH  15  21
HETATM   21  N4  UNL     1     -38.725 -20.984   9.226  1.00  0.00    -0.245 N 
ATOM     22  H4  UNL     1     -38.368 -20.031   9.146  1.00  0.00     0.196 HD
BRANCH  21  23
HETATM   23  O2  UNL     1     -38.468 -21.573  10.263  1.00  0.00    -0.288 OA
ATOM     24  H2  UNL     1     -38.827 -21.402  11.127  1.00  0.00     0.244 HD
ENDBRANCH  21  23
ENDBRANCH  15  21
ENDBRANCH   1  14
TORSDOF 7
ENDMDL
MODEL 5
REMARK VINA RESULT: -6.569700058      0.913      1.514
REMARK  7 active torsions:
REMARK  status: ('A' for Active; 'I' for Inactive)
REMARK    1  A    between atoms: C1_2  and  C2_4 
REMARK    2  A    between atoms: C2_4  and  N2_5 
REMARK    3  A    between atoms: C2_4  and  C3_9 
REMARK    4  A    between atoms: C3_9  and  N3_10 
REMARK    5  A    between atoms: C3_9  and  C4_14 
REMARK    6  A    between atoms: C5_15  and  N4_16 
REMARK    7  A    between atoms: N4_16  and  O2_18 
ROOT
HETATM    1  C3  UNL     1     -41.076 -22.110   8.946  1.00  0.00     0.265 C 
ENDROOT
BRANCH   1   2
HETATM    2  C2  UNL     1     -39.966 -21.121   8.775  1.00  0.00     0.306 C 
BRANCH   2   3
HETATM    3  C1  UNL     1     -39.426 -21.133   7.389  1.00  0.00     0.264 C 
HETATM    4  N1  UNL     1     -38.240 -21.807   7.034  1.00  0.00    -0.060 NA
HETATM    5  O1  UNL     1     -40.046 -20.522   6.495  1.00  0.00    -0.274 OA
ENDBRANCH   2   3
BRANCH   2   6
HETATM    6  N2  UNL     1     -38.851 -21.356   9.656  1.00  0.00    -0.065 N 
ATOM      7  H23 UNL     1     -38.962 -20.919  10.571  1.00  0.00     0.275 HD
ATOM      8  H22 UNL     1     -38.791 -22.322   9.981  1.00  0.00     0.275 HD
ATOM      9  H21 UNL     1     -38.016 -21.047   9.161  1.00  0.00     0.275 HD
ENDBRANCH   2   6
ENDBRANCH   1   2
BRANCH   1  10
HETATM   10  N3  UNL     1     -41.119 -23.083   7.858  1.00  0.00    -0.068 N 
ATOM     11  H33 UNL     1     -40.994 -24.034   8.207  1.00  0.00     0.275 HD
ATOM     12  H32 UNL     1     -42.062 -23.172   7.479  1.00  0.00     0.275 HD
ATOM     13  H31 UNL     1     -40.445 -22.867   7.123  1.00  0.00     0.275 HD
ENDBRANCH   1  10
BRANCH   1  14
HETATM   14  C4  UNL     1     -41.209 -22.713  10.267  1.00  0.00     0.099 A 
HETATM   15  C5  UNL     1     -41.858 -22.106  11.353  1.00  0.00     0.203 A 
HETATM   16  O3  UNL     1     -41.767 -22.942  12.345  1.00  0.00    -0.214 OA
HETATM   17  N5  UNL     1     -41.137 -24.006  12.016  1.00  0.00    -0.223 N 
HETATM   18  C6  UNL     1     -40.753 -23.935  10.717  1.00  0.00     0.278 A 
ATOM     19  H5  UNL     1     -40.950 -24.791  12.639  1.00  0.00     0.198 HD
HETATM   20  O4  UNL     1     -40.117 -24.829  10.107  1.00  0.00    -0.266 OA
BRANCH  15  21
HETATM   21  N4  UNL     1     -42.486 -20.845  11.375  1.00  0.00    -0.245 N 
ATOM     22  H4  UNL     1     -43.415 -20.795  10.958  1.00  0.00     0.196 HD
BRANCH  21  23
HETATM   23  O2  UNL     1     -42.044 -19.805  11.837  1.00  0.00    -0.288 OA
ATOM     24  H2  UNL     1     -41.279 -19.700  12.391  1.00  0.00     0.244 HD
ENDBRANCH  21  23
ENDBRANCH  15  21
ENDBRANCH   1  14
TORSDOF 7
ENDMDL
