MODEL 1
REMARK VINA RESULT: -5.561764709      0.000      0.000
REMARK  7 active torsions:
REMARK  status: ('A' for Active; 'I' for Inactive)
REMARK    1  A    between atoms: C2_2  and  N1_3 
REMARK    2  A    between atoms: N1_3  and  C3_5 
REMARK    3  A    between atoms: C4_8  and  S1_9 
REMARK    4  A    between atoms: S1_9  and  C5_10 
REMARK    5  A    between atoms: C5_10  and  C6_11 
REMARK    6  A    between atoms: C7_12  and  C8_13 
REMARK    7  A    between atoms: C12_19  and  N4_20 
ROOT
HETATM    1  C3  UNL     1     -12.680  -8.719  23.865  1.00  0.00     0.694 A 
HETATM    2  N2  UNL     1     -13.829  -9.307  23.536  1.00  0.00    -0.169 N 
ATOM      3  H2  UNL     1     -14.186  -9.241  22.583  1.00  0.00     0.186 HD
HETATM    4  C4  UNL     1     -14.507  -9.982  24.465  1.00  0.00     0.175 A 
HETATM    5  N3  UNL     1     -14.002 -10.054  25.732  1.00  0.00    -0.169 N 
ATOM      6  H3  UNL     1     -14.511 -10.568  26.451  1.00  0.00     0.186 HD
HETATM    7  C12 UNL     1     -12.850  -9.457  26.037  1.00  0.00     0.694 A 
HETATM    8  N5  UNL     1     -12.172  -8.781  25.106  1.00  0.00    -0.022 N 
ATOM      9  H5  UNL     1     -11.289  -8.323  25.333  1.00  0.00     0.203 HD
ENDROOT
BRANCH   4  10
HETATM   10  S1  UNL     1     -16.048 -10.816  24.172  1.00  0.00    -0.081 SA
BRANCH  10  11
HETATM   11  C5  UNL     1     -16.661 -10.501  22.488  1.00  0.00     0.176 C 
BRANCH  11  12
HETATM   12  C6  UNL     1     -17.440  -9.263  22.523  1.00  0.00    -0.095 C 
HETATM   13  C7  UNL     1     -18.085  -8.245  22.530  1.00  0.00    -0.097 C 
BRANCH  13  14
HETATM   14  C8  UNL     1     -18.870  -7.009  22.512  1.00  0.00     0.013 C 
HETATM   15  C9  UNL     1     -18.858  -6.409  23.901  1.00  0.00     0.028 C 
HETATM   16  C10 UNL     1     -18.203  -6.087  21.508  1.00  0.00     0.028 C 
HETATM   17  C11 UNL     1     -20.280  -7.262  22.025  1.00  0.00     0.028 C 
ENDBRANCH  13  14
ENDBRANCH  11  12
ENDBRANCH  10  11
ENDBRANCH   4  10
BRANCH   1  18
HETATM   18  N1  UNL     1     -12.050  -8.072  22.938  1.00  0.00    -0.226 N 
ATOM     19  H1  UNL     1     -12.516  -7.956  22.038  1.00  0.00     0.177 HD
BRANCH  18  20
HETATM   20  C2  UNL     1     -10.739  -7.505  23.092  1.00  0.00     0.133 C 
HETATM   21  C1  UNL     1     -10.643  -6.144  22.422  1.00  0.00     0.027 C 
ENDBRANCH  18  20
ENDBRANCH   1  18
BRANCH   7  22
HETATM   22  N4  UNL     1     -12.384  -9.529  27.223  1.00  0.00    -0.230 N 
HETATM   23  C13 UNL     1     -13.071 -10.302  28.221  1.00  0.00     0.165 C 
ATOM     24  H4  UNL     1     -11.524  -9.036  27.462  1.00  0.00     0.177 HD
ENDBRANCH   7  22
TORSDOF 7
ENDMDL
MODEL 2
REMARK VINA RESULT: -5.443501680      1.307      1.951
REMARK  7 active torsions:
REMARK  status: ('A' for Active; 'I' for Inactive)
REMARK    1  A    between atoms: C2_2  and  N1_3 
REMARK    2  A    between atoms: N1_3  and  C3_5 
REMARK    3  A    between atoms: C4_8  and  S1_9 
REMARK    4  A    between atoms: S1_9  and  C5_10 
REMARK    5  A    between atoms: C5_10  and  C6_11 
REMARK    6  A    between atoms: C7_12  and  C8_13 
REMARK    7  A    between atoms: C12_19  and  N4_20 
ROOT
HETATM    1  C3  UNL     1     -12.708  -9.331  25.780  1.00  0.00     0.694 A 
HETATM    2  N2  UNL     1     -13.711  -9.968  25.179  1.00  0.00    -0.169 N 
ATOM      3  H2  UNL     1     -13.916  -9.792  24.196  1.00  0.00     0.186 HD
HETATM    4  C4  UNL     1     -14.444 -10.838  25.875  1.00  0.00     0.175 A 
HETATM    5  N3  UNL     1     -14.144 -11.053  27.190  1.00  0.00    -0.169 N 
ATOM      6  H3  UNL     1     -14.697 -11.717  27.733  1.00  0.00     0.186 HD
HETATM    7  C12 UNL     1     -13.136 -10.404  27.770  1.00  0.00     0.694 A 
HETATM    8  N5  UNL     1     -12.402  -9.533  27.071  1.00  0.00    -0.022 N 
ATOM      9  H5  UNL     1     -11.628  -9.033  27.509  1.00  0.00     0.203 HD
ENDROOT
BRANCH   4  10
HETATM   10  S1  UNL     1     -15.809 -11.759  25.207  1.00  0.00    -0.081 SA
BRANCH  10  11
HETATM   11  C5  UNL     1     -15.877 -11.617  23.394  1.00  0.00     0.176 C 
BRANCH  11  12
HETATM   12  C6  UNL     1     -16.390 -10.286  23.072  1.00  0.00    -0.095 C 
HETATM   13  C7  UNL     1     -16.795  -9.186  22.793  1.00  0.00    -0.097 C 
BRANCH  13  14
HETATM   14  C8  UNL     1     -17.264  -7.844  22.440  1.00  0.00     0.013 C 
HETATM   15  C9  UNL     1     -18.584  -7.597  23.137  1.00  0.00     0.028 C 
HETATM   16  C10 UNL     1     -16.200  -6.874  22.916  1.00  0.00     0.028 C 
HETATM   17  C11 UNL     1     -17.385  -7.682  20.941  1.00  0.00     0.028 C 
ENDBRANCH  13  14
ENDBRANCH  11  12
ENDBRANCH  10  11
ENDBRANCH   4  10
BRANCH   1  18
HETATM   18  N1  UNL     1     -12.019  -8.494  25.074  1.00  0.00    -0.226 N 
ATOM     19  H1  UNL     1     -11.395  -7.855  25.568  1.00  0.00     0.177 HD
BRANCH  18  20
HETATM   20  C2  UNL     1     -12.073  -8.403  23.642  1.00  0.00     0.133 C 
HETATM   21  C1  UNL     1     -10.875  -7.646  23.090  1.00  0.00     0.027 C 
ENDBRANCH  18  20
ENDBRANCH   1  18
BRANCH   7  22
HETATM   22  N4  UNL     1     -12.861 -10.610  28.999  1.00  0.00    -0.230 N 
HETATM   23  C13 UNL     1     -13.122 -11.895  29.590  1.00  0.00     0.165 C 
ATOM     24  H4  UNL     1     -12.455  -9.862  29.562  1.00  0.00     0.177 HD
ENDBRANCH   7  22
TORSDOF 7
ENDMDL
MODEL 3
REMARK VINA RESULT: -5.436529531      2.691      6.980
REMARK  7 active torsions:
REMARK  status: ('A' for Active; 'I' for Inactive)
REMARK    1  A    between atoms: C2_2  and  N1_3 
REMARK    2  A    between atoms: N1_3  and  C3_5 
REMARK    3  A    between atoms: C4_8  and  S1_9 
REMARK    4  A    between atoms: S1_9  and  C5_10 
REMARK    5  A    between atoms: C5_10  and  C6_11 
REMARK    6  A    between atoms: C7_12  and  C8_13 
REMARK    7  A    between atoms: C12_19  and  N4_20 
ROOT
HETATM    1  C3  UNL     1     -16.883  -9.653  22.886  1.00  0.00     0.694 A 
HETATM    2  N2  UNL     1     -15.671  -9.885  23.387  1.00  0.00    -0.169 N 
ATOM      3  H2  UNL     1     -15.393 -10.831  23.646  1.00  0.00     0.186 HD
HETATM    4  C4  UNL     1     -14.824  -8.867  23.547  1.00  0.00     0.175 A 
HETATM    5  N3  UNL     1     -15.224  -7.611  23.190  1.00  0.00    -0.169 N 
ATOM      6  H3  UNL     1     -14.585  -6.824  23.307  1.00  0.00     0.186 HD
HETATM    7  C12 UNL     1     -16.442  -7.404  22.690  1.00  0.00     0.694 A 
HETATM    8  N5  UNL     1     -17.289  -8.425  22.531  1.00  0.00    -0.022 N 
ATOM      9  H5  UNL     1     -18.222  -8.273  22.148  1.00  0.00     0.203 HD
ENDROOT
BRANCH   4  10
HETATM   10  S1  UNL     1     -13.179  -9.025  24.200  1.00  0.00    -0.081 SA
BRANCH  10  11
HETATM   11  C5  UNL     1     -13.064  -8.323  25.876  1.00  0.00     0.176 C 
BRANCH  11  12
HETATM   12  C6  UNL     1     -13.399  -9.384  26.825  1.00  0.00    -0.095 C 
HETATM   13  C7  UNL     1     -13.654 -10.261  27.612  1.00  0.00    -0.097 C 
BRANCH  13  14
HETATM   14  C8  UNL     1     -13.936 -11.330  28.572  1.00  0.00     0.013 C 
HETATM   15  C9  UNL     1     -15.367 -11.189  29.043  1.00  0.00     0.028 C 
HETATM   16  C10 UNL     1     -13.725 -12.640  27.836  1.00  0.00     0.028 C 
HETATM   17  C11 UNL     1     -12.962 -11.300  29.729  1.00  0.00     0.028 C 
ENDBRANCH  13  14
ENDBRANCH  11  12
ENDBRANCH  10  11
ENDBRANCH   4  10
BRANCH   1  18
HETATM   18  N1  UNL     1     -17.678 -10.665  22.746  1.00  0.00    -0.226 N 
ATOM     19  H1  UNL     1     -18.583 -10.627  23.215  1.00  0.00     0.177 HD
BRANCH  18  20
HETATM   20  C2  UNL     1     -17.372 -11.837  21.975  1.00  0.00     0.133 C 
HETATM   21  C1  UNL     1     -17.743 -11.650  20.512  1.00  0.00     0.027 C 
ENDBRANCH  18  20
ENDBRANCH   1  18
BRANCH   7  22
HETATM   22  N4  UNL     1     -16.808  -6.228  22.358  1.00  0.00    -0.230 N 
HETATM   23  C13 UNL     1     -18.079  -6.023  21.717  1.00  0.00     0.165 C 
ATOM     24  H4  UNL     1     -16.199  -5.432  22.548  1.00  0.00     0.177 HD
ENDBRANCH   7  22
TORSDOF 7
ENDMDL
MODEL 4
REMARK VINA RESULT: -5.408316694      0.875      1.088
REMARK  7 active torsions:
REMARK  status: ('A' for Active; 'I' for Inactive)
REMARK    1  A    between atoms: C2_2  and  N1_3 
REMARK    2  A    between atoms: N1_3  and  C3_5 
REMARK    3  A    between atoms: C4_8  and  S1_9 
REMARK    4  A    between atoms: S1_9  and  C5_10 
REMARK    5  A    between atoms: C5_10  and  C6_11 
REMARK    6  A    between atoms: C7_12  and  C8_13 
REMARK    7  A    between atoms: C12_19  and  N4_20 
ROOT
HETATM    1  C3  UNL     1     -13.091  -9.107  24.087  1.00  0.00     0.694 A 
HETATM    2  N2  UNL     1     -14.151  -9.825  23.719  1.00  0.00    -0.169 N 
ATOM      3  H2  UNL     1     -14.486  -9.792  22.757  1.00  0.00     0.186 HD
HETATM    4  C4  UNL     1     -14.768 -10.589  24.621  1.00  0.00     0.175 A 
HETATM    5  N3  UNL     1     -14.295 -10.615  25.902  1.00  0.00    -0.169 N 
ATOM      6  H3  UNL     1     -14.758 -11.196  26.601  1.00  0.00     0.186 HD
HETATM    7  C12 UNL     1     -13.233  -9.888  26.246  1.00  0.00     0.694 A 
HETATM    8  N5  UNL     1     -12.615  -9.123  25.342  1.00  0.00    -0.022 N 
ATOM      9  H5  UNL     1     -11.802  -8.564  25.599  1.00  0.00     0.203 HD
ENDROOT
BRANCH   4  10
HETATM   10  S1  UNL     1     -16.188 -11.600  24.276  1.00  0.00    -0.081 SA
BRANCH  10  11
HETATM   11  C5  UNL     1     -16.883 -11.225  22.636  1.00  0.00     0.176 C 
BRANCH  11  12
HETATM   12  C6  UNL     1     -17.141  -9.786  22.582  1.00  0.00    -0.095 C 
HETATM   13  C7  UNL     1     -17.336  -8.598  22.525  1.00  0.00    -0.097 C 
BRANCH  13  14
HETATM   14  C8  UNL     1     -17.548  -7.152  22.443  1.00  0.00     0.013 C 
HETATM   15  C9  UNL     1     -16.231  -6.456  22.711  1.00  0.00     0.028 C 
HETATM   16  C10 UNL     1     -18.047  -6.865  21.040  1.00  0.00     0.028 C 
HETATM   17  C11 UNL     1     -18.624  -6.700  23.406  1.00  0.00     0.028 C 
ENDBRANCH  13  14
ENDBRANCH  11  12
ENDBRANCH  10  11
ENDBRANCH   4  10
BRANCH   1  18
HETATM   18  N1  UNL     1     -12.519  -8.377  23.186  1.00  0.00    -0.226 N 
ATOM     19  H1  UNL     1     -13.090  -8.046  22.408  1.00  0.00     0.177 HD
BRANCH  18  20
HETATM   20  C2  UNL     1     -11.132  -8.002  23.205  1.00  0.00     0.133 C 
HETATM   21  C1  UNL     1     -10.913  -6.658  22.528  1.00  0.00     0.027 C 
ENDBRANCH  18  20
ENDBRANCH   1  18
BRANCH   7  22
HETATM   22  N4  UNL     1     -12.796  -9.917  27.445  1.00  0.00    -0.230 N 
HETATM   23  C13 UNL     1     -13.431 -10.757  28.424  1.00  0.00     0.165 C 
ATOM     24  H4  UNL     1     -11.994  -9.343  27.709  1.00  0.00     0.177 HD
ENDBRANCH   7  22
TORSDOF 7
ENDMDL
MODEL 5
REMARK VINA RESULT: -5.386038065      2.435      6.363
REMARK  7 active torsions:
REMARK  status: ('A' for Active; 'I' for Inactive)
REMARK    1  A    between atoms: C2_2  and  N1_3 
REMARK    2  A    between atoms: N1_3  and  C3_5 
REMARK    3  A    between atoms: C4_8  and  S1_9 
REMARK    4  A    between atoms: S1_9  and  C5_10 
REMARK    5  A    between atoms: C5_10  and  C6_11 
REMARK    6  A    between atoms: C7_12  and  C8_13 
REMARK    7  A    between atoms: C12_19  and  N4_20 
ROOT
HETATM    1  C3  UNL     1     -15.831  -8.634  22.956  1.00  0.00     0.694 A 
HETATM    2  N2  UNL     1     -14.625  -8.237  23.358  1.00  0.00    -0.169 N 
ATOM      3  H2  UNL     1     -14.273  -7.315  23.102  1.00  0.00     0.186 HD
HETATM    4  C4  UNL     1     -13.881  -9.059  24.101  1.00  0.00     0.175 A 
HETATM    5  N3  UNL     1     -14.378 -10.287  24.430  1.00  0.00    -0.169 N 
ATOM      6  H3  UNL     1     -13.819 -10.924  24.998  1.00  0.00     0.186 HD
HETATM    7  C12 UNL     1     -15.588 -10.661  24.015  1.00  0.00     0.694 A 
HETATM    8  N5  UNL     1     -16.332  -9.838  23.272  1.00  0.00    -0.022 N 
ATOM      9  H5  UNL     1     -17.259 -10.118  22.952  1.00  0.00     0.203 HD
ENDROOT
BRANCH   4  10
HETATM   10  S1  UNL     1     -12.258  -8.666  24.710  1.00  0.00    -0.081 SA
BRANCH  10  11
HETATM   11  C5  UNL     1     -12.319  -8.117  26.444  1.00  0.00     0.176 C 
BRANCH  11  12
HETATM   12  C6  UNL     1     -12.834  -9.227  27.244  1.00  0.00    -0.095 C 
HETATM   13  C7  UNL     1     -13.263 -10.153  27.885  1.00  0.00    -0.097 C 
BRANCH  13  14
HETATM   14  C8  UNL     1     -13.792 -11.291  28.640  1.00  0.00     0.013 C 
HETATM   15  C9  UNL     1     -15.244 -11.019  28.967  1.00  0.00     0.028 C 
HETATM   16  C10 UNL     1     -13.647 -12.509  27.747  1.00  0.00     0.028 C 
HETATM   17  C11 UNL     1     -12.977 -11.547  29.889  1.00  0.00     0.028 C 
ENDBRANCH  13  14
ENDBRANCH  11  12
ENDBRANCH  10  11
ENDBRANCH   4  10
BRANCH   1  18
HETATM   18  N1  UNL     1     -16.523  -7.811  22.236  1.00  0.00    -0.226 N 
ATOM     19  H1  UNL     1     -16.865  -8.141  21.333  1.00  0.00     0.177 HD
BRANCH  18  20
HETATM   20  C2  UNL     1     -16.843  -6.465  22.622  1.00  0.00     0.133 C 
HETATM   21  C1  UNL     1     -18.182  -6.398  23.339  1.00  0.00     0.027 C 
ENDBRANCH  18  20
ENDBRANCH   1  18
BRANCH   7  22
HETATM   22  N4  UNL     1     -16.047 -11.810  24.327  1.00  0.00    -0.230 N 
HETATM   23  C13 UNL     1     -16.189 -12.827  23.320  1.00  0.00     0.165 C 
ATOM     24  H4  UNL     1     -16.314 -12.008  25.292  1.00  0.00     0.177 HD
ENDBRANCH   7  22
TORSDOF 7
ENDMDL
