MODEL 1
REMARK VINA RESULT: -7.724859410      0.000      0.000
REMARK  3 active torsions:
REMARK  status: ('A' for Active; 'I' for Inactive)
REMARK    1  A    between atoms: S1_2  and  N1_4 
REMARK    2  A    between atoms: S1_2  and  C4_13 
REMARK    3  A    between atoms: N1_4  and  C1_6 
ROOT
HETATM    1  C4  UNL     1     -18.844  26.550  -2.383  1.00  0.00     0.178 A 
HETATM    2  N4  UNL     1     -19.171  27.052  -3.561  1.00  0.00    -0.286 N 
ATOM      3  H4  UNL     1     -20.127  27.248  -3.859  1.00  0.00     0.188 HD
HETATM    4  N5  UNL     1     -18.109  27.265  -4.296  1.00  0.00    -0.284 N 
ATOM      5  H5  UNL     1     -18.105  27.648  -5.241  1.00  0.00     0.188 HD
HETATM    6  C5  UNL     1     -17.027  26.894  -3.592  1.00  0.00     0.133 A 
HETATM    7  N6  UNL     1     -15.719  26.912  -3.896  1.00  0.00    -0.351 N 
ATOM      8  H6  UNL     1     -15.395  27.252  -4.801  1.00  0.00     0.166 HD
HETATM    9  C6  UNL     1     -14.857  26.474  -2.981  1.00  0.00     0.090 A 
HETATM   10  C7  UNL     1     -15.214  26.002  -1.747  1.00  0.00     0.018 A 
HETATM   11  C8  UNL     1     -16.554  25.978  -1.421  1.00  0.00     0.020 A 
HETATM   12  C9  UNL     1     -17.462  26.433  -2.367  1.00  0.00     0.051 A 
ENDROOT
BRANCH   1  13
HETATM   13  S1  UNL     1     -19.844  26.081  -1.029  1.00  0.00     0.282 S 
HETATM   14  O1  UNL     1     -20.336  24.659  -1.267  1.00  0.00    -0.199 OA
HETATM   15  O2  UNL     1     -21.055  26.935  -0.905  1.00  0.00    -0.199 OA
BRANCH  13  16
HETATM   16  N1  UNL     1     -18.897  26.055   0.394  1.00  0.00    -0.263 N 
ATOM     17  H1  UNL     1     -18.045  26.616   0.435  1.00  0.00     0.180 HD
BRANCH  16  18
HETATM   18  C1  UNL     1     -19.230  25.344   1.418  1.00  0.00     0.130 A 
HETATM   19  C2  UNL     1     -18.424  24.508   2.151  1.00  0.00     0.069 A 
HETATM   20  C3  UNL     1     -19.195  23.957   3.145  1.00  0.00     0.111 A 
HETATM   21  N2  UNL     1     -20.429  24.469   2.985  1.00  0.00    -0.310 N 
HETATM   22  N3  UNL     1     -20.478  25.299   1.963  1.00  0.00    -0.285 N 
ATOM     23  H2  UNL     1     -21.226  24.244   3.580  1.00  0.00     0.186 HD
ATOM     24  H3  UNL     1     -21.298  25.812   1.640  1.00  0.00     0.188 HD
ENDBRANCH  16  18
ENDBRANCH  13  16
ENDBRANCH   1  13
TORSDOF 3
ENDMDL
MODEL 2
REMARK VINA RESULT: -7.448138489      1.631      5.401
REMARK  3 active torsions:
REMARK  status: ('A' for Active; 'I' for Inactive)
REMARK    1  A    between atoms: S1_2  and  N1_4 
REMARK    2  A    between atoms: S1_2  and  C4_13 
REMARK    3  A    between atoms: N1_4  and  C1_6 
ROOT
HETATM    1  C4  UNL     1     -19.337  25.135   1.165  1.00  0.00     0.178 A 
HETATM    2  N4  UNL     1     -19.809  25.150   2.400  1.00  0.00    -0.286 N 
ATOM      3  H4  UNL     1     -20.675  25.611   2.680  1.00  0.00     0.188 HD
HETATM    4  N5  UNL     1     -19.021  24.498   3.216  1.00  0.00    -0.284 N 
ATOM      5  H5  UNL     1     -19.173  24.369   4.217  1.00  0.00     0.188 HD
HETATM    6  C5  UNL     1     -17.980  24.026   2.511  1.00  0.00     0.133 A 
HETATM    7  N6  UNL     1     -16.910  23.303   2.880  1.00  0.00    -0.351 N 
ATOM      8  H6  UNL     1     -16.781  23.014   3.850  1.00  0.00     0.166 HD
HETATM    9  C6  UNL     1     -16.023  22.973   1.943  1.00  0.00     0.090 A 
HETATM   10  C7  UNL     1     -16.127  23.324   0.624  1.00  0.00     0.018 A 
HETATM   11  C8  UNL     1     -17.220  24.066   0.230  1.00  0.00     0.020 A 
HETATM   12  C9  UNL     1     -18.152  24.415   1.199  1.00  0.00     0.051 A 
ENDROOT
BRANCH   1  13
HETATM   13  S1  UNL     1     -19.971  25.838  -0.303  1.00  0.00     0.282 S 
HETATM   14  O1  UNL     1     -21.267  26.562   0.033  1.00  0.00    -0.199 OA
HETATM   15  O2  UNL     1     -20.311  24.806  -1.317  1.00  0.00    -0.199 OA
BRANCH  13  16
HETATM   16  N1  UNL     1     -18.875  27.013  -0.889  1.00  0.00    -0.263 N 
ATOM     17  H1  UNL     1     -18.404  27.628  -0.225  1.00  0.00     0.180 HD
BRANCH  16  18
HETATM   18  C1  UNL     1     -18.627  27.141  -2.149  1.00  0.00     0.130 A 
HETATM   19  C2  UNL     1     -17.397  27.170  -2.758  1.00  0.00     0.069 A 
HETATM   20  C3  UNL     1     -17.608  27.322  -4.107  1.00  0.00     0.111 A 
HETATM   21  N2  UNL     1     -18.942  27.382  -4.270  1.00  0.00    -0.310 N 
HETATM   22  N3  UNL     1     -19.574  27.276  -3.119  1.00  0.00    -0.285 N 
ATOM     23  H2  UNL     1     -19.406  27.494  -5.171  1.00  0.00     0.186 HD
ATOM     24  H3  UNL     1     -20.585  27.293  -2.980  1.00  0.00     0.188 HD
ENDBRANCH  16  18
ENDBRANCH  13  16
ENDBRANCH   1  13
TORSDOF 3
ENDMDL
MODEL 3
REMARK VINA RESULT: -7.405378008      1.037      1.179
REMARK  3 active torsions:
REMARK  status: ('A' for Active; 'I' for Inactive)
REMARK    1  A    between atoms: S1_2  and  N1_4 
REMARK    2  A    between atoms: S1_2  and  C4_13 
REMARK    3  A    between atoms: N1_4  and  C1_6 
ROOT
HETATM    1  C4  UNL     1     -18.688  26.737  -2.422  1.00  0.00     0.178 A 
HETATM    2  N4  UNL     1     -19.131  27.052  -3.627  1.00  0.00    -0.286 N 
ATOM      3  H4  UNL     1     -20.110  27.229  -3.853  1.00  0.00     0.188 HD
HETATM    4  N5  UNL     1     -18.152  27.105  -4.493  1.00  0.00    -0.284 N 
ATOM      5  H5  UNL     1     -18.242  27.329  -5.484  1.00  0.00     0.188 HD
HETATM    6  C5  UNL     1     -17.006  26.816  -3.853  1.00  0.00     0.133 A 
HETATM    7  N6  UNL     1     -15.738  26.740  -4.289  1.00  0.00    -0.351 N 
ATOM      8  H6  UNL     1     -15.508  26.917  -5.267  1.00  0.00     0.166 HD
HETATM    9  C6  UNL     1     -14.790  26.427  -3.408  1.00  0.00     0.090 A 
HETATM   10  C7  UNL     1     -15.021  26.175  -2.083  1.00  0.00     0.018 A 
HETATM   11  C8  UNL     1     -16.318  26.250  -1.620  1.00  0.00     0.020 A 
HETATM   12  C9  UNL     1     -17.315  26.576  -2.530  1.00  0.00     0.051 A 
ENDROOT
BRANCH   1  13
HETATM   13  S1  UNL     1     -19.545  26.530  -0.914  1.00  0.00     0.282 S 
HETATM   14  O1  UNL     1     -20.991  26.958  -1.121  1.00  0.00    -0.199 OA
HETATM   15  O2  UNL     1     -18.996  27.391   0.166  1.00  0.00    -0.199 OA
BRANCH  13  16
HETATM   16  N1  UNL     1     -19.566  24.871  -0.497  1.00  0.00    -0.263 N 
ATOM     17  H1  UNL     1     -19.278  24.180  -1.191  1.00  0.00     0.180 HD
BRANCH  16  18
HETATM   18  C1  UNL     1     -19.938  24.470   0.672  1.00  0.00     0.130 A 
HETATM   19  C2  UNL     1     -19.960  23.180   1.143  1.00  0.00     0.069 A 
HETATM   20  C3  UNL     1     -20.426  23.220   2.434  1.00  0.00     0.111 A 
HETATM   21  N2  UNL     1     -20.669  24.516   2.702  1.00  0.00    -0.310 N 
HETATM   22  N3  UNL     1     -20.386  25.283   1.669  1.00  0.00    -0.285 N 
ATOM     23  H2  UNL     1     -21.026  24.861   3.592  1.00  0.00     0.186 HD
ATOM     24  H3  UNL     1     -20.486  26.297   1.624  1.00  0.00     0.188 HD
ENDBRANCH  16  18
ENDBRANCH  13  16
ENDBRANCH   1  13
TORSDOF 3
ENDMDL
MODEL 4
REMARK VINA RESULT: -7.357750501      2.072      6.608
REMARK  3 active torsions:
REMARK  status: ('A' for Active; 'I' for Inactive)
REMARK    1  A    between atoms: S1_2  and  N1_4 
REMARK    2  A    between atoms: S1_2  and  C4_13 
REMARK    3  A    between atoms: N1_4  and  C1_6 
ROOT
HETATM    1  C4  UNL     1     -20.299  24.587   1.593  1.00  0.00     0.178 A 
HETATM    2  N4  UNL     1     -20.931  25.433   2.390  1.00  0.00    -0.286 N 
ATOM      3  H4  UNL     1     -20.904  26.447   2.289  1.00  0.00     0.188 HD
HETATM    4  N5  UNL     1     -21.593  24.799   3.323  1.00  0.00    -0.284 N 
ATOM      5  H5  UNL     1     -22.158  25.233   4.054  1.00  0.00     0.188 HD
HETATM    6  C5  UNL     1     -21.403  23.480   3.155  1.00  0.00     0.133 A 
HETATM    7  N6  UNL     1     -21.861  22.420   3.841  1.00  0.00    -0.351 N 
ATOM      8  H6  UNL     1     -22.468  22.542   4.652  1.00  0.00     0.166 HD
HETATM    9  C6  UNL     1     -21.499  21.205   3.433  1.00  0.00     0.090 A 
HETATM   10  C7  UNL     1     -20.688  20.962   2.358  1.00  0.00     0.018 A 
HETATM   11  C8  UNL     1     -20.211  22.040   1.643  1.00  0.00     0.020 A 
HETATM   12  C9  UNL     1     -20.582  23.312   2.059  1.00  0.00     0.051 A 
ENDROOT
BRANCH   1  13
HETATM   13  S1  UNL     1     -19.281  24.879   0.204  1.00  0.00     0.282 S 
HETATM   14  O1  UNL     1     -19.852  24.109  -0.979  1.00  0.00    -0.199 OA
HETATM   15  O2  UNL     1     -17.896  24.378   0.409  1.00  0.00    -0.199 OA
BRANCH  13  16
HETATM   16  N1  UNL     1     -19.337  26.539  -0.201  1.00  0.00    -0.263 N 
ATOM     17  H1  UNL     1     -19.559  27.221   0.525  1.00  0.00     0.180 HD
BRANCH  16  18
HETATM   18  C1  UNL     1     -19.107  26.952  -1.402  1.00  0.00     0.130 A 
HETATM   19  C2  UNL     1     -18.081  27.763  -1.823  1.00  0.00     0.069 A 
HETATM   20  C3  UNL     1     -18.227  27.944  -3.177  1.00  0.00     0.111 A 
HETATM   21  N2  UNL     1     -19.323  27.248  -3.529  1.00  0.00    -0.310 N 
HETATM   22  N3  UNL     1     -19.867  26.647  -2.491  1.00  0.00    -0.285 N 
ATOM     23  H2  UNL     1     -19.687  27.192  -4.480  1.00  0.00     0.186 HD
ATOM     24  H3  UNL     1     -20.703  26.062  -2.500  1.00  0.00     0.188 HD
ENDBRANCH  16  18
ENDBRANCH  13  16
ENDBRANCH   1  13
TORSDOF 3
ENDMDL
MODEL 5
REMARK VINA RESULT: -7.251684153      1.532      1.663
REMARK  3 active torsions:
REMARK  status: ('A' for Active; 'I' for Inactive)
REMARK    1  A    between atoms: S1_2  and  N1_4 
REMARK    2  A    between atoms: S1_2  and  C4_13 
REMARK    3  A    between atoms: N1_4  and  C1_6 
ROOT
HETATM    1  C4  UNL     1     -19.260  26.440  -1.623  1.00  0.00     0.178 A 
HETATM    2  N4  UNL     1     -19.959  26.889  -2.651  1.00  0.00    -0.286 N 
ATOM      3  H4  UNL     1     -20.975  26.979  -2.662  1.00  0.00     0.188 HD
HETATM    4  N5  UNL     1     -19.178  27.202  -3.654  1.00  0.00    -0.284 N 
ATOM      5  H5  UNL     1     -19.483  27.570  -4.555  1.00  0.00     0.188 HD
HETATM    6  C5  UNL     1     -17.908  26.955  -3.293  1.00  0.00     0.133 A 
HETATM    7  N6  UNL     1     -16.750  27.106  -3.956  1.00  0.00    -0.351 N 
ATOM      8  H6  UNL     1     -16.734  27.466  -4.910  1.00  0.00     0.166 HD
HETATM    9  C6  UNL     1     -15.622  26.773  -3.330  1.00  0.00     0.090 A 
HETATM   10  C7  UNL     1     -15.563  26.284  -2.054  1.00  0.00     0.018 A 
HETATM   11  C8  UNL     1     -16.744  26.124  -1.361  1.00  0.00     0.020 A 
HETATM   12  C9  UNL     1     -17.926  26.468  -2.003  1.00  0.00     0.051 A 
ENDROOT
BRANCH   1  13
HETATM   13  S1  UNL     1     -19.780  25.888  -0.049  1.00  0.00     0.282 S 
HETATM   14  O1  UNL     1     -21.245  26.260   0.129  1.00  0.00    -0.199 OA
HETATM   15  O2  UNL     1     -19.035  26.552   1.052  1.00  0.00    -0.199 OA
BRANCH  13  16
HETATM   16  N1  UNL     1     -19.683  24.181   0.013  1.00  0.00    -0.263 N 
ATOM     17  H1  UNL     1     -19.307  23.675  -0.789  1.00  0.00     0.180 HD
BRANCH  16  18
HETATM   18  C1  UNL     1     -20.073  23.517   1.049  1.00  0.00     0.130 A 
HETATM   19  C2  UNL     1     -20.107  22.152   1.200  1.00  0.00     0.069 A 
HETATM   20  C3  UNL     1     -20.592  21.889   2.458  1.00  0.00     0.111 A 
HETATM   21  N2  UNL     1     -20.835  23.086   3.021  1.00  0.00    -0.310 N 
HETATM   22  N3  UNL     1     -20.535  24.074   2.204  1.00  0.00    -0.285 N 
ATOM     23  H2  UNL     1     -21.205  23.213   3.963  1.00  0.00     0.186 HD
ATOM     24  H3  UNL     1     -20.630  25.071   2.399  1.00  0.00     0.188 HD
ENDBRANCH  16  18
ENDBRANCH  13  16
ENDBRANCH   1  13
TORSDOF 3
ENDMDL
