MODEL 1
REMARK VINA RESULT: -10.183129051      0.000      0.000
REMARK  10 active torsions:
REMARK  status: ('A' for Active; 'I' for Inactive)
REMARK    1  A    between atoms: N1_1  and  N2_4 
REMARK    2  A    between atoms: C2_9  and  O2_10 
REMARK    3  A    between atoms: C3_12  and  C4_13 
REMARK    4  A    between atoms: N4_14  and  N5_16 
REMARK    5  A    between atoms: N5_16  and  C5_18 
REMARK    6  A    between atoms: C6_23  and  N8_24 
REMARK    7  A    between atoms: N8_24  and  O3_26 
REMARK    8  A    between atoms: O3_26  and  C7_27 
REMARK    9  A    between atoms: C9_29  and  O4_30 
REMARK   10  A    between atoms: C10_32  and  C11_33 
ROOT
HETATM    1  C5  UNL     1      18.917  -4.206   4.131  1.00  0.00     0.726 A 
HETATM    2  N6  UNL     1      18.974  -4.839   2.956  1.00  0.00    -0.116 N 
ATOM      3  H6  UNL     1      18.570  -5.758   2.770  1.00  0.00     0.206 HD
HETATM    4  N7  UNL     1      19.617  -4.119   2.079  1.00  0.00    -0.115 N 
ATOM      5  H7  UNL     1      19.797  -4.379   1.109  1.00  0.00     0.206 HD
HETATM    6  C6  UNL     1      20.001  -2.984   2.668  1.00  0.00     0.732 A 
HETATM    7  N9  UNL     1      19.562  -3.049   3.936  1.00  0.00    -0.017 N 
ATOM      8  H9  UNL     1      19.700  -2.327   4.643  1.00  0.00     0.203 HD
ENDROOT
BRANCH   1   9
HETATM    9  N5  UNL     1      18.309  -4.638   5.345  1.00  0.00    -0.131 N 
ATOM     10  H5  UNL     1      18.631  -4.193   6.205  1.00  0.00     0.205 HD
BRANCH   9  11
HETATM   11  N4  UNL     1      17.334  -5.592   5.468  1.00  0.00    -0.296 N 
HETATM   12  C4  UNL     1      17.448  -6.837   5.659  1.00  0.00     0.129 C 
ATOM     13  H4  UNL     1      16.377  -5.249   5.394  1.00  0.00     0.186 HD
BRANCH  12  14
HETATM   14  C3  UNL     1      16.238  -7.678   5.759  1.00  0.00     0.102 A 
HETATM   15  C2  UNL     1      15.257  -7.331   6.646  1.00  0.00     0.161 A 
HETATM   16  N3  UNL     1      14.123  -8.042   6.796  1.00  0.00    -0.287 N 
HETATM   17  C1  UNL     1      13.937  -9.142   6.046  1.00  0.00     0.350 A 
ATOM     18  H3  UNL     1      13.415  -7.749   7.470  1.00  0.00     0.172 HD
HETATM   19  N2  UNL     1      14.891  -9.507   5.163  1.00  0.00    -0.174 N 
HETATM   20  O1  UNL     1      12.881  -9.837   6.161  1.00  0.00    -0.244 OA
HETATM   21  C13 UNL     1      16.040  -8.800   4.999  1.00  0.00     0.286 A 
HETATM   22  O9  UNL     1      16.916  -9.152   4.174  1.00  0.00    -0.265 OA
BRANCH  15  23
HETATM   23  O2  UNL     1      15.424  -6.203   7.430  1.00  0.00    -0.345 OA
ATOM     24  H2  UNL     1      15.613  -6.327   8.353  1.00  0.00     0.219 HD
ENDBRANCH  15  23
BRANCH  19  25
HETATM   25  N1  UNL     1      14.654 -10.652   4.407  1.00  0.00    -0.332 N 
ATOM     26  H12 UNL     1      14.873 -11.574   4.785  1.00  0.00     0.177 HD
ATOM     27  H11 UNL     1      14.261 -10.522   3.475  1.00  0.00     0.177 HD
ENDBRANCH  19  25
ENDBRANCH  12  14
ENDBRANCH   9  11
ENDBRANCH   1   9
BRANCH   6  28
HETATM   28  N8  UNL     1      20.735  -1.909   2.078  1.00  0.00    -0.089 N 
ATOM     29  H8  UNL     1      20.844  -1.894   1.064  1.00  0.00     0.213 HD
BRANCH  28  30
HETATM   30  O3  UNL     1      21.297  -0.900   2.809  1.00  0.00    -0.217 OA
BRANCH  30  31
HETATM   31  C7  UNL     1      21.018   0.429   2.627  1.00  0.00     0.177 A 
HETATM   32  C8  UNL     1      21.198   1.025   1.406  1.00  0.00     0.085 A 
HETATM   33  C9  UNL     1      20.906   2.387   1.238  1.00  0.00     0.109 A 
HETATM   34  C10 UNL     1      20.439   3.081   2.343  1.00  0.00     0.188 A 
HETATM   35  O7  UNL     1      20.288   2.456   3.488  1.00  0.00    -0.263 OA
HETATM   36  C12 UNL     1      20.554   1.187   3.668  1.00  0.00     0.325 A 
HETATM   37  O8  UNL     1      20.381   0.647   4.819  1.00  0.00    -0.257 OA
BRANCH  33  38
HETATM   38  O4  UNL     1      21.076   3.020   0.017  1.00  0.00    -0.358 OA
ATOM     39  H4  UNL     1      20.461   3.674  -0.293  1.00  0.00     0.217 HD
ENDBRANCH  33  38
BRANCH  34  40
HETATM   40  C11 UNL     1      20.120   4.510   2.211  1.00  0.00     0.237 C 
HETATM   41  O5  UNL     1      21.029   5.362   2.201  1.00  0.00    -0.642 OA
HETATM   42  O6  UNL     1      18.814   4.892   2.098  1.00  0.00    -0.642 OA
ENDBRANCH  34  40
ENDBRANCH  30  31
ENDBRANCH  28  30
ENDBRANCH   6  28
TORSDOF 10
ENDMDL
MODEL 2
REMARK VINA RESULT: -10.064074545      5.716      6.986
REMARK  10 active torsions:
REMARK  status: ('A' for Active; 'I' for Inactive)
REMARK    1  A    between atoms: N1_1  and  N2_4 
REMARK    2  A    between atoms: C2_9  and  O2_10 
REMARK    3  A    between atoms: C3_12  and  C4_13 
REMARK    4  A    between atoms: N4_14  and  N5_16 
REMARK    5  A    between atoms: N5_16  and  C5_18 
REMARK    6  A    between atoms: C6_23  and  N8_24 
REMARK    7  A    between atoms: N8_24  and  O3_26 
REMARK    8  A    between atoms: O3_26  and  C7_27 
REMARK    9  A    between atoms: C9_29  and  O4_30 
REMARK   10  A    between atoms: C10_32  and  C11_33 
ROOT
HETATM    1  C5  UNL     1      20.072  -8.134   4.731  1.00  0.00     0.726 A 
HETATM    2  N6  UNL     1      19.113  -8.765   4.047  1.00  0.00    -0.116 N 
ATOM      3  H6  UNL     1      18.882  -9.754   4.146  1.00  0.00     0.206 HD
HETATM    4  N7  UNL     1      18.513  -7.940   3.233  1.00  0.00    -0.115 N 
ATOM      5  H7  UNL     1      17.747  -8.175   2.601  1.00  0.00     0.206 HD
HETATM    6  C6  UNL     1      19.073  -6.735   3.369  1.00  0.00     0.732 A 
HETATM    7  N9  UNL     1      20.035  -6.868   4.298  1.00  0.00    -0.017 N 
ATOM      8  H9  UNL     1      20.644  -6.118   4.623  1.00  0.00     0.203 HD
ENDROOT
BRANCH   1   9
HETATM    9  N5  UNL     1      20.956  -8.663   5.715  1.00  0.00    -0.131 N 
ATOM     10  H5  UNL     1      20.913  -8.245   6.645  1.00  0.00     0.205 HD
BRANCH   9  11
HETATM   11  N4  UNL     1      21.857  -9.678   5.532  1.00  0.00    -0.296 N 
HETATM   12  C4  UNL     1      22.296 -10.180   4.458  1.00  0.00     0.129 C 
ATOM     13  H4  UNL     1      22.228 -10.089   6.388  1.00  0.00     0.186 HD
BRANCH  12  14
HETATM   14  C3  UNL     1      23.276 -11.283   4.509  1.00  0.00     0.102 A 
HETATM   15  C2  UNL     1      22.980 -12.466   3.891  1.00  0.00     0.161 A 
HETATM   16  N3  UNL     1      23.819 -13.519   3.888  1.00  0.00    -0.287 N 
HETATM   17  C1  UNL     1      25.002 -13.414   4.519  1.00  0.00     0.350 A 
ATOM     18  H3  UNL     1      23.561 -14.385   3.414  1.00  0.00     0.172 HD
HETATM   19  N2  UNL     1      25.318 -12.257   5.139  1.00  0.00    -0.174 N 
HETATM   20  O1  UNL     1      25.818 -14.386   4.538  1.00  0.00    -0.244 OA
HETATM   21  C13 UNL     1      24.483 -11.185   5.149  1.00  0.00     0.286 A 
HETATM   22  O9  UNL     1      24.792 -10.118   5.729  1.00  0.00    -0.265 OA
BRANCH  15  23
HETATM   23  O2  UNL     1      21.769 -12.600   3.235  1.00  0.00    -0.345 OA
ATOM     24  H2  UNL     1      21.459 -11.865   2.718  1.00  0.00     0.219 HD
ENDBRANCH  15  23
BRANCH  19  25
HETATM   25  N1  UNL     1      26.554 -12.194   5.777  1.00  0.00    -0.332 N 
ATOM     26  H12 UNL     1      26.611 -12.223   6.795  1.00  0.00     0.177 HD
ATOM     27  H11 UNL     1      27.381 -12.117   5.185  1.00  0.00     0.177 HD
ENDBRANCH  19  25
ENDBRANCH  12  14
ENDBRANCH   9  11
ENDBRANCH   1   9
BRANCH   6  28
HETATM   28  N8  UNL     1      18.728  -5.537   2.670  1.00  0.00    -0.089 N 
ATOM     29  H8  UNL     1      17.752  -5.240   2.668  1.00  0.00     0.213 HD
BRANCH  28  30
HETATM   30  O3  UNL     1      19.644  -4.772   2.004  1.00  0.00    -0.217 OA
BRANCH  30  31
HETATM   31  C7  UNL     1      19.822  -3.430   2.212  1.00  0.00     0.177 A 
HETATM   32  C8  UNL     1      20.161  -2.597   1.178  1.00  0.00     0.085 A 
HETATM   33  C9  UNL     1      20.338  -1.225   1.410  1.00  0.00     0.109 A 
HETATM   34  C10 UNL     1      20.158  -0.767   2.706  1.00  0.00     0.188 A 
HETATM   35  O7  UNL     1      19.835  -1.613   3.656  1.00  0.00    -0.263 OA
HETATM   36  C12 UNL     1      19.664  -2.897   3.463  1.00  0.00     0.325 A 
HETATM   37  O8  UNL     1      19.348  -3.661   4.444  1.00  0.00    -0.257 OA
BRANCH  33  38
HETATM   38  O4  UNL     1      20.680  -0.355   0.386  1.00  0.00    -0.358 OA
ATOM     39  H4  UNL     1      21.427   0.227   0.458  1.00  0.00     0.217 HD
ENDBRANCH  33  38
BRANCH  34  40
HETATM   40  C11 UNL     1      20.333   0.664   2.992  1.00  0.00     0.237 C 
HETATM   41  O5  UNL     1      21.474   1.147   3.123  1.00  0.00    -0.642 OA
HETATM   42  O6  UNL     1      19.229   1.459   3.112  1.00  0.00    -0.642 OA
ENDBRANCH  34  40
ENDBRANCH  30  31
ENDBRANCH  28  30
ENDBRANCH   6  28
TORSDOF 10
ENDMDL
MODEL 3
REMARK VINA RESULT: -9.974415474      5.734      6.900
REMARK  10 active torsions:
REMARK  status: ('A' for Active; 'I' for Inactive)
REMARK    1  A    between atoms: N1_1  and  N2_4 
REMARK    2  A    between atoms: C2_9  and  O2_10 
REMARK    3  A    between atoms: C3_12  and  C4_13 
REMARK    4  A    between atoms: N4_14  and  N5_16 
REMARK    5  A    between atoms: N5_16  and  C5_18 
REMARK    6  A    between atoms: C6_23  and  N8_24 
REMARK    7  A    between atoms: N8_24  and  O3_26 
REMARK    8  A    between atoms: O3_26  and  C7_27 
REMARK    9  A    between atoms: C9_29  and  O4_30 
REMARK   10  A    between atoms: C10_32  and  C11_33 
ROOT
HETATM    1  C5  UNL     1      20.123  -8.180   4.726  1.00  0.00     0.726 A 
HETATM    2  N6  UNL     1      19.137  -8.809   4.081  1.00  0.00    -0.116 N 
ATOM      3  H6  UNL     1      18.908  -9.798   4.190  1.00  0.00     0.206 HD
HETATM    4  N7  UNL     1      18.505  -7.983   3.293  1.00  0.00    -0.115 N 
ATOM      5  H7  UNL     1      17.714  -8.217   2.693  1.00  0.00     0.206 HD
HETATM    6  C6  UNL     1      19.072  -6.780   3.407  1.00  0.00     0.732 A 
HETATM    7  N9  UNL     1      20.071  -6.914   4.295  1.00  0.00    -0.017 N 
ATOM      8  H9  UNL     1      20.694  -6.165   4.595  1.00  0.00     0.203 HD
ENDROOT
BRANCH   1   9
HETATM    9  N5  UNL     1      21.046  -8.711   5.673  1.00  0.00    -0.131 N 
ATOM     10  H5  UNL     1      21.069  -8.268   6.592  1.00  0.00     0.205 HD
BRANCH   9  11
HETATM   11  N4  UNL     1      21.904  -9.758   5.469  1.00  0.00    -0.296 N 
HETATM   12  C4  UNL     1      22.667  -9.992   4.489  1.00  0.00     0.129 C 
ATOM     13  H4  UNL     1      21.932 -10.450   6.217  1.00  0.00     0.186 HD
BRANCH  12  14
HETATM   14  C3  UNL     1      23.514 -11.203   4.489  1.00  0.00     0.102 A 
HETATM   15  C2  UNL     1      24.787 -11.124   4.982  1.00  0.00     0.161 A 
HETATM   16  N3  UNL     1      25.621 -12.180   5.021  1.00  0.00    -0.287 N 
HETATM   17  C1  UNL     1      25.194 -13.368   4.558  1.00  0.00     0.350 A 
ATOM     18  H3  UNL     1      26.564 -12.080   5.397  1.00  0.00     0.172 HD
HETATM   19  N2  UNL     1      23.941 -13.472   4.065  1.00  0.00    -0.174 N 
HETATM   20  O1  UNL     1      25.953 -14.386   4.578  1.00  0.00    -0.244 OA
HETATM   21  C13 UNL     1      23.087 -12.416   4.020  1.00  0.00     0.286 A 
HETATM   22  O9  UNL     1      21.927 -12.530   3.560  1.00  0.00    -0.265 OA
BRANCH  15  23
HETATM   23  O2  UNL     1      25.250  -9.913   5.465  1.00  0.00    -0.345 OA
ATOM     24  H2  UNL     1      25.840  -9.411   4.913  1.00  0.00     0.219 HD
ENDBRANCH  15  23
BRANCH  19  25
HETATM   25  N1  UNL     1      23.543 -14.721   3.599  1.00  0.00    -0.332 N 
ATOM     26  H12 UNL     1      23.985 -15.130   2.775  1.00  0.00     0.177 HD
ATOM     27  H11 UNL     1      22.800 -15.196   4.112  1.00  0.00     0.177 HD
ENDBRANCH  19  25
ENDBRANCH  12  14
ENDBRANCH   9  11
ENDBRANCH   1   9
BRANCH   6  28
HETATM   28  N8  UNL     1      18.701  -5.581   2.722  1.00  0.00    -0.089 N 
ATOM     29  H8  UNL     1      17.726  -5.284   2.756  1.00  0.00     0.213 HD
BRANCH  28  30
HETATM   30  O3  UNL     1      19.591  -4.815   2.023  1.00  0.00    -0.217 OA
BRANCH  30  31
HETATM   31  C7  UNL     1      19.782  -3.474   2.232  1.00  0.00     0.177 A 
HETATM   32  C8  UNL     1      20.106  -2.641   1.193  1.00  0.00     0.085 A 
HETATM   33  C9  UNL     1      20.297  -1.270   1.425  1.00  0.00     0.109 A 
HETATM   34  C10 UNL     1      20.145  -0.814   2.726  1.00  0.00     0.188 A 
HETATM   35  O7  UNL     1      19.834  -1.661   3.679  1.00  0.00    -0.263 OA
HETATM   36  C12 UNL     1      19.652  -2.943   3.486  1.00  0.00     0.325 A 
HETATM   37  O8  UNL     1      19.351  -3.709   4.471  1.00  0.00    -0.257 OA
BRANCH  33  38
HETATM   38  O4  UNL     1      20.624  -0.399   0.397  1.00  0.00    -0.358 OA
ATOM     39  H4  UNL     1      21.018   0.447   0.570  1.00  0.00     0.217 HD
ENDBRANCH  33  38
BRANCH  34  40
HETATM   40  C11 UNL     1      20.335   0.614   3.012  1.00  0.00     0.237 C 
HETATM   41  O5  UNL     1      21.479   1.080   3.169  1.00  0.00    -0.642 OA
HETATM   42  O6  UNL     1      19.240   1.426   3.103  1.00  0.00    -0.642 OA
ENDBRANCH  34  40
ENDBRANCH  30  31
ENDBRANCH  28  30
ENDBRANCH   6  28
TORSDOF 10
ENDMDL
MODEL 4
REMARK VINA RESULT: -9.768176152      5.192      6.952
REMARK  10 active torsions:
REMARK  status: ('A' for Active; 'I' for Inactive)
REMARK    1  A    between atoms: N1_1  and  N2_4 
REMARK    2  A    between atoms: C2_9  and  O2_10 
REMARK    3  A    between atoms: C3_12  and  C4_13 
REMARK    4  A    between atoms: N4_14  and  N5_16 
REMARK    5  A    between atoms: N5_16  and  C5_18 
REMARK    6  A    between atoms: C6_23  and  N8_24 
REMARK    7  A    between atoms: N8_24  and  O3_26 
REMARK    8  A    between atoms: O3_26  and  C7_27 
REMARK    9  A    between atoms: C9_29  and  O4_30 
REMARK   10  A    between atoms: C10_32  and  C11_33 
ROOT
HETATM    1  C5  UNL     1      17.564  -9.188   3.077  1.00  0.00     0.726 A 
HETATM    2  N6  UNL     1      17.059  -8.820   4.258  1.00  0.00    -0.116 N 
ATOM      3  H6  UNL     1      16.408  -9.376   4.812  1.00  0.00     0.206 HD
HETATM    4  N7  UNL     1      17.515  -7.647   4.604  1.00  0.00    -0.115 N 
ATOM      5  H7  UNL     1      17.281  -7.144   5.461  1.00  0.00     0.206 HD
HETATM    6  C6  UNL     1      18.339  -7.218   3.645  1.00  0.00     0.732 A 
HETATM    7  N9  UNL     1      18.361  -8.179   2.707  1.00  0.00    -0.017 N 
ATOM      8  H9  UNL     1      18.903  -8.145   1.844  1.00  0.00     0.203 HD
ENDROOT
BRANCH   1   9
HETATM    9  N5  UNL     1      17.328 -10.388   2.346  1.00  0.00    -0.131 N 
ATOM     10  H5  UNL     1      16.406 -10.815   2.446  1.00  0.00     0.205 HD
BRANCH   9  11
HETATM   11  N4  UNL     1      18.219 -11.023   1.521  1.00  0.00    -0.296 N 
HETATM   12  C4  UNL     1      19.482 -11.038   1.563  1.00  0.00     0.129 C 
ATOM     13  H4  UNL     1      17.802 -11.563   0.764  1.00  0.00     0.186 HD
BRANCH  12  14
HETATM   14  C3  UNL     1      20.241 -11.803   0.553  1.00  0.00     0.102 A 
HETATM   15  C2  UNL     1      19.992 -11.584  -0.773  1.00  0.00     0.161 A 
HETATM   16  N3  UNL     1      20.642 -12.237  -1.756  1.00  0.00    -0.287 N 
HETATM   17  C1  UNL     1      21.577 -13.146  -1.429  1.00  0.00     0.350 A 
ATOM     18  H3  UNL     1      20.427 -12.044  -2.734  1.00  0.00     0.172 HD
HETATM   19  N2  UNL     1      21.841 -13.382  -0.126  1.00  0.00    -0.174 N 
HETATM   20  O1  UNL     1      22.210 -13.781  -2.328  1.00  0.00    -0.244 OA
HETATM   21  C13 UNL     1      21.195 -12.731   0.877  1.00  0.00     0.286 A 
HETATM   22  O9  UNL     1      21.453 -12.961   2.082  1.00  0.00    -0.265 OA
BRANCH  15  23
HETATM   23  O2  UNL     1      19.035 -10.653  -1.136  1.00  0.00    -0.345 OA
ATOM     24  H2  UNL     1      18.211 -10.975  -1.484  1.00  0.00     0.219 HD
ENDBRANCH  15  23
BRANCH  19  25
HETATM   25  N1  UNL     1      22.818 -14.330   0.164  1.00  0.00    -0.332 N 
ATOM     26  H12 UNL     1      23.698 -14.049   0.598  1.00  0.00     0.177 HD
ATOM     27  H11 UNL     1      22.613 -15.300  -0.077  1.00  0.00     0.177 HD
ENDBRANCH  19  25
ENDBRANCH  12  14
ENDBRANCH   9  11
ENDBRANCH   1   9
BRANCH   6  28
HETATM   28  N8  UNL     1      19.057  -5.982   3.611  1.00  0.00    -0.089 N 
ATOM     29  H8  UNL     1      19.615  -5.722   4.425  1.00  0.00     0.213 HD
BRANCH  28  30
HETATM   30  O3  UNL     1      19.031  -5.133   2.541  1.00  0.00    -0.217 OA
BRANCH  30  31
HETATM   31  C7  UNL     1      19.436  -3.825   2.587  1.00  0.00     0.177 A 
HETATM   32  C8  UNL     1      19.775  -3.154   1.441  1.00  0.00     0.085 A 
HETATM   33  C9  UNL     1      20.186  -1.814   1.506  1.00  0.00     0.109 A 
HETATM   34  C10 UNL     1      20.232  -1.220   2.758  1.00  0.00     0.188 A 
HETATM   35  O7  UNL     1      19.896  -1.914   3.820  1.00  0.00    -0.263 OA
HETATM   36  C12 UNL     1      19.509  -3.165   3.783  1.00  0.00     0.325 A 
HETATM   37  O8  UNL     1      19.197  -3.777   4.867  1.00  0.00    -0.257 OA
BRANCH  33  38
HETATM   38  O4  UNL     1      20.535  -1.106   0.367  1.00  0.00    -0.358 OA
ATOM     39  H4  UNL     1      21.341  -0.607   0.320  1.00  0.00     0.217 HD
ENDBRANCH  33  38
BRANCH  34  40
HETATM   40  C11 UNL     1      20.656   0.182   2.872  1.00  0.00     0.237 C 
HETATM   41  O5  UNL     1      21.867   0.477   2.885  1.00  0.00    -0.642 OA
HETATM   42  O6  UNL     1      19.707   1.160   2.962  1.00  0.00    -0.642 OA
ENDBRANCH  34  40
ENDBRANCH  30  31
ENDBRANCH  28  30
ENDBRANCH   6  28
TORSDOF 10
ENDMDL
MODEL 5
REMARK VINA RESULT: -9.757165228      0.552      1.654
REMARK  10 active torsions:
REMARK  status: ('A' for Active; 'I' for Inactive)
REMARK    1  A    between atoms: N1_1  and  N2_4 
REMARK    2  A    between atoms: C2_9  and  O2_10 
REMARK    3  A    between atoms: C3_12  and  C4_13 
REMARK    4  A    between atoms: N4_14  and  N5_16 
REMARK    5  A    between atoms: N5_16  and  C5_18 
REMARK    6  A    between atoms: C6_23  and  N8_24 
REMARK    7  A    between atoms: N8_24  and  O3_26 
REMARK    8  A    between atoms: O3_26  and  C7_27 
REMARK    9  A    between atoms: C9_29  and  O4_30 
REMARK   10  A    between atoms: C10_32  and  C11_33 
ROOT
HETATM    1  C5  UNL     1      18.972  -4.301   3.918  1.00  0.00     0.726 A 
HETATM    2  N6  UNL     1      19.163  -4.936   2.759  1.00  0.00    -0.116 N 
ATOM      3  H6  UNL     1      18.856  -5.888   2.559  1.00  0.00     0.206 HD
HETATM    4  N7  UNL     1      19.799  -4.169   1.916  1.00  0.00    -0.115 N 
ATOM      5  H7  UNL     1      20.066  -4.420   0.964  1.00  0.00     0.206 HD
HETATM    6  C6  UNL     1      20.040  -3.000   2.514  1.00  0.00     0.732 A 
HETATM    7  N9  UNL     1      19.524  -3.093   3.751  1.00  0.00    -0.017 N 
ATOM      8  H9  UNL     1      19.549  -2.356   4.455  1.00  0.00     0.203 HD
ENDROOT
BRANCH   1   9
HETATM    9  N5  UNL     1      18.324  -4.776   5.095  1.00  0.00    -0.131 N 
ATOM     10  H5  UNL     1      18.553  -4.304   5.970  1.00  0.00     0.205 HD
BRANCH   9  11
HETATM   11  N4  UNL     1      17.422  -5.804   5.164  1.00  0.00    -0.296 N 
HETATM   12  C4  UNL     1      17.626  -7.048   5.261  1.00  0.00     0.129 C 
ATOM     13  H4  UNL     1      16.441  -5.526   5.132  1.00  0.00     0.186 HD
BRANCH  12  14
HETATM   14  C3  UNL     1      16.481  -7.979   5.319  1.00  0.00     0.102 A 
HETATM   15  C2  UNL     1      16.422  -9.017   4.431  1.00  0.00     0.161 A 
HETATM   16  N3  UNL     1      15.415  -9.911   4.419  1.00  0.00    -0.287 N 
HETATM   17  C1  UNL     1      14.419  -9.786   5.314  1.00  0.00     0.350 A 
ATOM     18  H3  UNL     1      15.408 -10.672   3.740  1.00  0.00     0.172 HD
HETATM   19  N2  UNL     1      14.453  -8.768   6.200  1.00  0.00    -0.174 N 
HETATM   20  O1  UNL     1      13.453 -10.609   5.332  1.00  0.00    -0.244 OA
HETATM   21  C13 UNL     1      15.463  -7.859   6.227  1.00  0.00     0.286 A 
HETATM   22  O9  UNL     1      15.480  -6.920   7.057  1.00  0.00    -0.265 OA
BRANCH  15  23
HETATM   23  O2  UNL     1      17.435  -9.168   3.501  1.00  0.00    -0.345 OA
ATOM     24  H2  UNL     1      17.210  -9.539   2.655  1.00  0.00     0.219 HD
ENDBRANCH  15  23
BRANCH  19  25
HETATM   25  N1  UNL     1      13.402  -8.680   7.108  1.00  0.00    -0.332 N 
ATOM     26  H12 UNL     1      12.499  -8.305   6.818  1.00  0.00     0.177 HD
ATOM     27  H11 UNL     1      13.579  -9.002   8.060  1.00  0.00     0.177 HD
ENDBRANCH  19  25
ENDBRANCH  12  14
ENDBRANCH   9  11
ENDBRANCH   1   9
BRANCH   6  28
HETATM   28  N8  UNL     1      20.714  -1.868   1.959  1.00  0.00    -0.089 N 
ATOM     29  H8  UNL     1      20.783  -1.793   0.944  1.00  0.00     0.213 HD
BRANCH  28  30
HETATM   30  O3  UNL     1      21.272  -0.882   2.724  1.00  0.00    -0.217 OA
BRANCH  30  31
HETATM   31  C7  UNL     1      21.005   0.453   2.572  1.00  0.00     0.177 A 
HETATM   32  C8  UNL     1      21.173   1.069   1.360  1.00  0.00     0.085 A 
HETATM   33  C9  UNL     1      20.895   2.437   1.222  1.00  0.00     0.109 A 
HETATM   34  C10 UNL     1      20.453   3.116   2.347  1.00  0.00     0.188 A 
HETATM   35  O7  UNL     1      20.312   2.472   3.482  1.00  0.00    -0.263 OA
HETATM   36  C12 UNL     1      20.566   1.196   3.634  1.00  0.00     0.325 A 
HETATM   37  O8  UNL     1      20.405   0.637   4.777  1.00  0.00    -0.257 OA
BRANCH  33  38
HETATM   38  O4  UNL     1      21.053   3.092   0.011  1.00  0.00    -0.358 OA
ATOM     39  H4  UNL     1      21.371   2.639  -0.761  1.00  0.00     0.217 HD
ENDBRANCH  33  38
BRANCH  34  40
HETATM   40  C11 UNL     1      20.148   4.551   2.247  1.00  0.00     0.237 C 
HETATM   41  O5  UNL     1      21.068   5.390   2.208  1.00  0.00    -0.642 OA
HETATM   42  O6  UNL     1      18.844   4.952   2.196  1.00  0.00    -0.642 OA
ENDBRANCH  34  40
ENDBRANCH  30  31
ENDBRANCH  28  30
ENDBRANCH   6  28
TORSDOF 10
ENDMDL
