MODEL 1
REMARK VINA RESULT: -7.697233165      0.000      0.000
REMARK  11 active torsions:
REMARK  status: ('A' for Active; 'I' for Inactive)
REMARK    1  A    between atoms: C2_2  and  C3_4 
REMARK    2  A    between atoms: C5_7  and  C6_8 
REMARK       I    between atoms: C6_8  and  N2_10 
REMARK       I    between atoms: N2_10  and  C7_12 
REMARK       I    between atoms: C7_12  and  N3_13 
REMARK       I    between atoms: C7_12  and  N4_17 
REMARK    3  A    between atoms: C8_24  and  N6_25 
REMARK    4  A    between atoms: N6_25  and  C9_26 
REMARK    5  A    between atoms: C9_26  and  O4_27 
REMARK    6  A    between atoms: C9_26  and  C10_29 
REMARK    7  A    between atoms: C11_31  and  C12_32 
REMARK    8  A    between atoms: C12_32  and  O6_33 
REMARK    9  A    between atoms: C12_32  and  N7_35 
REMARK   10  A    between atoms: C16_42  and  N9_43 
REMARK   11  A    between atoms: C17_45  and  C19_47 
ROOT
HETATM    1  N7  UNL     1      14.855 -10.333   4.702  1.00  0.00    -0.295 N 
ATOM      2  H7  UNL     1      15.737  -9.851   4.532  1.00  0.00     0.174 HD
HETATM    3  C13 UNL     1      14.077 -10.045   5.828  1.00  0.00     0.179 C 
HETATM    4  N8  UNL     1      13.411  -9.802   6.759  1.00  0.00    -0.172 NA
ENDROOT
BRANCH   1   5
HETATM    5  C12 UNL     1      14.362 -11.337   3.793  1.00  0.00     0.285 C 
BRANCH   5   6
HETATM    6  C11 UNL     1      15.476 -12.101   3.157  1.00  0.00     0.106 A 
HETATM    7  O5  UNL     1      16.528 -11.494   2.648  1.00  0.00    -0.306 OA
HETATM    8  C10 UNL     1      17.516 -12.148   2.087  1.00  0.00     0.145 A 
HETATM    9  C16 UNL     1      17.546 -13.517   1.977  1.00  0.00     0.119 A 
HETATM   10  C15 UNL     1      16.457 -14.213   2.500  1.00  0.00     0.203 A 
HETATM   11  C14 UNL     1      15.437 -13.478   3.083  1.00  0.00     0.094 A 
HETATM   12  O7  UNL     1      16.469 -15.449   2.408  1.00  0.00    -0.286 OA
BRANCH   8  13
HETATM   13  C9  UNL     1      18.705 -11.370   1.519  1.00  0.00     0.362 C 
BRANCH  13  14
HETATM   14  N6  UNL     1      19.733 -11.453   2.361  1.00  0.00    -0.382 NA
BRANCH  14  15
HETATM   15  C8  UNL     1      20.660 -11.526   3.118  1.00  0.00     0.254 A 
HETATM   16  C3  UNL     1      21.735 -12.391   3.131  1.00  0.00     0.103 A 
HETATM   17  C4  UNL     1      22.693 -12.269   4.135  1.00  0.00     0.099 A 
HETATM   18  N1  UNL     1      23.813 -13.135   4.188  1.00  0.00    -0.099 NA
HETATM   19  C5  UNL     1      22.612 -11.311   5.123  1.00  0.00     0.147 A 
HETATM   20  N5  UNL     1      21.528 -10.505   5.034  1.00  0.00    -0.251 N 
HETATM   21  O3  UNL     1      20.655 -10.614   4.122  1.00  0.00    -0.203 OA
ATOM     22  H5  UNL     1      21.407  -9.774   5.735  1.00  0.00     0.195 HD
BRANCH  16  23
HETATM   23  C2  UNL     1      21.924 -13.428   2.149  1.00  0.00     0.163 C 
HETATM   24  C1  UNL     1      22.532 -13.337   0.825  1.00  0.00     0.097 C 
HETATM   25  O1  UNL     1      21.502 -14.600   2.470  1.00  0.00    -0.293 OA
ENDBRANCH  16  23
BRANCH  19  26
HETATM   26  C6  UNL     1      23.598 -11.174   6.173  1.00  0.00     0.274 C 
HETATM   27  O2  UNL     1      24.488 -10.307   6.061  1.00  0.00    -0.266 OA
HETATM   28  N2  UNL     1      23.583 -11.992   7.320  1.00  0.00    -0.306 N 
HETATM   29  C7  UNL     1      24.538 -11.902   8.394  1.00  0.00     0.483 C 
ATOM     30  H2  UNL     1      22.847 -12.695   7.395  1.00  0.00     0.166 HD
HETATM   31  N3  UNL     1      25.249 -13.173   8.526  1.00  0.00    -0.033 N 
HETATM   32  N4  UNL     1      23.924 -11.653   9.674  1.00  0.00    -0.033 N 
ATOM     33  H33 UNL     1      24.610 -13.961   8.644  1.00  0.00     0.278 HD
ATOM     34  H32 UNL     1      25.681 -13.466   7.650  1.00  0.00     0.278 HD
ATOM     35  H31 UNL     1      25.926 -13.109   9.287  1.00  0.00     0.278 HD
ATOM     36  H43 UNL     1      23.335 -10.822   9.640  1.00  0.00     0.278 HD
ATOM     37  H42 UNL     1      23.213 -12.355   9.879  1.00  0.00     0.278 HD
ATOM     38  H41 UNL     1      24.602 -11.589  10.435  1.00  0.00     0.278 HD
ENDBRANCH  19  26
ENDBRANCH  14  15
ENDBRANCH  13  14
BRANCH  13  39
HETATM   39  O4  UNL     1      18.228 -10.014   1.490  1.00  0.00    -0.360 OA
ATOM     40  H4  UNL     1      17.969  -9.795   0.603  1.00  0.00     0.213 HD
ENDBRANCH  13  39
ENDBRANCH   8  13
BRANCH   9  41
HETATM   41  N9  UNL     1      18.642 -14.145   1.356  1.00  0.00    -0.352 N 
HETATM   42  C17 UNL     1      18.658 -14.464   0.100  1.00  0.00     0.047 C 
HETATM   43  C18 UNL     1      17.464 -14.150  -0.712  1.00  0.00     0.072 C 
ATOM     44  H9  UNL     1      19.463 -14.361   1.922  1.00  0.00     0.166 HD
BRANCH  42  45
HETATM   45  C19 UNL     1      19.795 -15.111  -0.526  1.00  0.00     0.132 C 
HETATM   46  N10 UNL     1      20.330 -16.122   0.059  1.00  0.00    -0.386 N 
ATOM     47 2H10 UNL     1      19.940 -16.440   0.946  1.00  0.00     0.157 HD
ATOM     48 1H10 UNL     1      21.129 -16.576  -0.381  1.00  0.00     0.157 HD
HETATM   49  N11 UNL     1      20.335 -14.668  -1.757  1.00  0.00    -0.081 NA
ENDBRANCH  42  45
ENDBRANCH   9  41
ENDBRANCH   5   6
BRANCH   5  50
HETATM   50  O6  UNL     1      13.505 -12.171   4.511  1.00  0.00    -0.370 OA
ATOM     51  H6  UNL     1      13.383 -11.868   5.403  1.00  0.00     0.212 HD
ENDBRANCH   5  50
ENDBRANCH   1   5
TORSDOF 11
ENDMDL
MODEL 2
REMARK VINA RESULT: -7.366415620      3.168      4.616
REMARK  11 active torsions:
REMARK  status: ('A' for Active; 'I' for Inactive)
REMARK    1  A    between atoms: C2_2  and  C3_4 
REMARK    2  A    between atoms: C5_7  and  C6_8 
REMARK       I    between atoms: C6_8  and  N2_10 
REMARK       I    between atoms: N2_10  and  C7_12 
REMARK       I    between atoms: C7_12  and  N3_13 
REMARK       I    between atoms: C7_12  and  N4_17 
REMARK    3  A    between atoms: C8_24  and  N6_25 
REMARK    4  A    between atoms: N6_25  and  C9_26 
REMARK    5  A    between atoms: C9_26  and  O4_27 
REMARK    6  A    between atoms: C9_26  and  C10_29 
REMARK    7  A    between atoms: C11_31  and  C12_32 
REMARK    8  A    between atoms: C12_32  and  O6_33 
REMARK    9  A    between atoms: C12_32  and  N7_35 
REMARK   10  A    between atoms: C16_42  and  N9_43 
REMARK   11  A    between atoms: C17_45  and  C19_47 
ROOT
HETATM    1  N7  UNL     1      18.774  -8.377   3.594  1.00  0.00    -0.295 N 
ATOM      2  H7  UNL     1      17.969  -8.720   3.071  1.00  0.00     0.174 HD
HETATM    3  C13 UNL     1      19.089  -7.016   3.632  1.00  0.00     0.179 C 
HETATM    4  N8  UNL     1      19.354  -5.877   3.681  1.00  0.00    -0.172 NA
ENDROOT
BRANCH   1   5
HETATM    5  C12 UNL     1      19.630  -9.279   4.323  1.00  0.00     0.285 C 
BRANCH   5   6
HETATM    6  C11 UNL     1      20.128 -10.389   3.459  1.00  0.00     0.106 A 
HETATM    7  O5  UNL     1      21.388 -10.770   3.479  1.00  0.00    -0.306 OA
HETATM    8  C10 UNL     1      21.843 -11.743   2.728  1.00  0.00     0.145 A 
HETATM    9  C16 UNL     1      21.054 -12.451   1.855  1.00  0.00     0.119 A 
HETATM   10  C15 UNL     1      19.708 -12.092   1.791  1.00  0.00     0.203 A 
HETATM   11  C14 UNL     1      19.275 -11.057   2.604  1.00  0.00     0.094 A 
HETATM   12  O7  UNL     1      18.983 -12.722   1.009  1.00  0.00    -0.286 OA
BRANCH   8  13
HETATM   13  C9  UNL     1      23.322 -12.127   2.810  1.00  0.00     0.362 C 
BRANCH  13  14
HETATM   14  N6  UNL     1      23.707 -12.144   4.084  1.00  0.00    -0.382 NA
BRANCH  14  15
HETATM   15  C8  UNL     1      24.053 -12.161   5.232  1.00  0.00     0.254 A 
HETATM   16  C3  UNL     1      24.961 -12.976   5.877  1.00  0.00     0.103 A 
HETATM   17  C4  UNL     1      25.190 -12.793   7.239  1.00  0.00     0.099 A 
HETATM   18  N1  UNL     1      26.113 -13.606   7.943  1.00  0.00    -0.099 NA
HETATM   19  C5  UNL     1      24.541 -11.823   7.975  1.00  0.00     0.147 A 
HETATM   20  N5  UNL     1      23.670 -11.070   7.264  1.00  0.00    -0.251 N 
HETATM   21  O3  UNL     1      23.461 -11.235   6.026  1.00  0.00    -0.203 OA
ATOM     22  H5  UNL     1      23.157 -10.335   7.749  1.00  0.00     0.195 HD
BRANCH  16  23
HETATM   23  C2  UNL     1      25.697 -14.019   5.209  1.00  0.00     0.163 C 
HETATM   24  C1  UNL     1      25.270 -15.375   4.876  1.00  0.00     0.097 C 
HETATM   25  O1  UNL     1      26.898 -13.729   4.853  1.00  0.00    -0.293 OA
ENDBRANCH  16  23
BRANCH  19  26
HETATM   26  C6  UNL     1      24.767 -11.624   9.390  1.00  0.00     0.274 C 
HETATM   27  O2  UNL     1      23.986 -12.149  10.210  1.00  0.00    -0.266 OA
HETATM   28  N2  UNL     1      25.845 -10.855   9.871  1.00  0.00    -0.306 N 
HETATM   29  C7  UNL     1      26.117 -10.623  11.266  1.00  0.00     0.483 C 
ATOM     30  H2  UNL     1      26.474 -10.435   9.187  1.00  0.00     0.166 HD
HETATM   31  N3  UNL     1      26.065  -9.188  11.544  1.00  0.00    -0.033 N 
HETATM   32  N4  UNL     1      27.433 -11.058  11.664  1.00  0.00    -0.033 N 
ATOM     33  H33 UNL     1      26.689  -8.656  10.936  1.00  0.00     0.278 HD
ATOM     34  H32 UNL     1      25.182  -8.771  11.249  1.00  0.00     0.278 HD
ATOM     35  H31 UNL     1      26.257  -9.023  12.532  1.00  0.00     0.278 HD
ATOM     36  H43 UNL     1      27.581 -12.038  11.422  1.00  0.00     0.278 HD
ATOM     37  H42 UNL     1      28.150 -10.631  11.078  1.00  0.00     0.278 HD
ATOM     38  H41 UNL     1      27.625 -10.894  12.653  1.00  0.00     0.278 HD
ENDBRANCH  19  26
ENDBRANCH  14  15
ENDBRANCH  13  14
BRANCH  13  39
HETATM   39  O4  UNL     1      23.981 -11.044   2.133  1.00  0.00    -0.360 OA
ATOM     40  H4  UNL     1      24.315 -11.355   1.300  1.00  0.00     0.213 HD
ENDBRANCH  13  39
ENDBRANCH   8  13
BRANCH   9  41
HETATM   41  N9  UNL     1      21.618 -13.481   1.079  1.00  0.00    -0.352 N 
HETATM   42  C17 UNL     1      21.988 -13.318  -0.153  1.00  0.00     0.047 C 
HETATM   43  C18 UNL     1      21.805 -11.985  -0.763  1.00  0.00     0.072 C 
ATOM     44  H9  UNL     1      21.741 -14.399   1.505  1.00  0.00     0.166 HD
BRANCH  42  45
HETATM   45  C19 UNL     1      22.570 -14.389  -0.940  1.00  0.00     0.132 C 
HETATM   46  N10 UNL     1      23.106 -15.384  -0.329  1.00  0.00    -0.386 N 
ATOM     47 2H10 UNL     1      23.107 -15.392   0.691  1.00  0.00     0.157 HD
ATOM     48 1H10 UNL     1      23.514 -16.136  -0.883  1.00  0.00     0.157 HD
HETATM   49  N11 UNL     1      22.567 -14.376  -2.355  1.00  0.00    -0.081 NA
ENDBRANCH  42  45
ENDBRANCH   9  41
ENDBRANCH   5   6
BRANCH   5  50
HETATM   50  O6  UNL     1      20.678  -8.526   4.854  1.00  0.00    -0.370 OA
ATOM     51  H6  UNL     1      20.387  -7.966   5.564  1.00  0.00     0.212 HD
ENDBRANCH   5  50
ENDBRANCH   1   5
TORSDOF 11
ENDMDL
MODEL 3
REMARK VINA RESULT: -7.337592048      3.442      6.407
REMARK  11 active torsions:
REMARK  status: ('A' for Active; 'I' for Inactive)
REMARK    1  A    between atoms: C2_2  and  C3_4 
REMARK    2  A    between atoms: C5_7  and  C6_8 
REMARK       I    between atoms: C6_8  and  N2_10 
REMARK       I    between atoms: N2_10  and  C7_12 
REMARK       I    between atoms: C7_12  and  N3_13 
REMARK       I    between atoms: C7_12  and  N4_17 
REMARK    3  A    between atoms: C8_24  and  N6_25 
REMARK    4  A    between atoms: N6_25  and  C9_26 
REMARK    5  A    between atoms: C9_26  and  O4_27 
REMARK    6  A    between atoms: C9_26  and  C10_29 
REMARK    7  A    between atoms: C11_31  and  C12_32 
REMARK    8  A    between atoms: C12_32  and  O6_33 
REMARK    9  A    between atoms: C12_32  and  N7_35 
REMARK   10  A    between atoms: C16_42  and  N9_43 
REMARK   11  A    between atoms: C17_45  and  C19_47 
ROOT
HETATM    1  N7  UNL     1      22.672 -11.551   5.158  1.00  0.00    -0.295 N 
ATOM      2  H7  UNL     1      21.676 -11.336   5.203  1.00  0.00     0.174 HD
HETATM    3  C13 UNL     1      23.564 -11.061   6.117  1.00  0.00     0.179 C 
HETATM    4  N8  UNL     1      24.317 -10.667   6.922  1.00  0.00    -0.172 NA
ENDROOT
BRANCH   1   5
HETATM    5  C12 UNL     1      23.214 -12.370   4.103  1.00  0.00     0.285 C 
BRANCH   5   6
HETATM    6  C11 UNL     1      22.371 -12.314   2.872  1.00  0.00     0.106 A 
HETATM    7  O5  UNL     1      21.124 -11.894   2.907  1.00  0.00    -0.306 OA
HETATM    8  C10 UNL     1      20.369 -11.838   1.837  1.00  0.00     0.145 A 
HETATM    9  C16 UNL     1      20.805 -12.208   0.588  1.00  0.00     0.119 A 
HETATM   10  C15 UNL     1      22.120 -12.662   0.490  1.00  0.00     0.203 A 
HETATM   11  C14 UNL     1      22.878 -12.704   1.649  1.00  0.00     0.094 A 
HETATM   12  O7  UNL     1      22.528 -13.000  -0.630  1.00  0.00    -0.286 OA
BRANCH   8  13
HETATM   13  C9  UNL     1      18.928 -11.337   1.959  1.00  0.00     0.362 C 
BRANCH  13  14
HETATM   14  N6  UNL     1      18.879 -10.335   2.834  1.00  0.00    -0.382 NA
BRANCH  14  15
HETATM   15  C8  UNL     1      18.832  -9.432   3.622  1.00  0.00     0.254 A 
HETATM   16  C3  UNL     1      17.746  -8.760   4.144  1.00  0.00     0.103 A 
HETATM   17  C4  UNL     1      17.960  -7.730   5.058  1.00  0.00     0.099 A 
HETATM   18  N1  UNL     1      16.876  -7.012   5.620  1.00  0.00    -0.099 NA
HETATM   19  C5  UNL     1      19.222  -7.351   5.464  1.00  0.00     0.147 A 
HETATM   20  N5  UNL     1      20.228  -8.063   4.903  1.00  0.00    -0.251 N 
HETATM   21  O3  UNL     1      20.036  -9.000   4.073  1.00  0.00    -0.203 OA
ATOM     22  H5  UNL     1      21.187  -7.833   5.162  1.00  0.00     0.195 HD
BRANCH  16  23
HETATM   23  C2  UNL     1      16.384  -9.071   3.794  1.00  0.00     0.163 C 
HETATM   24  C1  UNL     1      15.327  -9.634   4.630  1.00  0.00     0.097 C 
HETATM   25  O1  UNL     1      16.038  -8.825   2.580  1.00  0.00    -0.293 OA
ENDBRANCH  16  23
BRANCH  19  26
HETATM   26  C6  UNL     1      19.459  -6.281   6.409  1.00  0.00     0.274 C 
HETATM   27  O2  UNL     1      19.260  -5.102   6.053  1.00  0.00    -0.266 OA
HETATM   28  N2  UNL     1      19.908  -6.533   7.721  1.00  0.00    -0.306 N 
HETATM   29  C7  UNL     1      20.161  -5.508   8.701  1.00  0.00     0.483 C 
ATOM     30  H2  UNL     1      20.064  -7.502   7.994  1.00  0.00     0.166 HD
HETATM   31  N3  UNL     1      21.564  -5.559   9.112  1.00  0.00    -0.033 N 
HETATM   32  N4  UNL     1      19.387  -5.678   9.906  1.00  0.00    -0.033 N 
ATOM     33  H33 UNL     1      21.834  -6.485   9.444  1.00  0.00     0.278 HD
ATOM     34  H32 UNL     1      22.200  -5.497   8.318  1.00  0.00     0.278 HD
ATOM     35  H31 UNL     1      21.743  -4.833   9.807  1.00  0.00     0.278 HD
ATOM     36  H43 UNL     1      18.391  -5.741   9.692  1.00  0.00     0.278 HD
ATOM     37  H42 UNL     1      19.531  -6.606  10.303  1.00  0.00     0.278 HD
ATOM     38  H41 UNL     1      19.566  -4.952  10.600  1.00  0.00     0.278 HD
ENDBRANCH  19  26
ENDBRANCH  14  15
ENDBRANCH  13  14
BRANCH  13  39
HETATM   39  O4  UNL     1      18.230 -12.471   2.501  1.00  0.00    -0.360 OA
ATOM     40  H4  UNL     1      18.098 -13.113   1.813  1.00  0.00     0.213 HD
ENDBRANCH  13  39
ENDBRANCH   8  13
BRANCH   9  41
HETATM   41  N9  UNL     1      19.932 -12.123  -0.513  1.00  0.00    -0.352 N 
HETATM   42  C17 UNL     1      19.241 -13.129  -0.950  1.00  0.00     0.047 C 
HETATM   43  C18 UNL     1      19.384 -14.425  -0.254  1.00  0.00     0.072 C 
ATOM     44  H9  UNL     1      19.838 -11.226  -0.989  1.00  0.00     0.166 HD
BRANCH  42  45
HETATM   45  C19 UNL     1      18.344 -13.024  -2.085  1.00  0.00     0.132 C 
HETATM   46  N10 UNL     1      18.806 -12.582  -3.198  1.00  0.00    -0.386 N 
ATOM     47 2H10 UNL     1      19.789 -12.316  -3.253  1.00  0.00     0.157 HD
ATOM     48 1H10 UNL     1      18.175 -12.509  -3.996  1.00  0.00     0.157 HD
HETATM   49  N11 UNL     1      16.980 -13.394  -2.008  1.00  0.00    -0.081 NA
ENDBRANCH  42  45
ENDBRANCH   9  41
ENDBRANCH   5   6
BRANCH   5  50
HETATM   50  O6  UNL     1      24.517 -11.934   3.860  1.00  0.00    -0.370 OA
ATOM     51  H6  UNL     1      24.553 -10.998   3.704  1.00  0.00     0.212 HD
ENDBRANCH   5  50
ENDBRANCH   1   5
TORSDOF 11
ENDMDL
MODEL 4
REMARK VINA RESULT: -7.286525624      1.698      1.991
REMARK  11 active torsions:
REMARK  status: ('A' for Active; 'I' for Inactive)
REMARK    1  A    between atoms: C2_2  and  C3_4 
REMARK    2  A    between atoms: C5_7  and  C6_8 
REMARK       I    between atoms: C6_8  and  N2_10 
REMARK       I    between atoms: N2_10  and  C7_12 
REMARK       I    between atoms: C7_12  and  N3_13 
REMARK       I    between atoms: C7_12  and  N4_17 
REMARK    3  A    between atoms: C8_24  and  N6_25 
REMARK    4  A    between atoms: N6_25  and  C9_26 
REMARK    5  A    between atoms: C9_26  and  O4_27 
REMARK    6  A    between atoms: C9_26  and  C10_29 
REMARK    7  A    between atoms: C11_31  and  C12_32 
REMARK    8  A    between atoms: C12_32  and  O6_33 
REMARK    9  A    between atoms: C12_32  and  N7_35 
REMARK   10  A    between atoms: C16_42  and  N9_43 
REMARK   11  A    between atoms: C17_45  and  C19_47 
ROOT
HETATM    1  N7  UNL     1      13.883 -14.037   3.050  1.00  0.00    -0.295 N 
ATOM      2  H7  UNL     1      13.740 -14.993   3.374  1.00  0.00     0.174 HD
HETATM    3  C13 UNL     1      12.980 -13.425   2.175  1.00  0.00     0.179 C 
HETATM    4  N8  UNL     1      12.223 -12.898   1.454  1.00  0.00    -0.172 NA
ENDROOT
BRANCH   1   5
HETATM    5  C12 UNL     1      15.023 -13.265   3.475  1.00  0.00     0.285 C 
BRANCH   5   6
HETATM    6  C11 UNL     1      16.204 -13.490   2.590  1.00  0.00     0.106 A 
HETATM    7  O5  UNL     1      17.080 -12.537   2.350  1.00  0.00    -0.306 OA
HETATM    8  C10 UNL     1      18.123 -12.716   1.577  1.00  0.00     0.145 A 
HETATM    9  C16 UNL     1      18.398 -13.906   0.948  1.00  0.00     0.119 A 
HETATM   10  C15 UNL     1      17.504 -14.953   1.167  1.00  0.00     0.203 A 
HETATM   11  C14 UNL     1      16.416 -14.715   1.992  1.00  0.00     0.094 A 
HETATM   12  O7  UNL     1      17.738 -16.034   0.607  1.00  0.00    -0.286 OA
BRANCH   8  13
HETATM   13  C9  UNL     1      19.096 -11.558   1.347  1.00  0.00     0.362 C 
BRANCH  13  14
HETATM   14  N6  UNL     1      20.066 -11.606   2.257  1.00  0.00    -0.382 NA
BRANCH  14  15
HETATM   15  C8  UNL     1      20.940 -11.652   3.077  1.00  0.00     0.254 A 
HETATM   16  C3  UNL     1      22.006 -12.519   3.197  1.00  0.00     0.103 A 
HETATM   17  C4  UNL     1      22.896 -12.359   4.257  1.00  0.00     0.099 A 
HETATM   18  N1  UNL     1      24.005 -13.227   4.420  1.00  0.00    -0.099 NA
HETATM   19  C5  UNL     1      22.754 -11.363   5.199  1.00  0.00     0.147 A 
HETATM   20  N5  UNL     1      21.683 -10.558   5.005  1.00  0.00    -0.251 N 
HETATM   21  O3  UNL     1      20.873 -10.701   4.042  1.00  0.00    -0.203 OA
ATOM     22  H5  UNL     1      21.520  -9.800   5.667  1.00  0.00     0.195 HD
BRANCH  16  23
HETATM   23  C2  UNL     1      22.255 -13.595   2.271  1.00  0.00     0.163 C 
HETATM   24  C1  UNL     1      22.142 -15.035   2.486  1.00  0.00     0.097 C 
HETATM   25  O1  UNL     1      22.630 -13.253   1.089  1.00  0.00    -0.293 OA
ENDBRANCH  16  23
BRANCH  19  26
HETATM   26  C6  UNL     1      23.668 -11.188   6.307  1.00  0.00     0.274 C 
HETATM   27  O2  UNL     1      24.526 -10.283   6.250  1.00  0.00    -0.266 OA
HETATM   28  N2  UNL     1      23.618 -12.009   7.451  1.00  0.00    -0.306 N 
HETATM   29  C7  UNL     1      24.502 -11.881   8.581  1.00  0.00     0.483 C 
ATOM     30  H2  UNL     1      22.910 -12.742   7.481  1.00  0.00     0.166 HD
HETATM   31  N3  UNL     1      25.257 -13.122   8.755  1.00  0.00    -0.033 N 
HETATM   32  N4  UNL     1      23.802 -11.663   9.822  1.00  0.00    -0.033 N 
ATOM     33  H33 UNL     1      24.646 -13.936   8.834  1.00  0.00     0.278 HD
ATOM     34  H32 UNL     1      25.753 -13.393   7.907  1.00  0.00     0.278 HD
ATOM     35  H31 UNL     1      25.883 -13.031   9.556  1.00  0.00     0.278 HD
ATOM     36  H43 UNL     1      23.180 -10.857   9.752  1.00  0.00     0.278 HD
ATOM     37  H42 UNL     1      23.109 -12.394   9.982  1.00  0.00     0.278 HD
ATOM     38  H41 UNL     1      24.428 -11.572  10.622  1.00  0.00     0.278 HD
ENDBRANCH  19  26
ENDBRANCH  14  15
ENDBRANCH  13  14
BRANCH  13  39
HETATM   39  O4  UNL     1      18.285 -10.394   1.585  1.00  0.00    -0.360 OA
ATOM     40  H4  UNL     1      18.275  -9.857   0.801  1.00  0.00     0.213 HD
ENDBRANCH  13  39
ENDBRANCH   8  13
BRANCH   9  41
HETATM   41  N9  UNL     1      19.537 -14.018   0.129  1.00  0.00    -0.352 N 
HETATM   42  C17 UNL     1      19.507 -13.841  -1.154  1.00  0.00     0.047 C 
HETATM   43  C18 UNL     1      18.211 -13.506  -1.780  1.00  0.00     0.072 C 
ATOM     44  H9  UNL     1      20.429 -14.251   0.566  1.00  0.00     0.166 HD
BRANCH  42  45
HETATM   45  C19 UNL     1      20.690 -13.958  -1.986  1.00  0.00     0.132 C 
HETATM   46  N10 UNL     1      20.768 -14.938  -2.812  1.00  0.00    -0.386 N 
ATOM     47 2H10 UNL     1      19.998 -15.606  -2.860  1.00  0.00     0.157 HD
ATOM     48 1H10 UNL     1      21.600 -15.021  -3.397  1.00  0.00     0.157 HD
HETATM   49  N11 UNL     1      21.758 -13.032  -1.919  1.00  0.00    -0.081 NA
ENDBRANCH  42  45
ENDBRANCH   9  41
ENDBRANCH   5   6
BRANCH   5  50
HETATM   50  O6  UNL     1      14.639 -11.924   3.496  1.00  0.00    -0.370 OA
ATOM     51  H6  UNL     1      14.243 -11.683   4.325  1.00  0.00     0.212 HD
ENDBRANCH   5  50
ENDBRANCH   1   5
TORSDOF 11
ENDMDL
MODEL 5
REMARK VINA RESULT: -7.211036093      3.454      8.924
REMARK  11 active torsions:
REMARK  status: ('A' for Active; 'I' for Inactive)
REMARK    1  A    between atoms: C2_2  and  C3_4 
REMARK    2  A    between atoms: C5_7  and  C6_8 
REMARK       I    between atoms: C6_8  and  N2_10 
REMARK       I    between atoms: N2_10  and  C7_12 
REMARK       I    between atoms: C7_12  and  N3_13 
REMARK       I    between atoms: C7_12  and  N4_17 
REMARK    3  A    between atoms: C8_24  and  N6_25 
REMARK    4  A    between atoms: N6_25  and  C9_26 
REMARK    5  A    between atoms: C9_26  and  O4_27 
REMARK    6  A    between atoms: C9_26  and  C10_29 
REMARK    7  A    between atoms: C11_31  and  C12_32 
REMARK    8  A    between atoms: C12_32  and  O6_33 
REMARK    9  A    between atoms: C12_32  and  N7_35 
REMARK   10  A    between atoms: C16_42  and  N9_43 
REMARK   11  A    between atoms: C17_45  and  C19_47 
ROOT
HETATM    1  N7  UNL     1      26.253 -16.457   3.611  1.00  0.00    -0.295 N 
ATOM      2  H7  UNL     1      26.445 -16.584   2.617  1.00  0.00     0.174 HD
HETATM    3  C13 UNL     1      27.287 -16.256   4.530  1.00  0.00     0.179 C 
HETATM    4  N8  UNL     1      28.144 -16.073   5.306  1.00  0.00    -0.172 NA
ENDROOT
BRANCH   1   5
HETATM    5  C12 UNL     1      24.904 -16.478   4.121  1.00  0.00     0.285 C 
BRANCH   5   6
HETATM    6  C11 UNL     1      24.654 -15.351   5.068  1.00  0.00     0.106 A 
HETATM    7  O5  UNL     1      24.763 -14.094   4.691  1.00  0.00    -0.306 OA
HETATM    8  C10 UNL     1      24.547 -13.092   5.508  1.00  0.00     0.145 A 
HETATM    9  C16 UNL     1      24.190 -13.258   6.824  1.00  0.00     0.119 A 
HETATM   10  C15 UNL     1      24.060 -14.569   7.279  1.00  0.00     0.203 A 
HETATM   11  C14 UNL     1      24.299 -15.595   6.379  1.00  0.00     0.094 A 
HETATM   12  O7  UNL     1      23.739 -14.735   8.465  1.00  0.00    -0.286 OA
BRANCH   8  13
HETATM   13  C9  UNL     1      24.692 -11.659   4.993  1.00  0.00     0.362 C 
BRANCH  13  14
HETATM   14  N6  UNL     1      23.490 -11.169   4.697  1.00  0.00    -0.382 NA
BRANCH  14  15
HETATM   15  C8  UNL     1      22.408 -10.730   4.428  1.00  0.00     0.254 A 
HETATM   16  C3  UNL     1      21.486 -11.143   3.488  1.00  0.00     0.103 A 
HETATM   17  C4  UNL     1      20.281 -10.453   3.369  1.00  0.00     0.099 A 
HETATM   18  N1  UNL     1      19.305 -10.841   2.418  1.00  0.00    -0.099 NA
HETATM   19  C5  UNL     1      19.969  -9.367   4.159  1.00  0.00     0.147 A 
HETATM   20  N5  UNL     1      20.928  -9.032   5.054  1.00  0.00    -0.251 N 
HETATM   21  O3  UNL     1      22.023  -9.657   5.163  1.00  0.00    -0.203 OA
ATOM     22  H5  UNL     1      20.759  -8.236   5.669  1.00  0.00     0.195 HD
BRANCH  16  23
HETATM   23  C2  UNL     1      21.703 -12.265   2.611  1.00  0.00     0.163 C 
HETATM   24  C1  UNL     1      22.322 -12.289   1.288  1.00  0.00     0.097 C 
HETATM   25  O1  UNL     1      21.301 -13.408   3.039  1.00  0.00    -0.293 OA
ENDBRANCH  16  23
BRANCH  19  26
HETATM   26  C6  UNL     1      18.723  -8.640   4.044  1.00  0.00     0.274 C 
HETATM   27  O2  UNL     1      18.626  -7.731   3.195  1.00  0.00    -0.266 OA
HETATM   28  N2  UNL     1      17.614  -8.930   4.864  1.00  0.00    -0.306 N 
HETATM   29  C7  UNL     1      16.352  -8.239   4.795  1.00  0.00     0.483 C 
ATOM     30  H2  UNL     1      17.711  -9.677   5.551  1.00  0.00     0.166 HD
HETATM   31  N3  UNL     1      16.071  -7.601   6.081  1.00  0.00    -0.033 N 
HETATM   32  N4  UNL     1      15.241  -9.121   4.536  1.00  0.00    -0.033 N 
ATOM     33  H33 UNL     1      16.104  -8.265   6.855  1.00  0.00     0.278 HD
ATOM     34  H32 UNL     1      16.829  -6.989   6.381  1.00  0.00     0.278 HD
ATOM     35  H31 UNL     1      15.177  -7.112   6.032  1.00  0.00     0.278 HD
ATOM     36  H43 UNL     1      15.402  -9.671   3.693  1.00  0.00     0.278 HD
ATOM     37  H42 UNL     1      15.206  -9.874   5.223  1.00  0.00     0.278 HD
ATOM     38  H41 UNL     1      14.347  -8.631   4.487  1.00  0.00     0.278 HD
ENDBRANCH  19  26
ENDBRANCH  14  15
ENDBRANCH  13  14
BRANCH  13  39
HETATM   39  O4  UNL     1      25.448 -11.819   3.781  1.00  0.00    -0.360 OA
ATOM     40  H4  UNL     1      24.911 -11.558   3.043  1.00  0.00     0.213 HD
ENDBRANCH  13  39
ENDBRANCH   8  13
BRANCH   9  41
HETATM   41  N9  UNL     1      23.979 -12.130   7.640  1.00  0.00    -0.352 N 
HETATM   42  C17 UNL     1      24.890 -11.641   8.421  1.00  0.00     0.047 C 
HETATM   43  C18 UNL     1      26.210 -12.304   8.451  1.00  0.00     0.072 C 
ATOM     44  H9  UNL     1      23.066 -11.677   7.615  1.00  0.00     0.166 HD
BRANCH  42  45
HETATM   45  C19 UNL     1      24.658 -10.477   9.255  1.00  0.00     0.132 C 
HETATM   46  N10 UNL     1      25.429 -10.276  10.262  1.00  0.00    -0.386 N 
ATOM     47 2H10 UNL     1      26.181 -10.940  10.448  1.00  0.00     0.157 HD
ATOM     48 1H10 UNL     1      25.266  -9.458  10.849  1.00  0.00     0.157 HD
HETATM   49  N11 UNL     1      23.616  -9.555   8.997  1.00  0.00    -0.081 NA
ENDBRANCH  42  45
ENDBRANCH   9  41
ENDBRANCH   5   6
BRANCH   5  50
HETATM   50  O6  UNL     1      24.040 -16.436   3.026  1.00  0.00    -0.370 OA
ATOM     51  H6  UNL     1      23.621 -17.275   2.875  1.00  0.00     0.212 HD
ENDBRANCH   5  50
ENDBRANCH   1   5
TORSDOF 11
ENDMDL
