MODEL 1
REMARK VINA RESULT: -8.610638422      0.000      0.000
REMARK  16 active torsions:
REMARK  status: ('A' for Active; 'I' for Inactive)
REMARK       I    between atoms: C2_2  and  N1_4 
REMARK    1  A    between atoms: N1_4  and  C3_5 
REMARK    2  A    between atoms: C4_6  and  O2_7 
REMARK    3  A    between atoms: C5_9  and  O3_10 
REMARK    4  A    between atoms: C6_12  and  N2_13 
REMARK    5  A    between atoms: N3_16  and  N4_17 
REMARK    6  A    between atoms: C7_20  and  C8_21 
REMARK    7  A    between atoms: C9_23  and  C10_24 
REMARK    8  A    between atoms: C11_30  and  N7_31 
REMARK    9  A    between atoms: C12_36  and  C13_37 
REMARK   10  A    between atoms: C13_37  and  N9_38 
REMARK   11  A    between atoms: C15_40  and  C16_41 
REMARK   12  A    between atoms: C16_41  and  O6_42 
REMARK   13  A    between atoms: O6_42  and  C17_43 
REMARK   14  A    between atoms: C17_43  and  O7_44 
REMARK   15  A    between atoms: C17_43  and  C18_46 
REMARK   16  A    between atoms: C18_46  and  O8_47 
ROOT
HETATM    1  C8  UNL     1      18.479  -6.890   5.943  1.00  0.00     0.134 A 
HETATM    2  O4  UNL     1      19.355  -7.105   6.888  1.00  0.00    -0.287 OA
HETATM    3  C9  UNL     1      19.622  -6.035   7.561  1.00  0.00     0.181 A 
HETATM    4  N8  UNL     1      18.908  -5.077   7.045  1.00  0.00    -0.334 N 
ATOM      5  H8  UNL     1      18.903  -4.107   7.361  1.00  0.00     0.168 HD
HETATM    6  C12 UNL     1      18.129  -5.602   5.959  1.00  0.00     0.067 A 
ENDROOT
BRANCH   1   7
HETATM    7  C7  UNL     1      18.051  -8.029   5.083  1.00  0.00     0.137 A 
HETATM    8  C3  UNL     1      16.723  -8.398   5.032  1.00  0.00     0.178 A 
HETATM    9  C4  UNL     1      16.352  -9.376   4.035  1.00  0.00     0.146 A 
HETATM   10  C5  UNL     1      17.217  -9.928   3.196  1.00  0.00     0.148 A 
HETATM   11  C6  UNL     1      18.540  -9.512   3.308  1.00  0.00     0.157 A 
HETATM   12  N3  UNL     1      18.952  -8.579   4.225  1.00  0.00    -0.238 N 
BRANCH   8  13
HETATM   13  N1  UNL     1      15.747  -8.064   5.824  1.00  0.00    -0.365 NA
HETATM   14  C2  UNL     1      14.702  -7.707   6.676  1.00  0.00     0.288 C 
HETATM   15  C1  UNL     1      13.530  -8.703   6.826  1.00  0.00     0.135 C 
HETATM   16  O1  UNL     1      14.520  -6.682   7.376  1.00  0.00    -0.258 OA
ENDBRANCH   8  13
BRANCH   9  17
HETATM   17  O2  UNL     1      14.978  -9.736   3.987  1.00  0.00    -0.355 OA
ATOM     18  H2  UNL     1      14.577  -9.755   3.126  1.00  0.00     0.218 HD
ENDBRANCH   9  17
BRANCH  10  19
HETATM   19  O3  UNL     1      16.906 -10.858   2.252  1.00  0.00    -0.355 OA
ATOM     20  H3  UNL     1      17.537 -11.390   1.781  1.00  0.00     0.218 HD
ENDBRANCH  10  19
BRANCH  11  21
HETATM   21  N2  UNL     1      19.414 -10.019   2.531  1.00  0.00    -0.382 N 
ATOM     22  H22 UNL     1      19.574 -11.026   2.579  1.00  0.00     0.157 HD
ATOM     23  H21 UNL     1      19.919  -9.407   1.890  1.00  0.00     0.157 HD
ENDBRANCH  11  21
BRANCH  12  24
HETATM   24  N4  UNL     1      20.274  -8.150   4.134  1.00  0.00    -0.336 N 
ATOM     25  H42 UNL     1      20.630  -7.604   3.349  1.00  0.00     0.177 HD
ATOM     26  H41 UNL     1      20.918  -8.487   4.850  1.00  0.00     0.177 HD
ENDBRANCH  12  24
ENDBRANCH   1   7
BRANCH   6  27
HETATM   27  C13 UNL     1      17.392  -4.681   5.108  1.00  0.00     0.206 C 
BRANCH  27  28
HETATM   28  N9  UNL     1      18.413  -4.027   4.262  1.00  0.00    -0.279 N 
HETATM   29  C14 UNL     1      18.337  -3.747   2.973  1.00  0.00     0.136 A 
HETATM   30  C15 UNL     1      19.566  -3.217   2.560  1.00  0.00     0.064 A 
HETATM   31  N10 UNL     1      20.328  -3.199   3.635  1.00  0.00    -0.285 N 
HETATM   32  N11 UNL     1      19.637  -3.687   4.665  1.00  0.00    -0.020 NA
ATOM     33  H10 UNL     1      21.291  -2.864   3.673  1.00  0.00     0.184 HD
BRANCH  30  34
HETATM   34  C16 UNL     1      19.781  -2.856   1.124  1.00  0.00     0.230 C 
BRANCH  34  35
HETATM   35  O6  UNL     1      19.505  -1.513   0.891  1.00  0.00    -0.353 OA
BRANCH  35  36
HETATM   36  C17 UNL     1      20.625  -0.695   0.813  1.00  0.00     0.280 C 
BRANCH  36  37
HETATM   37  O7  UNL     1      20.461   0.255  -0.241  1.00  0.00    -0.369 OA
ATOM     38  H7  UNL     1      21.294   0.407  -0.672  1.00  0.00     0.212 HD
ENDBRANCH  36  37
BRANCH  36  39
HETATM   39  C18 UNL     1      20.822   0.060   2.077  1.00  0.00     0.224 C 
BRANCH  39  40
HETATM   40  O8  UNL     1      21.857  -0.467   2.814  1.00  0.00    -0.396 OA
ATOM     41  H8  UNL     1      21.916  -0.052   3.667  1.00  0.00     0.209 HD
ENDBRANCH  39  40
ENDBRANCH  36  39
ENDBRANCH  35  36
ENDBRANCH  34  35
ENDBRANCH  30  34
ENDBRANCH  27  28
ENDBRANCH   6  27
BRANCH   3  42
HETATM   42  C10 UNL     1      20.583  -5.960   8.697  1.00  0.00     0.153 A 
HETATM   43  N5  UNL     1      20.731  -6.918   9.620  1.00  0.00    -0.234 N 
HETATM   44  O5  UNL     1      21.704  -6.504  10.442  1.00  0.00    -0.155 OA
ATOM     45  H5  UNL     1      20.206  -7.791   9.685  1.00  0.00     0.197 HD
HETATM   46  N6  UNL     1      22.172  -5.354  10.089  1.00  0.00    -0.224 N 
HETATM   47  C11 UNL     1      21.491  -4.974   8.997  1.00  0.00     0.154 A 
ATOM     48  H6  UNL     1      22.917  -4.834  10.552  1.00  0.00     0.198 HD
BRANCH  47  49
HETATM   49  N7  UNL     1      21.688  -3.896   8.318  1.00  0.00    -0.382 N 
ATOM     50  H72 UNL     1      20.982  -3.198   8.082  1.00  0.00     0.157 HD
ATOM     51  H71 UNL     1      22.585  -3.572   7.957  1.00  0.00     0.157 HD
ENDBRANCH  47  49
ENDBRANCH   3  42
TORSDOF 16
ENDMDL
MODEL 2
REMARK VINA RESULT: -8.559379530      1.616      3.372
REMARK  16 active torsions:
REMARK  status: ('A' for Active; 'I' for Inactive)
REMARK       I    between atoms: C2_2  and  N1_4 
REMARK    1  A    between atoms: N1_4  and  C3_5 
REMARK    2  A    between atoms: C4_6  and  O2_7 
REMARK    3  A    between atoms: C5_9  and  O3_10 
REMARK    4  A    between atoms: C6_12  and  N2_13 
REMARK    5  A    between atoms: N3_16  and  N4_17 
REMARK    6  A    between atoms: C7_20  and  C8_21 
REMARK    7  A    between atoms: C9_23  and  C10_24 
REMARK    8  A    between atoms: C11_30  and  N7_31 
REMARK    9  A    between atoms: C12_36  and  C13_37 
REMARK   10  A    between atoms: C13_37  and  N9_38 
REMARK   11  A    between atoms: C15_40  and  C16_41 
REMARK   12  A    between atoms: C16_41  and  O6_42 
REMARK   13  A    between atoms: O6_42  and  C17_43 
REMARK   14  A    between atoms: C17_43  and  O7_44 
REMARK   15  A    between atoms: C17_43  and  C18_46 
REMARK   16  A    between atoms: C18_46  and  O8_47 
ROOT
HETATM    1  C8  UNL     1      17.876  -7.589   5.274  1.00  0.00     0.134 A 
HETATM    2  O4  UNL     1      18.318  -7.522   6.501  1.00  0.00    -0.287 OA
HETATM    3  C9  UNL     1      19.388  -6.804   6.598  1.00  0.00     0.181 A 
HETATM    4  N8  UNL     1      19.671  -6.386   5.398  1.00  0.00    -0.334 N 
ATOM      5  H8  UNL     1      20.465  -5.797   5.149  1.00  0.00     0.168 HD
HETATM    6  C12 UNL     1      18.687  -6.887   4.480  1.00  0.00     0.067 A 
ENDROOT
BRANCH   1   7
HETATM    7  C7  UNL     1      16.637  -8.369   4.994  1.00  0.00     0.137 A 
HETATM    8  C3  UNL     1      16.701  -9.524   4.243  1.00  0.00     0.178 A 
HETATM    9  C4  UNL     1      15.504 -10.331   4.177  1.00  0.00     0.146 A 
HETATM   10  C5  UNL     1      14.371 -10.007   4.786  1.00  0.00     0.148 A 
HETATM   11  C6  UNL     1      14.379  -8.826   5.521  1.00  0.00     0.157 A 
HETATM   12  N3  UNL     1      15.486  -8.025   5.632  1.00  0.00    -0.238 N 
BRANCH   8  13
HETATM   13  N1  UNL     1      17.666  -9.961   3.489  1.00  0.00    -0.365 NA
HETATM   14  C2  UNL     1      18.702 -10.428   2.680  1.00  0.00     0.288 C 
HETATM   15  C1  UNL     1      18.317 -11.109   1.348  1.00  0.00     0.135 C 
HETATM   16  O1  UNL     1      19.947 -10.400   2.834  1.00  0.00    -0.258 OA
ENDBRANCH   8  13
BRANCH   9  17
HETATM   17  O2  UNL     1      15.590 -11.523   3.409  1.00  0.00    -0.355 OA
ATOM     18  H2  UNL     1      15.849 -12.308   3.878  1.00  0.00     0.218 HD
ENDBRANCH   9  17
BRANCH  10  19
HETATM   19  O3  UNL     1      13.222 -10.736   4.737  1.00  0.00    -0.355 OA
ATOM     20  H3  UNL     1      12.349 -10.389   4.884  1.00  0.00     0.218 HD
ENDBRANCH  10  19
BRANCH  11  21
HETATM   21  N2  UNL     1      13.312  -8.464   6.117  1.00  0.00    -0.382 N 
ATOM     22  H22 UNL     1      12.883  -7.580   5.842  1.00  0.00     0.157 HD
ATOM     23  H21 UNL     1      12.922  -9.067   6.841  1.00  0.00     0.157 HD
ENDBRANCH  11  21
BRANCH  12  24
HETATM   24  N4  UNL     1      15.398  -6.949   6.513  1.00  0.00    -0.336 N 
ATOM     25  H42 UNL     1      16.025  -6.145   6.475  1.00  0.00     0.177 HD
ATOM     26  H41 UNL     1      14.730  -7.035   7.279  1.00  0.00     0.177 HD
ENDBRANCH  12  24
ENDBRANCH   1   7
BRANCH   6  27
HETATM   27  C13 UNL     1      18.897  -6.708   3.052  1.00  0.00     0.206 C 
BRANCH  27  28
HETATM   28  N9  UNL     1      18.972  -5.246   2.847  1.00  0.00    -0.279 N 
HETATM   29  C14 UNL     1      19.693  -4.589   1.954  1.00  0.00     0.136 A 
HETATM   30  C15 UNL     1      19.535  -3.215   2.180  1.00  0.00     0.064 A 
HETATM   31  N10 UNL     1      18.713  -3.112   3.205  1.00  0.00    -0.285 N 
HETATM   32  N11 UNL     1      18.371  -4.334   3.612  1.00  0.00    -0.020 NA
ATOM     33  H10 UNL     1      18.391  -2.238   3.619  1.00  0.00     0.184 HD
BRANCH  30  34
HETATM   34  C16 UNL     1      20.285  -2.229   1.340  1.00  0.00     0.230 C 
BRANCH  34  35
HETATM   35  O6  UNL     1      20.051  -0.924   1.760  1.00  0.00    -0.353 OA
BRANCH  35  36
HETATM   36  C17 UNL     1      20.635  -0.591   2.975  1.00  0.00     0.280 C 
BRANCH  36  37
HETATM   37  O7  UNL     1      22.042  -0.409   2.805  1.00  0.00    -0.369 OA
ATOM     38  H7  UNL     1      22.368   0.213   3.446  1.00  0.00     0.212 HD
ENDBRANCH  36  37
BRANCH  36  39
HETATM   39  C18 UNL     1      20.076   0.679   3.506  1.00  0.00     0.224 C 
BRANCH  39  40
HETATM   40  O8  UNL     1      20.120   0.704   4.880  1.00  0.00    -0.396 OA
ATOM     41  H8  UNL     1      20.345   1.570   5.200  1.00  0.00     0.209 HD
ENDBRANCH  39  40
ENDBRANCH  36  39
ENDBRANCH  35  36
ENDBRANCH  34  35
ENDBRANCH  30  34
ENDBRANCH  27  28
ENDBRANCH   6  27
BRANCH   3  42
HETATM   42  C10 UNL     1      20.128  -6.543   7.864  1.00  0.00     0.153 A 
HETATM   43  N5  UNL     1      21.204  -7.233   8.261  1.00  0.00    -0.234 N 
HETATM   44  O5  UNL     1      21.601  -6.682   9.415  1.00  0.00    -0.155 OA
ATOM     45  H5  UNL     1      21.637  -8.022   7.779  1.00  0.00     0.197 HD
HETATM   46  N6  UNL     1      20.845  -5.695   9.760  1.00  0.00    -0.224 N 
HETATM   47  C11 UNL     1      19.902  -5.576   8.813  1.00  0.00     0.154 A 
ATOM     48  H6  UNL     1      20.944  -5.116  10.594  1.00  0.00     0.198 HD
BRANCH  47  49
HETATM   49  N7  UNL     1      18.976  -4.680   8.773  1.00  0.00    -0.382 N 
ATOM     50  H72 UNL     1      18.280  -4.504   9.497  1.00  0.00     0.157 HD
ATOM     51  H71 UNL     1      18.837  -3.996   8.029  1.00  0.00     0.157 HD
ENDBRANCH  47  49
ENDBRANCH   3  42
TORSDOF 16
ENDMDL
MODEL 3
REMARK VINA RESULT: -8.300129302      1.612      3.394
REMARK  16 active torsions:
REMARK  status: ('A' for Active; 'I' for Inactive)
REMARK       I    between atoms: C2_2  and  N1_4 
REMARK    1  A    between atoms: N1_4  and  C3_5 
REMARK    2  A    between atoms: C4_6  and  O2_7 
REMARK    3  A    between atoms: C5_9  and  O3_10 
REMARK    4  A    between atoms: C6_12  and  N2_13 
REMARK    5  A    between atoms: N3_16  and  N4_17 
REMARK    6  A    between atoms: C7_20  and  C8_21 
REMARK    7  A    between atoms: C9_23  and  C10_24 
REMARK    8  A    between atoms: C11_30  and  N7_31 
REMARK    9  A    between atoms: C12_36  and  C13_37 
REMARK   10  A    between atoms: C13_37  and  N9_38 
REMARK   11  A    between atoms: C15_40  and  C16_41 
REMARK   12  A    between atoms: C16_41  and  O6_42 
REMARK   13  A    between atoms: O6_42  and  C17_43 
REMARK   14  A    between atoms: C17_43  and  O7_44 
REMARK   15  A    between atoms: C17_43  and  C18_46 
REMARK   16  A    between atoms: C18_46  and  O8_47 
ROOT
HETATM    1  C8  UNL     1      17.870  -7.593   5.266  1.00  0.00     0.134 A 
HETATM    2  O4  UNL     1      18.316  -7.534   6.493  1.00  0.00    -0.287 OA
HETATM    3  C9  UNL     1      19.374  -6.801   6.596  1.00  0.00     0.181 A 
HETATM    4  N8  UNL     1      19.647  -6.363   5.401  1.00  0.00    -0.334 N 
ATOM      5  H8  UNL     1      20.431  -5.758   5.158  1.00  0.00     0.168 HD
HETATM    6  C12 UNL     1      18.669  -6.868   4.479  1.00  0.00     0.067 A 
ENDROOT
BRANCH   1   7
HETATM    7  C7  UNL     1      16.644  -8.389   4.979  1.00  0.00     0.137 A 
HETATM    8  C3  UNL     1      16.727  -9.543   4.229  1.00  0.00     0.178 A 
HETATM    9  C4  UNL     1      15.540 -10.364   4.156  1.00  0.00     0.146 A 
HETATM   10  C5  UNL     1      14.400 -10.055   4.757  1.00  0.00     0.148 A 
HETATM   11  C6  UNL     1      14.389  -8.875   5.493  1.00  0.00     0.157 A 
HETATM   12  N3  UNL     1      15.485  -8.059   5.610  1.00  0.00    -0.238 N 
BRANCH   8  13
HETATM   13  N1  UNL     1      17.702  -9.967   3.480  1.00  0.00    -0.365 NA
HETATM   14  C2  UNL     1      18.748 -10.420   2.676  1.00  0.00     0.288 C 
HETATM   15  C1  UNL     1      18.380 -11.097   1.337  1.00  0.00     0.135 C 
HETATM   16  O1  UNL     1      19.992 -10.384   2.841  1.00  0.00    -0.258 OA
ENDBRANCH   8  13
BRANCH   9  17
HETATM   17  O2  UNL     1      15.646 -11.556   3.388  1.00  0.00    -0.355 OA
ATOM     18  H2  UNL     1      15.132 -12.296   3.687  1.00  0.00     0.218 HD
ENDBRANCH   9  17
BRANCH  10  19
HETATM   19  O3  UNL     1      13.260 -10.799   4.703  1.00  0.00    -0.355 OA
ATOM     20  H3  UNL     1      12.911 -11.204   3.918  1.00  0.00     0.218 HD
ENDBRANCH  10  19
BRANCH  11  21
HETATM   21  N2  UNL     1      13.314  -8.526   6.083  1.00  0.00    -0.382 N 
ATOM     22  H22 UNL     1      12.522  -9.169   6.061  1.00  0.00     0.157 HD
ATOM     23  H21 UNL     1      13.282  -7.624   6.558  1.00  0.00     0.157 HD
ENDBRANCH  11  21
BRANCH  12  24
HETATM   24  N4  UNL     1      15.378  -6.985   6.491  1.00  0.00    -0.336 N 
ATOM     25  H42 UNL     1      15.019  -7.078   7.441  1.00  0.00     0.177 HD
ATOM     26  H41 UNL     1      15.586  -6.059   6.115  1.00  0.00     0.177 HD
ENDBRANCH  12  24
ENDBRANCH   1   7
BRANCH   6  27
HETATM   27  C13 UNL     1      18.872  -6.667   3.053  1.00  0.00     0.206 C 
BRANCH  27  28
HETATM   28  N9  UNL     1      18.970  -5.203   2.873  1.00  0.00    -0.279 N 
HETATM   29  C14 UNL     1      19.684  -4.542   1.978  1.00  0.00     0.136 A 
HETATM   30  C15 UNL     1      19.556  -3.170   2.231  1.00  0.00     0.064 A 
HETATM   31  N10 UNL     1      18.758  -3.071   3.275  1.00  0.00    -0.285 N 
HETATM   32  N11 UNL     1      18.402  -4.295   3.668  1.00  0.00    -0.020 NA
ATOM     33  H10 UNL     1      18.461  -2.199   3.713  1.00  0.00     0.184 HD
BRANCH  30  34
HETATM   34  C16 UNL     1      20.306  -2.182   1.395  1.00  0.00     0.230 C 
BRANCH  34  35
HETATM   35  O6  UNL     1      19.874  -0.883   1.635  1.00  0.00    -0.353 OA
BRANCH  35  36
HETATM   36  C17 UNL     1      20.271   0.047   0.683  1.00  0.00     0.280 C 
BRANCH  36  37
HETATM   37  O7  UNL     1      21.250  -0.530  -0.183  1.00  0.00    -0.369 OA
ATOM     38  H7  UNL     1      21.972   0.076  -0.305  1.00  0.00     0.212 HD
ENDBRANCH  36  37
BRANCH  36  39
HETATM   39  C18 UNL     1      19.122   0.476  -0.155  1.00  0.00     0.224 C 
BRANCH  39  40
HETATM   40  O8  UNL     1      19.549   1.161  -1.269  1.00  0.00    -0.396 OA
ATOM     41  H8  UNL     1      18.852   1.694  -1.632  1.00  0.00     0.209 HD
ENDBRANCH  39  40
ENDBRANCH  36  39
ENDBRANCH  35  36
ENDBRANCH  34  35
ENDBRANCH  30  34
ENDBRANCH  27  28
ENDBRANCH   6  27
BRANCH   3  42
HETATM   42  C10 UNL     1      20.113  -6.545   7.864  1.00  0.00     0.153 A 
HETATM   43  N5  UNL     1      21.194  -7.231   8.255  1.00  0.00    -0.234 N 
HETATM   44  O5  UNL     1      21.588  -6.686   9.413  1.00  0.00    -0.155 OA
ATOM     45  H5  UNL     1      21.631  -8.014   7.768  1.00  0.00     0.197 HD
HETATM   46  N6  UNL     1      20.826  -5.707   9.766  1.00  0.00    -0.224 N 
HETATM   47  C11 UNL     1      19.882  -5.586   8.819  1.00  0.00     0.154 A 
ATOM     48  H6  UNL     1      20.922  -5.133  10.603  1.00  0.00     0.198 HD
BRANCH  47  49
HETATM   49  N7  UNL     1      18.951  -4.695   8.787  1.00  0.00    -0.382 N 
ATOM     50  H72 UNL     1      18.040  -4.795   8.338  1.00  0.00     0.157 HD
ATOM     51  H71 UNL     1      18.981  -3.781   9.239  1.00  0.00     0.157 HD
ENDBRANCH  47  49
ENDBRANCH   3  42
TORSDOF 16
ENDMDL
MODEL 4
REMARK VINA RESULT: -8.069918349      1.562      2.082
REMARK  16 active torsions:
REMARK  status: ('A' for Active; 'I' for Inactive)
REMARK       I    between atoms: C2_2  and  N1_4 
REMARK    1  A    between atoms: N1_4  and  C3_5 
REMARK    2  A    between atoms: C4_6  and  O2_7 
REMARK    3  A    between atoms: C5_9  and  O3_10 
REMARK    4  A    between atoms: C6_12  and  N2_13 
REMARK    5  A    between atoms: N3_16  and  N4_17 
REMARK    6  A    between atoms: C7_20  and  C8_21 
REMARK    7  A    between atoms: C9_23  and  C10_24 
REMARK    8  A    between atoms: C11_30  and  N7_31 
REMARK    9  A    between atoms: C12_36  and  C13_37 
REMARK   10  A    between atoms: C13_37  and  N9_38 
REMARK   11  A    between atoms: C15_40  and  C16_41 
REMARK   12  A    between atoms: C16_41  and  O6_42 
REMARK   13  A    between atoms: O6_42  and  C17_43 
REMARK   14  A    between atoms: C17_43  and  O7_44 
REMARK   15  A    between atoms: C17_43  and  C18_46 
REMARK   16  A    between atoms: C18_46  and  O8_47 
ROOT
HETATM    1  C8  UNL     1      18.279  -7.717   4.631  1.00  0.00     0.134 A 
HETATM    2  O4  UNL     1      18.413  -7.538   5.919  1.00  0.00    -0.287 OA
HETATM    3  C9  UNL     1      19.005  -6.425   6.201  1.00  0.00     0.181 A 
HETATM    4  N8  UNL     1      19.281  -5.847   5.068  1.00  0.00    -0.334 N 
ATOM      5  H8  UNL     1      19.753  -4.950   4.962  1.00  0.00     0.168 HD
HETATM    6  C12 UNL     1      18.815  -6.675   3.991  1.00  0.00     0.067 A 
ENDROOT
BRANCH   1   7
HETATM    7  C7  UNL     1      17.602  -8.949   4.139  1.00  0.00     0.137 A 
HETATM    8  C3  UNL     1      16.288  -9.199   4.476  1.00  0.00     0.178 A 
HETATM    9  C4  UNL     1      15.638 -10.304   3.809  1.00  0.00     0.146 A 
HETATM   10  C5  UNL     1      16.243 -11.074   2.915  1.00  0.00     0.148 A 
HETATM   11  C6  UNL     1      17.569 -10.766   2.628  1.00  0.00     0.157 A 
HETATM   12  N3  UNL     1      18.236  -9.724   3.219  1.00  0.00    -0.238 N 
BRANCH   8  13
HETATM   13  N1  UNL     1      15.556  -8.640   5.394  1.00  0.00    -0.365 NA
HETATM   14  C2  UNL     1      14.771  -8.042   6.381  1.00  0.00     0.288 C 
HETATM   15  C1  UNL     1      13.540  -8.825   6.888  1.00  0.00     0.135 C 
HETATM   16  O1  UNL     1      14.878  -6.935   6.962  1.00  0.00    -0.258 OA
ENDBRANCH   8  13
BRANCH   9  17
HETATM   17  O2  UNL     1      14.281 -10.540   4.159  1.00  0.00    -0.355 OA
ATOM     18  H2  UNL     1      13.812 -11.168   3.622  1.00  0.00     0.218 HD
ENDBRANCH   9  17
BRANCH  10  19
HETATM   19  O3  UNL     1      15.667 -12.129   2.275  1.00  0.00    -0.355 OA
ATOM     20  H3  UNL     1      16.114 -12.713   1.675  1.00  0.00     0.218 HD
ENDBRANCH  10  19
BRANCH  11  21
HETATM   21  N2  UNL     1      18.199 -11.483   1.783  1.00  0.00    -0.382 N 
ATOM     22  H22 UNL     1      18.651 -12.335   2.117  1.00  0.00     0.157 HD
ATOM     23  H21 UNL     1      18.228 -11.186   0.808  1.00  0.00     0.157 HD
ENDBRANCH  11  21
BRANCH  12  24
HETATM   24  N4  UNL     1      19.512  -9.440   2.736  1.00  0.00    -0.336 N 
ATOM     25  H42 UNL     1      19.680  -8.862   1.912  1.00  0.00     0.177 HD
ATOM     26  H41 UNL     1      20.292  -9.919   3.187  1.00  0.00     0.177 HD
ENDBRANCH  12  24
ENDBRANCH   1   7
BRANCH   6  27
HETATM   27  C13 UNL     1      19.176  -6.327   2.625  1.00  0.00     0.206 C 
BRANCH  27  28
HETATM   28  N9  UNL     1      19.069  -4.854   2.555  1.00  0.00    -0.279 N 
HETATM   29  C14 UNL     1      19.845  -4.017   1.887  1.00  0.00     0.136 A 
HETATM   30  C15 UNL     1      19.442  -2.708   2.180  1.00  0.00     0.064 A 
HETATM   31  N10 UNL     1      18.427  -2.823   3.013  1.00  0.00    -0.285 N 
HETATM   32  N11 UNL     1      18.199  -4.116   3.244  1.00  0.00    -0.020 NA
ATOM     33  H10 UNL     1      17.902  -2.048   3.417  1.00  0.00     0.184 HD
BRANCH  30  34
HETATM   34  C16 UNL     1      20.185  -1.548   1.596  1.00  0.00     0.230 C 
BRANCH  34  35
HETATM   35  O6  UNL     1      19.714  -0.340   2.096  1.00  0.00    -0.353 OA
BRANCH  35  36
HETATM   36  C17 UNL     1      20.284   0.053   3.300  1.00  0.00     0.280 C 
BRANCH  36  37
HETATM   37  O7  UNL     1      21.708   0.022   3.197  1.00  0.00    -0.369 OA
ATOM     38  H7  UNL     1      22.096   0.504   3.919  1.00  0.00     0.212 HD
ENDBRANCH  36  37
BRANCH  36  39
HETATM   39  C18 UNL     1      19.886   1.440   3.651  1.00  0.00     0.224 C 
BRANCH  39  40
HETATM   40  O8  UNL     1      19.242   1.479   4.866  1.00  0.00    -0.396 OA
ATOM     41  H8  UNL     1      19.580   2.180   5.411  1.00  0.00     0.209 HD
ENDBRANCH  39  40
ENDBRANCH  36  39
ENDBRANCH  35  36
ENDBRANCH  34  35
ENDBRANCH  30  34
ENDBRANCH  27  28
ENDBRANCH   6  27
BRANCH   3  42
HETATM   42  C10 UNL     1      19.303  -5.945   7.579  1.00  0.00     0.153 A 
HETATM   43  N5  UNL     1      18.589  -5.013   8.220  1.00  0.00    -0.234 N 
HETATM   44  O5  UNL     1      19.140  -4.883   9.434  1.00  0.00    -0.155 OA
ATOM     45  H5  UNL     1      17.783  -4.502   7.857  1.00  0.00     0.197 HD
HETATM   46  N6  UNL     1      20.148  -5.674   9.589  1.00  0.00    -0.224 N 
HETATM   47  C11 UNL     1      20.287  -6.358   8.443  1.00  0.00     0.154 A 
ATOM     48  H6  UNL     1      20.727  -5.762  10.423  1.00  0.00     0.198 HD
BRANCH  47  49
HETATM   49  N7  UNL     1      21.160  -7.278   8.211  1.00  0.00    -0.382 N 
ATOM     50  H72 UNL     1      21.710  -7.381   7.358  1.00  0.00     0.157 HD
ATOM     51  H71 UNL     1      21.451  -8.006   8.864  1.00  0.00     0.157 HD
ENDBRANCH  47  49
ENDBRANCH   3  42
TORSDOF 16
ENDMDL
MODEL 5
REMARK VINA RESULT: -7.996179498      2.967      4.966
REMARK  16 active torsions:
REMARK  status: ('A' for Active; 'I' for Inactive)
REMARK       I    between atoms: C2_2  and  N1_4 
REMARK    1  A    between atoms: N1_4  and  C3_5 
REMARK    2  A    between atoms: C4_6  and  O2_7 
REMARK    3  A    between atoms: C5_9  and  O3_10 
REMARK    4  A    between atoms: C6_12  and  N2_13 
REMARK    5  A    between atoms: N3_16  and  N4_17 
REMARK    6  A    between atoms: C7_20  and  C8_21 
REMARK    7  A    between atoms: C9_23  and  C10_24 
REMARK    8  A    between atoms: C11_30  and  N7_31 
REMARK    9  A    between atoms: C12_36  and  C13_37 
REMARK   10  A    between atoms: C13_37  and  N9_38 
REMARK   11  A    between atoms: C15_40  and  C16_41 
REMARK   12  A    between atoms: C16_41  and  O6_42 
REMARK   13  A    between atoms: O6_42  and  C17_43 
REMARK   14  A    between atoms: C17_43  and  O7_44 
REMARK   15  A    between atoms: C17_43  and  C18_46 
REMARK   16  A    between atoms: C18_46  and  O8_47 
ROOT
HETATM    1  C8  UNL     1      18.854  -8.743   4.100  1.00  0.00     0.134 A 
HETATM    2  O4  UNL     1      17.918  -8.830   5.009  1.00  0.00    -0.287 OA
HETATM    3  C9  UNL     1      17.093  -7.837   4.960  1.00  0.00     0.181 A 
HETATM    4  N8  UNL     1      17.494  -7.061   3.995  1.00  0.00    -0.334 N 
ATOM      5  H8  UNL     1      17.045  -6.191   3.711  1.00  0.00     0.168 HD
HETATM    6  C12 UNL     1      18.668  -7.627   3.392  1.00  0.00     0.067 A 
ENDROOT
BRANCH   1   7
HETATM    7  C7  UNL     1      19.879  -9.820   4.014  1.00  0.00     0.137 A 
HETATM    8  C3  UNL     1      19.741 -10.836   3.093  1.00  0.00     0.178 A 
HETATM    9  C4  UNL     1      20.863 -11.732   2.931  1.00  0.00     0.146 A 
HETATM   10  C5  UNL     1      21.988 -11.626   3.624  1.00  0.00     0.148 A 
HETATM   11  C6  UNL     1      22.055 -10.580   4.538  1.00  0.00     0.157 A 
HETATM   12  N3  UNL     1      21.029  -9.690   4.729  1.00  0.00    -0.238 N 
BRANCH   8  13
HETATM   13  N1  UNL     1      18.695 -11.179   2.399  1.00  0.00    -0.365 NA
HETATM   14  C2  UNL     1      17.573 -11.544   1.655  1.00  0.00     0.288 C 
HETATM   15  C1  UNL     1      16.322 -12.012   2.432  1.00  0.00     0.135 C 
HETATM   16  O1  UNL     1      17.376 -11.569   0.416  1.00  0.00    -0.258 OA
ENDBRANCH   8  13
BRANCH   9  17
HETATM   17  O2  UNL     1      20.708 -12.767   1.969  1.00  0.00    -0.355 OA
ATOM     18  H2  UNL     1      19.874 -13.221   1.970  1.00  0.00     0.218 HD
ENDBRANCH   9  17
BRANCH  10  19
HETATM   19  O3  UNL     1      23.061 -12.456   3.505  1.00  0.00    -0.355 OA
ATOM     20  H3  UNL     1      23.802 -12.311   2.930  1.00  0.00     0.218 HD
ENDBRANCH  10  19
BRANCH  11  21
HETATM   21  N2  UNL     1      23.112 -10.439   5.238  1.00  0.00    -0.382 N 
ATOM     22  H22 UNL     1      23.470 -11.253   5.737  1.00  0.00     0.157 HD
ATOM     23  H21 UNL     1      23.563  -9.525   5.271  1.00  0.00     0.157 HD
ENDBRANCH  11  21
BRANCH  12  24
HETATM   24  N4  UNL     1      21.283  -8.609   5.571  1.00  0.00    -0.336 N 
ATOM     25  H42 UNL     1      21.403  -7.654   5.231  1.00  0.00     0.177 HD
ATOM     26  H41 UNL     1      21.445  -8.820   6.555  1.00  0.00     0.177 HD
ENDBRANCH  12  24
ENDBRANCH   1   7
BRANCH   6  27
HETATM   27  C13 UNL     1      19.407  -6.844   2.413  1.00  0.00     0.206 C 
BRANCH  27  28
HETATM   28  N9  UNL     1      19.422  -5.465   2.945  1.00  0.00    -0.279 N 
HETATM   29  C14 UNL     1      19.402  -4.333   2.262  1.00  0.00     0.136 A 
HETATM   30  C15 UNL     1      19.527  -3.267   3.163  1.00  0.00     0.064 A 
HETATM   31  N10 UNL     1      19.611  -3.816   4.358  1.00  0.00    -0.285 N 
HETATM   32  N11 UNL     1      19.549  -5.142   4.233  1.00  0.00    -0.020 NA
ATOM     33  H10 UNL     1      19.707  -3.309   5.238  1.00  0.00     0.184 HD
BRANCH  30  34
HETATM   34  C16 UNL     1      19.586  -1.861   2.655  1.00  0.00     0.230 C 
BRANCH  34  35
HETATM   35  O6  UNL     1      19.924  -0.970   3.667  1.00  0.00    -0.353 OA
BRANCH  35  36
HETATM   36  C17 UNL     1      20.139   0.335   3.244  1.00  0.00     0.280 C 
BRANCH  36  37
HETATM   37  O7  UNL     1      19.033   0.780   2.457  1.00  0.00    -0.369 OA
ATOM     38  H7  UNL     1      18.255   0.284   2.682  1.00  0.00     0.212 HD
ENDBRANCH  36  37
BRANCH  36  39
HETATM   39  C18 UNL     1      20.270   1.257   4.402  1.00  0.00     0.224 C 
BRANCH  39  40
HETATM   40  O8  UNL     1      19.053   1.471   5.006  1.00  0.00    -0.396 OA
ATOM     41  H8  UNL     1      18.759   0.696   5.471  1.00  0.00     0.209 HD
ENDBRANCH  39  40
ENDBRANCH  36  39
ENDBRANCH  35  36
ENDBRANCH  34  35
ENDBRANCH  30  34
ENDBRANCH  27  28
ENDBRANCH   6  27
BRANCH   3  42
HETATM   42  C10 UNL     1      15.925  -7.654   5.866  1.00  0.00     0.153 A 
HETATM   43  N5  UNL     1      15.732  -6.575   6.634  1.00  0.00    -0.234 N 
HETATM   44  O5  UNL     1      14.567  -6.766   7.267  1.00  0.00    -0.155 OA
ATOM     45  H5  UNL     1      16.350  -5.767   6.720  1.00  0.00     0.197 HD
HETATM   46  N6  UNL     1      14.023  -7.889   6.941  1.00  0.00    -0.224 N 
HETATM   47  C11 UNL     1      14.848  -8.482   6.064  1.00  0.00     0.154 A 
ATOM     48  H6  UNL     1      13.136  -8.257   7.285  1.00  0.00     0.198 HD
BRANCH  47  49
HETATM   49  N7  UNL     1      14.641  -9.609   5.472  1.00  0.00    -0.382 N 
ATOM     50  H72 UNL     1      13.827 -10.210   5.594  1.00  0.00     0.157 HD
ATOM     51  H71 UNL     1      15.245 -10.035   4.769  1.00  0.00     0.157 HD
ENDBRANCH  47  49
ENDBRANCH   3  42
TORSDOF 16
ENDMDL
