MODEL 1
REMARK VINA RESULT: -8.239238820      0.000      0.000
REMARK  13 active torsions:
REMARK  status: ('A' for Active; 'I' for Inactive)
REMARK    1  A    between atoms: N1_1  and  C1_4 
REMARK    2  A    between atoms: C4_11  and  C5_12 
REMARK    3  A    between atoms: C6_13  and  N4_14 
REMARK    4  A    between atoms: N4_14  and  C7_16 
REMARK    5  A    between atoms: C7_16  and  C8_17 
REMARK    6  A    between atoms: C8_17  and  O1_18 
REMARK    7  A    between atoms: O1_18  and  C9_19 
REMARK    8  A    between atoms: C9_19  and  N5_20 
REMARK    9  A    between atoms: C9_19  and  N6_24 
REMARK   10  A    between atoms: C9_19  and  O2_28 
REMARK   11  A    between atoms: C10_32  and  C11_33 
REMARK   12  A    between atoms: N11_41  and  N12_42 
REMARK   13  A    between atoms: C14_50  and  C15_51 
ROOT
HETATM    1  C5  UNL     1      18.006 -11.809   1.276  1.00  0.00     0.132 A 
HETATM    2  C6  UNL     1      17.087 -12.815   1.489  1.00  0.00     0.134 A 
HETATM    3  N7  UNL     1      16.955 -13.493   0.345  1.00  0.00    -0.323 N 
ATOM      4  H7  UNL     1      16.341 -14.295   0.201  1.00  0.00     0.169 HD
HETATM    5  C10 UNL     1      17.782 -12.935  -0.613  1.00  0.00     0.159 A 
HETATM    6  N11 UNL     1      18.396 -11.922  -0.007  1.00  0.00    -0.238 N 
ENDROOT
BRANCH   1   7
HETATM    7  C4  UNL     1      18.468 -10.875   2.268  1.00  0.00     0.110 A 
HETATM    8  C3  UNL     1      19.684 -11.015   2.906  1.00  0.00     0.082 A 
HETATM    9  N3  UNL     1      20.462 -12.067   2.602  1.00  0.00    -0.349 N 
HETATM   10  C17 UNL     1      20.156 -10.114   3.837  1.00  0.00     0.084 A 
HETATM   11  C2  UNL     1      21.671 -12.299   3.147  1.00  0.00     0.182 A 
ATOM     12  H3  UNL     1      20.114 -12.734   1.913  1.00  0.00     0.166 HD
HETATM   13  N2  UNL     1      22.130 -11.437   4.045  1.00  0.00    -0.338 N 
HETATM   14  C1  UNL     1      21.386 -10.332   4.406  1.00  0.00     0.116 A 
ATOM     15  H2  UNL     1      23.043 -11.592   4.472  1.00  0.00     0.168 HD
HETATM   16  C16 UNL     1      19.353  -9.034   4.123  1.00  0.00     0.163 A 
HETATM   17  N14 UNL     1      18.164  -8.902   3.496  1.00  0.00    -0.176 N 
HETATM   18  N17 UNL     1      19.509  -8.003   4.956  1.00  0.00    -0.320 N 
HETATM   19  N13 UNL     1      17.743  -9.780   2.612  1.00  0.00    -0.273 N 
HETATM   20  N15 UNL     1      17.588  -7.776   3.952  1.00  0.00    -0.258 N 
ATOM     21  H13 UNL     1      16.836  -9.632   2.168  1.00  0.00     0.189 HD
HETATM   22  C14 UNL     1      18.424  -7.221   4.858  1.00  0.00     0.189 A 
ATOM     23  H15 UNL     1      16.682  -7.406   3.665  1.00  0.00     0.191 HD
ATOM     24  H17 UNL     1      20.313  -7.840   5.562  1.00  0.00     0.169 HD
BRANCH  14  25
HETATM   25  N1  UNL     1      21.858  -9.542   5.260  1.00  0.00    -0.385 N 
ATOM     26  H12 UNL     1      22.845  -9.285   5.256  1.00  0.00     0.157 HD
ATOM     27  H11 UNL     1      21.234  -9.154   5.967  1.00  0.00     0.157 HD
ENDBRANCH  14  25
BRANCH  22  28
HETATM   28  C15 UNL     1      18.160  -5.989   5.578  1.00  0.00     0.300 C 
HETATM   29  N16 UNL     1      16.857  -5.432   5.643  1.00  0.00    -0.054 NA
HETATM   30  O3  UNL     1      19.100  -5.404   6.154  1.00  0.00    -0.268 OA
ENDBRANCH  22  28
ENDBRANCH   1   7
BRANCH   2  31
HETATM   31  N4  UNL     1      16.440 -13.055   2.731  1.00  0.00    -0.372 N 
ATOM     32  H4  UNL     1      16.924 -13.570   3.466  1.00  0.00     0.161 HD
BRANCH  31  33
HETATM   33  C7  UNL     1      15.098 -12.569   2.951  1.00  0.00     0.147 C 
BRANCH  33  34
HETATM   34  C8  UNL     1      15.146 -11.354   3.815  1.00  0.00     0.194 C 
BRANCH  34  35
HETATM   35  O1  UNL     1      14.062 -11.075   4.577  1.00  0.00    -0.309 OA
BRANCH  35  36
HETATM   36  C9  UNL     1      13.983  -9.937   5.297  1.00  0.00     0.507 C 
BRANCH  36  37
HETATM   37  N5  UNL     1      13.824 -10.341   6.710  1.00  0.00     0.005 N 
ATOM     38  H53 UNL     1      12.979  -9.969   7.143  1.00  0.00     0.283 HD
ATOM     39  H52 UNL     1      13.601 -11.330   6.824  1.00  0.00     0.283 HD
ATOM     40  H51 UNL     1      14.679 -10.063   7.191  1.00  0.00     0.283 HD
ENDBRANCH  36  37
BRANCH  36  41
HETATM   41  N6  UNL     1      12.776  -9.160   5.012  1.00  0.00     0.005 N 
ATOM     42  H63 UNL     1      12.977  -8.399   4.364  1.00  0.00     0.283 HD
ATOM     43  H62 UNL     1      12.123  -9.698   4.441  1.00  0.00     0.283 HD
ATOM     44  H61 UNL     1      12.319  -8.809   5.854  1.00  0.00     0.283 HD
ENDBRANCH  36  41
BRANCH  36  45
HETATM   45  O2  UNL     1      15.079  -9.100   5.279  1.00  0.00    -0.321 OA
ATOM     46  H2  UNL     1      14.967  -8.228   5.640  1.00  0.00     0.216 HD
ENDBRANCH  36  45
ENDBRANCH  35  36
ENDBRANCH  34  35
ENDBRANCH  33  34
ENDBRANCH  31  33
ENDBRANCH   2  31
BRANCH   6  47
HETATM   47  N12 UNL     1      19.354 -11.055  -0.556  1.00  0.00    -0.336 N 
ATOM     48 2H12 UNL     1      19.195 -10.300  -1.222  1.00  0.00     0.177 HD
ATOM     49 1H12 UNL     1      20.343 -11.141  -0.320  1.00  0.00     0.177 HD
ENDBRANCH   6  47
BRANCH   5  50
HETATM   50  C11 UNL     1      17.863 -13.455  -1.972  1.00  0.00     0.121 A 
HETATM   51  N8  UNL     1      19.097 -13.781  -2.518  1.00  0.00    -0.347 N 
HETATM   52  C12 UNL     1      18.935 -14.224  -3.766  1.00  0.00     0.182 A 
ATOM     53  H8  UNL     1      19.992 -13.695  -2.036  1.00  0.00     0.167 HD
HETATM   54  N9  UNL     1      17.642 -14.208  -4.081  1.00  0.00    -0.339 N 
HETATM   55  C13 UNL     1      16.993 -13.732  -2.965  1.00  0.00     0.148 A 
ATOM     56  H9  UNL     1      17.220 -14.490  -4.966  1.00  0.00     0.167 HD
HETATM   57  N10 UNL     1      15.580 -13.567  -2.929  1.00  0.00    -0.080 NA
ENDBRANCH   5  50
TORSDOF 13
ENDMDL
MODEL 2
REMARK VINA RESULT: -8.117271043      2.405      7.215
REMARK  13 active torsions:
REMARK  status: ('A' for Active; 'I' for Inactive)
REMARK    1  A    between atoms: N1_1  and  C1_4 
REMARK    2  A    between atoms: C4_11  and  C5_12 
REMARK    3  A    between atoms: C6_13  and  N4_14 
REMARK    4  A    between atoms: N4_14  and  C7_16 
REMARK    5  A    between atoms: C7_16  and  C8_17 
REMARK    6  A    between atoms: C8_17  and  O1_18 
REMARK    7  A    between atoms: O1_18  and  C9_19 
REMARK    8  A    between atoms: C9_19  and  N5_20 
REMARK    9  A    between atoms: C9_19  and  N6_24 
REMARK   10  A    between atoms: C9_19  and  O2_28 
REMARK   11  A    between atoms: C10_32  and  C11_33 
REMARK   12  A    between atoms: N11_41  and  N12_42 
REMARK   13  A    between atoms: C14_50  and  C15_51 
ROOT
HETATM    1  C5  UNL     1      17.740  -9.955   2.842  1.00  0.00     0.132 A 
HETATM    2  C6  UNL     1      17.977  -8.648   3.211  1.00  0.00     0.134 A 
HETATM    3  N7  UNL     1      17.009  -8.283   4.057  1.00  0.00    -0.323 N 
ATOM      4  H7  UNL     1      16.923  -7.367   4.496  1.00  0.00     0.169 HD
HETATM    5  C10 UNL     1      16.142  -9.345   4.242  1.00  0.00     0.159 A 
HETATM    6  N11 UNL     1      16.623 -10.332   3.490  1.00  0.00    -0.238 N 
ENDROOT
BRANCH   1   7
HETATM    7  C4  UNL     1      18.575 -10.743   1.974  1.00  0.00     0.110 A 
HETATM    8  C3  UNL     1      19.844 -11.148   2.336  1.00  0.00     0.082 A 
HETATM    9  N3  UNL     1      20.327 -10.785   3.535  1.00  0.00    -0.349 N 
HETATM   10  C17 UNL     1      20.646 -11.927   1.530  1.00  0.00     0.084 A 
HETATM   11  C2  UNL     1      21.541 -11.131   4.001  1.00  0.00     0.182 A 
ATOM     12  H3  UNL     1      19.734 -10.208   4.133  1.00  0.00     0.166 HD
HETATM   13  N2  UNL     1      22.318 -11.880   3.229  1.00  0.00    -0.338 N 
HETATM   14  C1  UNL     1      21.889 -12.292   1.985  1.00  0.00     0.116 A 
ATOM     15  H2  UNL     1      23.243 -12.155   3.560  1.00  0.00     0.168 HD
HETATM   16  C16 UNL     1      20.128 -12.304   0.312  1.00  0.00     0.163 A 
HETATM   17  N14 UNL     1      18.886 -11.905  -0.037  1.00  0.00    -0.176 N 
HETATM   18  N17 UNL     1      20.632 -13.040  -0.682  1.00  0.00    -0.320 N 
HETATM   19  N13 UNL     1      18.146 -11.161   0.755  1.00  0.00    -0.273 N 
HETATM   20  N15 UNL     1      18.628 -12.404  -1.258  1.00  0.00    -0.258 N 
ATOM     21  H13 UNL     1      17.214 -10.888   0.443  1.00  0.00     0.189 HD
HETATM   22  C14 UNL     1      19.712 -13.107  -1.656  1.00  0.00     0.189 A 
ATOM     23  H15 UNL     1      17.767 -12.276  -1.790  1.00  0.00     0.191 HD
ATOM     24  H17 UNL     1      21.554 -13.474  -0.696  1.00  0.00     0.169 HD
BRANCH  14  25
HETATM   25  N1  UNL     1      22.656 -12.999   1.287  1.00  0.00    -0.385 N 
ATOM     26  H12 UNL     1      23.419 -13.529   1.709  1.00  0.00     0.157 HD
ATOM     27  H11 UNL     1      22.505 -13.038   0.279  1.00  0.00     0.157 HD
ENDBRANCH  14  25
BRANCH  22  28
HETATM   28  C15 UNL     1      19.825 -13.803  -2.925  1.00  0.00     0.300 C 
HETATM   29  N16 UNL     1      18.998 -13.473  -4.028  1.00  0.00    -0.054 NA
HETATM   30  O3  UNL     1      20.670 -14.714  -3.050  1.00  0.00    -0.268 OA
ENDBRANCH  22  28
ENDBRANCH   1   7
BRANCH   2  31
HETATM   31  N4  UNL     1      19.081  -7.878   2.756  1.00  0.00    -0.372 N 
ATOM     32  H4  UNL     1      19.807  -8.313   2.189  1.00  0.00     0.161 HD
BRANCH  31  33
HETATM   33  C7  UNL     1      19.173  -6.477   3.098  1.00  0.00     0.147 C 
BRANCH  33  34
HETATM   34  C8  UNL     1      19.312  -6.335   4.576  1.00  0.00     0.194 C 
BRANCH  34  35
HETATM   35  O1  UNL     1      18.434  -5.532   5.221  1.00  0.00    -0.309 OA
BRANCH  35  36
HETATM   36  C9  UNL     1      18.028  -5.801   6.480  1.00  0.00     0.507 C 
BRANCH  36  37
HETATM   37  N5  UNL     1      16.901  -4.889   6.765  1.00  0.00     0.005 N 
ATOM     38  H53 UNL     1      17.149  -4.127   7.396  1.00  0.00     0.283 HD
ATOM     39  H52 UNL     1      16.636  -4.312   5.966  1.00  0.00     0.283 HD
ATOM     40  H51 UNL     1      16.138  -5.469   7.114  1.00  0.00     0.283 HD
ENDBRANCH  36  37
BRANCH  36  41
HETATM   41  N6  UNL     1      19.029  -5.456   7.490  1.00  0.00     0.005 N 
ATOM     42  H63 UNL     1      19.853  -5.037   7.059  1.00  0.00     0.283 HD
ATOM     43  H62 UNL     1      18.718  -4.666   8.056  1.00  0.00     0.283 HD
ATOM     44  H61 UNL     1      19.290  -6.245   8.081  1.00  0.00     0.283 HD
ENDBRANCH  36  41
BRANCH  36  45
HETATM   45  O2  UNL     1      17.545  -7.068   6.730  1.00  0.00    -0.321 OA
ATOM     46  H2  UNL     1      16.972  -7.175   7.481  1.00  0.00     0.216 HD
ENDBRANCH  36  45
ENDBRANCH  35  36
ENDBRANCH  34  35
ENDBRANCH  33  34
ENDBRANCH  31  33
ENDBRANCH   2  31
BRANCH   6  47
HETATM   47  N12 UNL     1      16.105 -11.630   3.354  1.00  0.00    -0.336 N 
ATOM     48 2H12 UNL     1      16.267 -12.428   3.968  1.00  0.00     0.177 HD
ATOM     49 1H12 UNL     1      15.504 -11.881   2.569  1.00  0.00     0.177 HD
ENDBRANCH   6  47
BRANCH   5  50
HETATM   50  C11 UNL     1      14.978  -9.259   5.115  1.00  0.00     0.121 A 
HETATM   51  N8  UNL     1      14.830  -8.175   5.969  1.00  0.00    -0.347 N 
HETATM   52  C12 UNL     1      13.707  -8.308   6.676  1.00  0.00     0.182 A 
ATOM     53  H8  UNL     1      15.482  -7.394   6.044  1.00  0.00     0.167 HD
HETATM   54  N9  UNL     1      13.094  -9.439   6.332  1.00  0.00    -0.339 N 
HETATM   55  C13 UNL     1      13.890 -10.015   5.368  1.00  0.00     0.148 A 
ATOM     56  H9  UNL     1      12.217  -9.803   6.705  1.00  0.00     0.167 HD
HETATM   57  N10 UNL     1      13.556 -11.257   4.760  1.00  0.00    -0.080 NA
ENDBRANCH   5  50
TORSDOF 13
ENDMDL
MODEL 3
REMARK VINA RESULT: -8.033656211      3.515      6.185
REMARK  13 active torsions:
REMARK  status: ('A' for Active; 'I' for Inactive)
REMARK    1  A    between atoms: N1_1  and  C1_4 
REMARK    2  A    between atoms: C4_11  and  C5_12 
REMARK    3  A    between atoms: C6_13  and  N4_14 
REMARK    4  A    between atoms: N4_14  and  C7_16 
REMARK    5  A    between atoms: C7_16  and  C8_17 
REMARK    6  A    between atoms: C8_17  and  O1_18 
REMARK    7  A    between atoms: O1_18  and  C9_19 
REMARK    8  A    between atoms: C9_19  and  N5_20 
REMARK    9  A    between atoms: C9_19  and  N6_24 
REMARK   10  A    between atoms: C9_19  and  O2_28 
REMARK   11  A    between atoms: C10_32  and  C11_33 
REMARK   12  A    between atoms: N11_41  and  N12_42 
REMARK   13  A    between atoms: C14_50  and  C15_51 
ROOT
HETATM    1  C5  UNL     1      19.230  -9.580   3.269  1.00  0.00     0.132 A 
HETATM    2  C6  UNL     1      20.325 -10.284   3.723  1.00  0.00     0.134 A 
HETATM    3  N7  UNL     1      20.230 -11.531   3.253  1.00  0.00    -0.323 N 
ATOM      4  H7  UNL     1      20.900 -12.280   3.425  1.00  0.00     0.169 HD
HETATM    5  C10 UNL     1      19.079 -11.644   2.494  1.00  0.00     0.159 A 
HETATM    6  N11 UNL     1      18.507 -10.443   2.532  1.00  0.00    -0.238 N 
ENDROOT
BRANCH   1   7
HETATM    7  C4  UNL     1      18.972  -8.186   3.514  1.00  0.00     0.110 A 
HETATM    8  C3  UNL     1      18.125  -7.755   4.515  1.00  0.00     0.082 A 
HETATM    9  N3  UNL     1      17.506  -8.666   5.283  1.00  0.00    -0.349 N 
HETATM   10  C17 UNL     1      17.890  -6.423   4.783  1.00  0.00     0.084 A 
HETATM   11  C2  UNL     1      16.672  -8.366   6.295  1.00  0.00     0.182 A 
ATOM     12  H3  UNL     1      17.680  -9.652   5.086  1.00  0.00     0.166 HD
HETATM   13  N2  UNL     1      16.440  -7.086   6.557  1.00  0.00    -0.338 N 
HETATM   14  C1  UNL     1      17.041  -6.093   5.811  1.00  0.00     0.116 A 
ATOM     15  H2  UNL     1      15.811  -6.833   7.319  1.00  0.00     0.168 HD
HETATM   16  C16 UNL     1      18.546  -5.502   3.998  1.00  0.00     0.163 A 
HETATM   17  N14 UNL     1      19.373  -5.930   3.020  1.00  0.00    -0.176 N 
HETATM   18  N17 UNL     1      18.539  -4.168   3.995  1.00  0.00    -0.320 N 
HETATM   19  N13 UNL     1      19.576  -7.209   2.790  1.00  0.00    -0.273 N 
HETATM   20  N15 UNL     1      19.878  -4.842   2.412  1.00  0.00    -0.258 N 
ATOM     21  H13 UNL     1      20.212  -7.477   2.038  1.00  0.00     0.189 HD
HETATM   22  C14 UNL     1      19.359  -3.750   3.018  1.00  0.00     0.189 A 
ATOM     23  H15 UNL     1      20.536  -4.840   1.633  1.00  0.00     0.191 HD
ATOM     24  H17 UNL     1      18.003  -3.571   4.624  1.00  0.00     0.169 HD
BRANCH  14  25
HETATM   25  N1  UNL     1      16.794  -4.895   6.093  1.00  0.00    -0.385 N 
ATOM     26  H12 UNL     1      15.976  -4.638   6.645  1.00  0.00     0.157 HD
ATOM     27  H11 UNL     1      17.430  -4.172   5.758  1.00  0.00     0.157 HD
ENDBRANCH  14  25
BRANCH  22  28
HETATM   28  C15 UNL     1      19.661  -2.380   2.650  1.00  0.00     0.300 C 
HETATM   29  N16 UNL     1      20.916  -1.791   2.948  1.00  0.00    -0.054 NA
HETATM   30  O3  UNL     1      18.797  -1.701   2.057  1.00  0.00    -0.268 OA
ENDBRANCH  22  28
ENDBRANCH   1   7
BRANCH   2  31
HETATM   31  N4  UNL     1      21.353  -9.727   4.530  1.00  0.00    -0.372 N 
ATOM     32  H4  UNL     1      21.150  -8.935   5.140  1.00  0.00     0.161 HD
BRANCH  31  33
HETATM   33  C7  UNL     1      22.685 -10.283   4.487  1.00  0.00     0.147 C 
BRANCH  33  34
HETATM   34  C8  UNL     1      22.973 -10.981   5.775  1.00  0.00     0.194 C 
BRANCH  34  35
HETATM   35  O1  UNL     1      24.067 -10.593   6.474  1.00  0.00    -0.309 OA
BRANCH  35  36
HETATM   36  C9  UNL     1      24.350 -11.119   7.683  1.00  0.00     0.507 C 
BRANCH  36  37
HETATM   37  N5  UNL     1      23.863 -10.152   8.690  1.00  0.00     0.005 N 
ATOM     38  H53 UNL     1      24.613  -9.630   9.143  1.00  0.00     0.283 HD
ATOM     39  H52 UNL     1      23.380  -9.352   8.280  1.00  0.00     0.283 HD
ATOM     40  H51 UNL     1      23.285 -10.678   9.345  1.00  0.00     0.283 HD
ENDBRANCH  36  37
BRANCH  36  41
HETATM   41  N6  UNL     1      25.787 -11.211   7.946  1.00  0.00     0.005 N 
ATOM     42  H63 UNL     1      26.289 -11.524   7.115  1.00  0.00     0.283 HD
ATOM     43  H62 UNL     1      26.198 -10.284   8.051  1.00  0.00     0.283 HD
ATOM     44  H61 UNL     1      26.009 -11.800   8.748  1.00  0.00     0.283 HD
ENDBRANCH  36  41
BRANCH  36  45
HETATM   45  O2  UNL     1      23.748 -12.317   8.008  1.00  0.00    -0.321 OA
ATOM     46  H2  UNL     1      22.807 -12.309   8.143  1.00  0.00     0.216 HD
ENDBRANCH  36  45
ENDBRANCH  35  36
ENDBRANCH  34  35
ENDBRANCH  33  34
ENDBRANCH  31  33
ENDBRANCH   2  31
BRANCH   6  47
HETATM   47  N12 UNL     1      17.322 -10.043   1.896  1.00  0.00    -0.336 N 
ATOM     48 2H12 UNL     1      16.829  -9.157   2.007  1.00  0.00     0.177 HD
ATOM     49 1H12 UNL     1      16.833 -10.662   1.249  1.00  0.00     0.177 HD
ENDBRANCH   6  47
BRANCH   5  50
HETATM   50  C11 UNL     1      18.694 -12.890   1.842  1.00  0.00     0.121 A 
HETATM   51  N8  UNL     1      19.667 -13.800   1.455  1.00  0.00    -0.347 N 
HETATM   52  C12 UNL     1      19.094 -14.854   0.873  1.00  0.00     0.182 A 
ATOM     53  H8  UNL     1      20.671 -13.680   1.594  1.00  0.00     0.167 HD
HETATM   54  N9  UNL     1      17.772 -14.689   0.853  1.00  0.00    -0.339 N 
HETATM   55  C13 UNL     1      17.541 -13.473   1.455  1.00  0.00     0.148 A 
ATOM     56  H9  UNL     1      17.077 -15.330   0.472  1.00  0.00     0.167 HD
HETATM   57  N10 UNL     1      16.227 -12.949   1.611  1.00  0.00    -0.080 NA
ENDBRANCH   5  50
TORSDOF 13
ENDMDL
MODEL 4
REMARK VINA RESULT: -8.014107548      3.679      6.071
REMARK  13 active torsions:
REMARK  status: ('A' for Active; 'I' for Inactive)
REMARK    1  A    between atoms: N1_1  and  C1_4 
REMARK    2  A    between atoms: C4_11  and  C5_12 
REMARK    3  A    between atoms: C6_13  and  N4_14 
REMARK    4  A    between atoms: N4_14  and  C7_16 
REMARK    5  A    between atoms: C7_16  and  C8_17 
REMARK    6  A    between atoms: C8_17  and  O1_18 
REMARK    7  A    between atoms: O1_18  and  C9_19 
REMARK    8  A    between atoms: C9_19  and  N5_20 
REMARK    9  A    between atoms: C9_19  and  N6_24 
REMARK   10  A    between atoms: C9_19  and  O2_28 
REMARK   11  A    between atoms: C10_32  and  C11_33 
REMARK   12  A    between atoms: N11_41  and  N12_42 
REMARK   13  A    between atoms: C14_50  and  C15_51 
ROOT
HETATM    1  C5  UNL     1      17.784  -9.412   3.372  1.00  0.00     0.132 A 
HETATM    2  C6  UNL     1      18.583 -10.419   2.873  1.00  0.00     0.134 A 
HETATM    3  N7  UNL     1      17.811 -11.493   2.684  1.00  0.00    -0.323 N 
ATOM      4  H7  UNL     1      18.128 -12.392   2.322  1.00  0.00     0.169 HD
HETATM    5  C10 UNL     1      16.513 -11.192   3.056  1.00  0.00     0.159 A 
HETATM    6  N11 UNL     1      16.545  -9.926   3.465  1.00  0.00    -0.238 N 
ENDROOT
BRANCH   1   7
HETATM    7  C4  UNL     1      18.217  -8.073   3.672  1.00  0.00     0.110 A 
HETATM    8  C3  UNL     1      18.402  -7.628   4.966  1.00  0.00     0.082 A 
HETATM    9  N3  UNL     1      18.156  -8.467   5.985  1.00  0.00    -0.349 N 
HETATM   10  C17 UNL     1      18.845  -6.359   5.271  1.00  0.00     0.084 A 
HETATM   11  C2  UNL     1      18.314  -8.151   7.284  1.00  0.00     0.182 A 
ATOM     12  H3  UNL     1      17.829  -9.407   5.760  1.00  0.00     0.166 HD
HETATM   13  N2  UNL     1      18.739  -6.931   7.584  1.00  0.00    -0.338 N 
HETATM   14  C1  UNL     1      19.012  -6.014   6.590  1.00  0.00     0.116 A 
ATOM     15  H2  UNL     1      18.865  -6.667   8.562  1.00  0.00     0.168 HD
HETATM   16  C16 UNL     1      19.108  -5.518   4.214  1.00  0.00     0.163 A 
HETATM   17  N14 UNL     1      18.925  -5.959   2.950  1.00  0.00    -0.176 N 
HETATM   18  N17 UNL     1      19.539  -4.256   4.165  1.00  0.00    -0.320 N 
HETATM   19  N13 UNL     1      18.501  -7.176   2.693  1.00  0.00    -0.273 N 
HETATM   20  N15 UNL     1      19.251  -4.953   2.120  1.00  0.00    -0.258 N 
ATOM     21  H13 UNL     1      18.381  -7.458   1.720  1.00  0.00     0.189 HD
HETATM   22  C14 UNL     1      19.630  -3.897   2.875  1.00  0.00     0.189 A 
ATOM     23  H15 UNL     1      19.217  -4.980   1.101  1.00  0.00     0.191 HD
ATOM     24  H17 UNL     1      19.760  -3.667   4.968  1.00  0.00     0.169 HD
BRANCH  14  25
HETATM   25  N1  UNL     1      19.411  -4.870   6.919  1.00  0.00    -0.385 N 
ATOM     26  H12 UNL     1      19.414  -4.570   7.893  1.00  0.00     0.157 HD
ATOM     27  H11 UNL     1      19.737  -4.237   6.189  1.00  0.00     0.157 HD
ENDBRANCH  14  25
BRANCH  22  28
HETATM   28  C15 UNL     1      20.058  -2.616   2.348  1.00  0.00     0.300 C 
HETATM   29  N16 UNL     1      20.037  -1.441   3.143  1.00  0.00    -0.054 NA
HETATM   30  O3  UNL     1      20.453  -2.542   1.166  1.00  0.00    -0.268 OA
ENDBRANCH  22  28
ENDBRANCH   1   7
BRANCH   2  31
HETATM   31  N4  UNL     1      19.971 -10.279   2.608  1.00  0.00    -0.372 N 
ATOM     32  H4  UNL     1      20.327  -9.419   2.191  1.00  0.00     0.161 HD
BRANCH  31  33
HETATM   33  C7  UNL     1      20.880 -11.356   2.929  1.00  0.00     0.147 C 
BRANCH  33  34
HETATM   34  C8  UNL     1      21.737 -10.953   4.082  1.00  0.00     0.194 C 
BRANCH  34  35
HETATM   35  O1  UNL     1      22.152 -11.923   4.931  1.00  0.00    -0.309 OA
BRANCH  35  36
HETATM   36  C9  UNL     1      23.165 -11.712   5.797  1.00  0.00     0.507 C 
BRANCH  36  37
HETATM   37  N5  UNL     1      22.945 -10.374   6.387  1.00  0.00     0.005 N 
ATOM     38  H53 UNL     1      23.424  -9.628   5.882  1.00  0.00     0.283 HD
ATOM     39  H52 UNL     1      21.995 -10.026   6.256  1.00  0.00     0.283 HD
ATOM     40  H51 UNL     1      23.219 -10.438   7.367  1.00  0.00     0.283 HD
ENDBRANCH  36  37
BRANCH  36  41
HETATM   41  N6  UNL     1      24.468 -11.600   5.140  1.00  0.00     0.005 N 
ATOM     42  H63 UNL     1      25.054 -12.407   5.355  1.00  0.00     0.283 HD
ATOM     43  H62 UNL     1      24.378 -11.723   4.131  1.00  0.00     0.283 HD
ATOM     44  H61 UNL     1      24.952 -10.730   5.358  1.00  0.00     0.283 HD
ENDBRANCH  36  41
BRANCH  36  45
HETATM   45  O2  UNL     1      23.267 -12.570   6.872  1.00  0.00    -0.321 OA
ATOM     46  H2  UNL     1      23.968 -13.213   6.850  1.00  0.00     0.216 HD
ENDBRANCH  36  45
ENDBRANCH  35  36
ENDBRANCH  34  35
ENDBRANCH  33  34
ENDBRANCH  31  33
ENDBRANCH   2  31
BRANCH   6  47
HETATM   47  N12 UNL     1      15.467  -9.152   3.924  1.00  0.00    -0.336 N 
ATOM     48 2H12 UNL     1      14.717  -9.445   4.549  1.00  0.00     0.177 HD
ATOM     49 1H12 UNL     1      15.348  -8.183   3.629  1.00  0.00     0.177 HD
ENDBRANCH   6  47
BRANCH   5  50
HETATM   50  C11 UNL     1      15.430 -12.164   2.966  1.00  0.00     0.121 A 
HETATM   51  N8  UNL     1      15.539 -13.245   2.103  1.00  0.00    -0.347 N 
HETATM   52  C12 UNL     1      14.436 -13.993   2.176  1.00  0.00     0.182 A 
ATOM     53  H8  UNL     1      16.341 -13.439   1.503  1.00  0.00     0.167 HD
HETATM   54  N9  UNL     1      13.591 -13.456   3.053  1.00  0.00    -0.339 N 
HETATM   55  C13 UNL     1      14.217 -12.330   3.533  1.00  0.00     0.148 A 
ATOM     56  H9  UNL     1      12.670 -13.808   3.315  1.00  0.00     0.167 HD
HETATM   57  N10 UNL     1      13.606 -11.481   4.499  1.00  0.00    -0.080 NA
ENDBRANCH   5  50
TORSDOF 13
ENDMDL
MODEL 5
REMARK VINA RESULT: -7.989235894      2.909      4.924
REMARK  13 active torsions:
REMARK  status: ('A' for Active; 'I' for Inactive)
REMARK    1  A    between atoms: N1_1  and  C1_4 
REMARK    2  A    between atoms: C4_11  and  C5_12 
REMARK    3  A    between atoms: C6_13  and  N4_14 
REMARK    4  A    between atoms: N4_14  and  C7_16 
REMARK    5  A    between atoms: C7_16  and  C8_17 
REMARK    6  A    between atoms: C8_17  and  O1_18 
REMARK    7  A    between atoms: O1_18  and  C9_19 
REMARK    8  A    between atoms: C9_19  and  N5_20 
REMARK    9  A    between atoms: C9_19  and  N6_24 
REMARK   10  A    between atoms: C9_19  and  O2_28 
REMARK   11  A    between atoms: C10_32  and  C11_33 
REMARK   12  A    between atoms: N11_41  and  N12_42 
REMARK   13  A    between atoms: C14_50  and  C15_51 
ROOT
HETATM    1  C5  UNL     1      18.599 -11.862   0.963  1.00  0.00     0.132 A 
HETATM    2  C6  UNL     1      18.941 -11.666  -0.359  1.00  0.00     0.134 A 
HETATM    3  N7  UNL     1      18.299 -12.586  -1.085  1.00  0.00    -0.323 N 
ATOM      4  H7  UNL     1      18.359 -12.686  -2.098  1.00  0.00     0.169 HD
HETATM    5  C10 UNL     1      17.540 -13.380  -0.245  1.00  0.00     0.159 A 
HETATM    6  N11 UNL     1      17.753 -12.907   0.981  1.00  0.00    -0.238 N 
ENDROOT
BRANCH   1   7
HETATM    7  C4  UNL     1      19.041 -11.054   2.069  1.00  0.00     0.110 A 
HETATM    8  C3  UNL     1      20.197 -11.331   2.771  1.00  0.00     0.082 A 
HETATM    9  N3  UNL     1      20.933 -12.399   2.422  1.00  0.00    -0.349 N 
HETATM   10  C17 UNL     1      20.651 -10.551   3.814  1.00  0.00     0.084 A 
HETATM   11  C2  UNL     1      22.082 -12.758   3.022  1.00  0.00     0.182 A 
ATOM     12  H3  UNL     1      20.598 -12.976   1.650  1.00  0.00     0.166 HD
HETATM   13  N2  UNL     1      22.523 -12.013   4.027  1.00  0.00    -0.338 N 
HETATM   14  C1  UNL     1      21.821 -10.900   4.442  1.00  0.00     0.116 A 
ATOM     15  H2  UNL     1      23.392 -12.265   4.499  1.00  0.00     0.168 HD
HETATM   16  C16 UNL     1      19.894  -9.451   4.147  1.00  0.00     0.163 A 
HETATM   17  N14 UNL     1      18.764  -9.186   3.456  1.00  0.00    -0.176 N 
HETATM   18  N17 UNL     1      20.049  -8.514   5.084  1.00  0.00    -0.320 N 
HETATM   19  N13 UNL     1      18.358  -9.950   2.466  1.00  0.00    -0.273 N 
HETATM   20  N15 UNL     1      18.223  -8.071   3.978  1.00  0.00    -0.258 N 
ATOM     21  H13 UNL     1      17.497  -9.704   1.978  1.00  0.00     0.189 HD
HETATM   22  C14 UNL     1      19.021  -7.656   4.988  1.00  0.00     0.189 A 
ATOM     23  H15 UNL     1      17.363  -7.619   3.668  1.00  0.00     0.191 HD
ATOM     24  H17 UNL     1      20.814  -8.459   5.755  1.00  0.00     0.169 HD
BRANCH  14  25
HETATM   25  N1  UNL     1      22.275 -10.223   5.397  1.00  0.00    -0.385 N 
ATOM     26  H12 UNL     1      22.650 -10.671   6.232  1.00  0.00     0.157 HD
ATOM     27  H11 UNL     1      22.263  -9.206   5.326  1.00  0.00     0.157 HD
ENDBRANCH  14  25
BRANCH  22  28
HETATM   28  C15 UNL     1      18.778  -6.481   5.803  1.00  0.00     0.300 C 
HETATM   29  N16 UNL     1      18.144  -6.574   7.069  1.00  0.00    -0.054 NA
HETATM   30  O3  UNL     1      19.132  -5.361   5.383  1.00  0.00    -0.268 OA
ENDBRANCH  22  28
ENDBRANCH   1   7
BRANCH   2  31
HETATM   31  N4  UNL     1      19.812 -10.640  -0.814  1.00  0.00    -0.372 N 
ATOM     32  H4  UNL     1      19.625  -9.667  -0.571  1.00  0.00     0.161 HD
BRANCH  31  33
HETATM   33  C7  UNL     1      20.962 -10.975  -1.621  1.00  0.00     0.147 C 
BRANCH  33  34
HETATM   34  C8  UNL     1      21.805 -11.969  -0.895  1.00  0.00     0.194 C 
BRANCH  34  35
HETATM   35  O1  UNL     1      22.151 -13.103  -1.549  1.00  0.00    -0.309 OA
BRANCH  35  36
HETATM   36  C9  UNL     1      21.747 -14.315  -1.114  1.00  0.00     0.507 C 
BRANCH  36  37
HETATM   37  N5  UNL     1      22.968 -15.059  -0.740  1.00  0.00     0.005 N 
ATOM     38  H53 UNL     1      23.813 -14.695  -1.181  1.00  0.00     0.283 HD
ATOM     39  H52 UNL     1      23.253 -14.907   0.227  1.00  0.00     0.283 HD
ATOM     40  H51 UNL     1      22.790 -16.039  -0.959  1.00  0.00     0.283 HD
ENDBRANCH  36  37
BRANCH  36  41
HETATM   41  N6  UNL     1      21.143 -15.130  -2.170  1.00  0.00     0.005 N 
ATOM     42  H63 UNL     1      21.737 -15.150  -2.999  1.00  0.00     0.283 HD
ATOM     43  H62 UNL     1      21.167 -16.120  -1.924  1.00  0.00     0.283 HD
ATOM     44  H61 UNL     1      20.196 -14.838  -2.408  1.00  0.00     0.283 HD
ENDBRANCH  36  41
BRANCH  36  45
HETATM   45  O2  UNL     1      20.942 -14.349   0.005  1.00  0.00    -0.321 OA
ATOM     46  H2  UNL     1      20.812 -15.193   0.423  1.00  0.00     0.216 HD
ENDBRANCH  36  45
ENDBRANCH  35  36
ENDBRANCH  34  35
ENDBRANCH  33  34
ENDBRANCH  31  33
ENDBRANCH   2  31
BRANCH   6  47
HETATM   47  N12 UNL     1      17.188 -13.366   2.181  1.00  0.00    -0.336 N 
ATOM     48 2H12 UNL     1      17.242 -12.925   3.099  1.00  0.00     0.177 HD
ATOM     49 1H12 UNL     1      16.665 -14.241   2.220  1.00  0.00     0.177 HD
ENDBRANCH   6  47
BRANCH   5  50
HETATM   50  C11 UNL     1      16.721 -14.480  -0.740  1.00  0.00     0.121 A 
HETATM   51  N8  UNL     1      16.731 -15.702  -0.083  1.00  0.00    -0.347 N 
HETATM   52  C12 UNL     1      15.923 -16.558  -0.711  1.00  0.00     0.182 A 
ATOM     53  H8  UNL     1      17.275 -15.914   0.754  1.00  0.00     0.167 HD
HETATM   54  N9  UNL     1      15.370 -15.959  -1.764  1.00  0.00    -0.339 N 
HETATM   55  C13 UNL     1      15.872 -14.678  -1.769  1.00  0.00     0.148 A 
ATOM     56  H9  UNL     1      14.712 -16.366  -2.428  1.00  0.00     0.167 HD
HETATM   57  N10 UNL     1      15.508 -13.731  -2.766  1.00  0.00    -0.080 NA
ENDBRANCH   5  50
TORSDOF 13
ENDMDL
