MODEL 1
REMARK VINA RESULT: -8.924055613      0.000      0.000
REMARK  8 active torsions:
REMARK  status: ('A' for Active; 'I' for Inactive)
REMARK    1  A    between atoms: C4_4  and  O1_5 
REMARK    2  A    between atoms: C9_11  and  O2_12 
REMARK    3  A    between atoms: C15_22  and  C16_23 
REMARK    4  A    between atoms: C16_23  and  C17_24 
REMARK    5  A    between atoms: C17_24  and  C18_25 
REMARK    6  A    between atoms: C18_25  and  C19_26 
REMARK    7  A    between atoms: C19_26  and  C20_27 
REMARK    8  A    between atoms: C20_27  and  N2_28 
ROOT
HETATM    1  C1  UNL     1      42.530  51.131  57.335  1.00  0.00     0.010 C 
HETATM    2  C2  UNL     1      41.685  50.721  58.521  1.00  0.00    -0.011 C 
HETATM    3  C3  UNL     1      40.842  49.537  58.197  1.00  0.00     0.037 C 
HETATM    4  C4  UNL     1      39.478  49.828  58.844  1.00  0.00     0.127 C 
HETATM    5  C5  UNL     1      39.331  51.331  58.668  1.00  0.00    -0.010 C 
HETATM    6  C6  UNL     1      38.961  51.524  57.193  1.00  0.00     0.018 C 
HETATM    7  C7  UNL     1      40.736  51.794  58.954  1.00  0.00     0.003 C 
HETATM    8  C8  UNL     1      41.115  53.083  58.306  1.00  0.00     0.037 C 
HETATM    9  C9  UNL     1      40.041  54.100  58.616  1.00  0.00     0.119 C 
HETATM   10  C10 UNL     1      39.744  53.991  60.078  1.00  0.00     0.038 C 
HETATM   11  C11 UNL     1      38.778  52.990  60.512  1.00  0.00     0.016 C 
HETATM   12  C12 UNL     1      37.541  53.702  61.024  1.00  0.00     0.097 C 
HETATM   13  N1  UNL     1      36.792  54.268  59.920  1.00  0.00    -0.355 N 
ATOM     14  H1  UNL     1      37.303  54.817  59.228  1.00  0.00     0.162 HD
HETATM   15  C13 UNL     1      35.396  54.108  59.741  1.00  0.00     0.218 C 
HETATM   16  O3  UNL     1      34.856  54.454  58.616  1.00  0.00    -0.274 OA
HETATM   17  C14 UNL     1      34.555  53.561  60.794  1.00  0.00     0.108 C 
HETATM   18  C15 UNL     1      35.368  53.494  62.122  1.00  0.00     0.004 C 
HETATM   19  C24 UNL     1      36.651  52.791  61.848  1.00  0.00    -0.019 C 
HETATM   20  C25 UNL     1      37.384  52.376  63.076  1.00  0.00     0.018 C 
HETATM   21  C26 UNL     1      36.355  51.514  61.077  1.00  0.00     0.012 C 
HETATM   22  C27 UNL     1      37.547  50.936  60.374  1.00  0.00     0.007 C 
HETATM   23  C28 UNL     1      38.314  51.957  59.554  1.00  0.00     0.003 C 
ENDROOT
BRANCH  18  24
HETATM   24  C16 UNL     1      35.427  54.896  62.603  1.00  0.00     0.006 C 
BRANCH  24  25
HETATM   25  C17 UNL     1      34.185  55.669  62.822  1.00  0.00     0.000 C 
BRANCH  25  26
HETATM   26  C18 UNL     1      33.535  55.411  64.196  1.00  0.00     0.002 C 
BRANCH  26  27
HETATM   27  C19 UNL     1      32.102  55.048  64.017  1.00  0.00     0.030 C 
BRANCH  27  28
HETATM   28  C20 UNL     1      31.156  56.133  64.390  1.00  0.00     0.272 C 
BRANCH  28  29
HETATM   29  N2  UNL     1      31.410  56.717  65.651  1.00  0.00     0.088 N 
HETATM   30  C21 UNL     1      31.756  58.066  65.820  1.00  0.00     0.274 A 
HETATM   31  C22 UNL     1      30.639  58.227  66.843  1.00  0.00     0.060 A 
HETATM   32  C23 UNL     1      30.286  56.809  66.516  1.00  0.00     0.274 A 
ENDBRANCH  28  29
ENDBRANCH  27  28
ENDBRANCH  26  27
ENDBRANCH  25  26
ENDBRANCH  24  25
ENDBRANCH  18  24
BRANCH   9  33
HETATM   33  O2  UNL     1      40.651  55.363  58.401  1.00  0.00    -0.396 OA
ATOM     34  H2  UNL     1      39.983  55.895  57.984  1.00  0.00     0.210 HD
ENDBRANCH   9  33
BRANCH   4  35
HETATM   35  O1  UNL     1      38.571  49.119  58.020  1.00  0.00    -0.395 OA
ATOM     36  H1  UNL     1      37.781  49.645  58.064  1.00  0.00     0.210 HD
ENDBRANCH   4  35
TORSDOF 8
ENDMDL
MODEL 2
REMARK VINA RESULT: -8.527523948      0.906      1.188
REMARK  8 active torsions:
REMARK  status: ('A' for Active; 'I' for Inactive)
REMARK    1  A    between atoms: C4_4  and  O1_5 
REMARK    2  A    between atoms: C9_11  and  O2_12 
REMARK    3  A    between atoms: C15_22  and  C16_23 
REMARK    4  A    between atoms: C16_23  and  C17_24 
REMARK    5  A    between atoms: C17_24  and  C18_25 
REMARK    6  A    between atoms: C18_25  and  C19_26 
REMARK    7  A    between atoms: C19_26  and  C20_27 
REMARK    8  A    between atoms: C20_27  and  N2_28 
ROOT
HETATM    1  C1  UNL     1      42.511  51.273  57.338  1.00  0.00     0.010 C 
HETATM    2  C2  UNL     1      41.687  50.810  58.519  1.00  0.00    -0.011 C 
HETATM    3  C3  UNL     1      40.870  49.614  58.170  1.00  0.00     0.037 C 
HETATM    4  C4  UNL     1      39.506  49.853  58.837  1.00  0.00     0.127 C 
HETATM    5  C5  UNL     1      39.320  51.357  58.705  1.00  0.00    -0.010 C 
HETATM    6  C6  UNL     1      38.932  51.581  57.239  1.00  0.00     0.018 C 
HETATM    7  C7  UNL     1      40.717  51.847  58.991  1.00  0.00     0.003 C 
HETATM    8  C8  UNL     1      41.058  53.162  58.376  1.00  0.00     0.037 C 
HETATM    9  C9  UNL     1      39.962  54.143  58.724  1.00  0.00     0.119 C 
HETATM   10  C10 UNL     1      39.682  53.986  60.186  1.00  0.00     0.038 C 
HETATM   11  C11 UNL     1      38.745  52.950  60.599  1.00  0.00     0.016 C 
HETATM   12  C12 UNL     1      37.496  53.617  61.142  1.00  0.00     0.097 C 
HETATM   13  N1  UNL     1      36.723  54.194  60.062  1.00  0.00    -0.355 N 
ATOM     14  H1  UNL     1      37.214  54.775  59.381  1.00  0.00     0.162 HD
HETATM   15  C13 UNL     1      35.330  54.005  59.891  1.00  0.00     0.218 C 
HETATM   16  O3  UNL     1      34.770  54.369  58.781  1.00  0.00    -0.274 OA
HETATM   17  C14 UNL     1      34.512  53.408  60.936  1.00  0.00     0.108 C 
HETATM   18  C15 UNL     1      35.340  53.324  62.254  1.00  0.00     0.004 C 
HETATM   19  C24 UNL     1      36.637  52.661  61.948  1.00  0.00    -0.019 C 
HETATM   20  C25 UNL     1      37.391  52.230  63.158  1.00  0.00     0.018 C 
HETATM   21  C26 UNL     1      36.365  51.399  61.145  1.00  0.00     0.012 C 
HETATM   22  C27 UNL     1      37.564  50.871  60.416  1.00  0.00     0.007 C 
HETATM   23  C28 UNL     1      38.297  51.933  59.618  1.00  0.00     0.003 C 
ENDROOT
BRANCH  18  24
HETATM   24  C16 UNL     1      35.369  54.713  62.774  1.00  0.00     0.006 C 
BRANCH  24  25
HETATM   25  C17 UNL     1      34.112  55.429  63.079  1.00  0.00     0.000 C 
BRANCH  25  26
HETATM   26  C18 UNL     1      33.744  55.413  64.577  1.00  0.00     0.002 C 
BRANCH  26  27
HETATM   27  C19 UNL     1      32.289  55.679  64.742  1.00  0.00     0.030 C 
BRANCH  27  28
HETATM   28  C20 UNL     1      31.962  57.112  64.970  1.00  0.00     0.272 C 
BRANCH  28  29
HETATM   29  N2  UNL     1      33.004  58.005  64.637  1.00  0.00     0.088 N 
HETATM   30  C21 UNL     1      32.924  58.924  63.580  1.00  0.00     0.274 A 
HETATM   31  C22 UNL     1      33.316  60.051  64.527  1.00  0.00     0.060 A 
HETATM   32  C23 UNL     1      33.275  59.011  65.604  1.00  0.00     0.274 A 
ENDBRANCH  28  29
ENDBRANCH  27  28
ENDBRANCH  26  27
ENDBRANCH  25  26
ENDBRANCH  24  25
ENDBRANCH  18  24
BRANCH   9  33
HETATM   33  O2  UNL     1      40.540  55.426  58.539  1.00  0.00    -0.396 OA
ATOM     34  H2  UNL     1      39.980  56.023  59.022  1.00  0.00     0.210 HD
ENDBRANCH   9  33
BRANCH   4  35
HETATM   35  O1  UNL     1      38.609  49.146  58.002  1.00  0.00    -0.395 OA
ATOM     36  H1  UNL     1      37.761  49.499  58.246  1.00  0.00     0.210 HD
ENDBRANCH   4  35
TORSDOF 8
ENDMDL
MODEL 3
REMARK VINA RESULT: -8.420494194      1.294      1.561
REMARK  8 active torsions:
REMARK  status: ('A' for Active; 'I' for Inactive)
REMARK    1  A    between atoms: C4_4  and  O1_5 
REMARK    2  A    between atoms: C9_11  and  O2_12 
REMARK    3  A    between atoms: C15_22  and  C16_23 
REMARK    4  A    between atoms: C16_23  and  C17_24 
REMARK    5  A    between atoms: C17_24  and  C18_25 
REMARK    6  A    between atoms: C18_25  and  C19_26 
REMARK    7  A    between atoms: C19_26  and  C20_27 
REMARK    8  A    between atoms: C20_27  and  N2_28 
ROOT
HETATM    1  C1  UNL     1      42.457  51.000  57.659  1.00  0.00     0.010 C 
HETATM    2  C2  UNL     1      41.575  51.032  58.888  1.00  0.00    -0.011 C 
HETATM    3  C3  UNL     1      40.724  49.812  58.971  1.00  0.00     0.037 C 
HETATM    4  C4  UNL     1      39.349  50.316  59.436  1.00  0.00     0.127 C 
HETATM    5  C5  UNL     1      39.227  51.666  58.744  1.00  0.00    -0.010 C 
HETATM    6  C6  UNL     1      38.900  51.334  57.284  1.00  0.00     0.018 C 
HETATM    7  C7  UNL     1      40.631  52.193  58.893  1.00  0.00     0.003 C 
HETATM    8  C8  UNL     1      41.045  53.174  57.849  1.00  0.00     0.037 C 
HETATM    9  C9  UNL     1      39.978  54.240  57.754  1.00  0.00     0.119 C 
HETATM   10  C10 UNL     1      39.641  54.648  59.154  1.00  0.00     0.038 C 
HETATM   11  C11 UNL     1      38.650  53.864  59.879  1.00  0.00     0.016 C 
HETATM   12  C12 UNL     1      37.410  54.716  60.075  1.00  0.00     0.097 C 
HETATM   13  N1  UNL     1      36.699  54.865  58.822  1.00  0.00    -0.355 N 
ATOM     14  H1  UNL     1      37.236  55.137  57.997  1.00  0.00     0.162 HD
HETATM   15  C13 UNL     1      35.306  54.659  58.669  1.00  0.00     0.218 C 
HETATM   16  O3  UNL     1      34.800  54.595  57.478  1.00  0.00    -0.274 OA
HETATM   17  C14 UNL     1      34.430  54.517  59.821  1.00  0.00     0.108 C 
HETATM   18  C15 UNL     1      35.207  54.911  61.112  1.00  0.00     0.004 C 
HETATM   19  C24 UNL     1      36.487  54.152  61.137  1.00  0.00    -0.019 C 
HETATM   20  C25 UNL     1      37.181  54.186  62.455  1.00  0.00     0.018 C 
HETATM   21  C26 UNL     1      36.193  52.688  60.850  1.00  0.00     0.012 C 
HETATM   22  C27 UNL     1      37.394  51.896  60.428  1.00  0.00     0.007 C 
HETATM   23  C28 UNL     1      38.197  52.565  59.327  1.00  0.00     0.003 C 
ENDROOT
BRANCH  18  24
HETATM   24  C16 UNL     1      35.273  56.393  61.078  1.00  0.00     0.006 C 
BRANCH  24  25
HETATM   25  C17 UNL     1      34.178  57.181  60.475  1.00  0.00     0.000 C 
BRANCH  25  26
HETATM   26  C18 UNL     1      33.346  57.970  61.508  1.00  0.00     0.002 C 
BRANCH  26  27
HETATM   27  C19 UNL     1      32.914  57.063  62.606  1.00  0.00     0.030 C 
BRANCH  27  28
HETATM   28  C20 UNL     1      32.756  57.741  63.920  1.00  0.00     0.272 C 
BRANCH  28  29
HETATM   29  N2  UNL     1      32.236  56.915  64.940  1.00  0.00     0.088 N 
HETATM   30  C21 UNL     1      31.308  57.359  65.894  1.00  0.00     0.274 A 
HETATM   31  C22 UNL     1      30.396  56.186  65.557  1.00  0.00     0.060 A 
HETATM   32  C23 UNL     1      31.400  55.854  64.497  1.00  0.00     0.274 A 
ENDBRANCH  28  29
ENDBRANCH  27  28
ENDBRANCH  26  27
ENDBRANCH  25  26
ENDBRANCH  24  25
ENDBRANCH  18  24
BRANCH   9  33
HETATM   33  O2  UNL     1      40.612  55.347  57.132  1.00  0.00    -0.396 OA
ATOM     34  H2  UNL     1      40.894  55.906  57.846  1.00  0.00     0.210 HD
ENDBRANCH   9  33
BRANCH   4  35
HETATM   35  O1  UNL     1      38.453  49.369  58.883  1.00  0.00    -0.395 OA
ATOM     36  H1  UNL     1      39.028  48.770  58.422  1.00  0.00     0.210 HD
ENDBRANCH   4  35
TORSDOF 8
ENDMDL
MODEL 4
REMARK VINA RESULT: -8.338048641      5.109      8.454
REMARK  8 active torsions:
REMARK  status: ('A' for Active; 'I' for Inactive)
REMARK    1  A    between atoms: C4_4  and  O1_5 
REMARK    2  A    between atoms: C9_11  and  O2_12 
REMARK    3  A    between atoms: C15_22  and  C16_23 
REMARK    4  A    between atoms: C16_23  and  C17_24 
REMARK    5  A    between atoms: C17_24  and  C18_25 
REMARK    6  A    between atoms: C18_25  and  C19_26 
REMARK    7  A    between atoms: C19_26  and  C20_27 
REMARK    8  A    between atoms: C20_27  and  N2_28 
ROOT
HETATM    1  C1  UNL     1      37.413  62.183  54.188  1.00  0.00     0.010 C 
HETATM    2  C2  UNL     1      36.588  60.919  54.101  1.00  0.00    -0.011 C 
HETATM    3  C3  UNL     1      35.131  61.229  54.062  1.00  0.00     0.037 C 
HETATM    4  C4  UNL     1      34.474  60.172  54.964  1.00  0.00     0.127 C 
HETATM    5  C5  UNL     1      35.501  59.978  56.068  1.00  0.00    -0.010 C 
HETATM    6  C6  UNL     1      35.354  61.211  56.968  1.00  0.00     0.018 C 
HETATM    7  C7  UNL     1      36.784  60.016  55.278  1.00  0.00     0.003 C 
HETATM    8  C8  UNL     1      37.981  60.459  56.050  1.00  0.00     0.037 C 
HETATM    9  C9  UNL     1      38.049  59.648  57.323  1.00  0.00     0.119 C 
HETATM   10  C10 UNL     1      37.819  58.219  56.944  1.00  0.00     0.038 C 
HETATM   11  C11 UNL     1      36.445  57.748  56.837  1.00  0.00     0.016 C 
HETATM   12  C12 UNL     1      36.182  56.765  57.962  1.00  0.00     0.097 C 
HETATM   13  N1  UNL     1      36.078  57.463  59.227  1.00  0.00    -0.355 N 
ATOM     14  H1  UNL     1      36.805  58.141  59.459  1.00  0.00     0.162 HD
HETATM   15  C13 UNL     1      35.032  57.263  60.161  1.00  0.00     0.218 C 
HETATM   16  O3  UNL     1      34.900  58.087  61.152  1.00  0.00    -0.274 OA
HETATM   17  C14 UNL     1      34.102  56.153  60.032  1.00  0.00     0.108 C 
HETATM   18  C15 UNL     1      34.630  55.160  58.954  1.00  0.00     0.004 C 
HETATM   19  C24 UNL     1      34.938  55.931  57.720  1.00  0.00    -0.019 C 
HETATM   20  C25 UNL     1      35.148  55.081  56.515  1.00  0.00     0.018 C 
HETATM   21  C26 UNL     1      33.758  56.835  57.400  1.00  0.00     0.012 C 
HETATM   22  C27 UNL     1      34.086  57.955  56.458  1.00  0.00     0.007 C 
HETATM   23  C28 UNL     1      35.331  58.727  56.853  1.00  0.00     0.003 C 
ENDROOT
BRANCH  18  24
HETATM   24  C16 UNL     1      35.739  54.431  59.619  1.00  0.00     0.006 C 
BRANCH  24  25
HETATM   25  C17 UNL     1      35.480  53.588  60.805  1.00  0.00     0.000 C 
BRANCH  25  26
HETATM   26  C18 UNL     1      36.486  53.814  61.952  1.00  0.00     0.002 C 
BRANCH  26  27
HETATM   27  C19 UNL     1      36.802  52.518  62.611  1.00  0.00     0.030 C 
BRANCH  27  28
HETATM   28  C20 UNL     1      36.775  51.351  61.688  1.00  0.00     0.272 C 
BRANCH  28  29
HETATM   29  N2  UNL     1      38.051  50.857  61.340  1.00  0.00     0.088 N 
HETATM   30  C21 UNL     1      38.281  49.533  60.935  1.00  0.00     0.274 A 
HETATM   31  C22 UNL     1      38.997  50.036  59.688  1.00  0.00     0.060 A 
HETATM   32  C23 UNL     1      38.614  51.406  60.155  1.00  0.00     0.274 A 
ENDBRANCH  28  29
ENDBRANCH  27  28
ENDBRANCH  26  27
ENDBRANCH  25  26
ENDBRANCH  24  25
ENDBRANCH  18  24
BRANCH   9  33
HETATM   33  O2  UNL     1      39.393  59.758  57.763  1.00  0.00    -0.396 OA
ATOM     34  H2  UNL     1      39.337  60.066  58.660  1.00  0.00     0.210 HD
ENDBRANCH   9  33
BRANCH   4  35
HETATM   35  O1  UNL     1      33.316  60.831  55.444  1.00  0.00    -0.395 OA
ATOM     36  H1  UNL     1      33.668  61.483  56.039  1.00  0.00     0.210 HD
ENDBRANCH   4  35
TORSDOF 8
ENDMDL
MODEL 5
REMARK VINA RESULT: -8.161170635      5.132      7.390
REMARK  8 active torsions:
REMARK  status: ('A' for Active; 'I' for Inactive)
REMARK    1  A    between atoms: C4_4  and  O1_5 
REMARK    2  A    between atoms: C9_11  and  O2_12 
REMARK    3  A    between atoms: C15_22  and  C16_23 
REMARK    4  A    between atoms: C16_23  and  C17_24 
REMARK    5  A    between atoms: C17_24  and  C18_25 
REMARK    6  A    between atoms: C18_25  and  C19_26 
REMARK    7  A    between atoms: C19_26  and  C20_27 
REMARK    8  A    between atoms: C20_27  and  N2_28 
ROOT
HETATM    1  C1  UNL     1      37.433  62.301  54.280  1.00  0.00     0.010 C 
HETATM    2  C2  UNL     1      36.615  61.035  54.156  1.00  0.00    -0.011 C 
HETATM    3  C3  UNL     1      35.158  61.339  54.105  1.00  0.00     0.037 C 
HETATM    4  C4  UNL     1      34.495  60.260  54.977  1.00  0.00     0.127 C 
HETATM    5  C5  UNL     1      35.510  60.048  56.090  1.00  0.00    -0.010 C 
HETATM    6  C6  UNL     1      35.345  61.261  57.012  1.00  0.00     0.018 C 
HETATM    7  C7  UNL     1      36.802  60.109  55.317  1.00  0.00     0.003 C 
HETATM    8  C8  UNL     1      37.987  60.542  56.111  1.00  0.00     0.037 C 
HETATM    9  C9  UNL     1      38.044  59.705  57.369  1.00  0.00     0.119 C 
HETATM   10  C10 UNL     1      37.826  58.283  56.957  1.00  0.00     0.038 C 
HETATM   11  C11 UNL     1      36.456  57.807  56.824  1.00  0.00     0.016 C 
HETATM   12  C12 UNL     1      36.185  56.800  57.924  1.00  0.00     0.097 C 
HETATM   13  N1  UNL     1      36.062  57.470  59.202  1.00  0.00    -0.355 N 
ATOM     14  H1  UNL     1      36.782  58.147  59.458  1.00  0.00     0.162 HD
HETATM   15  C13 UNL     1      35.006  57.246  60.120  1.00  0.00     0.218 C 
HETATM   16  O3  UNL     1      34.857  58.049  61.125  1.00  0.00    -0.274 OA
HETATM   17  C14 UNL     1      34.083  56.134  59.956  1.00  0.00     0.108 C 
HETATM   18  C15 UNL     1      34.630  55.166  58.864  1.00  0.00     0.004 C 
HETATM   19  C24 UNL     1      34.949  55.965  57.650  1.00  0.00    -0.019 C 
HETATM   20  C25 UNL     1      35.178  55.141  56.431  1.00  0.00     0.018 C 
HETATM   21  C26 UNL     1      33.768  56.869  57.335  1.00  0.00     0.012 C 
HETATM   22  C27 UNL     1      34.101  58.010  56.420  1.00  0.00     0.007 C 
HETATM   23  C28 UNL     1      35.337  58.780  56.846  1.00  0.00     0.003 C 
ENDROOT
BRANCH  18  24
HETATM   24  C16 UNL     1      35.734  54.430  59.528  1.00  0.00     0.006 C 
BRANCH  24  25
HETATM   25  C17 UNL     1      35.482  53.633  60.747  1.00  0.00     0.000 C 
BRANCH  25  26
HETATM   26  C18 UNL     1      36.362  54.046  61.944  1.00  0.00     0.002 C 
BRANCH  26  27
HETATM   27  C19 UNL     1      35.508  54.282  63.141  1.00  0.00     0.030 C 
BRANCH  27  28
HETATM   28  C20 UNL     1      34.052  54.124  62.882  1.00  0.00     0.272 C 
BRANCH  28  29
HETATM   29  N2  UNL     1      33.263  55.206  63.331  1.00  0.00     0.088 N 
HETATM   30  C21 UNL     1      31.928  55.069  63.741  1.00  0.00     0.274 A 
HETATM   31  C22 UNL     1      32.254  55.779  65.048  1.00  0.00     0.060 A 
HETATM   32  C23 UNL     1      33.670  55.785  64.564  1.00  0.00     0.274 A 
ENDBRANCH  28  29
ENDBRANCH  27  28
ENDBRANCH  26  27
ENDBRANCH  25  26
ENDBRANCH  24  25
ENDBRANCH  18  24
BRANCH   9  33
HETATM   33  O2  UNL     1      39.382  59.813  57.828  1.00  0.00    -0.396 OA
ATOM     34  H2  UNL     1      39.736  58.933  57.773  1.00  0.00     0.210 HD
ENDBRANCH   9  33
BRANCH   4  35
HETATM   35  O1  UNL     1      33.328  60.903  55.456  1.00  0.00    -0.395 OA
ATOM     36  H1  UNL     1      33.307  60.658  56.374  1.00  0.00     0.210 HD
ENDBRANCH   4  35
TORSDOF 8
ENDMDL
