MODEL 1
REMARK VINA RESULT: -7.664944331      0.000      0.000
REMARK  6 active torsions:
REMARK  status: ('A' for Active; 'I' for Inactive)
REMARK    1  A    between atoms: C2_2  and  N1_3 
REMARK    2  A    between atoms: N1_3  and  C3_4 
REMARK    3  A    between atoms: N1_3  and  C15_18 
REMARK    4  A    between atoms: C3_4  and  C4_5 
REMARK    5  A    between atoms: C4_5  and  N2_6 
REMARK    6  A    between atoms: C7_9  and  C9_11 
ROOT
HETATM    1  N2  UNL     1      26.257   7.996  -3.651  1.00  0.00    -0.347 N 
HETATM    2  C5  UNL     1      26.197   7.183  -2.450  1.00  0.00     0.127 C 
HETATM    3  C6  UNL     1      25.815   5.757  -2.770  1.00  0.00     0.030 C 
HETATM    4  C7  UNL     1      26.498   5.230  -3.991  1.00  0.00    -0.028 C 
HETATM    5  C8  UNL     1      28.010   5.177  -3.818  1.00  0.00     0.016 C 
HETATM    6  C13 UNL     1      26.200   6.017  -5.218  1.00  0.00     0.112 C 
HETATM    7  C14 UNL     1      26.336   7.467  -4.943  1.00  0.00     0.220 C 
HETATM    8  O1  UNL     1      26.533   8.274  -5.907  1.00  0.00    -0.273 OA
ENDROOT
BRANCH   1   9
HETATM    9  C4  UNL     1      26.226   9.448  -3.481  1.00  0.00     0.170 C 
BRANCH   9  10
HETATM   10  C3  UNL     1      27.417   9.914  -2.653  1.00  0.00     0.083 C 
BRANCH  10  11
HETATM   11  N1  UNL     1      27.805  11.188  -3.115  1.00  0.00    -0.364 N 
BRANCH  11  12
HETATM   12  C2  UNL     1      27.968  11.394  -4.494  1.00  0.00     0.059 C 
HETATM   13  C1  UNL     1      29.092  10.597  -5.117  1.00  0.00     0.055 C 
ENDBRANCH  11  12
BRANCH  11  14
HETATM   14  C15 UNL     1      27.694  12.298  -2.258  1.00  0.00     0.024 C 
HETATM   15  C16 UNL     1      26.426  13.095  -2.381  1.00  0.00     0.038 C 
HETATM   16  C17 UNL     1      27.886  11.879  -0.824  1.00  0.00     0.038 C 
HETATM   17  C18 UNL     1      28.832  13.266  -2.620  1.00  0.00     0.038 C 
ENDBRANCH  11  14
ENDBRANCH  10  11
ENDBRANCH   9  10
ENDBRANCH   1   9
BRANCH   4  18
HETATM   18  C9  UNL     1      26.047   3.778  -4.139  1.00  0.00    -0.044 C 
HETATM   19  C10 UNL     1      26.940   2.914  -3.271  1.00  0.00     0.015 C 
HETATM   20  C11 UNL     1      24.636   3.573  -3.661  1.00  0.00     0.015 C 
HETATM   21  C12 UNL     1      26.190   3.296  -5.552  1.00  0.00     0.015 C 
ENDBRANCH   4  18
TORSDOF 6
ENDMDL
MODEL 2
REMARK VINA RESULT: -7.466217367      3.267      8.157
REMARK  6 active torsions:
REMARK  status: ('A' for Active; 'I' for Inactive)
REMARK    1  A    between atoms: C2_2  and  N1_3 
REMARK    2  A    between atoms: N1_3  and  C3_4 
REMARK    3  A    between atoms: N1_3  and  C15_18 
REMARK    4  A    between atoms: C3_4  and  C4_5 
REMARK    5  A    between atoms: C4_5  and  N2_6 
REMARK    6  A    between atoms: C7_9  and  C9_11 
ROOT
HETATM    1  N2  UNL     1      27.246   3.674  -3.624  1.00  0.00    -0.347 N 
HETATM    2  C5  UNL     1      25.922   4.116  -3.223  1.00  0.00     0.127 C 
HETATM    3  C6  UNL     1      25.908   5.593  -2.907  1.00  0.00     0.030 C 
HETATM    4  C7  UNL     1      26.699   6.405  -3.881  1.00  0.00    -0.028 C 
HETATM    5  C8  UNL     1      26.123   6.324  -5.288  1.00  0.00     0.016 C 
HETATM    6  C13 UNL     1      28.133   6.016  -3.944  1.00  0.00     0.112 C 
HETATM    7  C14 UNL     1      28.261   4.543  -4.036  1.00  0.00     0.220 C 
HETATM    8  O1  UNL     1      29.328   4.033  -4.505  1.00  0.00    -0.273 OA
ENDROOT
BRANCH   1   9
HETATM    9  C4  UNL     1      27.515   2.238  -3.584  1.00  0.00     0.170 C 
BRANCH   9  10
HETATM   10  C3  UNL     1      26.244   1.465  -3.254  1.00  0.00     0.083 C 
BRANCH  10  11
HETATM   11  N1  UNL     1      25.999   0.550  -4.297  1.00  0.00    -0.364 N 
BRANCH  11  12
HETATM   12  C2  UNL     1      26.556  -0.737  -4.221  1.00  0.00     0.059 C 
HETATM   13  C1  UNL     1      26.862  -1.203  -2.816  1.00  0.00     0.055 C 
ENDBRANCH  11  12
BRANCH  11  14
HETATM   14  C15 UNL     1      24.955   0.800  -5.206  1.00  0.00     0.024 C 
HETATM   15  C16 UNL     1      23.767   1.533  -4.651  1.00  0.00     0.038 C 
HETATM   16  C17 UNL     1      25.474   1.529  -6.417  1.00  0.00     0.038 C 
HETATM   17  C18 UNL     1      24.423  -0.565  -5.672  1.00  0.00     0.038 C 
ENDBRANCH  11  14
ENDBRANCH  10  11
ENDBRANCH   9  10
ENDBRANCH   1   9
BRANCH   4  18
HETATM   18  C9  UNL     1      26.537   7.863  -3.451  1.00  0.00    -0.044 C 
HETATM   19  C10 UNL     1      27.915   8.431  -3.176  1.00  0.00     0.015 C 
HETATM   20  C11 UNL     1      25.921   8.706  -4.534  1.00  0.00     0.015 C 
HETATM   21  C12 UNL     1      25.740   7.981  -2.187  1.00  0.00     0.015 C 
ENDBRANCH   4  18
TORSDOF 6
ENDMDL
MODEL 3
REMARK VINA RESULT: -7.461492190      3.280      7.994
REMARK  6 active torsions:
REMARK  status: ('A' for Active; 'I' for Inactive)
REMARK    1  A    between atoms: C2_2  and  N1_3 
REMARK    2  A    between atoms: N1_3  and  C3_4 
REMARK    3  A    between atoms: N1_3  and  C15_18 
REMARK    4  A    between atoms: C3_4  and  C4_5 
REMARK    5  A    between atoms: C4_5  and  N2_6 
REMARK    6  A    between atoms: C7_9  and  C9_11 
ROOT
HETATM    1  N2  UNL     1      27.338   3.676  -3.368  1.00  0.00    -0.347 N 
HETATM    2  C5  UNL     1      26.042   4.182  -2.956  1.00  0.00     0.127 C 
HETATM    3  C6  UNL     1      26.042   5.689  -2.865  1.00  0.00     0.030 C 
HETATM    4  C7  UNL     1      26.767   6.340  -3.999  1.00  0.00    -0.028 C 
HETATM    5  C8  UNL     1      26.104   6.051  -5.339  1.00  0.00     0.016 C 
HETATM    6  C13 UNL     1      28.196   5.938  -4.093  1.00  0.00     0.112 C 
HETATM    7  C14 UNL     1      28.323   4.466  -3.970  1.00  0.00     0.220 C 
HETATM    8  O1  UNL     1      29.360   3.885  -4.423  1.00  0.00    -0.273 OA
ENDROOT
BRANCH   1   9
HETATM    9  C4  UNL     1      27.615   2.261  -3.129  1.00  0.00     0.170 C 
BRANCH   9  10
HETATM   10  C3  UNL     1      26.316   1.465  -3.071  1.00  0.00     0.083 C 
BRANCH  10  11
HETATM   11  N1  UNL     1      26.178   0.755  -4.281  1.00  0.00    -0.364 N 
BRANCH  11  12
HETATM   12  C2  UNL     1      26.742  -0.526  -4.389  1.00  0.00     0.059 C 
HETATM   13  C1  UNL     1      26.761  -1.311  -3.097  1.00  0.00     0.055 C 
ENDBRANCH  11  12
BRANCH  11  14
HETATM   14  C15 UNL     1      25.217   1.171  -5.221  1.00  0.00     0.024 C 
HETATM   15  C16 UNL     1      24.003   1.851  -4.657  1.00  0.00     0.038 C 
HETATM   16  C17 UNL     1      25.848   2.053  -6.265  1.00  0.00     0.038 C 
HETATM   17  C18 UNL     1      24.697  -0.093  -5.926  1.00  0.00     0.038 C 
ENDBRANCH  11  14
ENDBRANCH  10  11
ENDBRANCH   9  10
ENDBRANCH   1   9
BRANCH   4  18
HETATM   18  C9  UNL     1      26.628   7.847  -3.785  1.00  0.00    -0.044 C 
HETATM   19  C10 UNL     1      25.748   8.402  -4.888  1.00  0.00     0.015 C 
HETATM   20  C11 UNL     1      25.956   8.172  -2.480  1.00  0.00     0.015 C 
HETATM   21  C12 UNL     1      27.953   8.543  -3.872  1.00  0.00     0.015 C 
ENDBRANCH   4  18
TORSDOF 6
ENDMDL
MODEL 4
REMARK VINA RESULT: -7.449524911      2.510      4.271
REMARK  6 active torsions:
REMARK  status: ('A' for Active; 'I' for Inactive)
REMARK    1  A    between atoms: C2_2  and  N1_3 
REMARK    2  A    between atoms: N1_3  and  C3_4 
REMARK    3  A    between atoms: N1_3  and  C15_18 
REMARK    4  A    between atoms: C3_4  and  C4_5 
REMARK    5  A    between atoms: C4_5  and  N2_6 
REMARK    6  A    between atoms: C7_9  and  C9_11 
ROOT
HETATM    1  N2  UNL     1      27.899   4.197  -4.021  1.00  0.00    -0.347 N 
HETATM    2  C5  UNL     1      26.633   3.790  -3.439  1.00  0.00     0.127 C 
HETATM    3  C6  UNL     1      26.311   2.352  -3.770  1.00  0.00     0.030 C 
HETATM    4  C7  UNL     1      27.500   1.451  -3.666  1.00  0.00    -0.028 C 
HETATM    5  C8  UNL     1      28.044   1.390  -2.246  1.00  0.00     0.016 C 
HETATM    6  C13 UNL     1      28.613   1.838  -4.573  1.00  0.00     0.112 C 
HETATM    7  C14 UNL     1      28.864   3.296  -4.483  1.00  0.00     0.220 C 
HETATM    8  O1  UNL     1      29.995   3.762  -4.835  1.00  0.00    -0.273 OA
ENDROOT
BRANCH   1   9
HETATM    9  C4  UNL     1      28.161   5.631  -4.126  1.00  0.00     0.170 C 
BRANCH   9  10
HETATM   10  C3  UNL     1      26.955   6.431  -3.647  1.00  0.00     0.083 C 
BRANCH  10  11
HETATM   11  N1  UNL     1      27.022   7.717  -4.219  1.00  0.00    -0.364 N 
BRANCH  11  12
HETATM   12  C2  UNL     1      26.790   7.864  -5.596  1.00  0.00     0.059 C 
HETATM   13  C1  UNL     1      25.639   7.040  -6.128  1.00  0.00     0.055 C 
ENDBRANCH  11  12
BRANCH  11  14
HETATM   14  C15 UNL     1      26.977   8.848  -3.385  1.00  0.00     0.024 C 
HETATM   15  C16 UNL     1      26.659  10.150  -4.064  1.00  0.00     0.038 C 
HETATM   16  C17 UNL     1      26.016   8.627  -2.247  1.00  0.00     0.038 C 
HETATM   17  C18 UNL     1      28.382   9.024  -2.785  1.00  0.00     0.038 C 
ENDBRANCH  11  14
ENDBRANCH  10  11
ENDBRANCH   9  10
ENDBRANCH   1   9
BRANCH   4  18
HETATM   18  C9  UNL     1      26.994   0.042  -3.977  1.00  0.00    -0.044 C 
HETATM   19  C10 UNL     1      25.570   0.152  -4.483  1.00  0.00     0.015 C 
HETATM   20  C11 UNL     1      27.798  -0.619  -5.061  1.00  0.00     0.015 C 
HETATM   21  C12 UNL     1      26.972  -0.819  -2.750  1.00  0.00     0.015 C 
ENDBRANCH   4  18
TORSDOF 6
ENDMDL
MODEL 5
REMARK VINA RESULT: -7.443518289      3.303      8.245
REMARK  6 active torsions:
REMARK  status: ('A' for Active; 'I' for Inactive)
REMARK    1  A    between atoms: C2_2  and  N1_3 
REMARK    2  A    between atoms: N1_3  and  C3_4 
REMARK    3  A    between atoms: N1_3  and  C15_18 
REMARK    4  A    between atoms: C3_4  and  C4_5 
REMARK    5  A    between atoms: C4_5  and  N2_6 
REMARK    6  A    between atoms: C7_9  and  C9_11 
ROOT
HETATM    1  N2  UNL     1      27.219   3.604  -3.814  1.00  0.00    -0.347 N 
HETATM    2  C5  UNL     1      25.933   4.063  -3.320  1.00  0.00     0.127 C 
HETATM    3  C6  UNL     1      25.974   5.529  -2.961  1.00  0.00     0.030 C 
HETATM    4  C7  UNL     1      26.724   6.353  -3.958  1.00  0.00    -0.028 C 
HETATM    5  C8  UNL     1      26.062   6.327  -5.329  1.00  0.00     0.016 C 
HETATM    6  C13 UNL     1      28.142   5.934  -4.119  1.00  0.00     0.112 C 
HETATM    7  C14 UNL     1      28.228   4.462  -4.262  1.00  0.00     0.220 C 
HETATM    8  O1  UNL     1      29.252   3.943  -4.810  1.00  0.00    -0.273 OA
ENDROOT
BRANCH   1   9
HETATM    9  C4  UNL     1      27.456   2.162  -3.832  1.00  0.00     0.170 C 
BRANCH   9  10
HETATM   10  C3  UNL     1      26.181   1.406  -3.477  1.00  0.00     0.083 C 
BRANCH  10  11
HETATM   11  N1  UNL     1      25.980   0.398  -4.441  1.00  0.00    -0.364 N 
BRANCH  11  12
HETATM   12  C2  UNL     1      26.526  -0.876  -4.220  1.00  0.00     0.059 C 
HETATM   13  C1  UNL     1      26.832  -1.183  -2.772  1.00  0.00     0.055 C 
ENDBRANCH  11  12
BRANCH  11  14
HETATM   14  C15 UNL     1      24.981   0.563  -5.417  1.00  0.00     0.024 C 
HETATM   15  C16 UNL     1      25.389   1.320  -6.649  1.00  0.00     0.038 C 
HETATM   16  C17 UNL     1      24.406  -0.770  -5.814  1.00  0.00     0.038 C 
HETATM   17  C18 UNL     1      23.853   1.389  -4.775  1.00  0.00     0.038 C 
ENDBRANCH  11  14
ENDBRANCH  10  11
ENDBRANCH   9  10
ENDBRANCH   1   9
BRANCH   4  18
HETATM   18  C9  UNL     1      26.623   7.800  -3.476  1.00  0.00    -0.044 C 
HETATM   19  C10 UNL     1      25.945   8.613  -4.561  1.00  0.00     0.015 C 
HETATM   20  C11 UNL     1      25.780   7.926  -2.239  1.00  0.00     0.015 C 
HETATM   21  C12 UNL     1      27.977   8.400  -3.244  1.00  0.00     0.015 C 
ENDBRANCH   4  18
TORSDOF 6
ENDMDL
