MODEL 1
REMARK VINA RESULT: -9.643086163      0.000      0.000
REMARK  5 active torsions:
REMARK  status: ('A' for Active; 'I' for Inactive)
REMARK    1  A    between atoms: C6_7  and  C7_8 
REMARK    2  A    between atoms: C7_8  and  O1_9 
REMARK    3  A    between atoms: C7_8  and  C8_11 
REMARK    4  A    between atoms: C7_8  and  C14_18 
REMARK    5  A    between atoms: C8_11  and  N2_12 
ROOT
HETATM    1  N1  UNL     1      26.892   9.514  -1.913  1.00  0.00    -0.191 NA
HETATM    2  C1  UNL     1      26.693   8.737  -2.756  1.00  0.00     0.099 C 
HETATM    3  C2  UNL     1      26.462   7.783  -3.815  1.00  0.00     0.045 A 
HETATM    4  C3  UNL     1      25.998   8.183  -5.061  1.00  0.00     0.022 A 
HETATM    5  C4  UNL     1      25.795   7.243  -6.029  1.00  0.00     0.002 A 
HETATM    6  C5  UNL     1      26.053   5.898  -5.761  1.00  0.00     0.011 A 
HETATM    7  C6  UNL     1      26.509   5.471  -4.547  1.00  0.00    -0.016 A 
HETATM    8  C20 UNL     1      26.708   6.447  -3.581  1.00  0.00     0.033 A 
ENDROOT
BRANCH   7   9
HETATM    9  C7  UNL     1      26.770   4.047  -4.307  1.00  0.00     0.128 C 
BRANCH   9  10
HETATM   10  O1  UNL     1      27.563   3.603  -5.392  1.00  0.00    -0.378 OA
ATOM     11  H1  UNL     1      27.405   2.670  -5.471  1.00  0.00     0.211 HD
ENDBRANCH   9  10
BRANCH   9  12
HETATM   12  C8  UNL     1      27.576   3.862  -3.039  1.00  0.00     0.175 C 
BRANCH  12  13
HETATM   13  N2  UNL     1      27.893   2.459  -2.809  1.00  0.00    -0.363 N 
HETATM   14  C9  UNL     1      27.542   1.880  -1.631  1.00  0.00     0.090 A 
HETATM   15  C10 UNL     1      27.800   0.571  -1.343  1.00  0.00     0.017 A 
HETATM   16  C11 UNL     1      28.436  -0.214  -2.256  1.00  0.00     0.003 A 
HETATM   17  C12 UNL     1      28.809   0.350  -3.473  1.00  0.00     0.017 A 
HETATM   18  C13 UNL     1      28.519   1.679  -3.703  1.00  0.00     0.090 A 
ENDBRANCH  12  13
ENDBRANCH   9  12
BRANCH   9  19
HETATM   19  C14 UNL     1      25.528   3.238  -4.327  1.00  0.00    -0.018 A 
HETATM   20  C15 UNL     1      25.382   2.212  -5.233  1.00  0.00     0.010 A 
HETATM   21  C16 UNL     1      24.249   1.430  -5.307  1.00  0.00     0.001 A 
HETATM   22  C17 UNL     1      23.220   1.705  -4.419  1.00  0.00     0.000 A 
HETATM   23  C18 UNL     1      23.313   2.720  -3.493  1.00  0.00     0.001 A 
HETATM   24  C19 UNL     1      24.461   3.473  -3.456  1.00  0.00     0.010 A 
ENDBRANCH   9  19
ENDBRANCH   7   9
TORSDOF 5
ENDMDL
MODEL 2
REMARK VINA RESULT: -8.895809898      1.889      4.828
REMARK  5 active torsions:
REMARK  status: ('A' for Active; 'I' for Inactive)
REMARK    1  A    between atoms: C6_7  and  C7_8 
REMARK    2  A    between atoms: C7_8  and  O1_9 
REMARK    3  A    between atoms: C7_8  and  C8_11 
REMARK    4  A    between atoms: C7_8  and  C14_18 
REMARK    5  A    between atoms: C8_11  and  N2_12 
ROOT
HETATM    1  N1  UNL     1      21.424   1.521  -3.691  1.00  0.00    -0.191 NA
HETATM    2  C1  UNL     1      22.490   1.729  -4.108  1.00  0.00     0.099 C 
HETATM    3  C2  UNL     1      23.803   1.996  -4.646  1.00  0.00     0.045 A 
HETATM    4  C3  UNL     1      24.261   1.354  -5.789  1.00  0.00     0.022 A 
HETATM    5  C4  UNL     1      25.510   1.640  -6.258  1.00  0.00     0.002 A 
HETATM    6  C5  UNL     1      26.311   2.567  -5.590  1.00  0.00     0.011 A 
HETATM    7  C6  UNL     1      25.892   3.215  -4.465  1.00  0.00    -0.016 A 
HETATM    8  C20 UNL     1      24.618   2.907  -4.009  1.00  0.00     0.033 A 
ENDROOT
BRANCH   7   9
HETATM    9  C7  UNL     1      26.764   4.186  -3.794  1.00  0.00     0.128 C 
BRANCH   9  10
HETATM   10  O1  UNL     1      26.226   4.370  -2.498  1.00  0.00    -0.378 OA
ATOM     11  H1  UNL     1      25.893   3.523  -2.227  1.00  0.00     0.211 HD
ENDBRANCH   9  10
BRANCH   9  12
HETATM   12  C8  UNL     1      28.161   3.626  -3.639  1.00  0.00     0.175 C 
BRANCH  12  13
HETATM   13  N2  UNL     1      28.144   2.317  -3.001  1.00  0.00    -0.363 N 
HETATM   14  C9  UNL     1      28.534   1.225  -3.708  1.00  0.00     0.090 A 
HETATM   15  C10 UNL     1      28.550  -0.034  -3.179  1.00  0.00     0.017 A 
HETATM   16  C11 UNL     1      28.164  -0.234  -1.889  1.00  0.00     0.003 A 
HETATM   17  C12 UNL     1      27.759   0.866  -1.138  1.00  0.00     0.017 A 
HETATM   18  C13 UNL     1      27.765   2.111  -1.731  1.00  0.00     0.090 A 
ENDBRANCH  12  13
ENDBRANCH   9  12
BRANCH   9  19
HETATM   19  C14 UNL     1      26.741   5.512  -4.457  1.00  0.00    -0.018 A 
HETATM   20  C15 UNL     1      27.638   6.489  -4.087  1.00  0.00     0.010 A 
HETATM   21  C16 UNL     1      27.661   7.743  -4.660  1.00  0.00     0.001 A 
HETATM   22  C17 UNL     1      26.731   8.013  -5.652  1.00  0.00     0.000 A 
HETATM   23  C18 UNL     1      25.812   7.073  -6.059  1.00  0.00     0.001 A 
HETATM   24  C19 UNL     1      25.826   5.837  -5.461  1.00  0.00     0.010 A 
ENDBRANCH   9  19
ENDBRANCH   7   9
TORSDOF 5
ENDMDL
MODEL 3
REMARK VINA RESULT: -8.743956319      1.858      5.035
REMARK  5 active torsions:
REMARK  status: ('A' for Active; 'I' for Inactive)
REMARK    1  A    between atoms: C6_7  and  C7_8 
REMARK    2  A    between atoms: C7_8  and  O1_9 
REMARK    3  A    between atoms: C7_8  and  C8_11 
REMARK    4  A    between atoms: C7_8  and  C14_18 
REMARK    5  A    between atoms: C8_11  and  N2_12 
ROOT
HETATM    1  N1  UNL     1      25.141   0.182  -7.675  1.00  0.00    -0.191 NA
HETATM    2  C1  UNL     1      24.985   0.884  -6.761  1.00  0.00     0.099 C 
HETATM    3  C2  UNL     1      24.787   1.736  -5.613  1.00  0.00     0.045 A 
HETATM    4  C3  UNL     1      23.584   1.749  -4.919  1.00  0.00     0.022 A 
HETATM    5  C4  UNL     1      23.446   2.573  -3.840  1.00  0.00     0.002 A 
HETATM    6  C5  UNL     1      24.507   3.390  -3.445  1.00  0.00     0.011 A 
HETATM    7  C6  UNL     1      25.702   3.402  -4.105  1.00  0.00    -0.016 A 
HETATM    8  C20 UNL     1      25.816   2.554  -5.199  1.00  0.00     0.033 A 
ENDROOT
BRANCH   7   9
HETATM    9  C7  UNL     1      26.793   4.275  -3.657  1.00  0.00     0.128 C 
BRANCH   9  10
HETATM   10  O1  UNL     1      26.565   4.516  -2.281  1.00  0.00    -0.378 OA
ATOM     11  H1  UNL     1      26.936   5.370  -2.096  1.00  0.00     0.211 HD
ENDBRANCH   9  10
BRANCH   9  12
HETATM   12  C8  UNL     1      28.125   3.569  -3.788  1.00  0.00     0.175 C 
BRANCH  12  13
HETATM   13  N2  UNL     1      28.121   2.288  -3.095  1.00  0.00    -0.363 N 
HETATM   14  C9  UNL     1      28.444   1.159  -3.778  1.00  0.00     0.090 A 
HETATM   15  C10 UNL     1      28.467  -0.077  -3.197  1.00  0.00     0.017 A 
HETATM   16  C11 UNL     1      28.159  -0.215  -1.878  1.00  0.00     0.003 A 
HETATM   17  C12 UNL     1      27.823   0.924  -1.151  1.00  0.00     0.017 A 
HETATM   18  C13 UNL     1      27.818   2.143  -1.796  1.00  0.00     0.090 A 
ENDBRANCH  12  13
ENDBRANCH   9  12
BRANCH   9  19
HETATM   19  C14 UNL     1      26.768   5.595  -4.330  1.00  0.00    -0.018 A 
HETATM   20  C15 UNL     1      27.605   6.604  -3.912  1.00  0.00     0.010 A 
HETATM   21  C16 UNL     1      27.622   7.855  -4.492  1.00  0.00     0.001 A 
HETATM   22  C17 UNL     1      26.750   8.087  -5.544  1.00  0.00     0.000 A 
HETATM   23  C18 UNL     1      25.891   7.113  -6.002  1.00  0.00     0.001 A 
HETATM   24  C19 UNL     1      25.909   5.882  -5.394  1.00  0.00     0.010 A 
ENDBRANCH   9  19
ENDBRANCH   7   9
TORSDOF 5
ENDMDL
MODEL 4
REMARK VINA RESULT: -8.460619111      1.980      5.951
REMARK  5 active torsions:
REMARK  status: ('A' for Active; 'I' for Inactive)
REMARK    1  A    between atoms: C6_7  and  C7_8 
REMARK    2  A    between atoms: C7_8  and  O1_9 
REMARK    3  A    between atoms: C7_8  and  C8_11 
REMARK    4  A    between atoms: C7_8  and  C14_18 
REMARK    5  A    between atoms: C8_11  and  N2_12 
ROOT
HETATM    1  N1  UNL     1      20.541   1.233  -3.469  1.00  0.00    -0.191 NA
HETATM    2  C1  UNL     1      21.552   1.238  -4.043  1.00  0.00     0.099 C 
HETATM    3  C2  UNL     1      22.798   1.256  -4.774  1.00  0.00     0.045 A 
HETATM    4  C3  UNL     1      22.921   0.636  -6.010  1.00  0.00     0.022 A 
HETATM    5  C4  UNL     1      24.120   0.680  -6.661  1.00  0.00     0.002 A 
HETATM    6  C5  UNL     1      25.204   1.343  -6.083  1.00  0.00     0.011 A 
HETATM    7  C6  UNL     1      25.116   1.962  -4.869  1.00  0.00    -0.016 A 
HETATM    8  C20 UNL     1      23.886   1.903  -4.229  1.00  0.00     0.033 A 
ENDROOT
BRANCH   7   9
HETATM    9  C7  UNL     1      26.280   2.651  -4.298  1.00  0.00     0.128 C 
BRANCH   9  10
HETATM   10  O1  UNL     1      27.036   3.125  -5.396  1.00  0.00    -0.378 OA
ATOM     11  H1  UNL     1      26.641   3.950  -5.653  1.00  0.00     0.211 HD
ENDBRANCH   9  10
BRANCH   9  12
HETATM   12  C8  UNL     1      25.840   3.850  -3.486  1.00  0.00     0.175 C 
BRANCH  12  13
HETATM   13  N2  UNL     1      26.216   5.100  -4.133  1.00  0.00    -0.363 N 
HETATM   14  C9  UNL     1      27.237   5.836  -3.623  1.00  0.00     0.090 A 
HETATM   15  C10 UNL     1      27.650   7.014  -4.176  1.00  0.00     0.017 A 
HETATM   16  C11 UNL     1      27.031   7.498  -5.288  1.00  0.00     0.003 A 
HETATM   17  C12 UNL     1      25.979   6.766  -5.834  1.00  0.00     0.017 A 
HETATM   18  C13 UNL     1      25.610   5.584  -5.229  1.00  0.00     0.090 A 
ENDBRANCH  12  13
ENDBRANCH   9  12
BRANCH   9  19
HETATM   19  C14 UNL     1      27.160   1.730  -3.541  1.00  0.00    -0.018 A 
HETATM   20  C15 UNL     1      27.192   1.773  -2.165  1.00  0.00     0.010 A 
HETATM   21  C16 UNL     1      27.995   0.949  -1.406  1.00  0.00     0.001 A 
HETATM   22  C17 UNL     1      28.800   0.040  -2.077  1.00  0.00     0.000 A 
HETATM   23  C18 UNL     1      28.807  -0.044  -3.451  1.00  0.00     0.001 A 
HETATM   24  C19 UNL     1      27.991   0.797  -4.166  1.00  0.00     0.010 A 
ENDBRANCH   9  19
ENDBRANCH   7   9
TORSDOF 5
ENDMDL
MODEL 5
REMARK VINA RESULT: -8.413509712      1.265      1.908
REMARK  5 active torsions:
REMARK  status: ('A' for Active; 'I' for Inactive)
REMARK    1  A    between atoms: C6_7  and  C7_8 
REMARK    2  A    between atoms: C7_8  and  O1_9 
REMARK    3  A    between atoms: C7_8  and  C8_11 
REMARK    4  A    between atoms: C7_8  and  C14_18 
REMARK    5  A    between atoms: C8_11  and  N2_12 
ROOT
HETATM    1  N1  UNL     1      28.019   9.583  -5.735  1.00  0.00    -0.191 NA
HETATM    2  C1  UNL     1      27.577   8.762  -5.039  1.00  0.00     0.099 C 
HETATM    3  C2  UNL     1      27.007   7.752  -4.179  1.00  0.00     0.045 A 
HETATM    4  C3  UNL     1      26.277   8.092  -3.047  1.00  0.00     0.022 A 
HETATM    5  C4  UNL     1      25.759   7.100  -2.266  1.00  0.00     0.002 A 
HETATM    6  C5  UNL     1      25.966   5.763  -2.608  1.00  0.00     0.011 A 
HETATM    7  C6  UNL     1      26.678   5.394  -3.713  1.00  0.00    -0.016 A 
HETATM    8  C20 UNL     1      27.193   6.423  -4.490  1.00  0.00     0.033 A 
ENDROOT
BRANCH   7   9
HETATM    9  C7  UNL     1      26.870   3.976  -4.039  1.00  0.00     0.128 C 
BRANCH   9  10
HETATM   10  O1  UNL     1      27.530   3.945  -5.290  1.00  0.00    -0.378 OA
ATOM     11  H1  UNL     1      26.852   4.030  -5.950  1.00  0.00     0.211 HD
ENDBRANCH   9  10
BRANCH   9  12
HETATM   12  C8  UNL     1      27.774   3.316  -3.021  1.00  0.00     0.175 C 
BRANCH  12  13
HETATM   13  N2  UNL     1      27.774   1.866  -3.168  1.00  0.00    -0.363 N 
HETATM   14  C9  UNL     1      27.049   1.108  -2.305  1.00  0.00     0.090 A 
HETATM   15  C10 UNL     1      26.995  -0.254  -2.382  1.00  0.00     0.017 A 
HETATM   16  C11 UNL     1      27.687  -0.909  -3.354  1.00  0.00     0.003 A 
HETATM   17  C12 UNL     1      28.439  -0.159  -4.254  1.00  0.00     0.017 A 
HETATM   18  C13 UNL     1      28.453   1.213  -4.124  1.00  0.00     0.090 A 
ENDBRANCH  12  13
ENDBRANCH   9  12
BRANCH   9  19
HETATM   19  C14 UNL     1      25.582   3.264  -4.219  1.00  0.00    -0.018 A 
HETATM   20  C15 UNL     1      24.539   3.484  -3.348  1.00  0.00     0.010 A 
HETATM   21  C16 UNL     1      23.322   2.846  -3.458  1.00  0.00     0.001 A 
HETATM   22  C17 UNL     1      23.159   1.946  -4.500  1.00  0.00     0.000 A 
HETATM   23  C18 UNL     1      24.170   1.689  -5.399  1.00  0.00     0.001 A 
HETATM   24  C19 UNL     1      25.366   2.347  -5.251  1.00  0.00     0.010 A 
ENDBRANCH   9  19
ENDBRANCH   7   9
TORSDOF 5
ENDMDL
