MODEL 1
REMARK VINA RESULT: -6.589390399      0.000      0.000
REMARK  5 active torsions:
REMARK  status: ('A' for Active; 'I' for Inactive)
REMARK    1  A    between atoms: N1_2  and  C3_4 
REMARK    2  A    between atoms: C3_4  and  C4_5 
REMARK    3  A    between atoms: C6_7  and  N2_8 
REMARK       I    between atoms: N3_14  and  C12_15 
REMARK       I    between atoms: C12_15  and  N4_17 
REMARK    4  A    between atoms: N4_17  and  C13_19 
REMARK    5  A    between atoms: C13_19  and  C14_20 
ROOT
HETATM    1  C4  UNL     1      12.139  -4.763   4.953  1.00  0.00     0.099 C 
HETATM    2  C5  UNL     1      10.723  -4.542   5.540  1.00  0.00     0.056 C 
HETATM    3  C6  UNL     1       9.763  -5.117   4.565  1.00  0.00     0.243 C 
HETATM    4  C11 UNL     1       9.565  -6.622   4.819  1.00  0.00     0.177 C 
HETATM    5  N3  UNL     1      10.785  -7.304   4.459  1.00  0.00    -0.271 N 
HETATM    6  C12 UNL     1      10.752  -8.552   3.819  1.00  0.00     0.328 C 
HETATM    7  O1  UNL     1       9.651  -9.078   3.561  1.00  0.00    -0.246 OA
HETATM    8  N4  UNL     1      11.931  -9.235   3.454  1.00  0.00    -0.340 N 
ATOM      9  H4  UNL     1      12.832  -8.806   3.666  1.00  0.00     0.164 HD
HETATM   10  S1  UNL     1      12.337  -6.559   4.824  1.00  0.00    -0.043 SA
ENDROOT
BRANCH   3  11
HETATM   11  N2  UNL     1       8.483  -4.533   4.486  1.00  0.00     0.094 N 
HETATM   12  C7  UNL     1       7.381  -5.374   4.179  1.00  0.00     0.273 C 
HETATM   13  C8  UNL     1       6.248  -4.343   4.088  1.00  0.00     0.032 C 
HETATM   14  C9  UNL     1       6.634  -3.344   5.145  1.00  0.00     0.032 C 
HETATM   15  C10 UNL     1       8.085  -3.653   5.529  1.00  0.00     0.273 C 
ENDBRANCH   3  11
BRANCH   8  16
HETATM   16  C13 UNL     1      11.912 -10.524   2.791  1.00  0.00     0.156 C 
BRANCH  16  17
HETATM   17  C14 UNL     1      13.135 -10.698   1.929  1.00  0.00     0.139 C 
HETATM   18  C15 UNL     1      13.061  -9.706   0.800  1.00  0.00     0.035 C 
HETATM   19  C16 UNL     1      12.299 -10.534  -0.243  1.00  0.00     0.029 C 
HETATM   20  C17 UNL     1      12.826 -11.909   0.062  1.00  0.00     0.168 C 
HETATM   21  O2  UNL     1      13.213 -11.957   1.374  1.00  0.00    -0.384 OA
ENDBRANCH  16  17
ENDBRANCH   8  16
BRANCH   1  22
HETATM   22  C3  UNL     1      13.169  -4.116   5.806  1.00  0.00     0.288 C 
BRANCH  22  23
HETATM   23  N1  UNL     1      13.688  -2.930   5.206  1.00  0.00     0.081 N 
HETATM   24  C1  UNL     1      13.815  -1.822   6.101  1.00  0.00     0.309 C 
HETATM   25  C2  UNL     1      13.023  -2.518   4.004  1.00  0.00     0.309 C 
ENDBRANCH  22  23
ENDBRANCH   1  22
TORSDOF 5
ENDMDL
MODEL 2
REMARK VINA RESULT: -6.568792024      3.103      7.531
REMARK  5 active torsions:
REMARK  status: ('A' for Active; 'I' for Inactive)
REMARK    1  A    between atoms: N1_2  and  C3_4 
REMARK    2  A    between atoms: C3_4  and  C4_5 
REMARK    3  A    between atoms: C6_7  and  N2_8 
REMARK       I    between atoms: N3_14  and  C12_15 
REMARK       I    between atoms: C12_15  and  N4_17 
REMARK    4  A    between atoms: N4_17  and  C13_19 
REMARK    5  A    between atoms: C13_19  and  C14_20 
ROOT
HETATM    1  C4  UNL     1      10.653  -7.793   4.121  1.00  0.00     0.099 C 
HETATM    2  C5  UNL     1      11.418  -6.811   5.041  1.00  0.00     0.056 C 
HETATM    3  C6  UNL     1      11.168  -5.447   4.511  1.00  0.00     0.243 C 
HETATM    4  C11 UNL     1       9.862  -4.871   5.087  1.00  0.00     0.177 C 
HETATM    5  N3  UNL     1       8.757  -5.608   4.521  1.00  0.00    -0.271 N 
HETATM    6  C12 UNL     1       7.566  -4.959   4.162  1.00  0.00     0.328 C 
HETATM    7  O1  UNL     1       7.464  -3.728   4.337  1.00  0.00    -0.246 OA
HETATM    8  N4  UNL     1       6.475  -5.656   3.605  1.00  0.00    -0.340 N 
ATOM      9  H4  UNL     1       6.557  -6.663   3.463  1.00  0.00     0.164 HD
HETATM   10  S1  UNL     1       8.905  -7.344   4.276  1.00  0.00    -0.043 SA
ENDROOT
BRANCH   3  11
HETATM   11  N2  UNL     1      12.173  -4.478   4.699  1.00  0.00     0.094 N 
HETATM   12  C7  UNL     1      11.793  -3.110   4.698  1.00  0.00     0.273 C 
HETATM   13  C8  UNL     1      13.164  -2.430   4.818  1.00  0.00     0.032 C 
HETATM   14  C9  UNL     1      13.921  -3.381   5.705  1.00  0.00     0.032 C 
HETATM   15  C10 UNL     1      13.101  -4.674   5.759  1.00  0.00     0.273 C 
ENDBRANCH   3  11
BRANCH   8  16
HETATM   16  C13 UNL     1       5.240  -4.999   3.227  1.00  0.00     0.156 C 
BRANCH  16  17
HETATM   17  C14 UNL     1       4.134  -5.346   4.190  1.00  0.00     0.139 C 
HETATM   18  C15 UNL     1       3.136  -4.219   4.188  1.00  0.00     0.035 C 
HETATM   19  C16 UNL     1       3.721  -3.332   5.295  1.00  0.00     0.029 C 
HETATM   20  C17 UNL     1       4.287  -4.380   6.213  1.00  0.00     0.168 C 
HETATM   21  O2  UNL     1       4.589  -5.497   5.482  1.00  0.00    -0.384 OA
ENDBRANCH  16  17
ENDBRANCH   8  16
BRANCH   1  22
HETATM   22  C3  UNL     1      10.935  -9.201   4.504  1.00  0.00     0.288 C 
BRANCH  22  23
HETATM   23  N1  UNL     1      11.441  -9.959   3.405  1.00  0.00     0.081 N 
HETATM   24  C1  UNL     1      10.451 -10.349   2.450  1.00  0.00     0.309 C 
HETATM   25  C2  UNL     1      12.248 -11.087   3.768  1.00  0.00     0.309 C 
ENDBRANCH  22  23
ENDBRANCH   1  22
TORSDOF 5
ENDMDL
MODEL 3
REMARK VINA RESULT: -6.524578056      1.326      1.573
REMARK  5 active torsions:
REMARK  status: ('A' for Active; 'I' for Inactive)
REMARK    1  A    between atoms: N1_2  and  C3_4 
REMARK    2  A    between atoms: C3_4  and  C4_5 
REMARK    3  A    between atoms: C6_7  and  N2_8 
REMARK       I    between atoms: N3_14  and  C12_15 
REMARK       I    between atoms: C12_15  and  N4_17 
REMARK    4  A    between atoms: N4_17  and  C13_19 
REMARK    5  A    between atoms: C13_19  and  C14_20 
ROOT
HETATM    1  C4  UNL     1      11.892  -3.403   4.228  1.00  0.00     0.099 C 
HETATM    2  C5  UNL     1      10.725  -3.091   5.196  1.00  0.00     0.056 C 
HETATM    3  C6  UNL     1       9.585  -3.946   4.780  1.00  0.00     0.243 C 
HETATM    4  C11 UNL     1       9.676  -5.333   5.440  1.00  0.00     0.177 C 
HETATM    5  N3  UNL     1      10.793  -6.036   4.854  1.00  0.00    -0.271 N 
HETATM    6  C12 UNL     1      10.718  -7.411   4.584  1.00  0.00     0.328 C 
HETATM    7  O1  UNL     1       9.670  -8.031   4.855  1.00  0.00    -0.246 OA
HETATM    8  N4  UNL     1      11.794  -8.119   4.010  1.00  0.00    -0.340 N 
ATOM      9  H4  UNL     1      12.651  -7.613   3.788  1.00  0.00     0.164 HD
HETATM   10  S1  UNL     1      12.269  -5.158   4.472  1.00  0.00    -0.043 SA
ENDROOT
BRANCH   3  11
HETATM   11  N2  UNL     1       8.284  -3.457   5.010  1.00  0.00     0.094 N 
HETATM   12  C7  UNL     1       7.205  -4.076   4.325  1.00  0.00     0.273 C 
HETATM   13  C8  UNL     1       6.034  -3.189   4.768  1.00  0.00     0.032 C 
HETATM   14  C9  UNL     1       6.410  -2.841   6.184  1.00  0.00     0.032 C 
HETATM   15  C10 UNL     1       7.879  -3.238   6.356  1.00  0.00     0.273 C 
ENDBRANCH   3  11
BRANCH   8  16
HETATM   16  C13 UNL     1      11.729  -9.538   3.723  1.00  0.00     0.156 C 
BRANCH  16  17
HETATM   17  C14 UNL     1      12.313  -9.835   2.366  1.00  0.00     0.139 C 
HETATM   18  C15 UNL     1      11.219 -10.393   1.495  1.00  0.00     0.035 C 
HETATM   19  C16 UNL     1      11.362 -11.890   1.801  1.00  0.00     0.029 C 
HETATM   20  C17 UNL     1      12.849 -11.986   2.003  1.00  0.00     0.168 C 
HETATM   21  O2  UNL     1      13.322 -10.772   2.420  1.00  0.00    -0.384 OA
ENDBRANCH  16  17
ENDBRANCH   8  16
BRANCH   1  22
HETATM   22  C3  UNL     1      13.049  -2.510   4.493  1.00  0.00     0.288 C 
BRANCH  22  23
HETATM   23  N1  UNL     1      13.520  -2.634   5.835  1.00  0.00     0.081 N 
HETATM   24  C1  UNL     1      13.811  -1.390   6.476  1.00  0.00     0.309 C 
HETATM   25  C2  UNL     1      14.610  -3.548   6.012  1.00  0.00     0.309 C 
ENDBRANCH  22  23
ENDBRANCH   1  22
TORSDOF 5
ENDMDL
MODEL 4
REMARK VINA RESULT: -6.448909159      1.251      1.694
REMARK  5 active torsions:
REMARK  status: ('A' for Active; 'I' for Inactive)
REMARK    1  A    between atoms: N1_2  and  C3_4 
REMARK    2  A    between atoms: C3_4  and  C4_5 
REMARK    3  A    between atoms: C6_7  and  N2_8 
REMARK       I    between atoms: N3_14  and  C12_15 
REMARK       I    between atoms: C12_15  and  N4_17 
REMARK    4  A    between atoms: N4_17  and  C13_19 
REMARK    5  A    between atoms: C13_19  and  C14_20 
ROOT
HETATM    1  C4  UNL     1      12.140  -4.738   4.974  1.00  0.00     0.099 C 
HETATM    2  C5  UNL     1      10.723  -4.511   5.553  1.00  0.00     0.056 C 
HETATM    3  C6  UNL     1       9.765  -5.085   4.575  1.00  0.00     0.243 C 
HETATM    4  C11 UNL     1       9.560  -6.588   4.831  1.00  0.00     0.177 C 
HETATM    5  N3  UNL     1      10.780  -7.275   4.478  1.00  0.00    -0.271 N 
HETATM    6  C12 UNL     1      10.746  -8.524   3.840  1.00  0.00     0.328 C 
HETATM    7  O1  UNL     1       9.644  -9.047   3.578  1.00  0.00    -0.246 OA
HETATM    8  N4  UNL     1      11.923  -9.213   3.482  1.00  0.00    -0.340 N 
ATOM      9  H4  UNL     1      12.825  -8.786   3.697  1.00  0.00     0.164 HD
HETATM   10  S1  UNL     1      12.333  -6.535   4.849  1.00  0.00    -0.043 SA
ENDROOT
BRANCH   3  11
HETATM   11  N2  UNL     1       8.488  -4.496   4.488  1.00  0.00     0.094 N 
HETATM   12  C7  UNL     1       7.387  -5.331   4.160  1.00  0.00     0.273 C 
HETATM   13  C8  UNL     1       6.258  -4.295   4.068  1.00  0.00     0.032 C 
HETATM   14  C9  UNL     1       6.635  -3.309   5.141  1.00  0.00     0.032 C 
HETATM   15  C10 UNL     1       8.080  -3.626   5.537  1.00  0.00     0.273 C 
ENDBRANCH   3  11
BRANCH   8  16
HETATM   16  C13 UNL     1      11.903 -10.502   2.822  1.00  0.00     0.156 C 
BRANCH  16  17
HETATM   17  C14 UNL     1      12.850 -11.461   3.494  1.00  0.00     0.139 C 
HETATM   18  C15 UNL     1      13.063 -12.635   2.575  1.00  0.00     0.035 C 
HETATM   19  C16 UNL     1      11.924 -13.554   3.036  1.00  0.00     0.029 C 
HETATM   20  C17 UNL     1      11.879 -13.219   4.501  1.00  0.00     0.168 C 
HETATM   21  O2  UNL     1      12.352 -11.948   4.683  1.00  0.00    -0.384 OA
ENDBRANCH  16  17
ENDBRANCH   8  16
BRANCH   1  22
HETATM   22  C3  UNL     1      13.169  -4.094   5.831  1.00  0.00     0.288 C 
BRANCH  22  23
HETATM   23  N1  UNL     1      13.687  -2.905   5.236  1.00  0.00     0.081 N 
HETATM   24  C1  UNL     1      13.803  -1.797   6.133  1.00  0.00     0.309 C 
HETATM   25  C2  UNL     1      13.030  -2.495   4.030  1.00  0.00     0.309 C 
ENDBRANCH  22  23
ENDBRANCH   1  22
TORSDOF 5
ENDMDL
MODEL 5
REMARK VINA RESULT: -6.446174938      0.790      1.049
REMARK  5 active torsions:
REMARK  status: ('A' for Active; 'I' for Inactive)
REMARK    1  A    between atoms: N1_2  and  C3_4 
REMARK    2  A    between atoms: C3_4  and  C4_5 
REMARK    3  A    between atoms: C6_7  and  N2_8 
REMARK       I    between atoms: N3_14  and  C12_15 
REMARK       I    between atoms: C12_15  and  N4_17 
REMARK    4  A    between atoms: N4_17  and  C13_19 
REMARK    5  A    between atoms: C13_19  and  C14_20 
ROOT
HETATM    1  C4  UNL     1      11.926  -4.855   4.855  1.00  0.00     0.099 C 
HETATM    2  C5  UNL     1      10.551  -4.532   5.487  1.00  0.00     0.056 C 
HETATM    3  C6  UNL     1       9.520  -5.060   4.558  1.00  0.00     0.243 C 
HETATM    4  C11 UNL     1       9.234  -6.544   4.849  1.00  0.00     0.177 C 
HETATM    5  N3  UNL     1      10.394  -7.310   4.459  1.00  0.00    -0.271 N 
HETATM    6  C12 UNL     1      10.257  -8.564   3.845  1.00  0.00     0.328 C 
HETATM    7  O1  UNL     1       9.116  -9.021   3.637  1.00  0.00    -0.246 OA
HETATM    8  N4  UNL     1      11.375  -9.329   3.453  1.00  0.00    -0.340 N 
ATOM      9  H4  UNL     1      12.309  -8.956   3.624  1.00  0.00     0.164 HD
HETATM   10  S1  UNL     1      12.004  -6.662   4.754  1.00  0.00    -0.043 SA
ENDROOT
BRANCH   3  11
HETATM   11  N2  UNL     1       8.279  -4.395   4.513  1.00  0.00     0.094 N 
HETATM   12  C7  UNL     1       7.131  -5.145   4.145  1.00  0.00     0.273 C 
HETATM   13  C8  UNL     1       6.063  -4.043   4.119  1.00  0.00     0.032 C 
HETATM   14  C9  UNL     1       6.499  -3.142   5.243  1.00  0.00     0.032 C 
HETATM   15  C10 UNL     1       7.925  -3.564   5.612  1.00  0.00     0.273 C 
ENDBRANCH   3  11
BRANCH   8  16
HETATM   16  C13 UNL     1      11.248 -10.625   2.816  1.00  0.00     0.156 C 
BRANCH  16  17
HETATM   17  C14 UNL     1      11.649 -10.548   1.366  1.00  0.00     0.139 C 
HETATM   18  C15 UNL     1      12.107 -11.915   0.931  1.00  0.00     0.035 C 
HETATM   19  C16 UNL     1      13.601 -11.825   1.272  1.00  0.00     0.029 C 
HETATM   20  C17 UNL     1      13.857 -10.370   0.990  1.00  0.00     0.168 C 
HETATM   21  O2  UNL     1      12.691  -9.672   1.153  1.00  0.00    -0.384 OA
ENDBRANCH  16  17
ENDBRANCH   8  16
BRANCH   1  22
HETATM   22  C3  UNL     1      13.027  -4.262   5.658  1.00  0.00     0.288 C 
BRANCH  22  23
HETATM   23  N1  UNL     1      13.531  -3.065   5.067  1.00  0.00     0.081 N 
HETATM   24  C1  UNL     1      13.855  -2.035   6.003  1.00  0.00     0.309 C 
HETATM   25  C2  UNL     1      12.732  -2.531   4.003  1.00  0.00     0.309 C 
ENDBRANCH  22  23
ENDBRANCH   1  22
TORSDOF 5
ENDMDL
