MODEL 1
REMARK VINA RESULT: -5.670200155      0.000      0.000
REMARK  2 active torsions:
REMARK  status: ('A' for Active; 'I' for Inactive)
REMARK    1  A    between atoms: N1_7  and  C7_8 
REMARK    2  A    between atoms: C7_8  and  C8_9 
ROOT
HETATM    1  C1  UNL     1       3.519  -2.316   7.977  1.00  0.00     0.027 C 
HETATM    2  C2  UNL     1       4.416  -1.123   8.216  1.00  0.00     0.004 C 
HETATM    3  C3  UNL     1       4.848  -0.602   6.839  1.00  0.00     0.039 C 
HETATM    4  C4  UNL     1       5.789  -1.586   6.236  1.00  0.00     0.129 C 
HETATM    5  C5  UNL     1       5.799  -1.590   4.728  1.00  0.00     0.069 C 
HETATM    6  C6  UNL     1       6.740  -2.623   4.214  1.00  0.00     0.275 C 
HETATM    7  N1  UNL     1       8.025  -2.622   4.831  1.00  0.00     0.091 N 
HETATM    8  C12 UNL     1       8.070  -2.360   6.227  1.00  0.00     0.275 C 
HETATM    9  C13 UNL     1       7.217  -1.184   6.633  1.00  0.00     0.069 C 
HETATM   10  N2  UNL     1       5.507  -2.906   6.783  1.00  0.00    -0.066 N 
ATOM     11  H21 UNL     1       5.946  -3.043   7.694  1.00  0.00     0.278 HD
ATOM     12  H22 UNL     1       5.991  -3.643   6.270  1.00  0.00     0.278 HD
HETATM   13  C14 UNL     1       4.084  -3.128   6.833  1.00  0.00     0.233 C 
ENDROOT
BRANCH   7  14
HETATM   14  C7  UNL     1       8.702  -3.875   4.554  1.00  0.00     0.304 C 
BRANCH  14  15
HETATM   15  C8  UNL     1      10.043  -3.841   5.229  1.00  0.00     0.149 C 
HETATM   16  C9  UNL     1      10.653  -5.218   5.347  1.00  0.00     0.036 C 
HETATM   17  C10 UNL     1      11.958  -5.078   4.589  1.00  0.00     0.029 C 
HETATM   18  C11 UNL     1      12.176  -3.591   4.589  1.00  0.00     0.168 C 
HETATM   19  O1  UNL     1      10.896  -3.110   4.400  1.00  0.00    -0.384 OA
ENDBRANCH  14  15
ENDBRANCH   7  14
TORSDOF 2
ENDMDL
MODEL 2
REMARK VINA RESULT: -5.491970369      1.945      6.547
REMARK  2 active torsions:
REMARK  status: ('A' for Active; 'I' for Inactive)
REMARK    1  A    between atoms: N1_7  and  C7_8 
REMARK    2  A    between atoms: C7_8  and  C8_9 
ROOT
HETATM    1  C1  UNL     1      13.559  -2.660   4.117  1.00  0.00     0.027 C 
HETATM    2  C2  UNL     1      13.315  -3.787   5.094  1.00  0.00     0.004 C 
HETATM    3  C3  UNL     1      12.093  -4.564   4.589  1.00  0.00     0.039 C 
HETATM    4  C4  UNL     1      10.883  -3.717   4.780  1.00  0.00     0.129 C 
HETATM    5  C5  UNL     1       9.767  -4.003   3.808  1.00  0.00     0.069 C 
HETATM    6  C6  UNL     1       8.615  -3.091   4.051  1.00  0.00     0.275 C 
HETATM    7  N1  UNL     1       8.219  -2.977   5.415  1.00  0.00     0.091 N 
HETATM    8  C12 UNL     1       9.255  -2.966   6.389  1.00  0.00     0.275 C 
HETATM    9  C13 UNL     1      10.290  -4.040   6.159  1.00  0.00     0.069 C 
HETATM   10  N2  UNL     1      11.280  -2.316   4.759  1.00  0.00    -0.066 N 
ATOM     11  H21 UNL     1      11.639  -2.007   5.663  1.00  0.00     0.278 HD
ATOM     12  H22 UNL     1      10.475  -1.692   4.697  1.00  0.00     0.278 HD
HETATM   13  C14 UNL     1      12.225  -2.084   3.696  1.00  0.00     0.233 C 
ENDROOT
BRANCH   7  14
HETATM   14  C7  UNL     1       7.385  -1.803   5.586  1.00  0.00     0.304 C 
BRANCH  14  15
HETATM   15  C8  UNL     1       6.755  -1.871   6.948  1.00  0.00     0.149 C 
HETATM   16  C9  UNL     1       6.111  -0.563   7.341  1.00  0.00     0.036 C 
HETATM   17  C10 UNL     1       4.662  -0.950   7.565  1.00  0.00     0.029 C 
HETATM   18  C11 UNL     1       4.753  -2.435   7.784  1.00  0.00     0.168 C 
HETATM   19  O1  UNL     1       5.719  -2.804   6.869  1.00  0.00    -0.384 OA
ENDBRANCH  14  15
ENDBRANCH   7  14
TORSDOF 2
ENDMDL
MODEL 3
REMARK VINA RESULT: -5.403196640      2.039      2.616
REMARK  2 active torsions:
REMARK  status: ('A' for Active; 'I' for Inactive)
REMARK    1  A    between atoms: N1_7  and  C7_8 
REMARK    2  A    between atoms: C7_8  and  C8_9 
ROOT
HETATM    1  C1  UNL     1       3.618  -4.524   5.269  1.00  0.00     0.027 C 
HETATM    2  C2  UNL     1       3.825  -3.089   4.841  1.00  0.00     0.004 C 
HETATM    3  C3  UNL     1       4.828  -3.106   3.680  1.00  0.00     0.039 C 
HETATM    4  C4  UNL     1       6.168  -3.468   4.221  1.00  0.00     0.129 C 
HETATM    5  C5  UNL     1       7.075  -4.144   3.224  1.00  0.00     0.069 C 
HETATM    6  C6  UNL     1       8.375  -4.499   3.856  1.00  0.00     0.275 C 
HETATM    7  N1  UNL     1       8.977  -3.453   4.614  1.00  0.00     0.091 N 
HETATM    8  C12 UNL     1       8.107  -2.622   5.372  1.00  0.00     0.275 C 
HETATM    9  C13 UNL     1       6.898  -2.169   4.592  1.00  0.00     0.069 C 
HETATM   10  N2  UNL     1       5.991  -4.265   5.426  1.00  0.00    -0.066 N 
ATOM     11  H21 UNL     1       5.818  -3.683   6.246  1.00  0.00     0.278 HD
ATOM     12  H22 UNL     1       6.865  -4.696   5.730  1.00  0.00     0.278 HD
HETATM   13  C14 UNL     1       4.949  -5.240   5.228  1.00  0.00     0.233 C 
ENDROOT
BRANCH   7  14
HETATM   14  C7  UNL     1       9.997  -4.004   5.486  1.00  0.00     0.304 C 
BRANCH  14  15
HETATM   15  C8  UNL     1      10.988  -4.746   4.636  1.00  0.00     0.149 C 
HETATM   16  C9  UNL     1      12.328  -4.050   4.589  1.00  0.00     0.036 C 
HETATM   17  C10 UNL     1      13.274  -5.096   5.144  1.00  0.00     0.029 C 
HETATM   18  C11 UNL     1      12.501  -6.370   4.951  1.00  0.00     0.168 C 
HETATM   19  O1  UNL     1      11.213  -5.977   5.257  1.00  0.00    -0.384 OA
ENDBRANCH  14  15
ENDBRANCH   7  14
TORSDOF 2
ENDMDL
MODEL 4
REMARK VINA RESULT: -5.328072597      1.957      2.817
REMARK  2 active torsions:
REMARK  status: ('A' for Active; 'I' for Inactive)
REMARK    1  A    between atoms: N1_7  and  C7_8 
REMARK    2  A    between atoms: C7_8  and  C8_9 
ROOT
HETATM    1  C1  UNL     1       3.655  -2.041   3.229  1.00  0.00     0.027 C 
HETATM    2  C2  UNL     1       3.590  -3.475   3.701  1.00  0.00     0.004 C 
HETATM    3  C3  UNL     1       4.355  -3.548   5.029  1.00  0.00     0.039 C 
HETATM    4  C4  UNL     1       5.807  -3.376   4.745  1.00  0.00     0.129 C 
HETATM    5  C5  UNL     1       6.596  -2.788   5.889  1.00  0.00     0.069 C 
HETATM    6  C6  UNL     1       8.025  -2.622   5.508  1.00  0.00     0.275 C 
HETATM    7  N1  UNL     1       8.615  -3.761   4.884  1.00  0.00     0.091 N 
HETATM    8  C12 UNL     1       7.798  -4.499   3.984  1.00  0.00     0.275 C 
HETATM    9  C13 UNL     1       6.417  -4.769   4.529  1.00  0.00     0.069 C 
HETATM   10  N2  UNL     1       5.962  -2.603   3.522  1.00  0.00    -0.066 N 
ATOM     11  H21 UNL     1       5.869  -3.185   2.689  1.00  0.00     0.278 HD
ATOM     12  H22 UNL     1       6.925  -2.297   3.383  1.00  0.00     0.278 HD
HETATM   13  C14 UNL     1       5.038  -1.498   3.513  1.00  0.00     0.233 C 
ENDROOT
BRANCH   7  14
HETATM   14  C7  UNL     1       9.841  -3.372   4.214  1.00  0.00     0.304 C 
BRANCH  14  15
HETATM   15  C8  UNL     1      10.996  -3.741   5.101  1.00  0.00     0.149 C 
HETATM   16  C9  UNL     1      11.273  -5.226   5.082  1.00  0.00     0.036 C 
HETATM   17  C10 UNL     1      12.704  -5.299   4.589  1.00  0.00     0.029 C 
HETATM   18  C11 UNL     1      13.220  -3.917   4.880  1.00  0.00     0.168 C 
HETATM   19  O1  UNL     1      12.130  -3.129   4.565  1.00  0.00    -0.384 OA
ENDBRANCH  14  15
ENDBRANCH   7  14
TORSDOF 2
ENDMDL
MODEL 5
REMARK VINA RESULT: -5.286235344      2.912      4.187
REMARK  2 active torsions:
REMARK  status: ('A' for Active; 'I' for Inactive)
REMARK    1  A    between atoms: N1_7  and  C7_8 
REMARK    2  A    between atoms: C7_8  and  C8_9 
ROOT
HETATM    1  C1  UNL     1       5.192  -5.931   2.244  1.00  0.00     0.027 C 
HETATM    2  C2  UNL     1       5.669  -6.866   3.332  1.00  0.00     0.004 C 
HETATM    3  C3  UNL     1       5.906  -6.013   4.586  1.00  0.00     0.039 C 
HETATM    4  C4  UNL     1       7.105  -5.160   4.356  1.00  0.00     0.129 C 
HETATM    5  C5  UNL     1       7.106  -3.870   5.137  1.00  0.00     0.069 C 
HETATM    6  C6  UNL     1       8.321  -3.069   4.822  1.00  0.00     0.275 C 
HETATM    7  N1  UNL     1       9.544  -3.799   4.854  1.00  0.00     0.091 N 
HETATM    8  C12 UNL     1       9.514  -5.131   4.356  1.00  0.00     0.275 C 
HETATM    9  C13 UNL     1       8.336  -5.924   4.866  1.00  0.00     0.069 C 
HETATM   10  N2  UNL     1       7.256  -4.933   2.926  1.00  0.00    -0.066 N 
ATOM     11  H21 UNL     1       7.723  -5.713   2.463  1.00  0.00     0.278 HD
ATOM     12  H22 UNL     1       7.945  -4.207   2.726  1.00  0.00     0.278 HD
HETATM   13  C14 UNL     1       5.976  -4.641   2.332  1.00  0.00     0.233 C 
ENDROOT
BRANCH   7  14
HETATM   14  C7  UNL     1      10.580  -3.052   4.166  1.00  0.00     0.304 C 
BRANCH  14  15
HETATM   15  C8  UNL     1      11.788  -2.998   5.057  1.00  0.00     0.149 C 
HETATM   16  C9  UNL     1      12.912  -3.864   4.539  1.00  0.00     0.036 C 
HETATM   17  C10 UNL     1      14.042  -2.873   4.342  1.00  0.00     0.029 C 
HETATM   18  C11 UNL     1      13.627  -1.727   5.223  1.00  0.00     0.168 C 
HETATM   19  O1  UNL     1      12.261  -1.685   5.019  1.00  0.00    -0.384 OA
ENDBRANCH  14  15
ENDBRANCH   7  14
TORSDOF 2
ENDMDL
