MODEL 1
REMARK VINA RESULT: -6.221730980      0.000      0.000
REMARK  2 active torsions:
REMARK  status: ('A' for Active; 'I' for Inactive)
REMARK    1  A    between atoms: N1_4  and  C4_6 
REMARK    2  A    between atoms: N3_13  and  C8_14 
ROOT
HETATM    1  C1  UNL     1       8.370  -6.843   4.888  1.00  0.00     0.027 C 
HETATM    2  C2  UNL     1       8.976  -7.868   3.959  1.00  0.00     0.077 C 
HETATM    3  C3  UNL     1      10.444  -7.628   4.181  1.00  0.00     0.075 C 
HETATM    4  N1  UNL     1      11.400  -8.473   4.141  1.00  0.00    -0.373 N 
ATOM      5  H1  UNL     1      12.342  -8.125   4.320  1.00  0.00     0.161 HD
HETATM    6  N3  UNL     1      10.610  -6.244   4.456  1.00  0.00    -0.366 N 
HETATM    7  C13 UNL     1       9.313  -5.664   4.693  1.00  0.00     0.125 C 
ENDROOT
BRANCH   4   8
HETATM    8  C4  UNL     1      11.256  -9.871   3.866  1.00  0.00     0.110 C 
HETATM    9  C5  UNL     1      11.458 -10.121   2.384  1.00  0.00     0.054 C 
HETATM   10  C6  UNL     1      12.979 -10.065   2.288  1.00  0.00     0.234 C 
HETATM   11  N2  UNL     1      13.444 -10.715   3.479  1.00  0.00    -0.073 N 
HETATM   12  C7  UNL     1      12.397 -10.691   4.450  1.00  0.00     0.257 C 
ATOM     13  H22 UNL     1      13.789 -11.657   3.300  1.00  0.00     0.277 HD
ATOM     14  H21 UNL     1      14.312 -10.312   3.831  1.00  0.00     0.277 HD
ENDBRANCH   4   8
BRANCH   6  15
HETATM   15  C8  UNL     1      11.874  -5.543   4.490  1.00  0.00     0.089 C 
HETATM   16  C9  UNL     1      11.689  -4.071   4.747  1.00  0.00     0.051 C 
HETATM   17  C10 UNL     1      12.998  -3.380   4.427  1.00  0.00     0.169 C 
HETATM   18  O1  UNL     1      14.072  -4.281   4.568  1.00  0.00    -0.391 OA
HETATM   19  C11 UNL     1      13.899  -5.048   5.744  1.00  0.00     0.169 C 
HETATM   20  C12 UNL     1      12.830  -6.125   5.510  1.00  0.00     0.051 C 
ENDBRANCH   6  15
TORSDOF 2
ENDMDL
MODEL 2
REMARK VINA RESULT: -6.116444405      3.245      5.766
REMARK  2 active torsions:
REMARK  status: ('A' for Active; 'I' for Inactive)
REMARK    1  A    between atoms: N1_4  and  C4_6 
REMARK    2  A    between atoms: N3_13  and  C8_14 
ROOT
HETATM    1  C1  UNL     1      11.542  -7.131   5.431  1.00  0.00     0.027 C 
HETATM    2  C2  UNL     1      12.446  -6.326   4.527  1.00  0.00     0.077 C 
HETATM    3  C3  UNL     1      11.766  -4.984   4.558  1.00  0.00     0.075 C 
HETATM    4  N1  UNL     1      12.296  -3.825   4.480  1.00  0.00    -0.373 N 
ATOM      5  H1  UNL     1      11.671  -3.020   4.519  1.00  0.00     0.161 HD
HETATM    6  N3  UNL     1      10.371  -5.219   4.696  1.00  0.00    -0.366 N 
HETATM    7  C13 UNL     1      10.170  -6.605   5.031  1.00  0.00     0.125 C 
ENDROOT
BRANCH   4   8
HETATM    8  C4  UNL     1      13.697  -3.565   4.341  1.00  0.00     0.110 C 
HETATM    9  C5  UNL     1      13.910  -2.109   3.977  1.00  0.00     0.054 C 
HETATM   10  C6  UNL     1      13.729  -1.442   5.336  1.00  0.00     0.234 C 
HETATM   11  N2  UNL     1      14.353  -2.337   6.267  1.00  0.00    -0.073 N 
HETATM   12  C7  UNL     1      14.428  -3.634   5.673  1.00  0.00     0.257 C 
ATOM     13  H22 UNL     1      15.262  -2.000   6.584  1.00  0.00     0.277 HD
ATOM     14  H21 UNL     1      13.884  -2.348   7.173  1.00  0.00     0.277 HD
ENDBRANCH   4   8
BRANCH   6  15
HETATM   15  C8  UNL     1       9.334  -4.226   4.526  1.00  0.00     0.089 C 
HETATM   16  C9  UNL     1       7.992  -4.859   4.272  1.00  0.00     0.051 C 
HETATM   17  C10 UNL     1       7.059  -3.774   3.772  1.00  0.00     0.169 C 
HETATM   18  O1  UNL     1       7.486  -2.514   4.233  1.00  0.00    -0.391 OA
HETATM   19  C11 UNL     1       7.866  -2.607   5.593  1.00  0.00     0.169 C 
HETATM   20  C12 UNL     1       9.240  -3.281   5.705  1.00  0.00     0.051 C 
ENDBRANCH   6  15
TORSDOF 2
ENDMDL
MODEL 3
REMARK VINA RESULT: -6.014240978      2.981      5.942
REMARK  2 active torsions:
REMARK  status: ('A' for Active; 'I' for Inactive)
REMARK    1  A    between atoms: N1_4  and  C4_6 
REMARK    2  A    between atoms: N3_13  and  C8_14 
ROOT
HETATM    1  C1  UNL     1       9.895  -6.912   4.346  1.00  0.00     0.027 C 
HETATM    2  C2  UNL     1       8.851  -6.080   5.053  1.00  0.00     0.077 C 
HETATM    3  C3  UNL     1       9.393  -4.693   4.843  1.00  0.00     0.075 C 
HETATM    4  N1  UNL     1       8.746  -3.602   4.700  1.00  0.00    -0.373 N 
ATOM      5  H1  UNL     1       9.288  -2.749   4.565  1.00  0.00     0.161 HD
HETATM    6  N3  UNL     1      10.811  -4.791   4.825  1.00  0.00    -0.366 N 
HETATM    7  C13 UNL     1      11.175  -6.182   4.732  1.00  0.00     0.125 C 
ENDROOT
BRANCH   4   8
HETATM    8  C4  UNL     1       7.319  -3.481   4.715  1.00  0.00     0.110 C 
HETATM    9  C5  UNL     1       6.838  -3.326   6.144  1.00  0.00     0.054 C 
HETATM   10  C6  UNL     1       7.155  -1.856   6.398  1.00  0.00     0.234 C 
HETATM   11  N2  UNL     1       6.838  -1.197   5.165  1.00  0.00    -0.073 N 
HETATM   12  C7  UNL     1       6.850  -2.164   4.115  1.00  0.00     0.257 C 
ATOM     13  H22 UNL     1       5.960  -0.681   5.212  1.00  0.00     0.277 HD
ATOM     14  H21 UNL     1       7.455  -0.406   4.975  1.00  0.00     0.277 HD
ENDBRANCH   4   8
BRANCH   6  15
HETATM   15  C8  UNL     1      11.728  -3.675   4.888  1.00  0.00     0.089 C 
HETATM   16  C9  UNL     1      13.155  -4.114   4.696  1.00  0.00     0.051 C 
HETATM   17  C10 UNL     1      14.050  -2.966   5.116  1.00  0.00     0.169 C 
HETATM   18  O1  UNL     1      13.366  -1.741   4.983  1.00  0.00    -0.391 OA
HETATM   19  C11 UNL     1      12.650  -1.725   3.764  1.00  0.00     0.169 C 
HETATM   20  C12 UNL     1      11.387  -2.589   3.890  1.00  0.00     0.051 C 
ENDBRANCH   6  15
TORSDOF 2
ENDMDL
MODEL 4
REMARK VINA RESULT: -5.865530502      2.702      5.400
REMARK  2 active torsions:
REMARK  status: ('A' for Active; 'I' for Inactive)
REMARK    1  A    between atoms: N1_4  and  C4_6 
REMARK    2  A    between atoms: N3_13  and  C8_14 
ROOT
HETATM    1  C1  UNL     1      11.016  -7.299   4.478  1.00  0.00     0.027 C 
HETATM    2  C2  UNL     1       9.786  -6.722   5.138  1.00  0.00     0.077 C 
HETATM    3  C3  UNL     1       9.986  -5.251   4.890  1.00  0.00     0.075 C 
HETATM    4  N1  UNL     1       9.101  -4.352   4.699  1.00  0.00    -0.373 N 
ATOM      5  H1  UNL     1       9.427  -3.398   4.545  1.00  0.00     0.161 HD
HETATM    6  N3  UNL     1      11.387  -5.008   4.900  1.00  0.00    -0.366 N 
HETATM    7  C13 UNL     1      12.074  -6.273   4.861  1.00  0.00     0.125 C 
ENDROOT
BRANCH   4   8
HETATM    8  C4  UNL     1       7.686  -4.575   4.684  1.00  0.00     0.110 C 
HETATM    9  C5  UNL     1       7.000  -3.543   5.558  1.00  0.00     0.054 C 
HETATM   10  C6  UNL     1       7.010  -2.330   4.634  1.00  0.00     0.234 C 
HETATM   11  N2  UNL     1       6.745  -2.865   3.329  1.00  0.00    -0.073 N 
HETATM   12  C7  UNL     1       7.070  -4.255   3.331  1.00  0.00     0.257 C 
ATOM     13  H22 UNL     1       5.789  -2.687   3.021  1.00  0.00     0.277 HD
ATOM     14  H21 UNL     1       7.227  -2.351   2.591  1.00  0.00     0.277 HD
ENDBRANCH   4   8
BRANCH   6  15
HETATM   15  C8  UNL     1      12.009  -3.703   4.943  1.00  0.00     0.089 C 
HETATM   16  C9  UNL     1      13.500  -3.790   4.755  1.00  0.00     0.051 C 
HETATM   17  C10 UNL     1      14.092  -2.453   5.152  1.00  0.00     0.169 C 
HETATM   18  O1  UNL     1      13.134  -1.431   5.000  1.00  0.00    -0.391 OA
HETATM   19  C11 UNL     1      12.438  -1.609   3.782  1.00  0.00     0.169 C 
HETATM   20  C12 UNL     1      11.419  -2.748   3.926  1.00  0.00     0.051 C 
ENDBRANCH   6  15
TORSDOF 2
ENDMDL
MODEL 5
REMARK VINA RESULT: -5.792107400      2.040      3.889
REMARK  2 active torsions:
REMARK  status: ('A' for Active; 'I' for Inactive)
REMARK    1  A    between atoms: N1_4  and  C4_6 
REMARK    2  A    between atoms: N3_13  and  C8_14 
ROOT
HETATM    1  C1  UNL     1      13.265  -4.956   4.988  1.00  0.00     0.027 C 
HETATM    2  C2  UNL     1      13.200  -6.425   5.332  1.00  0.00     0.077 C 
HETATM    3  C3  UNL     1      11.951  -6.838   4.603  1.00  0.00     0.075 C 
HETATM    4  N1  UNL     1      11.685  -7.963   4.060  1.00  0.00    -0.373 N 
ATOM      5  H1  UNL     1      10.778  -8.061   3.605  1.00  0.00     0.161 HD
HETATM    6  N3  UNL     1      11.067  -5.725   4.613  1.00  0.00    -0.366 N 
HETATM    7  C13 UNL     1      11.795  -4.564   5.055  1.00  0.00     0.125 C 
ENDROOT
BRANCH   4   8
HETATM    8  C4  UNL     1      12.559  -9.097   4.038  1.00  0.00     0.110 C 
HETATM    9  C5  UNL     1      11.804 -10.329   4.494  1.00  0.00     0.054 C 
HETATM   10  C6  UNL     1      11.020 -10.671   3.231  1.00  0.00     0.234 C 
HETATM   11  N2  UNL     1      11.930 -10.402   2.155  1.00  0.00    -0.073 N 
HETATM   12  C7  UNL     1      12.936  -9.503   2.622  1.00  0.00     0.257 C 
ATOM     13  H22 UNL     1      12.322 -11.253   1.753  1.00  0.00     0.277 HD
ATOM     14  H21 UNL     1      11.456 -10.059   1.319  1.00  0.00     0.277 HD
ENDBRANCH   4   8
BRANCH   6  15
HETATM   15  C8  UNL     1       9.671  -5.761   4.238  1.00  0.00     0.089 C 
HETATM   16  C9  UNL     1       8.913  -6.807   5.011  1.00  0.00     0.051 C 
HETATM   17  C10 UNL     1       7.577  -7.009   4.325  1.00  0.00     0.169 C 
HETATM   18  O1  UNL     1       7.214  -5.847   3.616  1.00  0.00    -0.391 OA
HETATM   19  C11 UNL     1       7.487  -4.704   4.403  1.00  0.00     0.169 C 
HETATM   20  C12 UNL     1       8.994  -4.416   4.398  1.00  0.00     0.051 C 
ENDBRANCH   6  15
TORSDOF 2
ENDMDL
