MODEL 1
REMARK VINA RESULT: -9.680403527      0.000      0.000
REMARK  17 active torsions:
REMARK  status: ('A' for Active; 'I' for Inactive)
REMARK    1  A    between atoms: N1_1  and  N2_4 
REMARK       I    between atoms: C1_6  and  N4_8 
REMARK    2  A    between atoms: N5_10  and  O1_12 
REMARK    3  A    between atoms: O1_12  and  C2_13 
REMARK    4  A    between atoms: C2_13  and  N6_14 
REMARK    5  A    between atoms: C2_13  and  C9_29 
REMARK    6  A    between atoms: N6_14  and  C3_16 
REMARK    7  A    between atoms: C4_18  and  C5_19 
REMARK    8  A    between atoms: C6_22  and  O5_23 
REMARK    9  A    between atoms: C8_26  and  O6_27 
REMARK   10  A    between atoms: C10_31  and  C11_32 
REMARK   11  A    between atoms: C11_32  and  O8_33 
REMARK   12  A    between atoms: C11_32  and  C12_35 
REMARK   13  A    between atoms: C12_35  and  O9_36 
REMARK   14  A    between atoms: C12_35  and  C13_38 
REMARK   15  A    between atoms: C13_38  and  O10_39 
REMARK   16  A    between atoms: C14_41  and  O11_42 
REMARK   17  A    between atoms: C16_46  and  O13_47 
ROOT
HETATM    1  C2  UNL     1      18.091  -5.347   5.954  1.00  0.00     0.211 C 
ENDROOT
BRANCH   1   2
HETATM    2  O1  UNL     1      18.218  -4.909   7.259  1.00  0.00    -0.201 OA
BRANCH   2   3
HETATM    3  N5  UNL     1      19.282  -4.805   8.079  1.00  0.00    -0.197 N 
HETATM    4  N4  UNL     1      19.956  -5.750   8.598  1.00  0.00    -0.252 N 
HETATM    5  C1  UNL     1      21.049  -5.615   9.442  1.00  0.00     0.223 C 
ATOM      6  H4  UNL     1      19.665  -6.701   8.371  1.00  0.00     0.191 HD
HETATM    7  N2  UNL     1      21.078  -6.271  10.589  1.00  0.00    -0.279 N 
HETATM    8  N3  UNL     1      22.227  -4.839   9.191  1.00  0.00    -0.061 NA
ATOM      9  H2  UNL     1      20.269  -6.841  10.834  1.00  0.00     0.189 HD
ATOM     10  H5  UNL     1      19.581  -3.858   8.310  1.00  0.00     0.216 HD
BRANCH   7  11
HETATM   11  N1  UNL     1      22.139  -6.233  11.478  1.00  0.00    -0.343 N 
ATOM     12  H12 UNL     1      21.981  -5.753  12.363  1.00  0.00     0.176 HD
ATOM     13  H11 UNL     1      23.051  -6.653  11.298  1.00  0.00     0.176 HD
ENDBRANCH   7  11
ENDBRANCH   2   3
ENDBRANCH   1   2
BRANCH   1  14
HETATM   14  N6  UNL     1      18.156  -4.386   4.954  1.00  0.00    -0.311 N 
ATOM     15  H6  UNL     1      17.348  -3.783   5.104  1.00  0.00     0.170 HD
BRANCH  14  16
HETATM   16  C3  UNL     1      18.723  -3.931   3.989  1.00  0.00     0.184 A 
HETATM   17  O2  UNL     1      19.163  -2.698   3.986  1.00  0.00    -0.281 OA
HETATM   18  C4  UNL     1      19.787  -2.076   3.026  1.00  0.00     0.187 A 
HETATM   19  C6  UNL     1      20.058  -2.712   1.832  1.00  0.00     0.109 A 
HETATM   20  C7  UNL     1      19.619  -4.045   1.735  1.00  0.00     0.080 A 
HETATM   21  C8  UNL     1      18.961  -4.643   2.810  1.00  0.00     0.120 A 
BRANCH  18  22
HETATM   22  C5  UNL     1      20.211  -0.693   3.202  1.00  0.00     0.237 C 
HETATM   23  O3  UNL     1      21.415  -0.402   2.862  1.00  0.00    -0.642 OA
HETATM   24  O4  UNL     1      19.426   0.300   3.683  1.00  0.00    -0.642 OA
ENDBRANCH  18  22
BRANCH  19  25
HETATM   25  O5  UNL     1      20.703  -2.163   0.757  1.00  0.00    -0.358 OA
ATOM     26  H5  UNL     1      20.775  -2.550  -0.108  1.00  0.00     0.217 HD
ENDBRANCH  19  25
BRANCH  21  27
HETATM   27  O6  UNL     1      18.582  -5.967   2.631  1.00  0.00    -0.357 OA
ATOM     28  H6  UNL     1      19.192  -6.656   2.397  1.00  0.00     0.218 HD
ENDBRANCH  21  27
ENDBRANCH  14  16
ENDBRANCH   1  14
BRANCH   1  29
HETATM   29  C9  UNL     1      17.114  -6.477   5.672  1.00  0.00     0.166 A 
HETATM   30  O7  UNL     1      17.344  -7.322   4.653  1.00  0.00    -0.302 OA
HETATM   31  C10 UNL     1      16.547  -8.305   4.318  1.00  0.00     0.122 A 
HETATM   32  C14 UNL     1      15.359  -8.470   5.096  1.00  0.00     0.152 A 
HETATM   33  C15 UNL     1      15.129  -7.618   6.132  1.00  0.00     0.243 A 
HETATM   34  O12 UNL     1      14.051  -7.765   6.824  1.00  0.00    -0.282 OA
HETATM   35  C16 UNL     1      15.997  -6.620   6.439  1.00  0.00     0.158 A 
BRANCH  31  36
HETATM   36  C11 UNL     1      16.658  -9.281   3.245  1.00  0.00     0.209 C 
BRANCH  36  37
HETATM   37  O8  UNL     1      15.950  -8.771   2.093  1.00  0.00    -0.386 OA
ATOM     38  H8  UNL     1      15.230  -9.361   1.901  1.00  0.00     0.210 HD
ENDBRANCH  36  37
BRANCH  36  39
HETATM   39  C12 UNL     1      18.002  -9.712   2.780  1.00  0.00     0.177 C 
BRANCH  39  40
HETATM   40  O9  UNL     1      18.880  -8.812   2.335  1.00  0.00    -0.390 OA
ATOM     41  H9  UNL     1      19.191  -8.849   1.438  1.00  0.00     0.210 HD
ENDBRANCH  39  40
BRANCH  39  42
HETATM   42  C13 UNL     1      17.851 -10.891   1.820  1.00  0.00     0.198 C 
BRANCH  42  43
HETATM   43  O10 UNL     1      17.702 -10.499   0.487  1.00  0.00    -0.398 OA
ATOM     44  H10 UNL     1      17.952 -11.175  -0.132  1.00  0.00     0.209 HD
ENDBRANCH  42  43
ENDBRANCH  39  42
ENDBRANCH  36  39
ENDBRANCH  31  36
BRANCH  32  45
HETATM   45  O11 UNL     1      14.447  -9.471   4.820  1.00  0.00    -0.355 OA
ATOM     46  H11 UNL     1      13.512  -9.326   4.896  1.00  0.00     0.218 HD
ENDBRANCH  32  45
BRANCH  35  47
HETATM   47  O13 UNL     1      15.691  -5.803   7.536  1.00  0.00    -0.355 OA
ATOM     48  H13 UNL     1      15.460  -6.133   8.396  1.00  0.00     0.218 HD
ENDBRANCH  35  47
ENDBRANCH   1  29
TORSDOF 17
ENDMDL
MODEL 2
REMARK VINA RESULT: -9.162159672      1.110      7.230
REMARK  17 active torsions:
REMARK  status: ('A' for Active; 'I' for Inactive)
REMARK    1  A    between atoms: N1_1  and  N2_4 
REMARK       I    between atoms: C1_6  and  N4_8 
REMARK    2  A    between atoms: N5_10  and  O1_12 
REMARK    3  A    between atoms: O1_12  and  C2_13 
REMARK    4  A    between atoms: C2_13  and  N6_14 
REMARK    5  A    between atoms: C2_13  and  C9_29 
REMARK    6  A    between atoms: N6_14  and  C3_16 
REMARK    7  A    between atoms: C4_18  and  C5_19 
REMARK    8  A    between atoms: C6_22  and  O5_23 
REMARK    9  A    between atoms: C8_26  and  O6_27 
REMARK   10  A    between atoms: C10_31  and  C11_32 
REMARK   11  A    between atoms: C11_32  and  O8_33 
REMARK   12  A    between atoms: C11_32  and  C12_35 
REMARK   13  A    between atoms: C12_35  and  O9_36 
REMARK   14  A    between atoms: C12_35  and  C13_38 
REMARK   15  A    between atoms: C13_38  and  O10_39 
REMARK   16  A    between atoms: C14_41  and  O11_42 
REMARK   17  A    between atoms: C16_46  and  O13_47 
ROOT
HETATM    1  C2  UNL     1      18.445  -5.120   5.710  1.00  0.00     0.211 C 
ENDROOT
BRANCH   1   2
HETATM    2  O1  UNL     1      19.352  -5.752   6.540  1.00  0.00    -0.201 OA
BRANCH   2   3
HETATM    3  N5  UNL     1      20.061  -5.320   7.600  1.00  0.00    -0.197 N 
HETATM    4  N4  UNL     1      20.682  -6.025   8.457  1.00  0.00    -0.252 N 
HETATM    5  C1  UNL     1      21.404  -5.554   9.544  1.00  0.00     0.223 C 
ATOM      6  H4  UNL     1      20.645  -7.037   8.333  1.00  0.00     0.191 HD
HETATM    7  N2  UNL     1      21.173  -6.044  10.749  1.00  0.00    -0.279 N 
HETATM    8  N3  UNL     1      22.451  -4.576   9.510  1.00  0.00    -0.061 NA
ATOM      9  H2  UNL     1      20.437  -6.743  10.848  1.00  0.00     0.189 HD
ATOM     10  H5  UNL     1      20.105  -4.310   7.731  1.00  0.00     0.216 HD
BRANCH   7  11
HETATM   11  N1  UNL     1      21.868  -5.669  11.886  1.00  0.00    -0.343 N 
ATOM     12  H12 UNL     1      22.627  -5.000  11.763  1.00  0.00     0.176 HD
ATOM     13  H11 UNL     1      21.663  -6.018  12.823  1.00  0.00     0.176 HD
ENDBRANCH   7  11
ENDBRANCH   2   3
ENDBRANCH   1   2
BRANCH   1  14
HETATM   14  N6  UNL     1      17.210  -5.732   5.538  1.00  0.00    -0.311 N 
ATOM     15  H6  UNL     1      16.550  -4.972   5.378  1.00  0.00     0.170 HD
BRANCH  14  16
HETATM   16  C3  UNL     1      16.554  -6.746   5.488  1.00  0.00     0.184 A 
HETATM   17  O2  UNL     1      16.795  -7.660   4.582  1.00  0.00    -0.281 OA
HETATM   18  C4  UNL     1      16.174  -8.793   4.408  1.00  0.00     0.187 A 
HETATM   19  C6  UNL     1      15.124  -9.155   5.227  1.00  0.00     0.109 A 
HETATM   20  C7  UNL     1      14.784  -8.232   6.232  1.00  0.00     0.080 A 
HETATM   21  C8  UNL     1      15.500  -7.042   6.357  1.00  0.00     0.120 A 
BRANCH  18  22
HETATM   22  C5  UNL     1      16.585  -9.698   3.342  1.00  0.00     0.237 C 
HETATM   23  O3  UNL     1      17.439  -9.253   2.494  1.00  0.00    -0.642 OA
HETATM   24  O4  UNL     1      16.141 -10.969   3.196  1.00  0.00    -0.642 OA
ENDBRANCH  18  22
BRANCH  19  25
HETATM   25  O5  UNL     1      14.400 -10.314   5.139  1.00  0.00    -0.358 OA
ATOM     26  H5  UNL     1      14.485 -11.069   5.710  1.00  0.00     0.217 HD
ENDBRANCH  19  25
BRANCH  21  27
HETATM   27  O6  UNL     1      15.107  -6.201   7.390  1.00  0.00    -0.357 OA
ATOM     28  H6  UNL     1      14.382  -5.591   7.316  1.00  0.00     0.218 HD
ENDBRANCH  21  27
ENDBRANCH  14  16
ENDBRANCH   1  14
BRANCH   1  29
HETATM   29  C9  UNL     1      18.976  -4.426   4.467  1.00  0.00     0.166 A 
HETATM   30  O7  UNL     1      19.318  -3.127   4.520  1.00  0.00    -0.302 OA
HETATM   31  C10 UNL     1      19.758  -2.439   3.496  1.00  0.00     0.122 A 
HETATM   32  C14 UNL     1      19.872  -3.133   2.251  1.00  0.00     0.152 A 
HETATM   33  C15 UNL     1      19.532  -4.450   2.198  1.00  0.00     0.243 A 
HETATM   34  O12 UNL     1      19.625  -5.067   1.071  1.00  0.00    -0.282 OA
HETATM   35  C16 UNL     1      19.089  -5.114   3.297  1.00  0.00     0.158 A 
BRANCH  31  36
HETATM   36  C11 UNL     1      20.150  -1.043   3.401  1.00  0.00     0.209 C 
BRANCH  36  37
HETATM   37  O8  UNL     1      21.301  -0.953   2.530  1.00  0.00    -0.386 OA
ATOM     38  H8  UNL     1      21.223  -0.159   2.015  1.00  0.00     0.210 HD
ENDBRANCH  36  37
BRANCH  36  39
HETATM   39  C12 UNL     1      19.165  -0.034   2.933  1.00  0.00     0.177 C 
BRANCH  39  40
HETATM   40  O9  UNL     1      18.815   0.019   1.646  1.00  0.00    -0.390 OA
ATOM     41  H9  UNL     1      18.459  -0.750   1.215  1.00  0.00     0.210 HD
ENDBRANCH  39  40
BRANCH  39  42
HETATM   42  C13 UNL     1      19.548   1.341   3.480  1.00  0.00     0.198 C 
BRANCH  42  43
HETATM   43  O10 UNL     1      19.662   1.366   4.873  1.00  0.00    -0.398 OA
ATOM     44  H10 UNL     1      20.532   1.601   5.173  1.00  0.00     0.209 HD
ENDBRANCH  42  43
ENDBRANCH  39  42
ENDBRANCH  36  39
ENDBRANCH  31  36
BRANCH  32  45
HETATM   45  O11 UNL     1      20.317  -2.497   1.107  1.00  0.00    -0.355 OA
ATOM     46  H11 UNL     1      21.217  -2.575   0.815  1.00  0.00     0.218 HD
ENDBRANCH  32  45
BRANCH  35  47
HETATM   47  O13 UNL     1      18.781  -6.475   3.157  1.00  0.00    -0.355 OA
ATOM     48  H13 UNL     1      19.423  -7.173   3.217  1.00  0.00     0.218 HD
ENDBRANCH  35  47
ENDBRANCH   1  29
TORSDOF 17
ENDMDL
MODEL 3
REMARK VINA RESULT: -8.883039158      1.565      7.547
REMARK  17 active torsions:
REMARK  status: ('A' for Active; 'I' for Inactive)
REMARK    1  A    between atoms: N1_1  and  N2_4 
REMARK       I    between atoms: C1_6  and  N4_8 
REMARK    2  A    between atoms: N5_10  and  O1_12 
REMARK    3  A    between atoms: O1_12  and  C2_13 
REMARK    4  A    between atoms: C2_13  and  N6_14 
REMARK    5  A    between atoms: C2_13  and  C9_29 
REMARK    6  A    between atoms: N6_14  and  C3_16 
REMARK    7  A    between atoms: C4_18  and  C5_19 
REMARK    8  A    between atoms: C6_22  and  O5_23 
REMARK    9  A    between atoms: C8_26  and  O6_27 
REMARK   10  A    between atoms: C10_31  and  C11_32 
REMARK   11  A    between atoms: C11_32  and  O8_33 
REMARK   12  A    between atoms: C11_32  and  C12_35 
REMARK   13  A    between atoms: C12_35  and  O9_36 
REMARK   14  A    between atoms: C12_35  and  C13_38 
REMARK   15  A    between atoms: C13_38  and  O10_39 
REMARK   16  A    between atoms: C14_41  and  O11_42 
REMARK   17  A    between atoms: C16_46  and  O13_47 
ROOT
HETATM    1  C2  UNL     1      18.790  -4.083   4.457  1.00  0.00     0.211 C 
ENDROOT
BRANCH   1   2
HETATM    2  O1  UNL     1      19.458  -3.882   5.650  1.00  0.00    -0.201 OA
BRANCH   2   3
HETATM    3  N5  UNL     1      19.458  -4.561   6.813  1.00  0.00    -0.197 N 
HETATM    4  N4  UNL     1      20.107  -4.288   7.871  1.00  0.00    -0.252 N 
HETATM    5  C1  UNL     1      20.090  -5.008   9.058  1.00  0.00     0.223 C 
ATOM      6  H4  UNL     1      20.700  -3.458   7.846  1.00  0.00     0.191 HD
HETATM    7  N2  UNL     1      21.228  -5.375   9.620  1.00  0.00    -0.279 N 
HETATM    8  N3  UNL     1      18.928  -5.389   9.804  1.00  0.00    -0.061 NA
ATOM      9  H2  UNL     1      22.096  -5.140   9.140  1.00  0.00     0.189 HD
ATOM     10  H5  UNL     1      18.866  -5.392   6.848  1.00  0.00     0.216 HD
BRANCH   7  11
HETATM   11  N1  UNL     1      21.315  -6.059  10.821  1.00  0.00    -0.343 N 
ATOM     12  H12 UNL     1      20.679  -6.845  10.951  1.00  0.00     0.176 HD
ATOM     13  H11 UNL     1      21.969  -5.822  11.567  1.00  0.00     0.176 HD
ENDBRANCH   7  11
ENDBRANCH   2   3
ENDBRANCH   1   2
BRANCH   1  14
HETATM   14  N6  UNL     1      18.426  -5.387   4.146  1.00  0.00    -0.311 N 
ATOM     15  H6  UNL     1      19.013  -5.650   3.354  1.00  0.00     0.170 HD
BRANCH  14  16
HETATM   16  C3  UNL     1      17.741  -6.355   4.375  1.00  0.00     0.184 A 
HETATM   17  O2  UNL     1      16.812  -6.318   5.297  1.00  0.00    -0.281 OA
HETATM   18  C4  UNL     1      16.002  -7.277   5.652  1.00  0.00     0.187 A 
HETATM   19  C6  UNL     1      16.060  -8.512   5.040  1.00  0.00     0.109 A 
HETATM   20  C7  UNL     1      17.034  -8.653   4.034  1.00  0.00     0.080 A 
HETATM   21  C8  UNL     1      17.860  -7.577   3.709  1.00  0.00     0.120 A 
BRANCH  18  22
HETATM   22  C5  UNL     1      15.018  -7.054   6.703  1.00  0.00     0.237 C 
HETATM   23  O3  UNL     1      15.261  -6.113   7.542  1.00  0.00    -0.642 OA
HETATM   24  O4  UNL     1      13.869  -7.756   6.846  1.00  0.00    -0.642 OA
ENDBRANCH  18  22
BRANCH  19  25
HETATM   25  O5  UNL     1      15.266  -9.589   5.328  1.00  0.00    -0.358 OA
ATOM     26  H5  UNL     1      14.318  -9.580   5.395  1.00  0.00     0.217 HD
ENDBRANCH  19  25
BRANCH  21  27
HETATM   27  O6  UNL     1      18.779  -7.802   2.692  1.00  0.00    -0.357 OA
ATOM     28  H6  UNL     1      19.304  -8.592   2.630  1.00  0.00     0.218 HD
ENDBRANCH  21  27
ENDBRANCH  14  16
ENDBRANCH   1  14
BRANCH   1  29
HETATM   29  C9  UNL     1      19.202  -3.247   3.257  1.00  0.00     0.166 A 
HETATM   30  O7  UNL     1      19.106  -1.907   3.310  1.00  0.00    -0.302 OA
HETATM   31  C10 UNL     1      19.411  -1.108   2.319  1.00  0.00     0.122 A 
HETATM   32  C14 UNL     1      19.872  -1.720   1.111  1.00  0.00     0.152 A 
HETATM   33  C15 UNL     1      19.976  -3.076   1.060  1.00  0.00     0.243 A 
HETATM   34  O12 UNL     1      20.381  -3.623  -0.035  1.00  0.00    -0.282 OA
HETATM   35  C16 UNL     1      19.652  -3.855   2.124  1.00  0.00     0.158 A 
BRANCH  31  36
HETATM   36  C11 UNL     1      19.346   0.342   2.226  1.00  0.00     0.209 C 
BRANCH  36  37
HETATM   37  O8  UNL     1      17.956   0.729   2.148  1.00  0.00    -0.386 OA
ATOM     38  H8  UNL     1      17.423  -0.036   2.330  1.00  0.00     0.210 HD
ENDBRANCH  36  37
BRANCH  36  39
HETATM   39  C12 UNL     1      19.976   1.174   3.283  1.00  0.00     0.177 C 
BRANCH  39  40
HETATM   40  O9  UNL     1      19.647   0.997   4.564  1.00  0.00    -0.390 OA
ATOM     41  H9  UNL     1      19.342   1.730   5.087  1.00  0.00     0.210 HD
ENDBRANCH  39  40
BRANCH  39  42
HETATM   42  C13 UNL     1      19.916   2.645   2.874  1.00  0.00     0.198 C 
BRANCH  42  43
HETATM   43  O10 UNL     1      20.981   3.032   2.055  1.00  0.00    -0.398 OA
ATOM     44  H10 UNL     1      20.728   3.652   1.381  1.00  0.00     0.209 HD
ENDBRANCH  42  43
ENDBRANCH  39  42
ENDBRANCH  36  39
ENDBRANCH  31  36
BRANCH  32  45
HETATM   45  O11 UNL     1      20.211  -0.967   0.003  1.00  0.00    -0.355 OA
ATOM     46  H11 UNL     1      20.352  -1.368  -0.846  1.00  0.00     0.218 HD
ENDBRANCH  32  45
BRANCH  35  47
HETATM   47  O13 UNL     1      19.810  -5.242   1.991  1.00  0.00    -0.355 OA
ATOM     48  H13 UNL     1      20.292  -5.655   1.284  1.00  0.00     0.218 HD
ENDBRANCH  35  47
ENDBRANCH   1  29
TORSDOF 17
ENDMDL
MODEL 4
REMARK VINA RESULT: -8.753234332      1.605      6.708
REMARK  17 active torsions:
REMARK  status: ('A' for Active; 'I' for Inactive)
REMARK    1  A    between atoms: N1_1  and  N2_4 
REMARK       I    between atoms: C1_6  and  N4_8 
REMARK    2  A    between atoms: N5_10  and  O1_12 
REMARK    3  A    between atoms: O1_12  and  C2_13 
REMARK    4  A    between atoms: C2_13  and  N6_14 
REMARK    5  A    between atoms: C2_13  and  C9_29 
REMARK    6  A    between atoms: N6_14  and  C3_16 
REMARK    7  A    between atoms: C4_18  and  C5_19 
REMARK    8  A    between atoms: C6_22  and  O5_23 
REMARK    9  A    between atoms: C8_26  and  O6_27 
REMARK   10  A    between atoms: C10_31  and  C11_32 
REMARK   11  A    between atoms: C11_32  and  O8_33 
REMARK   12  A    between atoms: C11_32  and  C12_35 
REMARK   13  A    between atoms: C12_35  and  O9_36 
REMARK   14  A    between atoms: C12_35  and  C13_38 
REMARK   15  A    between atoms: C13_38  and  O10_39 
REMARK   16  A    between atoms: C14_41  and  O11_42 
REMARK   17  A    between atoms: C16_46  and  O13_47 
ROOT
HETATM    1  C2  UNL     1      17.551  -5.529   6.711  1.00  0.00     0.211 C 
ENDROOT
BRANCH   1   2
HETATM    2  O1  UNL     1      18.304  -5.974   7.782  1.00  0.00    -0.201 OA
BRANCH   2   3
HETATM    3  N5  UNL     1      19.367  -5.449   8.420  1.00  0.00    -0.197 N 
HETATM    4  N4  UNL     1      20.178  -6.046   9.197  1.00  0.00    -0.252 N 
HETATM    5  C1  UNL     1      21.266  -5.480   9.845  1.00  0.00     0.223 C 
ATOM      6  H4  UNL     1      20.012  -7.039   9.359  1.00  0.00     0.191 HD
HETATM    7  N2  UNL     1      21.417  -5.649  11.147  1.00  0.00    -0.279 N 
HETATM    8  N3  UNL     1      22.320  -4.724   9.236  1.00  0.00    -0.061 NA
ATOM      9  H2  UNL     1      20.700  -6.175  11.646  1.00  0.00     0.189 HD
ATOM     10  H5  UNL     1      19.542  -4.457   8.262  1.00  0.00     0.216 HD
BRANCH   7  11
HETATM   11  N1  UNL     1      22.488  -5.159  11.875  1.00  0.00    -0.343 N 
ATOM     12  H12 UNL     1      23.420  -5.366  11.519  1.00  0.00     0.176 HD
ATOM     13  H11 UNL     1      22.394  -4.612  12.731  1.00  0.00     0.176 HD
ENDBRANCH   7  11
ENDBRANCH   2   3
ENDBRANCH   1   2
BRANCH   1  14
HETATM   14  N6  UNL     1      16.302  -6.109   6.530  1.00  0.00    -0.311 N 
ATOM     15  H6  UNL     1      15.629  -5.364   6.712  1.00  0.00     0.170 HD
BRANCH  14  16
HETATM   16  C3  UNL     1      15.641  -7.082   6.258  1.00  0.00     0.184 A 
HETATM   17  O2  UNL     1      16.049  -7.945   5.362  1.00  0.00    -0.281 OA
HETATM   18  C4  UNL     1      15.447  -9.032   4.967  1.00  0.00     0.187 A 
HETATM   19  C6  UNL     1      14.227  -9.396   5.501  1.00  0.00     0.109 A 
HETATM   20  C7  UNL     1      13.700  -8.526   6.474  1.00  0.00     0.080 A 
HETATM   21  C8  UNL     1      14.409  -7.384   6.846  1.00  0.00     0.120 A 
BRANCH  18  22
HETATM   22  C5  UNL     1      16.057  -9.882   3.954  1.00  0.00     0.237 C 
HETATM   23  O3  UNL     1      17.229  -9.555   3.544  1.00  0.00    -0.642 OA
HETATM   24  O4  UNL     1      15.484 -10.992   3.430  1.00  0.00    -0.642 OA
ENDBRANCH  18  22
BRANCH  19  25
HETATM   25  O5  UNL     1      13.504 -10.509   5.167  1.00  0.00    -0.358 OA
ATOM     26  H5  UNL     1      13.480 -11.324   5.653  1.00  0.00     0.217 HD
ENDBRANCH  19  25
BRANCH  21  27
HETATM   27  O6  UNL     1      13.821  -6.596   7.826  1.00  0.00    -0.357 OA
ATOM     28  H6  UNL     1      14.226  -6.424   8.668  1.00  0.00     0.218 HD
ENDBRANCH  21  27
ENDBRANCH  14  16
ENDBRANCH   1  14
BRANCH   1  29
HETATM   29  C9  UNL     1      18.276  -5.193   5.418  1.00  0.00     0.166 A 
HETATM   30  O7  UNL     1      18.414  -3.910   5.042  1.00  0.00    -0.302 OA
HETATM   31  C10 UNL     1      18.998  -3.526   3.935  1.00  0.00     0.122 A 
HETATM   32  C14 UNL     1      19.511  -4.554   3.083  1.00  0.00     0.152 A 
HETATM   33  C15 UNL     1      19.377  -5.853   3.467  1.00  0.00     0.243 A 
HETATM   34  O12 UNL     1      19.831  -6.776   2.690  1.00  0.00    -0.282 OA
HETATM   35  C16 UNL     1      18.769  -6.191   4.633  1.00  0.00     0.158 A 
BRANCH  31  36
HETATM   36  C11 UNL     1      19.208  -2.192   3.397  1.00  0.00     0.209 C 
BRANCH  36  37
HETATM   37  O8  UNL     1      20.630  -1.980   3.252  1.00  0.00    -0.386 OA
ATOM     38  H8  UNL     1      20.803  -1.721   2.354  1.00  0.00     0.210 HD
ENDBRANCH  36  37
BRANCH  36  39
HETATM   39  C12 UNL     1      18.573  -1.811   2.109  1.00  0.00     0.177 C 
BRANCH  39  40
HETATM   40  O9  UNL     1      17.963  -2.733   1.361  1.00  0.00    -0.390 OA
ATOM     41  H9  UNL     1      17.693  -2.528   0.473  1.00  0.00     0.210 HD
ENDBRANCH  39  40
BRANCH  39  42
HETATM   42  C13 UNL     1      19.549  -0.964   1.293  1.00  0.00     0.198 C 
BRANCH  42  43
HETATM   43  O10 UNL     1      20.371  -1.725   0.457  1.00  0.00    -0.398 OA
ATOM     44  H10 UNL     1      21.297  -1.612   0.641  1.00  0.00     0.209 HD
ENDBRANCH  42  43
ENDBRANCH  39  42
ENDBRANCH  36  39
ENDBRANCH  31  36
BRANCH  32  45
HETATM   45  O11 UNL     1      20.137  -4.256   1.887  1.00  0.00    -0.355 OA
ATOM     46  H11 UNL     1      20.303  -3.359   1.624  1.00  0.00     0.218 HD
ENDBRANCH  32  45
BRANCH  35  47
HETATM   47  O13 UNL     1      18.694  -7.553   4.960  1.00  0.00    -0.355 OA
ATOM     48  H13 UNL     1      19.452  -8.109   5.092  1.00  0.00     0.218 HD
ENDBRANCH  35  47
ENDBRANCH   1  29
TORSDOF 17
ENDMDL
MODEL 5
REMARK VINA RESULT: -8.699246609      3.602      6.742
REMARK  17 active torsions:
REMARK  status: ('A' for Active; 'I' for Inactive)
REMARK    1  A    between atoms: N1_1  and  N2_4 
REMARK       I    between atoms: C1_6  and  N4_8 
REMARK    2  A    between atoms: N5_10  and  O1_12 
REMARK    3  A    between atoms: O1_12  and  C2_13 
REMARK    4  A    between atoms: C2_13  and  N6_14 
REMARK    5  A    between atoms: C2_13  and  C9_29 
REMARK    6  A    between atoms: N6_14  and  C3_16 
REMARK    7  A    between atoms: C4_18  and  C5_19 
REMARK    8  A    between atoms: C6_22  and  O5_23 
REMARK    9  A    between atoms: C8_26  and  O6_27 
REMARK   10  A    between atoms: C10_31  and  C11_32 
REMARK   11  A    between atoms: C11_32  and  O8_33 
REMARK   12  A    between atoms: C11_32  and  C12_35 
REMARK   13  A    between atoms: C12_35  and  O9_36 
REMARK   14  A    between atoms: C12_35  and  C13_38 
REMARK   15  A    between atoms: C13_38  and  O10_39 
REMARK   16  A    between atoms: C14_41  and  O11_42 
REMARK   17  A    between atoms: C16_46  and  O13_47 
ROOT
HETATM    1  C2  UNL     1      16.946  -9.847   2.708  1.00  0.00     0.211 C 
ENDROOT
BRANCH   1   2
HETATM    2  O1  UNL     1      17.968  -8.932   2.536  1.00  0.00    -0.201 OA
BRANCH   2   3
HETATM    3  N5  UNL     1      18.012  -7.592   2.656  1.00  0.00    -0.197 N 
HETATM    4  N4  UNL     1      18.858  -6.898   3.304  1.00  0.00    -0.252 N 
HETATM    5  C1  UNL     1      18.879  -5.515   3.414  1.00  0.00     0.223 C 
ATOM      6  H4  UNL     1      19.595  -7.409   3.791  1.00  0.00     0.191 HD
HETATM    7  N2  UNL     1      18.963  -4.952   4.606  1.00  0.00    -0.279 N 
HETATM    8  N3  UNL     1      18.856  -4.577   2.332  1.00  0.00    -0.061 NA
ATOM      9  H2  UNL     1      18.979  -5.562   5.422  1.00  0.00     0.189 HD
ATOM     10  H5  UNL     1      17.280  -7.073   2.170  1.00  0.00     0.216 HD
BRANCH   7  11
HETATM   11  N1  UNL     1      19.031  -3.585   4.815  1.00  0.00    -0.343 N 
ATOM     12  H12 UNL     1      18.804  -2.985   4.022  1.00  0.00     0.176 HD
ATOM     13  H11 UNL     1      19.290  -3.155   5.703  1.00  0.00     0.176 HD
ENDBRANCH   7  11
ENDBRANCH   2   3
ENDBRANCH   1   2
BRANCH   1  14
HETATM   14  N6  UNL     1      16.209  -9.760   3.882  1.00  0.00    -0.311 N 
ATOM     15  H6  UNL     1      15.996 -10.723   4.141  1.00  0.00     0.170 HD
BRANCH  14  16
HETATM   16  C3  UNL     1      15.703  -9.076   4.739  1.00  0.00     0.184 A 
HETATM   17  O2  UNL     1      16.301  -7.999   5.182  1.00  0.00    -0.281 OA
HETATM   18  C4  UNL     1      15.879  -7.171   6.097  1.00  0.00     0.187 A 
HETATM   19  C6  UNL     1      14.670  -7.375   6.730  1.00  0.00     0.109 A 
HETATM   20  C7  UNL     1      13.951  -8.515   6.325  1.00  0.00     0.080 A 
HETATM   21  C8  UNL     1      14.469  -9.350   5.335  1.00  0.00     0.120 A 
BRANCH  18  22
HETATM   22  C5  UNL     1      16.682  -6.011   6.462  1.00  0.00     0.237 C 
HETATM   23  O3  UNL     1      16.331  -4.878   5.971  1.00  0.00    -0.642 OA
HETATM   24  O4  UNL     1      17.755  -6.044   7.287  1.00  0.00    -0.642 OA
ENDBRANCH  18  22
BRANCH  19  25
HETATM   25  O5  UNL     1      14.128  -6.578   7.701  1.00  0.00    -0.358 OA
ATOM     26  H5  UNL     1      13.695  -6.879   8.492  1.00  0.00     0.217 HD
ENDBRANCH  19  25
BRANCH  21  27
HETATM   27  O6  UNL     1      13.681 -10.440   4.986  1.00  0.00    -0.357 OA
ATOM     28  H6  UNL     1      12.776 -10.536   5.260  1.00  0.00     0.218 HD
ENDBRANCH  21  27
ENDBRANCH  14  16
ENDBRANCH   1  14
BRANCH   1  29
HETATM   29  C9  UNL     1      17.168 -11.268   2.215  1.00  0.00     0.166 A 
HETATM   30  O7  UNL     1      18.272 -11.566   1.509  1.00  0.00    -0.302 OA
HETATM   31  C10 UNL     1      18.535 -12.752   1.020  1.00  0.00     0.122 A 
HETATM   32  C14 UNL     1      17.571 -13.781   1.262  1.00  0.00     0.152 A 
HETATM   33  C15 UNL     1      16.456 -13.480   1.983  1.00  0.00     0.243 A 
HETATM   34  O12 UNL     1      15.585 -14.408   2.188  1.00  0.00    -0.282 OA
HETATM   35  C16 UNL     1      16.241 -12.232   2.472  1.00  0.00     0.158 A 
BRANCH  31  36
HETATM   36  C11 UNL     1      19.668 -13.216   0.236  1.00  0.00     0.209 C 
BRANCH  36  37
HETATM   37  O8  UNL     1      19.218 -13.445  -1.118  1.00  0.00    -0.386 OA
ATOM     38  H8  UNL     1      19.936 -13.827  -1.610  1.00  0.00     0.210 HD
ENDBRANCH  36  37
BRANCH  36  39
HETATM   39  C12 UNL     1      20.896 -12.384   0.157  1.00  0.00     0.177 C 
BRANCH  39  40
HETATM   40  O9  UNL     1      21.340 -11.735   1.235  1.00  0.00    -0.390 OA
ATOM     41  H9  UNL     1      22.098 -11.165   1.174  1.00  0.00     0.210 HD
ENDBRANCH  39  40
BRANCH  39  42
HETATM   42  C13 UNL     1      20.813 -11.472  -1.067  1.00  0.00     0.198 C 
BRANCH  42  43
HETATM   43  O10 UNL     1      19.945 -10.391  -0.890  1.00  0.00    -0.398 OA
ATOM     44  H10 UNL     1      19.166 -10.445  -1.431  1.00  0.00     0.209 HD
ENDBRANCH  42  43
ENDBRANCH  39  42
ENDBRANCH  36  39
ENDBRANCH  31  36
BRANCH  32  45
HETATM   45  O11 UNL     1      17.748 -15.065   0.783  1.00  0.00    -0.355 OA
ATOM     46  H11 UNL     1      18.198 -15.728   1.293  1.00  0.00     0.218 HD
ENDBRANCH  32  45
BRANCH  35  47
HETATM   47  O13 UNL     1      15.076 -12.016   3.222  1.00  0.00    -0.355 OA
ATOM     48  H13 UNL     1      14.237 -12.418   3.027  1.00  0.00     0.218 HD
ENDBRANCH  35  47
ENDBRANCH   1  29
TORSDOF 17
ENDMDL
