MODEL 1
REMARK VINA RESULT: -7.436590384      0.000      0.000
REMARK  10 active torsions:
REMARK  status: ('A' for Active; 'I' for Inactive)
REMARK    1  A    between atoms: C2_2  and  C3_3 
REMARK    2  A    between atoms: C3_3  and  C4_4 
REMARK    3  A    between atoms: C4_4  and  C5_5 
REMARK    4  A    between atoms: C5_5  and  C6_6 
REMARK    5  A    between atoms: C5_5  and  O7_39 
REMARK    6  A    between atoms: C7_7  and  C8_8 
REMARK    7  A    between atoms: C14_15  and  O2_16 
REMARK    8  A    between atoms: C17_20  and  O3_21 
REMARK    9  A    between atoms: C20_25  and  O4_26 
REMARK   10  A    between atoms: C25_32  and  O5_33 
ROOT
HETATM    1  C8  UNL     1      63.020  78.271  79.932  1.00  0.00    -0.018 C 
HETATM    2  C9  UNL     1      63.064  79.567  79.223  1.00  0.00     0.020 C 
HETATM    3  C10 UNL     1      61.690  77.469  79.522  1.00  0.00     0.031 C 
HETATM    4  C11 UNL     1      61.010  78.241  80.557  1.00  0.00     0.029 C 
HETATM    5  C12 UNL     1      60.228  79.293  79.977  1.00  0.00     0.024 C 
HETATM    6  C13 UNL     1      60.126  77.559  81.577  1.00  0.00     0.173 C 
HETATM    7  O1  UNL     1      59.655  76.514  81.340  1.00  0.00    -0.294 OA
HETATM    8  C14 UNL     1      60.045  78.452  82.764  1.00  0.00     0.153 C 
HETATM    9  C15 UNL     1      59.803  77.789  84.077  1.00  0.00     0.055 C 
HETATM   10  C16 UNL     1      59.400  76.321  83.984  1.00  0.00     0.016 C 
HETATM   11  C17 UNL     1      60.620  78.115  85.272  1.00  0.00     0.132 C 
HETATM   12  C18 UNL     1      61.959  77.544  85.439  1.00  0.00     0.046 C 
HETATM   13  C19 UNL     1      62.748  77.402  84.155  1.00  0.00     0.051 C 
HETATM   14  C20 UNL     1      63.039  78.758  83.700  1.00  0.00     0.099 C 
HETATM   15  C21 UNL     1      64.414  78.950  84.234  1.00  0.00    -0.011 C 
HETATM   16  C22 UNL     1      65.409  77.898  83.765  1.00  0.00     0.018 C 
HETATM   17  C23 UNL     1      65.017  80.288  83.949  1.00  0.00     0.018 C 
HETATM   18  C24 UNL     1      64.241  78.699  85.752  1.00  0.00     0.044 C 
HETATM   19  C25 UNL     1      62.944  78.256  86.302  1.00  0.00     0.125 C 
HETATM   20  C26 UNL     1      62.486  79.077  82.411  1.00  0.00     0.128 A 
HETATM   21  O6  UNL     1      61.832  80.239  82.053  1.00  0.00    -0.362 OA
HETATM   22  C27 UNL     1      61.048  79.511  82.795  1.00  0.00     0.203 A 
HETATM   23  C28 UNL     1      62.319  78.185  81.226  1.00  0.00     0.053 C 
ENDROOT
BRANCH   1  24
HETATM   24  C7  UNL     1      64.078  77.254  79.619  1.00  0.00    -0.018 C 
HETATM   25  C6  UNL     1      64.840  77.108  78.441  1.00  0.00     0.001 C 
BRANCH  25  26
HETATM   26  C5  UNL     1      64.504  76.675  77.077  1.00  0.00     0.143 C 
BRANCH  26  27
HETATM   27  C4  UNL     1      63.420  75.670  76.921  1.00  0.00     0.036 C 
BRANCH  27  28
HETATM   28  C3  UNL     1      62.051  76.040  76.533  1.00  0.00     0.002 C 
BRANCH  28  29
HETATM   29  C2  UNL     1      61.885  77.534  76.256  1.00  0.00    -0.004 C 
HETATM   30  C1  UNL     1      60.401  77.866  76.112  1.00  0.00     0.005 C 
ENDBRANCH  28  29
ENDBRANCH  27  28
ENDBRANCH  26  27
BRANCH  26  31
HETATM   31  O7  UNL     1      65.697  76.179  76.477  1.00  0.00    -0.387 OA
HETATM   32  C29 UNL     1      65.806  74.816  76.544  1.00  0.00     0.202 C 
ENDBRANCH  26  31
ENDBRANCH  25  26
ENDBRANCH   1  24
BRANCH  14  33
HETATM   33  O4  UNL     1      62.581  79.864  84.505  1.00  0.00    -0.386 OA
ATOM     34  H4  UNL     1      63.227  80.381  84.972  1.00  0.00     0.210 HD
ENDBRANCH  14  33
BRANCH   8  35
HETATM   35  O2  UNL     1      58.887  79.228  82.364  1.00  0.00    -0.379 OA
ATOM     36  H2  UNL     1      59.181  80.079  82.666  1.00  0.00     0.211 HD
ENDBRANCH   8  35
BRANCH  11  37
HETATM   37  O3  UNL     1      59.876  77.561  86.374  1.00  0.00    -0.395 OA
ATOM     38  H3  UNL     1      60.031  76.626  86.315  1.00  0.00     0.210 HD
ENDBRANCH  11  37
BRANCH  19  39
HETATM   39  O5  UNL     1      63.270  77.341  87.348  1.00  0.00    -0.395 OA
ATOM     40  H5  UNL     1      62.996  77.765  88.153  1.00  0.00     0.210 HD
ENDBRANCH  19  39
TORSDOF 10
ENDMDL
MODEL 2
REMARK VINA RESULT: -7.369759426      0.928      1.239
REMARK  10 active torsions:
REMARK  status: ('A' for Active; 'I' for Inactive)
REMARK    1  A    between atoms: C2_2  and  C3_3 
REMARK    2  A    between atoms: C3_3  and  C4_4 
REMARK    3  A    between atoms: C4_4  and  C5_5 
REMARK    4  A    between atoms: C5_5  and  C6_6 
REMARK    5  A    between atoms: C5_5  and  O7_39 
REMARK    6  A    between atoms: C7_7  and  C8_8 
REMARK    7  A    between atoms: C14_15  and  O2_16 
REMARK    8  A    between atoms: C17_20  and  O3_21 
REMARK    9  A    between atoms: C20_25  and  O4_26 
REMARK   10  A    between atoms: C25_32  and  O5_33 
ROOT
HETATM    1  C8  UNL     1      63.038  78.110  79.633  1.00  0.00    -0.018 C 
HETATM    2  C9  UNL     1      63.068  79.387  78.891  1.00  0.00     0.020 C 
HETATM    3  C10 UNL     1      61.747  77.258  79.203  1.00  0.00     0.031 C 
HETATM    4  C11 UNL     1      61.011  78.036  80.194  1.00  0.00     0.029 C 
HETATM    5  C12 UNL     1      60.218  79.048  79.560  1.00  0.00     0.024 C 
HETATM    6  C13 UNL     1      60.114  77.355  81.204  1.00  0.00     0.173 C 
HETATM    7  O1  UNL     1      59.682  76.290  80.981  1.00  0.00    -0.294 OA
HETATM    8  C14 UNL     1      59.968  78.277  82.362  1.00  0.00     0.153 C 
HETATM    9  C15 UNL     1      59.702  77.642  83.685  1.00  0.00     0.055 C 
HETATM   10  C16 UNL     1      59.345  76.161  83.619  1.00  0.00     0.016 C 
HETATM   11  C17 UNL     1      60.470  78.025  84.895  1.00  0.00     0.132 C 
HETATM   12  C18 UNL     1      61.819  77.499  85.121  1.00  0.00     0.046 C 
HETATM   13  C19 UNL     1      62.653  77.347  83.868  1.00  0.00     0.051 C 
HETATM   14  C20 UNL     1      62.919  78.698  83.386  1.00  0.00     0.099 C 
HETATM   15  C21 UNL     1      64.269  78.945  83.958  1.00  0.00    -0.011 C 
HETATM   16  C22 UNL     1      65.309  77.912  83.550  1.00  0.00     0.018 C 
HETATM   17  C23 UNL     1      64.842  80.294  83.655  1.00  0.00     0.018 C 
HETATM   18  C24 UNL     1      64.054  78.730  85.476  1.00  0.00     0.044 C 
HETATM   19  C25 UNL     1      62.752  78.263  85.996  1.00  0.00     0.125 C 
HETATM   20  C26 UNL     1      62.400  78.965  82.070  1.00  0.00     0.128 A 
HETATM   21  O6  UNL     1      61.724  80.097  81.660  1.00  0.00    -0.362 OA
HETATM   22  C27 UNL     1      60.938  79.366  82.396  1.00  0.00     0.203 A 
HETATM   23  C28 UNL     1      62.298  78.038  80.906  1.00  0.00     0.053 C 
ENDROOT
BRANCH   1  24
HETATM   24  C7  UNL     1      64.136  77.118  79.383  1.00  0.00    -0.018 C 
HETATM   25  C6  UNL     1      64.860  76.884  78.195  1.00  0.00     0.001 C 
BRANCH  25  26
HETATM   26  C5  UNL     1      64.495  76.293  76.899  1.00  0.00     0.143 C 
BRANCH  26  27
HETATM   27  C4  UNL     1      63.681  75.048  76.914  1.00  0.00     0.036 C 
BRANCH  27  28
HETATM   28  C3  UNL     1      62.825  74.652  75.787  1.00  0.00     0.002 C 
BRANCH  28  29
HETATM   29  C2  UNL     1      63.587  73.939  74.671  1.00  0.00    -0.004 C 
HETATM   30  C1  UNL     1      62.734  73.910  73.405  1.00  0.00     0.005 C 
ENDBRANCH  28  29
ENDBRANCH  27  28
ENDBRANCH  26  27
BRANCH  26  31
HETATM   31  O7  UNL     1      65.701  76.058  76.178  1.00  0.00    -0.387 OA
HETATM   32  C29 UNL     1      66.412  74.989  76.653  1.00  0.00     0.202 C 
ENDBRANCH  26  31
ENDBRANCH  25  26
ENDBRANCH   1  24
BRANCH  14  33
HETATM   33  O4  UNL     1      62.402  79.811  84.144  1.00  0.00    -0.386 OA
ATOM     34  H4  UNL     1      62.991  80.270  84.731  1.00  0.00     0.210 HD
ENDBRANCH  14  33
BRANCH   8  35
HETATM   35  O2  UNL     1      58.801  79.006  81.904  1.00  0.00    -0.379 OA
ATOM     36  H2  UNL     1      58.862  78.795  80.979  1.00  0.00     0.211 HD
ENDBRANCH   8  35
BRANCH  11  37
HETATM   37  O3  UNL     1      59.706  77.478  85.988  1.00  0.00    -0.395 OA
ATOM     38  H3  UNL     1      60.062  77.904  86.759  1.00  0.00     0.210 HD
ENDBRANCH  11  37
BRANCH  19  39
HETATM   39  O5  UNL     1      63.071  77.387  87.076  1.00  0.00    -0.395 OA
ATOM     40  H5  UNL     1      62.299  77.374  87.630  1.00  0.00     0.210 HD
ENDBRANCH  19  39
TORSDOF 10
ENDMDL
MODEL 3
REMARK VINA RESULT: -7.110656662      1.858      2.879
REMARK  10 active torsions:
REMARK  status: ('A' for Active; 'I' for Inactive)
REMARK    1  A    between atoms: C2_2  and  C3_3 
REMARK    2  A    between atoms: C3_3  and  C4_4 
REMARK    3  A    between atoms: C4_4  and  C5_5 
REMARK    4  A    between atoms: C5_5  and  C6_6 
REMARK    5  A    between atoms: C5_5  and  O7_39 
REMARK    6  A    between atoms: C7_7  and  C8_8 
REMARK    7  A    between atoms: C14_15  and  O2_16 
REMARK    8  A    between atoms: C17_20  and  O3_21 
REMARK    9  A    between atoms: C20_25  and  O4_26 
REMARK   10  A    between atoms: C25_32  and  O5_33 
ROOT
HETATM    1  C8  UNL     1      63.843  78.649  80.323  1.00  0.00    -0.018 C 
HETATM    2  C9  UNL     1      63.261  79.754  79.534  1.00  0.00     0.020 C 
HETATM    3  C10 UNL     1      62.684  77.639  80.786  1.00  0.00     0.031 C 
HETATM    4  C11 UNL     1      62.468  78.541  81.912  1.00  0.00     0.029 C 
HETATM    5  C12 UNL     1      61.303  79.350  81.698  1.00  0.00     0.024 C 
HETATM    6  C13 UNL     1      62.370  78.011  83.324  1.00  0.00     0.173 C 
HETATM    7  O1  UNL     1      62.071  76.894  83.512  1.00  0.00    -0.294 OA
HETATM    8  C14 UNL     1      62.708  79.128  84.245  1.00  0.00     0.153 C 
HETATM    9  C15 UNL     1      63.294  78.749  85.562  1.00  0.00     0.055 C 
HETATM   10  C16 UNL     1      63.210  77.262  85.891  1.00  0.00     0.016 C 
HETATM   11  C17 UNL     1      64.510  79.416  86.090  1.00  0.00     0.132 C 
HETATM   12  C18 UNL     1      65.839  79.043  85.599  1.00  0.00     0.046 C 
HETATM   13  C19 UNL     1      65.894  78.707  84.125  1.00  0.00     0.051 C 
HETATM   14  C20 UNL     1      65.633  79.953  83.410  1.00  0.00     0.099 C 
HETATM   15  C21 UNL     1      67.018  80.404  83.108  1.00  0.00    -0.011 C 
HETATM   16  C22 UNL     1      67.840  79.387  82.328  1.00  0.00     0.018 C 
HETATM   17  C23 UNL     1      67.108  81.704  82.373  1.00  0.00     0.018 C 
HETATM   18  C24 UNL     1      67.679  80.476  84.506  1.00  0.00     0.044 C 
HETATM   19  C25 UNL     1      66.951  80.029  85.711  1.00  0.00     0.125 C 
HETATM   20  C26 UNL     1      64.461  79.919  82.578  1.00  0.00     0.128 A 
HETATM   21  O6  UNL     1      63.492  80.896  82.470  1.00  0.00    -0.362 OA
HETATM   22  C27 UNL     1      63.350  80.270  83.602  1.00  0.00     0.203 A 
HETATM   23  C28 UNL     1      63.915  78.776  81.790  1.00  0.00     0.053 C 
ENDROOT
BRANCH   1  24
HETATM   24  C7  UNL     1      64.789  77.707  79.636  1.00  0.00    -0.018 C 
HETATM   25  C6  UNL     1      65.108  77.622  78.265  1.00  0.00     0.001 C 
BRANCH  25  26
HETATM   26  C5  UNL     1      64.351  77.177  77.085  1.00  0.00     0.143 C 
BRANCH  26  27
HETATM   27  C4  UNL     1      62.939  76.758  77.292  1.00  0.00     0.036 C 
BRANCH  27  28
HETATM   28  C3  UNL     1      61.801  77.576  76.848  1.00  0.00     0.002 C 
BRANCH  28  29
HETATM   29  C2  UNL     1      60.646  77.597  77.848  1.00  0.00    -0.004 C 
HETATM   30  C1  UNL     1      59.354  77.981  77.129  1.00  0.00     0.005 C 
ENDBRANCH  28  29
ENDBRANCH  27  28
ENDBRANCH  26  27
BRANCH  26  31
HETATM   31  O7  UNL     1      65.077  76.109  76.485  1.00  0.00    -0.387 OA
HETATM   32  C29 UNL     1      64.666  74.874  76.908  1.00  0.00     0.202 C 
ENDBRANCH  26  31
ENDBRANCH  25  26
ENDBRANCH   1  24
BRANCH  14  33
HETATM   33  O4  UNL     1      65.420  81.154  84.181  1.00  0.00    -0.386 OA
ATOM     34  H4  UNL     1      66.017  81.882  84.058  1.00  0.00     0.210 HD
ENDBRANCH  14  33
BRANCH   8  35
HETATM   35  O2  UNL     1      61.373  79.669  84.417  1.00  0.00    -0.379 OA
ATOM     36  H2  UNL     1      61.483  80.030  85.290  1.00  0.00     0.211 HD
ENDBRANCH   8  35
BRANCH  11  37
HETATM   37  O3  UNL     1      64.544  79.042  87.481  1.00  0.00    -0.395 OA
ATOM     38  H3  UNL     1      64.400  78.103  87.475  1.00  0.00     0.210 HD
ENDBRANCH  11  37
BRANCH  19  39
HETATM   39  O5  UNL     1      67.934  79.408  86.536  1.00  0.00    -0.395 OA
ATOM     40  H5  UNL     1      68.731  79.910  86.407  1.00  0.00     0.210 HD
ENDBRANCH  19  39
TORSDOF 10
ENDMDL
MODEL 4
REMARK VINA RESULT: -7.016046238      0.865      1.867
REMARK  10 active torsions:
REMARK  status: ('A' for Active; 'I' for Inactive)
REMARK    1  A    between atoms: C2_2  and  C3_3 
REMARK    2  A    between atoms: C3_3  and  C4_4 
REMARK    3  A    between atoms: C4_4  and  C5_5 
REMARK    4  A    between atoms: C5_5  and  C6_6 
REMARK    5  A    between atoms: C5_5  and  O7_39 
REMARK    6  A    between atoms: C7_7  and  C8_8 
REMARK    7  A    between atoms: C14_15  and  O2_16 
REMARK    8  A    between atoms: C17_20  and  O3_21 
REMARK    9  A    between atoms: C20_25  and  O4_26 
REMARK   10  A    between atoms: C25_32  and  O5_33 
ROOT
HETATM    1  C8  UNL     1      62.888  78.496  80.263  1.00  0.00    -0.018 C 
HETATM    2  C9  UNL     1      62.860  79.786  79.544  1.00  0.00     0.020 C 
HETATM    3  C10 UNL     1      61.668  77.573  79.776  1.00  0.00     0.031 C 
HETATM    4  C11 UNL     1      60.854  78.283  80.757  1.00  0.00     0.029 C 
HETATM    5  C12 UNL     1      60.018  79.256  80.116  1.00  0.00     0.024 C 
HETATM    6  C13 UNL     1      59.971  77.529  81.725  1.00  0.00     0.173 C 
HETATM    7  O1  UNL     1      59.614  76.443  81.470  1.00  0.00    -0.294 OA
HETATM    8  C14 UNL     1      59.731  78.416  82.894  1.00  0.00     0.153 C 
HETATM    9  C15 UNL     1      59.465  77.741  84.196  1.00  0.00     0.055 C 
HETATM   10  C16 UNL     1      59.205  76.242  84.094  1.00  0.00     0.016 C 
HETATM   11  C17 UNL     1      60.169  78.147  85.437  1.00  0.00     0.132 C 
HETATM   12  C18 UNL     1      61.541  77.703  85.697  1.00  0.00     0.046 C 
HETATM   13  C19 UNL     1      62.422  77.628  84.469  1.00  0.00     0.051 C 
HETATM   14  C20 UNL     1      62.616  79.002  84.019  1.00  0.00     0.099 C 
HETATM   15  C21 UNL     1      63.930  79.322  84.638  1.00  0.00    -0.011 C 
HETATM   16  C22 UNL     1      65.045  78.364  84.246  1.00  0.00     0.018 C 
HETATM   17  C23 UNL     1      64.425  80.709  84.377  1.00  0.00     0.018 C 
HETATM   18  C24 UNL     1      63.682  79.064  86.144  1.00  0.00     0.044 C 
HETATM   19  C25 UNL     1      62.397  78.507  86.614  1.00  0.00     0.125 C 
HETATM   20  C26 UNL     1      62.123  79.262  82.692  1.00  0.00     0.128 A 
HETATM   21  O6  UNL     1      61.389  80.356  82.280  1.00  0.00    -0.362 OA
HETATM   22  C27 UNL     1      60.629  79.563  82.978  1.00  0.00     0.203 A 
HETATM   23  C28 UNL     1      62.115  78.352  81.510  1.00  0.00     0.053 C 
ENDROOT
BRANCH   1  24
HETATM   24  C7  UNL     1      64.053  77.579  80.030  1.00  0.00    -0.018 C 
HETATM   25  C6  UNL     1      64.686  77.247  78.814  1.00  0.00     0.001 C 
BRANCH  25  26
HETATM   26  C5  UNL     1      64.266  76.450  77.650  1.00  0.00     0.143 C 
BRANCH  26  27
HETATM   27  C4  UNL     1      65.327  75.978  76.721  1.00  0.00     0.036 C 
BRANCH  27  28
HETATM   28  C3  UNL     1      65.625  74.552  76.525  1.00  0.00     0.002 C 
BRANCH  28  29
HETATM   29  C2  UNL     1      64.784  73.905  75.426  1.00  0.00    -0.004 C 
HETATM   30  C1  UNL     1      65.672  73.016  74.557  1.00  0.00     0.005 C 
ENDBRANCH  28  29
ENDBRANCH  27  28
ENDBRANCH  26  27
BRANCH  26  31
HETATM   31  O7  UNL     1      63.310  77.218  76.926  1.00  0.00    -0.387 OA
HETATM   32  C29 UNL     1      62.210  76.493  76.555  1.00  0.00     0.202 C 
ENDBRANCH  26  31
ENDBRANCH  25  26
ENDBRANCH   1  24
BRANCH  14  33
HETATM   33  O4  UNL     1      62.007  80.066  84.779  1.00  0.00    -0.386 OA
ATOM     34  H4  UNL     1      62.464  80.391  85.546  1.00  0.00     0.210 HD
ENDBRANCH  14  33
BRANCH   8  35
HETATM   35  O2  UNL     1      58.535  79.080  82.411  1.00  0.00    -0.379 OA
ATOM     36  H2  UNL     1      58.710  79.947  82.759  1.00  0.00     0.211 HD
ENDBRANCH   8  35
BRANCH  11  37
HETATM   37  O3  UNL     1      59.408  77.533  86.495  1.00  0.00    -0.395 OA
ATOM     38  H3  UNL     1      60.014  76.920  86.895  1.00  0.00     0.210 HD
ENDBRANCH  11  37
BRANCH  19  39
HETATM   39  O5  UNL     1      62.737  77.632  87.689  1.00  0.00    -0.395 OA
ATOM     40  H5  UNL     1      63.550  77.970  88.046  1.00  0.00     0.210 HD
ENDBRANCH  19  39
TORSDOF 10
ENDMDL
MODEL 5
REMARK VINA RESULT: -6.994794652      1.073      1.913
REMARK  10 active torsions:
REMARK  status: ('A' for Active; 'I' for Inactive)
REMARK    1  A    between atoms: C2_2  and  C3_3 
REMARK    2  A    between atoms: C3_3  and  C4_4 
REMARK    3  A    between atoms: C4_4  and  C5_5 
REMARK    4  A    between atoms: C5_5  and  C6_6 
REMARK    5  A    between atoms: C5_5  and  O7_39 
REMARK    6  A    between atoms: C7_7  and  C8_8 
REMARK    7  A    between atoms: C14_15  and  O2_16 
REMARK    8  A    between atoms: C17_20  and  O3_21 
REMARK    9  A    between atoms: C20_25  and  O4_26 
REMARK   10  A    between atoms: C25_32  and  O5_33 
ROOT
HETATM    1  C8  UNL     1      62.646  78.695  80.297  1.00  0.00    -0.018 C 
HETATM    2  C9  UNL     1      62.773  80.021  79.659  1.00  0.00     0.020 C 
HETATM    3  C10 UNL     1      61.174  78.105  80.045  1.00  0.00     0.031 C 
HETATM    4  C11 UNL     1      60.758  78.882  81.208  1.00  0.00     0.029 C 
HETATM    5  C12 UNL     1      60.058  80.066  80.805  1.00  0.00     0.024 C 
HETATM    6  C13 UNL     1      59.937  78.251  82.309  1.00  0.00     0.173 C 
HETATM    7  O1  UNL     1      59.296  77.296  82.090  1.00  0.00    -0.294 OA
HETATM    8  C14 UNL     1      60.146  79.059  83.540  1.00  0.00     0.153 C 
HETATM    9  C15 UNL     1      59.998  78.340  84.839  1.00  0.00     0.055 C 
HETATM   10  C16 UNL     1      59.385  76.949  84.729  1.00  0.00     0.016 C 
HETATM   11  C17 UNL     1      61.010  78.470  85.916  1.00  0.00     0.132 C 
HETATM   12  C18 UNL     1      62.266  77.718  85.855  1.00  0.00     0.046 C 
HETATM   13  C19 UNL     1      62.843  77.567  84.463  1.00  0.00     0.051 C 
HETATM   14  C20 UNL     1      63.254  78.903  84.043  1.00  0.00     0.099 C 
HETATM   15  C21 UNL     1      64.703  78.874  84.378  1.00  0.00    -0.011 C 
HETATM   16  C22 UNL     1      65.466  77.738  83.714  1.00  0.00     0.018 C 
HETATM   17  C23 UNL     1      65.441  80.140  84.078  1.00  0.00     0.018 C 
HETATM   18  C24 UNL     1      64.708  78.540  85.890  1.00  0.00     0.044 C 
HETATM   19  C25 UNL     1      63.450  78.232  86.600  1.00  0.00     0.125 C 
HETATM   20  C26 UNL     1      62.578  79.383  82.866  1.00  0.00     0.128 A 
HETATM   21  O6  UNL     1      62.049  80.643  82.670  1.00  0.00    -0.362 OA
HETATM   22  C27 UNL     1      61.282  79.972  83.480  1.00  0.00     0.203 A 
HETATM   23  C28 UNL     1      62.126  78.608  81.674  1.00  0.00     0.053 C 
ENDROOT
BRANCH   1  24
HETATM   24  C7  UNL     1      63.499  77.573  79.780  1.00  0.00    -0.018 C 
HETATM   25  C6  UNL     1      63.735  77.190  78.443  1.00  0.00     0.001 C 
BRANCH  25  26
HETATM   26  C5  UNL     1      62.890  76.566  77.414  1.00  0.00     0.143 C 
BRANCH  26  27
HETATM   27  C4  UNL     1      63.506  75.514  76.562  1.00  0.00     0.036 C 
BRANCH  27  28
HETATM   28  C3  UNL     1      64.733  74.803  76.951  1.00  0.00     0.002 C 
BRANCH  28  29
HETATM   29  C2  UNL     1      65.295  73.918  75.841  1.00  0.00    -0.004 C 
HETATM   30  C1  UNL     1      64.331  73.908  74.655  1.00  0.00     0.005 C 
ENDBRANCH  28  29
ENDBRANCH  27  28
ENDBRANCH  26  27
BRANCH  26  31
HETATM   31  O7  UNL     1      62.381  77.606  76.586  1.00  0.00    -0.387 OA
HETATM   32  C29 UNL     1      61.029  77.524  76.390  1.00  0.00     0.202 C 
ENDBRANCH  26  31
ENDBRANCH  25  26
ENDBRANCH   1  24
BRANCH  14  33
HETATM   33  O4  UNL     1      63.070  79.999  84.963  1.00  0.00    -0.386 OA
ATOM     34  H4  UNL     1      62.418  79.910  85.647  1.00  0.00     0.210 HD
ENDBRANCH  14  33
BRANCH   8  35
HETATM   35  O2  UNL     1      59.064  80.006  83.356  1.00  0.00    -0.379 OA
ATOM     36  H2  UNL     1      58.617  79.867  84.183  1.00  0.00     0.211 HD
ENDBRANCH   8  35
BRANCH  11  37
HETATM   37  O3  UNL     1      60.355  77.941  87.085  1.00  0.00    -0.395 OA
ATOM     38  H3  UNL     1      60.412  76.998  86.979  1.00  0.00     0.210 HD
ENDBRANCH  11  37
BRANCH  19  39
HETATM   39  O5  UNL     1      63.787  77.210  87.537  1.00  0.00    -0.395 OA
ATOM     40  H5  UNL     1      64.318  76.586  87.055  1.00  0.00     0.210 HD
ENDBRANCH  19  39
TORSDOF 10
ENDMDL
