MODEL 1
REMARK VINA RESULT: -8.725236113      0.000      0.000
REMARK  9 active torsions:
REMARK  status: ('A' for Active; 'I' for Inactive)
REMARK    1  A    between atoms: C1_2  and  C2_3 
REMARK       I    between atoms: C1_2  and  N2_18 
REMARK    2  A    between atoms: C2_3  and  N1_4 
REMARK    3  A    between atoms: C3_5  and  O2_6 
REMARK    4  A    between atoms: C6_10  and  O3_11 
REMARK    5  A    between atoms: N2_18  and  C12_20 
REMARK    6  A    between atoms: C12_20  and  C13_21 
REMARK    7  A    between atoms: C13_21  and  C14_22 
REMARK    8  A    between atoms: C14_22  and  C15_23 
REMARK    9  A    between atoms: N3_24  and  C16_26 
ROOT
HETATM    1  C12 UNL     1      14.257  37.299  76.754  1.00  0.00     0.123 C 
ENDROOT
BRANCH   1   2
HETATM    2  N2  UNL     1      14.611  38.638  77.137  1.00  0.00    -0.360 N 
HETATM    3  C1  UNL     1      14.711  39.083  78.478  1.00  0.00     0.235 C 
HETATM    4  O1  UNL     1      14.482  38.272  79.403  1.00  0.00    -0.272 OA
ATOM      5  H2  UNL     1      14.802  39.312  76.396  1.00  0.00     0.162 HD
BRANCH   3   6
HETATM    6  C2  UNL     1      15.076  40.468  78.844  1.00  0.00     0.236 C 
BRANCH   6   7
HETATM    7  N1  UNL     1      14.501  40.863  80.109  1.00  0.00    -0.299 N 
HETATM    8  C3  UNL     1      13.209  40.812  80.480  1.00  0.00     0.152 A 
HETATM    9  C4  UNL     1      13.112  41.279  81.772  1.00  0.00     0.012 A 
HETATM   10  C5  UNL     1      14.392  41.619  82.183  1.00  0.00     0.012 A 
HETATM   11  C10 UNL     1      12.224  41.577  82.925  1.00  0.00     0.047 C 
HETATM   12  C6  UNL     1      15.217  41.347  81.127  1.00  0.00     0.152 A 
HETATM   13  C7  UNL     1      14.274  42.120  83.575  1.00  0.00     0.047 C 
HETATM   14  C8  UNL     1      13.845  40.964  84.411  1.00  0.00    -0.021 C 
HETATM   15  C11 UNL     1      12.917  42.845  83.464  1.00  0.00     0.026 C 
HETATM   16  C9  UNL     1      12.598  40.639  84.011  1.00  0.00    -0.021 C 
BRANCH   8  17
HETATM   17  O2  UNL     1      12.148  40.371  79.712  1.00  0.00    -0.345 OA
ATOM     18  H2  UNL     1      11.608  39.606  79.877  1.00  0.00     0.219 HD
ENDBRANCH   8  17
BRANCH  12  19
HETATM   19  O3  UNL     1      16.595  41.555  81.140  1.00  0.00    -0.345 OA
ATOM     20  H3  UNL     1      17.238  41.028  81.599  1.00  0.00     0.219 HD
ENDBRANCH  12  19
ENDBRANCH   6   7
ENDBRANCH   3   6
ENDBRANCH   1   2
BRANCH   1  21
HETATM   21  C13 UNL     1      13.032  37.194  75.908  1.00  0.00     0.025 C 
BRANCH  21  22
HETATM   22  C14 UNL     1      11.807  36.714  76.602  1.00  0.00     0.046 C 
BRANCH  22  23
HETATM   23  C15 UNL     1      11.392  37.642  77.733  1.00  0.00     0.061 C 
HETATM   24  N3  UNL     1      10.075  37.559  78.067  1.00  0.00    -0.368 N 
ATOM     25  H3  UNL     1       9.619  38.328  77.577  1.00  0.00     0.165 HD
BRANCH  24  26
HETATM   26  C16 UNL     1       9.174  36.981  78.690  1.00  0.00     0.055 A 
HETATM   27  C17 UNL     1       9.106  36.993  80.076  1.00  0.00     0.022 A 
HETATM   28  C18 UNL     1       8.126  36.346  80.790  1.00  0.00     0.151 A 
HETATM   29  C24 UNL     1       9.995  37.669  81.045  1.00  0.00     0.072 C 
HETATM   30  N4  UNL     1       7.187  35.667  80.095  1.00  0.00    -0.330 N 
HETATM   31  O4  UNL     1       8.324  36.538  82.142  1.00  0.00    -0.335 OA
HETATM   32  C19 UNL     1       7.225  35.636  78.735  1.00  0.00     0.089 A 
ATOM     33  H4  UNL     1       6.446  35.174  80.593  1.00  0.00     0.168 HD
HETATM   34  S1  UNL     1       6.219  34.892  77.572  1.00  0.00    -0.064 SA
HETATM   35  C22 UNL     1       8.168  36.256  77.979  1.00  0.00     0.027 A 
HETATM   36  C20 UNL     1       7.028  35.391  76.155  1.00  0.00     0.054 A 
HETATM   37 BR1  UNL     1       6.597  35.015  74.312  1.00  0.00    -0.043 Br
HETATM   38  C21 UNL     1       8.072  36.133  76.644  1.00  0.00     0.043 A 
HETATM   39  C23 UNL     1       9.360  37.428  82.387  1.00  0.00     0.182 C 
ENDBRANCH  24  26
ENDBRANCH  22  23
ENDBRANCH  21  22
ENDBRANCH   1  21
TORSDOF 9
ENDMDL
MODEL 2
REMARK VINA RESULT: -8.650104057      3.103      5.260
REMARK  9 active torsions:
REMARK  status: ('A' for Active; 'I' for Inactive)
REMARK    1  A    between atoms: C1_2  and  C2_3 
REMARK       I    between atoms: C1_2  and  N2_18 
REMARK    2  A    between atoms: C2_3  and  N1_4 
REMARK    3  A    between atoms: C3_5  and  O2_6 
REMARK    4  A    between atoms: C6_10  and  O3_11 
REMARK    5  A    between atoms: N2_18  and  C12_20 
REMARK    6  A    between atoms: C12_20  and  C13_21 
REMARK    7  A    between atoms: C13_21  and  C14_22 
REMARK    8  A    between atoms: C14_22  and  C15_23 
REMARK    9  A    between atoms: N3_24  and  C16_26 
ROOT
HETATM    1  C12 UNL     1      14.185  36.949  78.590  1.00  0.00     0.123 C 
ENDROOT
BRANCH   1   2
HETATM    2  N2  UNL     1      14.018  38.366  78.763  1.00  0.00    -0.360 N 
HETATM    3  C1  UNL     1      15.080  39.303  78.727  1.00  0.00     0.235 C 
HETATM    4  O1  UNL     1      16.245  38.890  78.532  1.00  0.00    -0.272 OA
ATOM      5  H2  UNL     1      13.075  38.720  78.921  1.00  0.00     0.162 HD
BRANCH   3   6
HETATM    6  C2  UNL     1      14.881  40.756  78.909  1.00  0.00     0.236 C 
BRANCH   6   7
HETATM    7  N1  UNL     1      14.320  41.068  80.203  1.00  0.00    -0.299 N 
HETATM    8  C3  UNL     1      13.038  40.956  80.595  1.00  0.00     0.152 A 
HETATM    9  C4  UNL     1      12.953  41.355  81.912  1.00  0.00     0.012 A 
HETATM   10  C5  UNL     1      14.230  41.715  82.315  1.00  0.00     0.012 A 
HETATM   11  C10 UNL     1      12.080  41.565  83.095  1.00  0.00     0.047 C 
HETATM   12  C6  UNL     1      15.041  41.524  81.231  1.00  0.00     0.152 A 
HETATM   13  C7  UNL     1      14.125  42.141  83.732  1.00  0.00     0.047 C 
HETATM   14  C8  UNL     1      13.750  40.931  84.517  1.00  0.00    -0.021 C 
HETATM   15  C11 UNL     1      12.744  42.826  83.685  1.00  0.00     0.026 C 
HETATM   16  C9  UNL     1      12.506  40.586  84.125  1.00  0.00    -0.021 C 
BRANCH   8  17
HETATM   17  O2  UNL     1      11.976  40.520  79.826  1.00  0.00    -0.345 OA
ATOM     18  H2  UNL     1      11.296  39.911  80.092  1.00  0.00     0.219 HD
ENDBRANCH   8  17
BRANCH  12  19
HETATM   19  O3  UNL     1      16.412  41.775  81.228  1.00  0.00    -0.345 OA
ATOM     20  H3  UNL     1      17.019  41.586  81.933  1.00  0.00     0.219 HD
ENDBRANCH  12  19
ENDBRANCH   6   7
ENDBRANCH   3   6
ENDBRANCH   1   2
BRANCH   1  21
HETATM   21  C13 UNL     1      13.918  36.454  77.207  1.00  0.00     0.025 C 
BRANCH  21  22
HETATM   22  C14 UNL     1      15.022  36.646  76.228  1.00  0.00     0.046 C 
BRANCH  22  23
HETATM   23  C15 UNL     1      14.657  36.121  74.848  1.00  0.00     0.061 C 
HETATM   24  N3  UNL     1      13.429  36.514  74.411  1.00  0.00    -0.368 N 
ATOM     25  H3  UNL     1      12.802  35.737  74.619  1.00  0.00     0.165 HD
BRANCH  24  26
HETATM   26  C16 UNL     1      12.719  37.378  73.877  1.00  0.00     0.055 A 
HETATM   27  C17 UNL     1      13.054  37.967  72.667  1.00  0.00     0.022 A 
HETATM   28  C18 UNL     1      12.293  38.940  72.064  1.00  0.00     0.151 A 
HETATM   29  C24 UNL     1      14.215  37.699  71.791  1.00  0.00     0.072 C 
HETATM   30  N4  UNL     1      11.163  39.333  72.692  1.00  0.00    -0.330 N 
HETATM   31  O4  UNL     1      12.880  39.330  70.878  1.00  0.00    -0.335 OA
HETATM   32  C19 UNL     1      10.806  38.774  73.881  1.00  0.00     0.089 A 
ATOM     33  H4  UNL     1      10.575  40.053  72.274  1.00  0.00     0.168 HD
HETATM   34  S1  UNL     1       9.475  39.031  74.920  1.00  0.00    -0.064 SA
HETATM   35  C22 UNL     1      11.519  37.811  74.521  1.00  0.00     0.027 A 
HETATM   36  C20 UNL     1       9.864  37.905  76.142  1.00  0.00     0.054 A 
HETATM   37 BR1  UNL     1       8.903  37.490  77.763  1.00  0.00    -0.043 Br
HETATM   38  C21 UNL     1      11.037  37.358  75.692  1.00  0.00     0.043 A 
HETATM   39  C23 UNL     1      13.983  38.546  70.569  1.00  0.00     0.182 C 
ENDBRANCH  24  26
ENDBRANCH  22  23
ENDBRANCH  21  22
ENDBRANCH   1  21
TORSDOF 9
ENDMDL
MODEL 3
REMARK VINA RESULT: -8.424951615      2.193      3.140
REMARK  9 active torsions:
REMARK  status: ('A' for Active; 'I' for Inactive)
REMARK    1  A    between atoms: C1_2  and  C2_3 
REMARK       I    between atoms: C1_2  and  N2_18 
REMARK    2  A    between atoms: C2_3  and  N1_4 
REMARK    3  A    between atoms: C3_5  and  O2_6 
REMARK    4  A    between atoms: C6_10  and  O3_11 
REMARK    5  A    between atoms: N2_18  and  C12_20 
REMARK    6  A    between atoms: C12_20  and  C13_21 
REMARK    7  A    between atoms: C13_21  and  C14_22 
REMARK    8  A    between atoms: C14_22  and  C15_23 
REMARK    9  A    between atoms: N3_24  and  C16_26 
ROOT
HETATM    1  C12 UNL     1      14.313  37.154  76.971  1.00  0.00     0.123 C 
ENDROOT
BRANCH   1   2
HETATM    2  N2  UNL     1      14.472  38.555  77.249  1.00  0.00    -0.360 N 
HETATM    3  C1  UNL     1      14.758  39.085  78.530  1.00  0.00     0.235 C 
HETATM    4  O1  UNL     1      14.886  38.299  79.495  1.00  0.00    -0.272 OA
ATOM      5  H2  UNL     1      14.372  39.210  76.473  1.00  0.00     0.162 HD
BRANCH   3   6
HETATM    6  C2  UNL     1      14.916  40.532  78.789  1.00  0.00     0.236 C 
BRANCH   6   7
HETATM    7  N1  UNL     1      14.396  40.911  80.083  1.00  0.00    -0.299 N 
HETATM    8  C3  UNL     1      13.115  40.894  80.494  1.00  0.00     0.152 A 
HETATM    9  C4  UNL     1      13.076  41.328  81.801  1.00  0.00     0.012 A 
HETATM   10  C5  UNL     1      14.379  41.611  82.179  1.00  0.00     0.012 A 
HETATM   11  C10 UNL     1      12.236  41.624  82.990  1.00  0.00     0.047 C 
HETATM   12  C6  UNL     1      15.160  41.341  81.089  1.00  0.00     0.152 A 
HETATM   13  C7  UNL     1      14.324  42.076  83.587  1.00  0.00     0.047 C 
HETATM   14  C8  UNL     1      13.881  40.912  84.405  1.00  0.00    -0.021 C 
HETATM   15  C11 UNL     1      12.991  42.850  83.541  1.00  0.00     0.026 C 
HETATM   16  C9  UNL     1      12.611  40.642  84.037  1.00  0.00    -0.021 C 
BRANCH   8  17
HETATM   17  O2  UNL     1      12.015  40.512  79.749  1.00  0.00    -0.345 OA
ATOM     18  H2  UNL     1      11.222  41.017  79.609  1.00  0.00     0.219 HD
ENDBRANCH   8  17
BRANCH  12  19
HETATM   19  O3  UNL     1      16.545  41.500  81.063  1.00  0.00    -0.345 OA
ATOM     20  H3  UNL     1      17.087  41.568  80.286  1.00  0.00     0.219 HD
ENDBRANCH  12  19
ENDBRANCH   6   7
ENDBRANCH   3   6
ENDBRANCH   1   2
BRANCH   1  21
HETATM   21  C13 UNL     1      12.897  36.684  76.922  1.00  0.00     0.025 C 
BRANCH  21  22
HETATM   22  C14 UNL     1      11.862  37.754  76.896  1.00  0.00     0.046 C 
BRANCH  22  23
HETATM   23  C15 UNL     1      11.003  37.744  78.150  1.00  0.00     0.061 C 
HETATM   24  N3  UNL     1       9.677  37.541  77.914  1.00  0.00    -0.368 N 
ATOM     25  H3  UNL     1       9.254  38.469  77.911  1.00  0.00     0.165 HD
BRANCH  24  26
HETATM   26  C16 UNL     1       8.747  36.751  77.703  1.00  0.00     0.055 A 
HETATM   27  C17 UNL     1       8.294  36.467  76.423  1.00  0.00     0.022 A 
HETATM   28  C18 UNL     1       7.253  35.608  76.163  1.00  0.00     0.151 A 
HETATM   29  C24 UNL     1       8.796  36.968  75.125  1.00  0.00     0.072 C 
HETATM   30  N4  UNL     1       6.648  35.017  77.217  1.00  0.00    -0.330 N 
HETATM   31  O4  UNL     1       7.034  35.530  74.803  1.00  0.00    -0.335 OA
HETATM   32  C19 UNL     1       7.069  35.275  78.486  1.00  0.00     0.089 A 
ATOM     33  H4  UNL     1       5.871  34.375  77.062  1.00  0.00     0.168 HD
HETATM   34  S1  UNL     1       6.542  34.713  80.011  1.00  0.00    -0.064 SA
HETATM   35  C22 UNL     1       8.091  36.113  78.800  1.00  0.00     0.027 A 
HETATM   36  C20 UNL     1       7.637  35.561  81.006  1.00  0.00     0.054 A 
HETATM   37 BR1  UNL     1       7.794  35.547  82.929  1.00  0.00    -0.043 Br
HETATM   38  C21 UNL     1       8.389  36.266  80.102  1.00  0.00     0.043 A 
HETATM   39  C23 UNL     1       8.000  36.223  74.088  1.00  0.00     0.182 C 
ENDBRANCH  24  26
ENDBRANCH  22  23
ENDBRANCH  21  22
ENDBRANCH   1  21
TORSDOF 9
ENDMDL
MODEL 4
REMARK VINA RESULT: -8.394019152      4.485      6.700
REMARK  9 active torsions:
REMARK  status: ('A' for Active; 'I' for Inactive)
REMARK    1  A    between atoms: C1_2  and  C2_3 
REMARK       I    between atoms: C1_2  and  N2_18 
REMARK    2  A    between atoms: C2_3  and  N1_4 
REMARK    3  A    between atoms: C3_5  and  O2_6 
REMARK    4  A    between atoms: C6_10  and  O3_11 
REMARK    5  A    between atoms: N2_18  and  C12_20 
REMARK    6  A    between atoms: C12_20  and  C13_21 
REMARK    7  A    between atoms: C13_21  and  C14_22 
REMARK    8  A    between atoms: C14_22  and  C15_23 
REMARK    9  A    between atoms: N3_24  and  C16_26 
ROOT
HETATM    1  C12 UNL     1      13.499  37.186  77.983  1.00  0.00     0.123 C 
ENDROOT
BRANCH   1   2
HETATM    2  N2  UNL     1      13.590  38.591  78.270  1.00  0.00    -0.360 N 
HETATM    3  C1  UNL     1      14.805  39.278  78.509  1.00  0.00     0.235 C 
HETATM    4  O1  UNL     1      15.879  38.637  78.471  1.00  0.00    -0.272 OA
ATOM      5  H2  UNL     1      12.724  39.129  78.303  1.00  0.00     0.162 HD
BRANCH   3   6
HETATM    6  C2  UNL     1      14.871  40.725  78.803  1.00  0.00     0.236 C 
BRANCH   6   7
HETATM    7  N1  UNL     1      14.349  41.036  80.114  1.00  0.00    -0.299 N 
HETATM    8  C3  UNL     1      13.071  40.977  80.528  1.00  0.00     0.152 A 
HETATM    9  C4  UNL     1      13.029  41.351  81.854  1.00  0.00     0.012 A 
HETATM   10  C5  UNL     1      14.329  41.641  82.240  1.00  0.00     0.012 A 
HETATM   11  C10 UNL     1      12.189  41.577  83.058  1.00  0.00     0.047 C 
HETATM   12  C6  UNL     1      15.110  41.434  81.136  1.00  0.00     0.152 A 
HETATM   13  C7  UNL     1      14.271  42.041  83.667  1.00  0.00     0.047 C 
HETATM   14  C8  UNL     1      13.852  40.834  84.434  1.00  0.00    -0.021 C 
HETATM   15  C11 UNL     1      12.923  42.792  83.660  1.00  0.00     0.026 C 
HETATM   16  C9  UNL     1      12.586  40.557  84.059  1.00  0.00    -0.021 C 
BRANCH   8  17
HETATM   17  O2  UNL     1      11.974  40.608  79.771  1.00  0.00    -0.345 OA
ATOM     18  H2  UNL     1      11.884  40.687  78.828  1.00  0.00     0.219 HD
ENDBRANCH   8  17
BRANCH  12  19
HETATM   19  O3  UNL     1      16.491  41.620  81.112  1.00  0.00    -0.345 OA
ATOM     20  H3  UNL     1      16.984  42.234  81.643  1.00  0.00     0.219 HD
ENDBRANCH  12  19
ENDBRANCH   6   7
ENDBRANCH   3   6
ENDBRANCH   1   2
BRANCH   1  21
HETATM   21  C13 UNL     1      13.185  36.858  76.561  1.00  0.00     0.025 C 
BRANCH  21  22
HETATM   22  C14 UNL     1      12.678  35.481  76.313  1.00  0.00     0.046 C 
BRANCH  22  23
HETATM   23  C15 UNL     1      13.584  34.702  75.372  1.00  0.00     0.061 C 
HETATM   24  N3  UNL     1      13.776  35.300  74.163  1.00  0.00    -0.368 N 
ATOM     25  H3  UNL     1      13.116  34.850  73.528  1.00  0.00     0.165 HD
BRANCH  24  26
HETATM   26  C16 UNL     1      14.379  36.136  73.477  1.00  0.00     0.055 A 
HETATM   27  C17 UNL     1      13.733  37.207  72.878  1.00  0.00     0.022 A 
HETATM   28  C18 UNL     1      14.378  38.138  72.099  1.00  0.00     0.151 A 
HETATM   29  C24 UNL     1      12.305  37.588  72.942  1.00  0.00     0.072 C 
HETATM   30  N4  UNL     1      15.708  37.991  71.915  1.00  0.00    -0.330 N 
HETATM   31  O4  UNL     1      13.475  39.077  71.642  1.00  0.00    -0.335 OA
HETATM   32  C19 UNL     1      16.372  36.951  72.491  1.00  0.00     0.089 A 
ATOM     33  H4  UNL     1      16.219  38.663  71.343  1.00  0.00     0.168 HD
HETATM   34  S1  UNL     1      18.013  36.478  72.467  1.00  0.00    -0.064 SA
HETATM   35  C22 UNL     1      15.787  36.004  73.269  1.00  0.00     0.027 A 
HETATM   36  C20 UNL     1      17.909  35.086  73.448  1.00  0.00     0.054 A 
HETATM   37 BR1  UNL     1      19.307  33.870  73.987  1.00  0.00    -0.043 Br
HETATM   38  C21 UNL     1      16.576  35.036  73.767  1.00  0.00     0.043 A 
HETATM   39  C23 UNL     1      12.219  38.895  72.202  1.00  0.00     0.182 C 
ENDBRANCH  24  26
ENDBRANCH  22  23
ENDBRANCH  21  22
ENDBRANCH   1  21
TORSDOF 9
ENDMDL
MODEL 5
REMARK VINA RESULT: -8.364860505      1.340      1.528
REMARK  9 active torsions:
REMARK  status: ('A' for Active; 'I' for Inactive)
REMARK    1  A    between atoms: C1_2  and  C2_3 
REMARK       I    between atoms: C1_2  and  N2_18 
REMARK    2  A    between atoms: C2_3  and  N1_4 
REMARK    3  A    between atoms: C3_5  and  O2_6 
REMARK    4  A    between atoms: C6_10  and  O3_11 
REMARK    5  A    between atoms: N2_18  and  C12_20 
REMARK    6  A    between atoms: C12_20  and  C13_21 
REMARK    7  A    between atoms: C13_21  and  C14_22 
REMARK    8  A    between atoms: C14_22  and  C15_23 
REMARK    9  A    between atoms: N3_24  and  C16_26 
ROOT
HETATM    1  C12 UNL     1      12.128  36.980  77.358  1.00  0.00     0.123 C 
ENDROOT
BRANCH   1   2
HETATM    2  N2  UNL     1      12.813  38.236  77.508  1.00  0.00    -0.360 N 
HETATM    3  C1  UNL     1      13.914  38.443  78.373  1.00  0.00     0.235 C 
HETATM    4  O1  UNL     1      14.335  37.485  79.058  1.00  0.00    -0.272 OA
ATOM      5  H2  UNL     1      12.484  39.028  76.955  1.00  0.00     0.162 HD
BRANCH   3   6
HETATM    6  C2  UNL     1      14.600  39.746  78.509  1.00  0.00     0.236 C 
BRANCH   6   7
HETATM    7  N1  UNL     1      14.301  40.387  79.769  1.00  0.00    -0.299 N 
HETATM    8  C3  UNL     1      13.091  40.613  80.312  1.00  0.00     0.152 A 
HETATM    9  C4  UNL     1      13.274  41.242  81.524  1.00  0.00     0.012 A 
HETATM   10  C5  UNL     1      14.640  41.393  81.707  1.00  0.00     0.012 A 
HETATM   11  C10 UNL     1      12.637  41.831  82.730  1.00  0.00     0.047 C 
HETATM   12  C6  UNL     1      15.235  40.853  80.601  1.00  0.00     0.152 A 
HETATM   13  C7  UNL     1      14.823  42.071  83.014  1.00  0.00     0.047 C 
HETATM   14  C8  UNL     1      14.350  41.120  84.059  1.00  0.00    -0.021 C 
HETATM   15  C11 UNL     1      13.599  43.009  82.982  1.00  0.00     0.026 C 
HETATM   16  C9  UNL     1      13.021  40.978  83.881  1.00  0.00    -0.021 C 
BRANCH   8  17
HETATM   17  O2  UNL     1      11.866  40.281  79.765  1.00  0.00    -0.345 OA
ATOM     18  H2  UNL     1      11.195  40.885  79.467  1.00  0.00     0.219 HD
ENDBRANCH   8  17
BRANCH  12  19
HETATM   19  O3  UNL     1      16.614  40.810  80.399  1.00  0.00    -0.345 OA
ATOM     20  H3  UNL     1      17.155  40.029  80.385  1.00  0.00     0.219 HD
ENDBRANCH  12  19
ENDBRANCH   6   7
ENDBRANCH   3   6
ENDBRANCH   1   2
BRANCH   1  21
HETATM   21  C13 UNL     1      11.340  36.846  76.097  1.00  0.00     0.025 C 
BRANCH  21  22
HETATM   22  C14 UNL     1       9.885  36.588  76.271  1.00  0.00     0.046 C 
BRANCH  22  23
HETATM   23  C15 UNL     1       9.266  37.500  77.318  1.00  0.00     0.061 C 
HETATM   24  N3  UNL     1       8.327  36.896  78.097  1.00  0.00    -0.368 N 
ATOM     25  H3  UNL     1       7.428  37.145  77.684  1.00  0.00     0.165 HD
BRANCH  24  26
HETATM   26  C16 UNL     1       8.058  36.185  79.074  1.00  0.00     0.055 A 
HETATM   27  C17 UNL     1       8.630  36.392  80.321  1.00  0.00     0.022 A 
HETATM   28  C18 UNL     1       8.360  35.607  81.416  1.00  0.00     0.151 A 
HETATM   29  C24 UNL     1       9.583  37.441  80.745  1.00  0.00     0.072 C 
HETATM   30  N4  UNL     1       7.492  34.583  81.257  1.00  0.00    -0.330 N 
HETATM   31  O4  UNL     1       9.077  36.056  82.506  1.00  0.00    -0.335 OA
HETATM   32  C19 UNL     1       6.913  34.354  80.046  1.00  0.00     0.089 A 
ATOM     33  H4  UNL     1       7.270  33.980  82.048  1.00  0.00     0.168 HD
HETATM   34  S1  UNL     1       5.798  33.177  79.509  1.00  0.00    -0.064 SA
HETATM   35  C22 UNL     1       7.142  35.097  78.933  1.00  0.00     0.027 A 
HETATM   36  C20 UNL     1       5.654  33.664  77.880  1.00  0.00     0.054 A 
HETATM   37 BR1  UNL     1       4.582  32.896  76.471  1.00  0.00    -0.043 Br
HETATM   38  C21 UNL     1       6.495  34.745  77.808  1.00  0.00     0.043 A 
HETATM   39  C23 UNL     1       9.750  37.237  82.226  1.00  0.00     0.182 C 
ENDBRANCH  24  26
ENDBRANCH  22  23
ENDBRANCH  21  22
ENDBRANCH   1  21
TORSDOF 9
ENDMDL
