MODEL 1
REMARK VINA RESULT: -7.249549434      0.000      0.000
REMARK  10 active torsions:
REMARK  status: ('A' for Active; 'I' for Inactive)
REMARK    1  A    between atoms: N1_1  and  N2_4 
REMARK    2  A    between atoms: C1_6  and  C2_7 
REMARK    3  A    between atoms: C3_8  and  O1_9 
REMARK    4  A    between atoms: C4_13  and  N4_14 
REMARK    5  A    between atoms: N4_14  and  N5_16 
REMARK    6  A    between atoms: C5_18  and  C6_19 
REMARK    7  A    between atoms: C7_21  and  N6_22 
REMARK    8  A    between atoms: C9_26  and  O5_27 
REMARK    9  A    between atoms: N7_29  and  N8_30 
REMARK   10  A    between atoms: N9_34  and  N10_36 
ROOT
HETATM    1  C2  UNL     1      19.946  42.062   4.104  1.00  0.00     0.080 A 
HETATM    2  C3  UNL     1      18.659  41.757   4.480  1.00  0.00     0.171 A 
HETATM    3  N3  UNL     1      17.943  42.609   5.260  1.00  0.00    -0.166 N 
ATOM      4  H3  UNL     1      16.990  42.360   5.527  1.00  0.00     0.186 HD
HETATM    5  C4  UNL     1      18.461  43.770   5.688  1.00  0.00     0.721 A 
HETATM    6  N7  UNL     1      19.705  44.091   5.339  1.00  0.00    -0.072 N 
HETATM    7  C10 UNL     1      20.499  43.281   4.550  1.00  0.00     0.175 A 
HETATM    8  N9  UNL     1      21.629  43.707   4.309  1.00  0.00    -0.289 N 
ATOM      9  H9  UNL     1      21.676  44.604   4.791  1.00  0.00     0.188 HD
ENDROOT
BRANCH   5  10
HETATM   10  N4  UNL     1      17.763  44.585   6.440  1.00  0.00    -0.130 N 
ATOM     11  H4  UNL     1      17.882  45.596   6.376  1.00  0.00     0.205 HD
BRANCH  10  12
HETATM   12  N5  UNL     1      16.856  44.018   7.326  1.00  0.00    -0.295 N 
HETATM   13  C5  UNL     1      15.626  44.389   7.384  1.00  0.00     0.147 C 
ATOM     14  H5  UNL     1      17.177  43.281   7.954  1.00  0.00     0.186 HD
BRANCH  13  15
HETATM   15  C6  UNL     1      14.735  43.742   8.344  1.00  0.00     0.128 A 
HETATM   16  O2  UNL     1      14.971  42.651   9.035  1.00  0.00    -0.284 OA
HETATM   17  C7  UNL     1      13.984  42.331   9.803  1.00  0.00     0.218 A 
HETATM   18  C8  UNL     1      12.994  43.287   9.617  1.00  0.00     0.102 A 
HETATM   19  C9  UNL     1      13.464  44.173   8.702  1.00  0.00     0.105 A 
BRANCH  17  20
HETATM   20  N6  UNL     1      13.889  41.211  10.692  1.00  0.00    -0.090 N 
HETATM   21  O3  UNL     1      14.538  40.189  10.425  1.00  0.00    -0.530 OA
HETATM   22  O4  UNL     1      13.102  41.273  11.804  1.00  0.00    -0.530 OA
ENDBRANCH  17  20
BRANCH  19  23
HETATM   23  O5  UNL     1      12.845  45.320   8.175  1.00  0.00    -0.358 OA
ATOM     24  H5  UNL     1      13.308  46.013   7.719  1.00  0.00     0.217 HD
ENDBRANCH  19  23
ENDBRANCH  13  15
ENDBRANCH  10  12
ENDBRANCH   5  10
BRANCH   6  25
HETATM   25  N8  UNL     1      20.214  45.305   5.801  1.00  0.00    -0.322 N 
ATOM     26  H82 UNL     1      19.642  46.146   5.728  1.00  0.00     0.178 HD
ATOM     27  H81 UNL     1      21.154  45.303   6.199  1.00  0.00     0.178 HD
ENDBRANCH   6  25
BRANCH   2  28
HETATM   28  O1  UNL     1      17.993  40.596   4.114  1.00  0.00    -0.345 OA
ATOM     29  H1  UNL     1      17.743  39.909   4.721  1.00  0.00     0.219 HD
ENDBRANCH   2  28
BRANCH   1  30
HETATM   30  C1  UNL     1      20.734  41.178   3.275  1.00  0.00     0.126 C 
HETATM   31  N2  UNL     1      20.639  39.995   2.969  1.00  0.00    -0.317 N 
ATOM     32  H2  UNL     1      21.434  39.812   2.356  1.00  0.00     0.185 HD
BRANCH  31  33
HETATM   33  N1  UNL     1      20.002  38.853   3.054  1.00  0.00    -0.345 N 
ATOM     34  H12 UNL     1      19.527  38.920   3.955  1.00  0.00     0.176 HD
ATOM     35  H11 UNL     1      19.762  37.947   2.652  1.00  0.00     0.176 HD
ENDBRANCH  31  33
ENDBRANCH   1  30
BRANCH   8  36
HETATM   36  N10 UNL     1      22.798  43.574   3.738  1.00  0.00    -0.344 N 
ATOM     37 2H10 UNL     1      22.761  44.270   2.993  1.00  0.00     0.176 HD
ATOM     38 1H10 UNL     1      23.711  43.124   3.677  1.00  0.00     0.176 HD
ENDBRANCH   8  36
TORSDOF 10
ENDMDL
MODEL 2
REMARK VINA RESULT: -7.093908994      1.853      2.378
REMARK  10 active torsions:
REMARK  status: ('A' for Active; 'I' for Inactive)
REMARK    1  A    between atoms: N1_1  and  N2_4 
REMARK    2  A    between atoms: C1_6  and  C2_7 
REMARK    3  A    between atoms: C3_8  and  O1_9 
REMARK    4  A    between atoms: C4_13  and  N4_14 
REMARK    5  A    between atoms: N4_14  and  N5_16 
REMARK    6  A    between atoms: C5_18  and  C6_19 
REMARK    7  A    between atoms: C7_21  and  N6_22 
REMARK    8  A    between atoms: C9_26  and  O5_27 
REMARK    9  A    between atoms: N7_29  and  N8_30 
REMARK   10  A    between atoms: N9_34  and  N10_36 
ROOT
HETATM    1  C2  UNL     1      20.049  44.197   4.128  1.00  0.00     0.080 A 
HETATM    2  C3  UNL     1      19.757  43.773   5.404  1.00  0.00     0.171 A 
HETATM    3  N3  UNL     1      18.763  44.363   6.120  1.00  0.00    -0.166 N 
ATOM      4  H3  UNL     1      18.566  44.032   7.065  1.00  0.00     0.186 HD
HETATM    5  C4  UNL     1      18.037  45.370   5.614  1.00  0.00     0.721 A 
HETATM    6  N7  UNL     1      18.299  45.800   4.381  1.00  0.00    -0.072 N 
HETATM    7  C10 UNL     1      19.290  45.256   3.588  1.00  0.00     0.175 A 
HETATM    8  N9  UNL     1      19.419  45.755   2.470  1.00  0.00    -0.289 N 
ATOM      9  H9  UNL     1      18.709  46.487   2.429  1.00  0.00     0.188 HD
ENDROOT
BRANCH   5  10
HETATM   10  N4  UNL     1      17.081  45.932   6.312  1.00  0.00    -0.130 N 
ATOM     11  H4  UNL     1      17.018  46.946   6.403  1.00  0.00     0.205 HD
BRANCH  10  12
HETATM   12  N5  UNL     1      16.158  45.092   6.922  1.00  0.00    -0.295 N 
HETATM   13  C5  UNL     1      16.055  44.996   8.201  1.00  0.00     0.147 C 
ATOM     14  H5  UNL     1      15.540  44.532   6.336  1.00  0.00     0.186 HD
BRANCH  13  15
HETATM   15  C6  UNL     1      15.058  44.089   8.765  1.00  0.00     0.128 A 
HETATM   16  O2  UNL     1      15.280  43.027   9.502  1.00  0.00    -0.284 OA
HETATM   17  C7  UNL     1      14.188  42.431   9.849  1.00  0.00     0.218 A 
HETATM   18  C8  UNL     1      13.136  43.152   9.300  1.00  0.00     0.102 A 
HETATM   19  C9  UNL     1      13.680  44.194   8.619  1.00  0.00     0.105 A 
BRANCH  17  20
HETATM   20  N6  UNL     1      14.046  41.249  10.646  1.00  0.00    -0.090 N 
HETATM   21  O3  UNL     1      14.686  40.237  10.321  1.00  0.00    -0.530 OA
HETATM   22  O4  UNL     1      13.228  41.241  11.736  1.00  0.00    -0.530 OA
ENDBRANCH  17  20
BRANCH  19  23
HETATM   23  O5  UNL     1      13.041  45.212   7.891  1.00  0.00    -0.358 OA
ATOM     24  H5  UNL     1      12.342  45.060   7.265  1.00  0.00     0.217 HD
ENDBRANCH  19  23
ENDBRANCH  13  15
ENDBRANCH  10  12
ENDBRANCH   5  10
BRANCH   6  25
HETATM   25  N8  UNL     1      17.526  46.850   3.884  1.00  0.00    -0.322 N 
ATOM     26  H82 UNL     1      16.517  46.729   3.797  1.00  0.00     0.178 HD
ATOM     27  H81 UNL     1      18.008  47.710   3.621  1.00  0.00     0.178 HD
ENDBRANCH   6  25
BRANCH   2  28
HETATM   28  O1  UNL     1      20.421  42.745   6.057  1.00  0.00    -0.345 OA
ATOM     29  H1  UNL     1      20.216  42.450   6.936  1.00  0.00     0.219 HD
ENDBRANCH   2  28
BRANCH   1  30
HETATM   30  C1  UNL     1      21.098  43.591   3.340  1.00  0.00     0.126 C 
HETATM   31  N2  UNL     1      22.196  43.116   3.611  1.00  0.00    -0.317 N 
ATOM     32  H2  UNL     1      22.582  42.807   2.719  1.00  0.00     0.185 HD
BRANCH  31  33
HETATM   33  N1  UNL     1      23.109  42.818   4.503  1.00  0.00    -0.345 N 
ATOM     34  H12 UNL     1      22.651  43.042   5.387  1.00  0.00     0.176 HD
ATOM     35  H11 UNL     1      24.043  42.473   4.724  1.00  0.00     0.176 HD
ENDBRANCH  31  33
ENDBRANCH   1  30
BRANCH   8  36
HETATM   36  N10 UNL     1      20.017  45.809   1.308  1.00  0.00    -0.344 N 
ATOM     37 2H10 UNL     1      19.979  44.839   0.994  1.00  0.00     0.176 HD
ATOM     38 1H10 UNL     1      20.494  46.338   0.578  1.00  0.00     0.176 HD
ENDBRANCH   8  36
TORSDOF 10
ENDMDL
MODEL 3
REMARK VINA RESULT: -7.087236482      6.648      9.046
REMARK  10 active torsions:
REMARK  status: ('A' for Active; 'I' for Inactive)
REMARK    1  A    between atoms: N1_1  and  N2_4 
REMARK    2  A    between atoms: C1_6  and  C2_7 
REMARK    3  A    between atoms: C3_8  and  O1_9 
REMARK    4  A    between atoms: C4_13  and  N4_14 
REMARK    5  A    between atoms: N4_14  and  N5_16 
REMARK    6  A    between atoms: C5_18  and  C6_19 
REMARK    7  A    between atoms: C7_21  and  N6_22 
REMARK    8  A    between atoms: C9_26  and  O5_27 
REMARK    9  A    between atoms: N7_29  and  N8_30 
REMARK   10  A    between atoms: N9_34  and  N10_36 
ROOT
HETATM    1  C2  UNL     1       8.470  41.525   3.304  1.00  0.00     0.080 A 
HETATM    2  C3  UNL     1       9.137  40.427   3.795  1.00  0.00     0.171 A 
HETATM    3  N3  UNL     1       9.173  40.176   5.130  1.00  0.00    -0.166 N 
ATOM      4  H3  UNL     1       9.675  39.356   5.471  1.00  0.00     0.186 HD
HETATM    5  C4  UNL     1       8.564  40.984   6.011  1.00  0.00     0.721 A 
HETATM    6  N7  UNL     1       7.911  42.054   5.563  1.00  0.00    -0.072 N 
HETATM    7  C10 UNL     1       7.827  42.380   4.223  1.00  0.00     0.175 A 
HETATM    8  N9  UNL     1       7.191  43.399   3.957  1.00  0.00    -0.289 N 
ATOM      9  H9  UNL     1       6.876  43.753   4.860  1.00  0.00     0.188 HD
ENDROOT
BRANCH   5  10
HETATM   10  N4  UNL     1       8.604  40.734   7.297  1.00  0.00    -0.130 N 
ATOM     11  H4  UNL     1       7.793  40.361   7.789  1.00  0.00     0.205 HD
BRANCH  10  12
HETATM   12  N5  UNL     1       9.795  40.999   7.962  1.00  0.00    -0.295 N 
HETATM   13  C5  UNL     1      10.346  42.161   7.949  1.00  0.00     0.147 C 
ATOM     14  H5  UNL     1      10.248  40.246   8.478  1.00  0.00     0.186 HD
BRANCH  13  15
HETATM   15  C6  UNL     1      11.599  42.358   8.674  1.00  0.00     0.128 A 
HETATM   16  O2  UNL     1      12.249  41.471   9.391  1.00  0.00    -0.284 OA
HETATM   17  C7  UNL     1      13.330  41.952   9.908  1.00  0.00     0.218 A 
HETATM   18  C8  UNL     1      13.420  43.278   9.508  1.00  0.00     0.102 A 
HETATM   19  C9  UNL     1      12.335  43.535   8.733  1.00  0.00     0.105 A 
BRANCH  17  20
HETATM   20  N6  UNL     1      14.280  41.278  10.743  1.00  0.00    -0.090 N 
HETATM   21  O3  UNL     1      14.584  40.108  10.466  1.00  0.00    -0.530 OA
HETATM   22  O4  UNL     1      14.834  41.913  11.815  1.00  0.00    -0.530 OA
ENDBRANCH  17  20
BRANCH  19  23
HETATM   23  O5  UNL     1      11.965  44.728   8.087  1.00  0.00    -0.358 OA
ATOM     24  H5  UNL     1      12.175  44.931   7.183  1.00  0.00     0.217 HD
ENDBRANCH  19  23
ENDBRANCH  13  15
ENDBRANCH  10  12
ENDBRANCH   5  10
BRANCH   6  25
HETATM   25  N8  UNL     1       7.289  42.874   6.505  1.00  0.00    -0.322 N 
ATOM     26  H82 UNL     1       7.466  42.718   7.497  1.00  0.00     0.178 HD
ATOM     27  H81 UNL     1       6.670  43.609   6.159  1.00  0.00     0.178 HD
ENDBRANCH   6  25
BRANCH   2  28
HETATM   28  O1  UNL     1       9.811  39.506   3.006  1.00  0.00    -0.345 OA
ATOM     29  H1  UNL     1      10.751  39.371   3.027  1.00  0.00     0.219 HD
ENDBRANCH   2  28
BRANCH   1  30
HETATM   30  C1  UNL     1       8.413  41.820   1.890  1.00  0.00     0.126 C 
HETATM   31  N2  UNL     1       9.230  41.760   0.978  1.00  0.00    -0.317 N 
ATOM     32  H2  UNL     1       8.727  42.070   0.146  1.00  0.00     0.185 HD
BRANCH  31  33
HETATM   33  N1  UNL     1      10.443  41.486   0.563  1.00  0.00    -0.345 N 
ATOM     34  H12 UNL     1      10.728  40.720   1.173  1.00  0.00     0.176 HD
ATOM     35  H11 UNL     1      11.219  41.675  -0.071  1.00  0.00     0.176 HD
ENDBRANCH  31  33
ENDBRANCH   1  30
BRANCH   8  36
HETATM   36  N10 UNL     1       6.719  44.253   3.085  1.00  0.00    -0.344 N 
ATOM     37 2H10 UNL     1       6.039  43.692   2.571  1.00  0.00     0.176 HD
ATOM     38 1H10 UNL     1       6.700  45.187   2.677  1.00  0.00     0.176 HD
ENDBRANCH   8  36
TORSDOF 10
ENDMDL
MODEL 4
REMARK VINA RESULT: -7.038153934      1.164      1.529
REMARK  10 active torsions:
REMARK  status: ('A' for Active; 'I' for Inactive)
REMARK    1  A    between atoms: N1_1  and  N2_4 
REMARK    2  A    between atoms: C1_6  and  C2_7 
REMARK    3  A    between atoms: C3_8  and  O1_9 
REMARK    4  A    between atoms: C4_13  and  N4_14 
REMARK    5  A    between atoms: N4_14  and  N5_16 
REMARK    6  A    between atoms: C5_18  and  C6_19 
REMARK    7  A    between atoms: C7_21  and  N6_22 
REMARK    8  A    between atoms: C9_26  and  O5_27 
REMARK    9  A    between atoms: N7_29  and  N8_30 
REMARK   10  A    between atoms: N9_34  and  N10_36 
ROOT
HETATM    1  C2  UNL     1      20.085  41.842   4.018  1.00  0.00     0.080 A 
HETATM    2  C3  UNL     1      18.849  41.501   4.516  1.00  0.00     0.171 A 
HETATM    3  N3  UNL     1      18.189  42.333   5.364  1.00  0.00    -0.166 N 
ATOM      4  H3  UNL     1      17.274  42.057   5.721  1.00  0.00     0.186 HD
HETATM    5  C4  UNL     1      18.713  43.508   5.742  1.00  0.00     0.721 A 
HETATM    6  N7  UNL     1      19.908  43.864   5.275  1.00  0.00    -0.072 N 
HETATM    7  C10 UNL     1      20.644  43.076   4.411  1.00  0.00     0.175 A 
HETATM    8  N9  UNL     1      21.733  43.533   4.062  1.00  0.00    -0.289 N 
ATOM      9  H9  UNL     1      21.802  44.432   4.539  1.00  0.00     0.188 HD
ENDROOT
BRANCH   5  10
HETATM   10  N4  UNL     1      18.069  44.304   6.560  1.00  0.00    -0.130 N 
ATOM     11  H4  UNL     1      18.038  45.311   6.404  1.00  0.00     0.205 HD
BRANCH  10  12
HETATM   12  N5  UNL     1      17.430  43.721   7.647  1.00  0.00    -0.295 N 
HETATM   13  C5  UNL     1      16.217  44.004   7.966  1.00  0.00     0.147 C 
ATOM     14  H5  UNL     1      17.942  43.044   8.213  1.00  0.00     0.186 HD
BRANCH  13  15
HETATM   15  C6  UNL     1      15.617  43.347   9.125  1.00  0.00     0.128 A 
HETATM   16  O2  UNL     1      14.580  42.544   9.132  1.00  0.00    -0.284 OA
HETATM   17  C7  UNL     1      14.291  42.122  10.318  1.00  0.00     0.218 A 
HETATM   18  C8  UNL     1      15.212  42.689  11.189  1.00  0.00     0.102 A 
HETATM   19  C9  UNL     1      16.045  43.458  10.442  1.00  0.00     0.105 A 
BRANCH  17  20
HETATM   20  N6  UNL     1      13.231  41.239  10.704  1.00  0.00    -0.090 N 
HETATM   21  O3  UNL     1      12.414  40.885   9.840  1.00  0.00    -0.530 OA
HETATM   22  O4  UNL     1      13.127  40.799  11.990  1.00  0.00    -0.530 OA
ENDBRANCH  17  20
BRANCH  19  23
HETATM   23  O5  UNL     1      17.142  44.238  10.850  1.00  0.00    -0.358 OA
ATOM     24  H5  UNL     1      18.048  44.013  10.676  1.00  0.00     0.217 HD
ENDBRANCH  19  23
ENDBRANCH  13  15
ENDBRANCH  10  12
ENDBRANCH   5  10
BRANCH   6  25
HETATM   25  N8  UNL     1      20.426  45.092   5.688  1.00  0.00    -0.322 N 
ATOM     26  H82 UNL     1      21.099  45.575   5.094  1.00  0.00     0.178 HD
ATOM     27  H81 UNL     1      20.106  45.463   6.583  1.00  0.00     0.178 HD
ENDBRANCH   6  25
BRANCH   2  28
HETATM   28  O1  UNL     1      18.185  40.321   4.214  1.00  0.00    -0.345 OA
ATOM     29  H1  UNL     1      18.035  40.003   3.331  1.00  0.00     0.219 HD
ENDBRANCH   2  28
BRANCH   1  30
HETATM   30  C1  UNL     1      20.814  40.980   3.114  1.00  0.00     0.126 C 
HETATM   31  N2  UNL     1      20.478  40.124   2.304  1.00  0.00    -0.317 N 
ATOM     32  H2  UNL     1      21.349  39.782   1.898  1.00  0.00     0.185 HD
BRANCH  31  33
HETATM   33  N1  UNL     1      19.531  39.439   1.711  1.00  0.00    -0.345 N 
ATOM     34  H12 UNL     1      18.691  39.981   1.914  1.00  0.00     0.176 HD
ATOM     35  H11 UNL     1      19.245  38.635   1.153  1.00  0.00     0.176 HD
ENDBRANCH  31  33
ENDBRANCH   1  30
BRANCH   8  36
HETATM   36  N10 UNL     1      22.845  43.434   3.381  1.00  0.00    -0.344 N 
ATOM     37 2H10 UNL     1      22.564  43.748   2.451  1.00  0.00     0.176 HD
ATOM     38 1H10 UNL     1      23.836  43.200   3.327  1.00  0.00     0.176 HD
ENDBRANCH   8  36
TORSDOF 10
ENDMDL
MODEL 5
REMARK VINA RESULT: -7.026438322      6.644      9.517
REMARK  10 active torsions:
REMARK  status: ('A' for Active; 'I' for Inactive)
REMARK    1  A    between atoms: N1_1  and  N2_4 
REMARK    2  A    between atoms: C1_6  and  C2_7 
REMARK    3  A    between atoms: C3_8  and  O1_9 
REMARK    4  A    between atoms: C4_13  and  N4_14 
REMARK    5  A    between atoms: N4_14  and  N5_16 
REMARK    6  A    between atoms: C5_18  and  C6_19 
REMARK    7  A    between atoms: C7_21  and  N6_22 
REMARK    8  A    between atoms: C9_26  and  O5_27 
REMARK    9  A    between atoms: N7_29  and  N8_30 
REMARK   10  A    between atoms: N9_34  and  N10_36 
ROOT
HETATM    1  C2  UNL     1       7.963  41.749   3.173  1.00  0.00     0.080 A 
HETATM    2  C3  UNL     1       8.426  42.937   3.688  1.00  0.00     0.171 A 
HETATM    3  N3  UNL     1       8.423  43.160   5.029  1.00  0.00    -0.166 N 
ATOM      4  H3  UNL     1       8.771  44.050   5.388  1.00  0.00     0.186 HD
HETATM    5  C4  UNL     1       7.974  42.237   5.892  1.00  0.00     0.721 A 
HETATM    6  N7  UNL     1       7.520  41.078   5.421  1.00  0.00    -0.072 N 
HETATM    7  C10 UNL     1       7.488  40.773   4.074  1.00  0.00     0.175 A 
HETATM    8  N9  UNL     1       7.041  39.663   3.785  1.00  0.00    -0.289 N 
ATOM      9  H9  UNL     1       6.798  39.239   4.681  1.00  0.00     0.188 HD
ENDROOT
BRANCH   5  10
HETATM   10  N4  UNL     1       7.976  42.461   7.183  1.00  0.00    -0.130 N 
ATOM     11  H4  UNL     1       7.109  42.474   7.720  1.00  0.00     0.205 HD
BRANCH  10  12
HETATM   12  N5  UNL     1       9.206  42.680   7.792  1.00  0.00    -0.295 N 
HETATM   13  C5  UNL     1      10.104  41.763   7.877  1.00  0.00     0.147 C 
ATOM     14  H5  UNL     1       9.403  43.599   8.185  1.00  0.00     0.186 HD
BRANCH  13  15
HETATM   15  C6  UNL     1      11.372  42.073   8.532  1.00  0.00     0.128 A 
HETATM   16  O2  UNL     1      12.067  41.292   9.325  1.00  0.00    -0.284 OA
HETATM   17  C7  UNL     1      13.149  41.855   9.748  1.00  0.00     0.218 A 
HETATM   18  C8  UNL     1      13.192  43.127   9.194  1.00  0.00     0.102 A 
HETATM   19  C9  UNL     1      12.077  43.266   8.430  1.00  0.00     0.105 A 
BRANCH  17  20
HETATM   20  N6  UNL     1      14.142  41.306  10.624  1.00  0.00    -0.090 N 
HETATM   21  O3  UNL     1      14.538  40.149  10.417  1.00  0.00    -0.530 OA
HETATM   22  O4  UNL     1      14.637  42.042  11.659  1.00  0.00    -0.530 OA
ENDBRANCH  17  20
BRANCH  19  23
HETATM   23  O5  UNL     1      11.656  44.366   7.662  1.00  0.00    -0.358 OA
ATOM     24  H5  UNL     1      10.797  44.766   7.733  1.00  0.00     0.217 HD
ENDBRANCH  19  23
ENDBRANCH  13  15
ENDBRANCH  10  12
ENDBRANCH   5  10
BRANCH   6  25
HETATM   25  N8  UNL     1       7.059  40.139   6.345  1.00  0.00    -0.322 N 
ATOM     26  H82 UNL     1       6.200  40.327   6.861  1.00  0.00     0.178 HD
ATOM     27  H81 UNL     1       7.609  39.289   6.470  1.00  0.00     0.178 HD
ENDBRANCH   6  25
BRANCH   2  28
HETATM   28  O1  UNL     1       8.920  43.982   2.920  1.00  0.00    -0.345 OA
ATOM     29  H1  UNL     1       9.656  44.527   3.170  1.00  0.00     0.219 HD
ENDBRANCH   2  28
BRANCH   1  30
HETATM   30  C1  UNL     1       7.951  41.480   1.753  1.00  0.00     0.126 C 
HETATM   31  N2  UNL     1       8.732  41.720   0.839  1.00  0.00    -0.317 N 
ATOM     32  H2  UNL     1       8.292  41.335   0.003  1.00  0.00     0.185 HD
BRANCH  31  33
HETATM   33  N1  UNL     1       9.864  42.236   0.425  1.00  0.00    -0.345 N 
ATOM     34  H12 UNL     1       9.917  41.928  -0.546  1.00  0.00     0.176 HD
ATOM     35  H11 UNL     1      10.699  42.789   0.614  1.00  0.00     0.176 HD
ENDBRANCH  31  33
ENDBRANCH   1  30
BRANCH   8  36
HETATM   36  N10 UNL     1       6.724  38.758   2.894  1.00  0.00    -0.344 N 
ATOM     37 2H10 UNL     1       5.724  38.913   2.767  1.00  0.00     0.176 HD
ATOM     38 1H10 UNL     1       6.986  37.990   2.277  1.00  0.00     0.176 HD
ENDBRANCH   8  36
TORSDOF 10
ENDMDL
