MODEL 1
REMARK VINA RESULT: -5.672782595      0.000      0.000
REMARK  1 active torsions:
REMARK  status: ('A' for Active; 'I' for Inactive)
REMARK    1  A    between atoms: N1_1  and  N2_4 
REMARK       I    between atoms: N2_4  and  C1_6 
REMARK       I    between atoms: C1_6  and  N3_8 
ROOT
HETATM    1  N2  UNL     1      47.086  -4.884  13.259  1.00  0.00    -0.257 N 
ATOM      2  H2  UNL     1      46.150  -4.703  13.622  1.00  0.00     0.191 HD
HETATM    3  C1  UNL     1      47.537  -4.154  12.157  1.00  0.00     0.352 C 
HETATM    4  O1  UNL     1      48.731  -4.412  11.722  1.00  0.00    -0.244 OA
HETATM    5  N3  UNL     1      46.867  -3.156  11.432  1.00  0.00    -0.163 N 
HETATM    6  C2  UNL     1      45.638  -2.739  11.708  1.00  0.00     0.342 A 
HETATM    7  O2  UNL     1      44.939  -3.195  12.650  1.00  0.00    -0.246 OA
HETATM    8  N4  UNL     1      45.007  -1.763  10.984  1.00  0.00    -0.260 N 
ATOM      9  H4  UNL     1      44.061  -1.478  11.235  1.00  0.00     0.175 HD
HETATM   10  C3  UNL     1      45.620  -1.187   9.958  1.00  0.00     0.332 A 
HETATM   11  O3  UNL     1      45.105  -0.287   9.251  1.00  0.00    -0.246 OA
HETATM   12  N5  UNL     1      46.875  -1.582   9.643  1.00  0.00    -0.260 N 
ATOM     13  H5  UNL     1      47.365  -1.152   8.858  1.00  0.00     0.175 HD
HETATM   14  C4  UNL     1      47.470  -2.538  10.364  1.00  0.00     0.342 A 
HETATM   15  O4  UNL     1      48.634  -2.879  10.042  1.00  0.00    -0.246 OA
ENDROOT
BRANCH   1  16
HETATM   16  N1  UNL     1      47.885  -5.867  13.887  1.00  0.00    -0.341 N 
ATOM     17  H12 UNL     1      48.259  -6.620  13.309  1.00  0.00     0.177 HD
ATOM     18  H11 UNL     1      48.093  -5.839  14.885  1.00  0.00     0.177 HD
ENDBRANCH   1  16
TORSDOF 1
ENDMDL
MODEL 2
REMARK VINA RESULT: -5.577691844      0.860      2.402
REMARK  1 active torsions:
REMARK  status: ('A' for Active; 'I' for Inactive)
REMARK    1  A    between atoms: N1_1  and  N2_4 
REMARK       I    between atoms: N2_4  and  C1_6 
REMARK       I    between atoms: C1_6  and  N3_8 
ROOT
HETATM    1  N2  UNL     1      47.656  -4.910  12.870  1.00  0.00    -0.257 N 
ATOM      2  H2  UNL     1      48.301  -5.043  12.091  1.00  0.00     0.191 HD
HETATM    3  C1  UNL     1      46.717  -3.877  12.801  1.00  0.00     0.352 C 
HETATM    4  O1  UNL     1      45.914  -3.737  13.808  1.00  0.00    -0.244 OA
HETATM    5  N3  UNL     1      46.512  -2.945  11.772  1.00  0.00    -0.163 N 
HETATM    6  C2  UNL     1      47.224  -2.910  10.651  1.00  0.00     0.342 A 
HETATM    7  O2  UNL     1      48.160  -3.710  10.391  1.00  0.00    -0.246 OA
HETATM    8  N4  UNL     1      47.003  -1.989   9.663  1.00  0.00    -0.260 N 
ATOM      9  H4  UNL     1      47.577  -2.002   8.820  1.00  0.00     0.175 HD
HETATM   10  C3  UNL     1      46.046  -1.080   9.795  1.00  0.00     0.332 A 
HETATM   11  O3  UNL     1      45.787  -0.206   8.932  1.00  0.00    -0.246 OA
HETATM   12  N5  UNL     1      45.297  -1.079  10.922  1.00  0.00    -0.260 N 
ATOM     13  H5  UNL     1      44.557  -0.389  11.044  1.00  0.00     0.175 HD
HETATM   14  C4  UNL     1      45.532  -1.988  11.874  1.00  0.00     0.342 A 
HETATM   15  O4  UNL     1      44.818  -1.958  12.905  1.00  0.00    -0.246 OA
ENDROOT
BRANCH   1  16
HETATM   16  N1  UNL     1      47.740  -5.775  13.985  1.00  0.00    -0.341 N 
ATOM     17  H12 UNL     1      47.688  -5.361  14.916  1.00  0.00     0.177 HD
ATOM     18  H11 UNL     1      47.849  -6.784  13.880  1.00  0.00     0.177 HD
ENDBRANCH   1  16
TORSDOF 1
ENDMDL
MODEL 3
REMARK VINA RESULT: -5.482305889      1.390      4.812
REMARK  1 active torsions:
REMARK  status: ('A' for Active; 'I' for Inactive)
REMARK    1  A    between atoms: N1_1  and  N2_4 
REMARK       I    between atoms: N2_4  and  C1_6 
REMARK       I    between atoms: C1_6  and  N3_8 
ROOT
HETATM    1  N2  UNL     1      45.950  -1.370   9.605  1.00  0.00    -0.257 N 
ATOM      2  H2  UNL     1      46.701  -1.616   8.960  1.00  0.00     0.191 HD
HETATM    3  C1  UNL     1      45.857  -2.046  10.824  1.00  0.00     0.352 C 
HETATM    4  O1  UNL     1      44.890  -1.707  11.619  1.00  0.00    -0.244 OA
HETATM    5  N3  UNL     1      46.680  -3.065  11.327  1.00  0.00    -0.163 N 
HETATM    6  C2  UNL     1      47.727  -3.561  10.678  1.00  0.00     0.342 A 
HETATM    7  O2  UNL     1      48.093  -3.170   9.539  1.00  0.00    -0.246 OA
HETATM    8  N4  UNL     1      48.513  -4.556  11.192  1.00  0.00    -0.260 N 
ATOM      9  H4  UNL     1      49.306  -4.905  10.653  1.00  0.00     0.175 HD
HETATM   10  C3  UNL     1      48.251  -5.069  12.387  1.00  0.00     0.332 A 
HETATM   11  O3  UNL     1      48.927  -5.982  12.921  1.00  0.00    -0.246 OA
HETATM   12  N5  UNL     1      47.193  -4.593  13.083  1.00  0.00    -0.260 N 
ATOM     13  H5  UNL     1      46.973  -4.973  14.004  1.00  0.00     0.175 HD
HETATM   14  C4  UNL     1      46.438  -3.621  12.560  1.00  0.00     0.342 A 
HETATM   15  O4  UNL     1      45.465  -3.204  13.235  1.00  0.00    -0.246 OA
ENDROOT
BRANCH   1  16
HETATM   16  N1  UNL     1      45.035  -0.357   9.236  1.00  0.00    -0.341 N 
ATOM     17  H12 UNL     1      44.892   0.417   9.886  1.00  0.00     0.177 HD
ATOM     18  H11 UNL     1      44.527  -0.381   8.352  1.00  0.00     0.177 HD
ENDBRANCH   1  16
TORSDOF 1
ENDMDL
MODEL 4
REMARK VINA RESULT: -5.411632272      1.795      3.967
REMARK  1 active torsions:
REMARK  status: ('A' for Active; 'I' for Inactive)
REMARK    1  A    between atoms: N1_1  and  N2_4 
REMARK       I    between atoms: N2_4  and  C1_6 
REMARK       I    between atoms: C1_6  and  N3_8 
ROOT
HETATM    1  N2  UNL     1      49.875  -2.167   9.384  1.00  0.00    -0.257 N 
ATOM      2  H2  UNL     1      50.174  -3.000   9.891  1.00  0.00     0.191 HD
HETATM    3  C1  UNL     1      48.570  -1.700   9.562  1.00  0.00     0.352 C 
HETATM    4  O1  UNL     1      48.225  -0.639   8.901  1.00  0.00    -0.244 OA
HETATM    5  N3  UNL     1      47.553  -2.225  10.374  1.00  0.00    -0.163 N 
HETATM    6  C2  UNL     1      47.695  -3.305  11.133  1.00  0.00     0.342 A 
HETATM    7  O2  UNL     1      48.757  -3.975  11.206  1.00  0.00    -0.246 OA
HETATM    8  N4  UNL     1      46.685  -3.797  11.915  1.00  0.00    -0.260 N 
ATOM      9  H4  UNL     1      46.842  -4.631  12.481  1.00  0.00     0.175 HD
HETATM   10  C3  UNL     1      45.503  -3.194  11.943  1.00  0.00     0.332 A 
HETATM   11  O3  UNL     1      44.533  -3.587  12.635  1.00  0.00    -0.246 OA
HETATM   12  N5  UNL     1      45.316  -2.090  11.184  1.00  0.00    -0.260 N 
ATOM     13  H5  UNL     1      44.416  -1.611  11.190  1.00  0.00     0.175 HD
HETATM   14  C4  UNL     1      46.317  -1.629  10.427  1.00  0.00     0.342 A 
HETATM   15  O4  UNL     1      46.107  -0.602   9.736  1.00  0.00    -0.246 OA
ENDROOT
BRANCH   1  16
HETATM   16  N1  UNL     1      50.793  -1.523   8.523  1.00  0.00    -0.341 N 
ATOM     17  H12 UNL     1      50.422  -0.876   7.826  1.00  0.00     0.177 HD
ATOM     18  H11 UNL     1      51.798  -1.688   8.582  1.00  0.00     0.177 HD
ENDBRANCH   1  16
TORSDOF 1
ENDMDL
MODEL 5
REMARK VINA RESULT: -5.374019445      2.307      4.902
REMARK  1 active torsions:
REMARK  status: ('A' for Active; 'I' for Inactive)
REMARK    1  A    between atoms: N1_1  and  N2_4 
REMARK       I    between atoms: N2_4  and  C1_6 
REMARK       I    between atoms: C1_6  and  N3_8 
ROOT
HETATM    1  N2  UNL     1      46.073  -1.390   9.948  1.00  0.00    -0.257 N 
ATOM      2  H2  UNL     1      46.954  -1.340   9.438  1.00  0.00     0.191 HD
HETATM    3  C1  UNL     1      46.099  -1.637  11.323  1.00  0.00     0.352 C 
HETATM    4  O1  UNL     1      44.959  -1.694  11.937  1.00  0.00    -0.244 OA
HETATM    5  N3  UNL     1      47.210  -1.838  12.157  1.00  0.00    -0.163 N 
HETATM    6  C2  UNL     1      48.467  -1.820  11.733  1.00  0.00     0.342 A 
HETATM    7  O2  UNL     1      48.800  -1.622  10.536  1.00  0.00    -0.246 OA
HETATM    8  N4  UNL     1      49.533  -2.019  12.568  1.00  0.00    -0.260 N 
ATOM      9  H4  UNL     1      50.481  -1.998  12.195  1.00  0.00     0.175 HD
HETATM   10  C3  UNL     1      49.339  -2.241  13.862  1.00  0.00     0.332 A 
HETATM   11  O3  UNL     1      50.266  -2.431  14.687  1.00  0.00    -0.246 OA
HETATM   12  N5  UNL     1      48.072  -2.267  14.337  1.00  0.00    -0.260 N 
ATOM     13  H5  UNL     1      47.899  -2.435  15.328  1.00  0.00     0.175 HD
HETATM   14  C4  UNL     1      47.047  -2.071  13.501  1.00  0.00     0.342 A 
HETATM   15  O4  UNL     1      45.886  -2.102  13.977  1.00  0.00    -0.246 OA
ENDROOT
BRANCH   1  16
HETATM   16  N1  UNL     1      44.862  -1.208   9.240  1.00  0.00    -0.341 N 
ATOM     17  H12 UNL     1      44.734  -1.724   8.370  1.00  0.00     0.177 HD
ATOM     18  H11 UNL     1      44.128  -0.583   9.575  1.00  0.00     0.177 HD
ENDBRANCH   1  16
TORSDOF 1
ENDMDL
