MODEL 1
REMARK VINA RESULT: -7.793144084      0.000      0.000
REMARK  10 active torsions:
REMARK  status: ('A' for Active; 'I' for Inactive)
REMARK    1  A    between atoms: C2_2  and  N1_3 
REMARK       I    between atoms: N1_3  and  C3_5 
REMARK       I    between atoms: C3_5  and  N2_7 
REMARK    2  A    between atoms: N2_7  and  S1_9 
REMARK    3  A    between atoms: S1_9  and  O4_12 
REMARK    4  A    between atoms: O4_12  and  C4_13 
REMARK    5  A    between atoms: C4_13  and  C5_14 
REMARK    6  A    between atoms: C6_16  and  N3_17 
REMARK    7  A    between atoms: C13_24  and  N4_25 
REMARK    8  A    between atoms: C14_29  and  C15_30 
REMARK    9  A    between atoms: C14_29  and  O6_32 
REMARK   10  A    between atoms: O6_32  and  C17_33 
ROOT
HETATM    1  C5  UNL     1      10.037  -8.197  -1.060  1.00  0.00     0.186 C 
HETATM    2  O5  UNL     1      10.052  -6.883  -1.441  1.00  0.00    -0.345 OA
HETATM    3  C6  UNL     1       9.708  -6.752  -2.762  1.00  0.00     0.393 C 
HETATM    4  C13 UNL     1       9.393  -8.156  -3.273  1.00  0.00     0.280 C 
HETATM    5  C14 UNL     1      10.314  -8.948  -2.384  1.00  0.00     0.130 C 
ENDROOT
BRANCH   1   6
HETATM    6  C4  UNL     1      11.266  -8.476  -0.182  1.00  0.00     0.227 C 
BRANCH   6   7
HETATM    7  O4  UNL     1      11.042  -7.990   1.114  1.00  0.00    -0.257 OA
BRANCH   7   8
HETATM    8  S1  UNL     1      12.133  -6.826   1.552  1.00  0.00     0.365 S 
HETATM    9  O2  UNL     1      12.722  -6.114   0.356  1.00  0.00    -0.175 OA
HETATM   10  O3  UNL     1      11.361  -5.765   2.326  1.00  0.00    -0.175 OA
BRANCH   8  11
HETATM   11  N2  UNL     1      13.409  -7.364   2.546  1.00  0.00    -0.213 N 
HETATM   12  C3  UNL     1      13.216  -8.052   3.769  1.00  0.00     0.331 C 
HETATM   13  N1  UNL     1      14.270  -8.504   4.597  1.00  0.00    -0.343 N 
HETATM   14  O1  UNL     1      12.002  -8.260   4.116  1.00  0.00    -0.246 OA
ATOM     15  H1  UNL     1      15.233  -8.334   4.311  1.00  0.00     0.164 HD
ATOM     16  H2  UNL     1      14.367  -7.180   2.243  1.00  0.00     0.185 HD
BRANCH  13  17
HETATM   17  C2  UNL     1      14.017  -9.205   5.843  1.00  0.00     0.120 C 
HETATM   18  C1  UNL     1      14.394  -8.323   7.011  1.00  0.00     0.026 C 
ENDBRANCH  13  17
ENDBRANCH   8  11
ENDBRANCH   7   8
ENDBRANCH   6   7
ENDBRANCH   1   6
BRANCH   5  19
HETATM   19  C15 UNL     1      10.054 -10.391  -2.268  1.00  0.00     0.039 C 
HETATM   20  C16 UNL     1       9.628 -11.126  -3.488  1.00  0.00     0.008 C 
ENDBRANCH   5  19
BRANCH   5  21
HETATM   21  O6  UNL     1      11.658  -8.628  -2.661  1.00  0.00    -0.308 OA
BRANCH  21  22
HETATM   22  C17 UNL     1      12.431  -9.243  -3.612  1.00  0.00     0.226 C 
HETATM   23  N5  UNL     1      12.395  -8.810  -4.819  1.00  0.00    -0.368 N 
ATOM     24  H52 UNL     1      11.809  -8.021  -5.093  1.00  0.00     0.159 HD
ATOM     25  H51 UNL     1      12.970  -9.267  -5.526  1.00  0.00     0.159 HD
HETATM   26  N6  UNL     1      13.240 -10.332  -3.233  1.00  0.00    -0.057 NA
ENDBRANCH  21  22
ENDBRANCH   5  21
BRANCH   3  27
HETATM   27  N3  UNL     1      10.778  -6.179  -3.490  1.00  0.00     0.119 N 
HETATM   28  C7  UNL     1      11.416  -5.096  -2.767  1.00  0.00     0.276 C 
HETATM   29  C8  UNL     1      10.549  -3.855  -2.708  1.00  0.00     0.030 C 
HETATM   30  C9  UNL     1      10.792  -2.963  -3.891  1.00  0.00     0.002 C 
HETATM   31  C10 UNL     1       9.812  -3.293  -4.974  1.00  0.00     0.002 C 
HETATM   32  C11 UNL     1       9.364  -4.757  -4.947  1.00  0.00     0.030 C 
HETATM   33  C12 UNL     1      10.507  -5.705  -4.807  1.00  0.00     0.276 C 
ENDBRANCH   3  27
BRANCH   4  34
HETATM   34  N4  UNL     1       7.985  -8.352  -2.939  1.00  0.00    -0.068 N 
ATOM     35  H43 UNL     1       7.453  -7.487  -2.846  1.00  0.00     0.275 HD
ATOM     36  H42 UNL     1       7.427  -8.746  -3.696  1.00  0.00     0.275 HD
ATOM     37  H41 UNL     1       8.006  -8.923  -2.094  1.00  0.00     0.275 HD
ENDBRANCH   4  34
TORSDOF 10
ENDMDL
MODEL 2
REMARK VINA RESULT: -7.772964402      1.904      2.077
REMARK  10 active torsions:
REMARK  status: ('A' for Active; 'I' for Inactive)
REMARK    1  A    between atoms: C2_2  and  N1_3 
REMARK       I    between atoms: N1_3  and  C3_5 
REMARK       I    between atoms: C3_5  and  N2_7 
REMARK    2  A    between atoms: N2_7  and  S1_9 
REMARK    3  A    between atoms: S1_9  and  O4_12 
REMARK    4  A    between atoms: O4_12  and  C4_13 
REMARK    5  A    between atoms: C4_13  and  C5_14 
REMARK    6  A    between atoms: C6_16  and  N3_17 
REMARK    7  A    between atoms: C13_24  and  N4_25 
REMARK    8  A    between atoms: C14_29  and  C15_30 
REMARK    9  A    between atoms: C14_29  and  O6_32 
REMARK   10  A    between atoms: O6_32  and  C17_33 
ROOT
HETATM    1  C5  UNL     1      10.108  -7.618  -1.381  1.00  0.00     0.186 C 
HETATM    2  O5  UNL     1      10.298  -6.264  -1.420  1.00  0.00    -0.345 OA
HETATM    3  C6  UNL     1      10.061  -5.772  -2.678  1.00  0.00     0.393 C 
HETATM    4  C13 UNL     1       9.624  -6.958  -3.536  1.00  0.00     0.280 C 
HETATM    5  C14 UNL     1      10.388  -8.053  -2.839  1.00  0.00     0.130 C 
ENDROOT
BRANCH   1   6
HETATM    6  C4  UNL     1      11.236  -8.256  -0.555  1.00  0.00     0.227 C 
BRANCH   6   7
HETATM    7  O4  UNL     1      11.987  -7.252   0.073  1.00  0.00    -0.257 OA
BRANCH   7   8
HETATM    8  S1  UNL     1      11.988  -7.400   1.721  1.00  0.00     0.365 S 
HETATM    9  O2  UNL     1      13.385  -7.368   2.298  1.00  0.00    -0.175 OA
HETATM   10  O3  UNL     1      11.282  -6.169   2.276  1.00  0.00    -0.175 OA
BRANCH   8  11
HETATM   11  N2  UNL     1      11.182  -8.775   2.328  1.00  0.00    -0.213 N 
HETATM   12  C3  UNL     1      10.950  -9.004   3.706  1.00  0.00     0.331 C 
HETATM   13  N1  UNL     1      10.278 -10.140   4.216  1.00  0.00    -0.343 N 
HETATM   14  O1  UNL     1      11.385  -8.110   4.511  1.00  0.00    -0.246 OA
ATOM     15  H1  UNL     1       9.934 -10.846   3.567  1.00  0.00     0.164 HD
ATOM     16  H2  UNL     1      10.849  -9.471   1.661  1.00  0.00     0.185 HD
BRANCH  13  17
HETATM   17  C2  UNL     1      10.066 -10.328   5.640  1.00  0.00     0.120 C 
HETATM   18  C1  UNL     1       9.078 -11.449   5.865  1.00  0.00     0.026 C 
ENDBRANCH  13  17
ENDBRANCH   8  11
ENDBRANCH   7   8
ENDBRANCH   6   7
ENDBRANCH   1   6
BRANCH   5  19
HETATM   19  C15 UNL     1       9.959  -9.436  -3.098  1.00  0.00     0.039 C 
HETATM   20  C16 UNL     1       9.014 -10.067  -2.140  1.00  0.00     0.008 C 
ENDBRANCH   5  19
BRANCH   5  21
HETATM   21  O6  UNL     1      11.775  -7.847  -2.977  1.00  0.00    -0.308 OA
BRANCH  21  22
HETATM   22  C17 UNL     1      12.579  -8.497  -3.877  1.00  0.00     0.226 C 
HETATM   23  N5  UNL     1      12.655  -8.053  -5.078  1.00  0.00    -0.368 N 
ATOM     24  H52 UNL     1      12.136  -7.230  -5.384  1.00  0.00     0.159 HD
ATOM     25  H51 UNL     1      13.253  -8.536  -5.748  1.00  0.00     0.159 HD
HETATM   26  N6  UNL     1      13.295  -9.634  -3.454  1.00  0.00    -0.057 NA
ENDBRANCH  21  22
ENDBRANCH   5  21
BRANCH   3  27
HETATM   27  N3  UNL     1      11.235  -5.179  -3.199  1.00  0.00     0.119 N 
HETATM   28  C7  UNL     1      11.979  -4.453  -2.187  1.00  0.00     0.276 C 
HETATM   29  C8  UNL     1      11.290  -3.169  -1.778  1.00  0.00     0.030 C 
HETATM   30  C9  UNL     1      11.713  -2.021  -2.650  1.00  0.00     0.002 C 
HETATM   31  C10 UNL     1      10.754  -1.880  -3.790  1.00  0.00     0.002 C 
HETATM   32  C11 UNL     1      10.107  -3.208  -4.193  1.00  0.00     0.030 C 
HETATM   33  C12 UNL     1      11.100  -4.314  -4.325  1.00  0.00     0.276 C 
ENDBRANCH   3  27
BRANCH   4  34
HETATM   34  N4  UNL     1       8.184  -7.050  -3.314  1.00  0.00    -0.068 N 
ATOM     35  H43 UNL     1       7.886  -6.773  -2.379  1.00  0.00     0.275 HD
ATOM     36  H42 UNL     1       7.638  -6.350  -3.816  1.00  0.00     0.275 HD
ATOM     37  H41 UNL     1       7.954  -8.014  -3.558  1.00  0.00     0.275 HD
ENDBRANCH   4  34
TORSDOF 10
ENDMDL
MODEL 3
REMARK VINA RESULT: -7.580053997      2.780      6.696
REMARK  10 active torsions:
REMARK  status: ('A' for Active; 'I' for Inactive)
REMARK    1  A    between atoms: C2_2  and  N1_3 
REMARK       I    between atoms: N1_3  and  C3_5 
REMARK       I    between atoms: C3_5  and  N2_7 
REMARK    2  A    between atoms: N2_7  and  S1_9 
REMARK    3  A    between atoms: S1_9  and  O4_12 
REMARK    4  A    between atoms: O4_12  and  C4_13 
REMARK    5  A    between atoms: C4_13  and  C5_14 
REMARK    6  A    between atoms: C6_16  and  N3_17 
REMARK    7  A    between atoms: C13_24  and  N4_25 
REMARK    8  A    between atoms: C14_29  and  C15_30 
REMARK    9  A    between atoms: C14_29  and  O6_32 
REMARK   10  A    between atoms: O6_32  and  C17_33 
ROOT
HETATM    1  C5  UNL     1       9.741  -6.360  -2.286  1.00  0.00     0.186 C 
HETATM    2  O5  UNL     1      10.249  -6.354  -1.015  1.00  0.00    -0.345 OA
HETATM    3  C6  UNL     1      11.526  -5.855  -1.001  1.00  0.00     0.393 C 
HETATM    4  C13 UNL     1      11.855  -5.455  -2.438  1.00  0.00     0.280 C 
HETATM    5  C14 UNL     1      11.007  -6.463  -3.168  1.00  0.00     0.130 C 
ENDROOT
BRANCH   1   6
HETATM    6  C4  UNL     1       8.991  -7.682  -2.516  1.00  0.00     0.227 C 
BRANCH   6   7
HETATM    7  O4  UNL     1       8.790  -8.331  -1.289  1.00  0.00    -0.257 OA
BRANCH   7   8
HETATM    8  S1  UNL     1       9.142  -9.946  -1.362  1.00  0.00     0.365 S 
HETATM    9  O2  UNL     1      10.478 -10.270  -0.734  1.00  0.00    -0.175 OA
HETATM   10  O3  UNL     1       8.100 -10.664  -0.515  1.00  0.00    -0.175 OA
BRANCH   8  11
HETATM   11  N2  UNL     1       9.098 -10.629  -2.924  1.00  0.00    -0.213 N 
HETATM   12  C3  UNL     1       7.904 -10.831  -3.659  1.00  0.00     0.331 C 
HETATM   13  N1  UNL     1       7.860 -11.394  -4.956  1.00  0.00    -0.343 N 
HETATM   14  O1  UNL     1       6.818 -10.472  -3.086  1.00  0.00    -0.246 OA
ATOM     15  H1  UNL     1       8.731 -11.676  -5.405  1.00  0.00     0.164 HD
ATOM     16  H2  UNL     1       9.981 -10.909  -3.353  1.00  0.00     0.185 HD
BRANCH  13  17
HETATM   17  C2  UNL     1       6.608 -11.580  -5.667  1.00  0.00     0.120 C 
HETATM   18  C1  UNL     1       6.279 -10.335  -6.458  1.00  0.00     0.026 C 
ENDBRANCH  13  17
ENDBRANCH   8  11
ENDBRANCH   7   8
ENDBRANCH   6   7
ENDBRANCH   1   6
BRANCH   5  19
HETATM   19  C15 UNL     1      10.719  -6.192  -4.585  1.00  0.00     0.039 C 
HETATM   20  C16 UNL     1       9.642  -5.220  -4.908  1.00  0.00     0.008 C 
ENDBRANCH   5  19
BRANCH   5  21
HETATM   21  O6  UNL     1      11.472  -7.769  -2.916  1.00  0.00    -0.308 OA
BRANCH  21  22
HETATM   22  C17 UNL     1      12.215  -8.519  -3.791  1.00  0.00     0.226 C 
HETATM   23  N5  UNL     1      13.460  -8.249  -3.941  1.00  0.00    -0.368 N 
ATOM     24  H52 UNL     1      13.915  -7.492  -3.429  1.00  0.00     0.159 HD
ATOM     25  H51 UNL     1      14.013  -8.806  -4.591  1.00  0.00     0.159 HD
HETATM   26  N6  UNL     1      11.587  -9.563  -4.498  1.00  0.00    -0.057 NA
ENDBRANCH  21  22
ENDBRANCH   5  21
BRANCH   3  27
HETATM   27  N3  UNL     1      12.429  -6.840  -0.533  1.00  0.00     0.119 N 
HETATM   28  C7  UNL     1      11.993  -7.434   0.716  1.00  0.00     0.276 C 
HETATM   29  C8  UNL     1      12.135  -6.484   1.886  1.00  0.00     0.030 C 
HETATM   30  C9  UNL     1      13.493  -6.596   2.518  1.00  0.00     0.002 C 
HETATM   31  C10 UNL     1      14.413  -5.587   1.907  1.00  0.00     0.002 C 
HETATM   32  C11 UNL     1      14.051  -5.249   0.458  1.00  0.00     0.030 C 
HETATM   33  C12 UNL     1      13.794  -6.464  -0.368  1.00  0.00     0.276 C 
ENDBRANCH   3  27
BRANCH   4  34
HETATM   34  N4  UNL     1      11.339  -4.095  -2.559  1.00  0.00    -0.068 N 
ATOM     35  H43 UNL     1      10.993  -3.859  -3.489  1.00  0.00     0.275 HD
ATOM     36  H42 UNL     1      10.458  -3.937  -2.070  1.00  0.00     0.275 HD
ATOM     37  H41 UNL     1      12.107  -3.506  -2.237  1.00  0.00     0.275 HD
ENDBRANCH   4  34
TORSDOF 10
ENDMDL
MODEL 4
REMARK VINA RESULT: -7.554064754      3.181      6.212
REMARK  10 active torsions:
REMARK  status: ('A' for Active; 'I' for Inactive)
REMARK    1  A    between atoms: C2_2  and  N1_3 
REMARK       I    between atoms: N1_3  and  C3_5 
REMARK       I    between atoms: C3_5  and  N2_7 
REMARK    2  A    between atoms: N2_7  and  S1_9 
REMARK    3  A    between atoms: S1_9  and  O4_12 
REMARK    4  A    between atoms: O4_12  and  C4_13 
REMARK    5  A    between atoms: C4_13  and  C5_14 
REMARK    6  A    between atoms: C6_16  and  N3_17 
REMARK    7  A    between atoms: C13_24  and  N4_25 
REMARK    8  A    between atoms: C14_29  and  C15_30 
REMARK    9  A    between atoms: C14_29  and  O6_32 
REMARK   10  A    between atoms: O6_32  and  C17_33 
ROOT
HETATM    1  C5  UNL     1       9.856  -6.320  -2.229  1.00  0.00     0.186 C 
HETATM    2  O5  UNL     1      10.336  -6.282  -0.948  1.00  0.00    -0.345 OA
HETATM    3  C6  UNL     1      11.634  -5.841  -0.924  1.00  0.00     0.393 C 
HETATM    4  C13 UNL     1      12.012  -5.517  -2.368  1.00  0.00     0.280 C 
HETATM    5  C14 UNL     1      11.135  -6.516  -3.076  1.00  0.00     0.130 C 
ENDROOT
BRANCH   1   6
HETATM    6  C4  UNL     1       9.052  -7.615  -2.421  1.00  0.00     0.227 C 
BRANCH   6   7
HETATM    7  O4  UNL     1       8.993  -8.320  -1.210  1.00  0.00    -0.257 OA
BRANCH   7   8
HETATM    8  S1  UNL     1       9.086  -9.958  -1.426  1.00  0.00     0.365 S 
HETATM    9  O2  UNL     1       8.946 -10.354  -2.878  1.00  0.00    -0.175 OA
HETATM   10  O3  UNL     1      10.491 -10.379  -1.015  1.00  0.00    -0.175 OA
BRANCH   8  11
HETATM   11  N2  UNL     1       7.982 -10.875  -0.505  1.00  0.00    -0.213 N 
HETATM   12  C3  UNL     1       6.578 -10.814  -0.673  1.00  0.00     0.331 C 
HETATM   13  N1  UNL     1       5.656 -11.574   0.085  1.00  0.00    -0.343 N 
HETATM   14  O1  UNL     1       6.149 -10.012  -1.573  1.00  0.00    -0.246 OA
ATOM     15  H1  UNL     1       6.008 -12.211   0.799  1.00  0.00     0.164 HD
ATOM     16  H2  UNL     1       8.355 -11.504   0.208  1.00  0.00     0.185 HD
BRANCH  13  17
HETATM   17  C2  UNL     1       4.224 -11.473  -0.127  1.00  0.00     0.120 C 
HETATM   18  C1  UNL     1       3.529 -12.654   0.510  1.00  0.00     0.026 C 
ENDBRANCH  13  17
ENDBRANCH   8  11
ENDBRANCH   7   8
ENDBRANCH   6   7
ENDBRANCH   1   6
BRANCH   5  19
HETATM   19  C15 UNL     1      10.891  -6.294  -4.509  1.00  0.00     0.039 C 
HETATM   20  C16 UNL     1       9.843  -5.315  -4.898  1.00  0.00     0.008 C 
ENDBRANCH   5  19
BRANCH   5  21
HETATM   21  O6  UNL     1      11.535  -7.830  -2.759  1.00  0.00    -0.308 OA
BRANCH  21  22
HETATM   22  C17 UNL     1      12.249  -8.654  -3.589  1.00  0.00     0.226 C 
HETATM   23  N5  UNL     1      11.655  -9.646  -4.144  1.00  0.00    -0.368 N 
ATOM     24  H52 UNL     1      10.666  -9.841  -3.986  1.00  0.00     0.159 HD
ATOM     25  H51 UNL     1      12.186 -10.259  -4.762  1.00  0.00     0.159 HD
HETATM   26  N6  UNL     1      13.615  -8.385  -3.807  1.00  0.00    -0.057 NA
ENDBRANCH  21  22
ENDBRANCH   5  21
BRANCH   3  27
HETATM   27  N3  UNL     1      12.480  -6.844  -0.394  1.00  0.00     0.119 N 
HETATM   28  C7  UNL     1      11.958  -7.410   0.834  1.00  0.00     0.276 C 
HETATM   29  C8  UNL     1      12.061  -6.448   2.000  1.00  0.00     0.030 C 
HETATM   30  C9  UNL     1      13.377  -6.590   2.710  1.00  0.00     0.002 C 
HETATM   31  C10 UNL     1      14.359  -5.614   2.140  1.00  0.00     0.002 C 
HETATM   32  C11 UNL     1      14.088  -5.286   0.669  1.00  0.00     0.030 C 
HETATM   33  C12 UNL     1      13.844  -6.504  -0.156  1.00  0.00     0.276 C 
ENDBRANCH   3  27
BRANCH   4  34
HETATM   34  N4  UNL     1      11.561  -4.142  -2.558  1.00  0.00    -0.068 N 
ATOM     35  H43 UNL     1      10.862  -3.834  -1.882  1.00  0.00     0.275 HD
ATOM     36  H42 UNL     1      12.260  -3.437  -2.323  1.00  0.00     0.275 HD
ATOM     37  H41 UNL     1      11.247  -4.113  -3.527  1.00  0.00     0.275 HD
ENDBRANCH   4  34
TORSDOF 10
ENDMDL
MODEL 5
REMARK VINA RESULT: -7.497541957      2.690      4.879
REMARK  10 active torsions:
REMARK  status: ('A' for Active; 'I' for Inactive)
REMARK    1  A    between atoms: C2_2  and  N1_3 
REMARK       I    between atoms: N1_3  and  C3_5 
REMARK       I    between atoms: C3_5  and  N2_7 
REMARK    2  A    between atoms: N2_7  and  S1_9 
REMARK    3  A    between atoms: S1_9  and  O4_12 
REMARK    4  A    between atoms: O4_12  and  C4_13 
REMARK    5  A    between atoms: C4_13  and  C5_14 
REMARK    6  A    between atoms: C6_16  and  N3_17 
REMARK    7  A    between atoms: C13_24  and  N4_25 
REMARK    8  A    between atoms: C14_29  and  C15_30 
REMARK    9  A    between atoms: C14_29  and  O6_32 
REMARK   10  A    between atoms: O6_32  and  C17_33 
ROOT
HETATM    1  C5  UNL     1      11.248  -8.593  -1.588  1.00  0.00     0.186 C 
HETATM    2  O5  UNL     1      10.186  -9.391  -1.259  1.00  0.00    -0.345 OA
HETATM    3  C6  UNL     1       9.597  -9.910  -2.384  1.00  0.00     0.393 C 
HETATM    4  C13 UNL     1      10.415  -9.413  -3.574  1.00  0.00     0.280 C 
HETATM    5  C14 UNL     1      10.889  -8.100  -3.009  1.00  0.00     0.130 C 
ENDROOT
BRANCH   1   6
HETATM    6  C4  UNL     1      11.213  -7.331  -0.711  1.00  0.00     0.227 C 
BRANCH   6   7
HETATM    7  O4  UNL     1      12.324  -7.318   0.143  1.00  0.00    -0.257 OA
BRANCH   7   8
HETATM    8  S1  UNL     1      11.930  -7.705   1.702  1.00  0.00     0.365 S 
HETATM    9  O2  UNL     1      13.150  -7.864   2.580  1.00  0.00    -0.175 OA
HETATM   10  O3  UNL     1      11.161  -6.519   2.271  1.00  0.00    -0.175 OA
BRANCH   8  11
HETATM   11  N2  UNL     1      10.949  -9.089   1.881  1.00  0.00    -0.213 N 
HETATM   12  C3  UNL     1      10.540  -9.604   3.135  1.00  0.00     0.331 C 
HETATM   13  N1  UNL     1       9.724 -10.750   3.292  1.00  0.00    -0.343 N 
HETATM   14  O1  UNL     1      10.951  -8.973   4.170  1.00  0.00    -0.246 OA
ATOM     15  H1  UNL     1       9.402 -11.246   2.461  1.00  0.00     0.164 HD
ATOM     16  H2  UNL     1      10.640  -9.573   1.038  1.00  0.00     0.185 HD
BRANCH  13  17
HETATM   17  C2  UNL     1       9.334 -11.238   4.601  1.00  0.00     0.120 C 
HETATM   18  C1  UNL     1       8.311 -12.340   4.452  1.00  0.00     0.026 C 
ENDBRANCH  13  17
ENDBRANCH   8  11
ENDBRANCH   7   8
ENDBRANCH   6   7
ENDBRANCH   1   6
BRANCH   5  19
HETATM   19  C15 UNL     1      12.030  -7.458  -3.679  1.00  0.00     0.039 C 
HETATM   20  C16 UNL     1      13.380  -8.047  -3.482  1.00  0.00     0.008 C 
ENDBRANCH   5  19
BRANCH   5  21
HETATM   21  O6  UNL     1       9.795  -7.240  -2.786  1.00  0.00    -0.308 OA
BRANCH  21  22
HETATM   22  C17 UNL     1       9.183  -6.484  -3.752  1.00  0.00     0.226 C 
HETATM   23  N5  UNL     1       7.920  -6.277  -3.674  1.00  0.00    -0.368 N 
ATOM     24  H52 UNL     1       7.356  -6.658  -2.914  1.00  0.00     0.159 HD
ATOM     25  H51 UNL     1       7.464  -5.715  -4.392  1.00  0.00     0.159 HD
HETATM   26  N6  UNL     1       9.962  -5.957  -4.802  1.00  0.00    -0.057 NA
ENDBRANCH  21  22
ENDBRANCH   5  21
BRANCH   3  27
HETATM   27  N3  UNL     1       8.254  -9.473  -2.477  1.00  0.00     0.119 N 
HETATM   28  C7  UNL     1       7.573  -9.516  -1.198  1.00  0.00     0.276 C 
HETATM   29  C8  UNL     1       7.274 -10.932  -0.753  1.00  0.00     0.030 C 
HETATM   30  C9  UNL     1       5.943 -11.398  -1.271  1.00  0.00     0.002 C 
HETATM   31  C10 UNL     1       6.136 -12.113  -2.571  1.00  0.00     0.002 C 
HETATM   32  C11 UNL     1       7.351 -11.608  -3.355  1.00  0.00     0.030 C 
HETATM   33  C12 UNL     1       7.410 -10.119  -3.428  1.00  0.00     0.276 C 
ENDBRANCH   3  27
BRANCH   4  34
HETATM   34  N4  UNL     1      11.492 -10.390  -3.702  1.00  0.00    -0.068 N 
ATOM     35  H43 UNL     1      12.177 -10.360  -2.947  1.00  0.00     0.275 HD
ATOM     36  H42 UNL     1      11.202 -11.355  -3.550  1.00  0.00     0.275 HD
ATOM     37  H41 UNL     1      11.883 -10.212  -4.628  1.00  0.00     0.275 HD
ENDBRANCH   4  34
TORSDOF 10
ENDMDL
