MODEL 1
REMARK VINA RESULT: -6.337294257      0.000      0.000
REMARK  5 active torsions:
REMARK  status: ('A' for Active; 'I' for Inactive)
REMARK    1  A    between atoms: C2_2  and  C4_4 
REMARK    2  A    between atoms: C4_4  and  C5_5 
REMARK    3  A    between atoms: C5_5  and  N1_6 
REMARK    4  A    between atoms: C5_5  and  C6_10 
REMARK       I    between atoms: C6_10  and  N2_12 
REMARK    5  A    between atoms: N2_12  and  C7_14 
ROOT
HETATM    1  C7  UNL     1       7.304   9.498   1.923  1.00  0.00     0.030 C 
HETATM    2  C8  UNL     1       8.124   9.449   3.207  1.00  0.00     0.038 C 
HETATM    3  C9  UNL     1       6.324  10.690   1.943  1.00  0.00     0.035 C 
HETATM    4  C10 UNL     1       6.779  11.535   0.866  1.00  0.00    -0.010 C 
HETATM    5  C11 UNL     1       6.313  12.708   0.195  1.00  0.00     0.037 C 
HETATM    6  C12 UNL     1       6.950  12.714  -1.200  1.00  0.00     0.186 C 
HETATM    7  C13 UNL     1       8.098  13.600  -1.415  1.00  0.00     0.035 C 
HETATM    8  C14 UNL     1       9.315  12.692  -1.159  1.00  0.00     0.035 C 
HETATM    9  C15 UNL     1       8.807  11.291  -1.005  1.00  0.00     0.190 C 
HETATM   10  N3  UNL     1       7.530  11.433  -1.580  1.00  0.00    -0.066 N 
ATOM     11  H31 UNL     1       7.552  11.309  -2.592  1.00  0.00     0.278 HD
ATOM     12  H32 UNL     1       6.916  10.653  -1.347  1.00  0.00     0.278 HD
HETATM   13  C16 UNL     1       8.922  10.768   0.406  1.00  0.00     0.019 C 
HETATM   14  C17 UNL     1       8.219  11.808   1.220  1.00  0.00     0.011 C 
HETATM   15  C18 UNL     1       8.204   9.491   0.708  1.00  0.00     0.037 C 
ENDROOT
BRANCH   1  16
HETATM   16  N2  UNL     1       6.522   8.295   1.954  1.00  0.00    -0.350 N 
HETATM   17  C6  UNL     1       5.441   7.907   1.139  1.00  0.00     0.248 C 
HETATM   18  O1  UNL     1       5.013   8.628   0.218  1.00  0.00    -0.271 OA
ATOM     19  H2  UNL     1       6.788   7.623   2.673  1.00  0.00     0.163 HD
BRANCH  17  20
HETATM   20  C5  UNL     1       4.729   6.603   1.314  1.00  0.00     0.275 C 
BRANCH  20  21
HETATM   21  C4  UNL     1       5.402   5.489   0.576  1.00  0.00     0.046 C 
BRANCH  21  22
HETATM   22  C2  UNL     1       4.565   4.252   0.581  1.00  0.00    -0.020 C 
HETATM   23  C1  UNL     1       4.554   3.443  -0.678  1.00  0.00     0.009 C 
HETATM   24  C3  UNL     1       4.918   3.334   1.745  1.00  0.00     0.009 C 
ENDBRANCH  21  22
ENDBRANCH  20  21
BRANCH  20  25
HETATM   25  N1  UNL     1       3.354   6.687   0.924  1.00  0.00    -0.066 N 
ATOM     26  H13 UNL     1       3.216   7.328   0.142  1.00  0.00     0.275 HD
ATOM     27  H12 UNL     1       3.032   5.830   0.473  1.00  0.00     0.275 HD
ATOM     28  H11 UNL     1       2.779   6.935   1.729  1.00  0.00     0.275 HD
ENDBRANCH  20  25
ENDBRANCH  17  20
ENDBRANCH   1  16
TORSDOF 5
ENDMDL
MODEL 2
REMARK VINA RESULT: -6.299568842      4.972      7.560
REMARK  5 active torsions:
REMARK  status: ('A' for Active; 'I' for Inactive)
REMARK    1  A    between atoms: C2_2  and  C4_4 
REMARK    2  A    between atoms: C4_4  and  C5_5 
REMARK    3  A    between atoms: C5_5  and  N1_6 
REMARK    4  A    between atoms: C5_5  and  C6_10 
REMARK       I    between atoms: C6_10  and  N2_12 
REMARK    5  A    between atoms: N2_12  and  C7_14 
ROOT
HETATM    1  C7  UNL     1       1.789   9.598   1.996  1.00  0.00     0.030 C 
HETATM    2  C8  UNL     1       2.266  11.037   1.834  1.00  0.00     0.038 C 
HETATM    3  C9  UNL     1       1.723   9.208   3.488  1.00  0.00     0.035 C 
HETATM    4  C10 UNL     1       0.320   8.967   3.726  1.00  0.00    -0.010 C 
HETATM    5  C11 UNL     1      -0.482   8.449   4.789  1.00  0.00     0.037 C 
HETATM    6  C12 UNL     1      -1.780   7.925   4.162  1.00  0.00     0.186 C 
HETATM    7  C13 UNL     1      -2.975   8.766   4.280  1.00  0.00     0.035 C 
HETATM    8  C14 UNL     1      -2.986   9.574   2.969  1.00  0.00     0.035 C 
HETATM    9  C15 UNL     1      -1.912   9.014   2.087  1.00  0.00     0.190 C 
HETATM   10  N3  UNL     1      -1.706   7.772   2.716  1.00  0.00    -0.066 N 
ATOM     11  H31 UNL     1      -2.352   7.060   2.374  1.00  0.00     0.278 HD
ATOM     12  H32 UNL     1      -0.833   7.335   2.422  1.00  0.00     0.278 HD
HETATM   13  C16 UNL     1      -0.740   9.950   1.909  1.00  0.00     0.019 C 
HETATM   14  C17 UNL     1      -0.330  10.263   3.313  1.00  0.00     0.011 C 
HETATM   15  C18 UNL     1       0.483   9.376   1.268  1.00  0.00     0.037 C 
ENDROOT
BRANCH   1  16
HETATM   16  N2  UNL     1       2.824   8.809   1.389  1.00  0.00    -0.350 N 
HETATM   17  C6  UNL     1       3.168   7.462   1.606  1.00  0.00     0.248 C 
HETATM   18  O1  UNL     1       2.554   6.743   2.418  1.00  0.00    -0.271 OA
ATOM     19  H2  UNL     1       3.393   9.299   0.699  1.00  0.00     0.163 HD
BRANCH  17  20
HETATM   20  C5  UNL     1       4.291   6.791   0.880  1.00  0.00     0.275 C 
BRANCH  20  21
HETATM   21  C4  UNL     1       4.931   5.716   1.701  1.00  0.00     0.046 C 
BRANCH  21  22
HETATM   22  C2  UNL     1       4.928   4.408   0.980  1.00  0.00    -0.020 C 
HETATM   23  C1  UNL     1       5.082   3.178   1.817  1.00  0.00     0.009 C 
HETATM   24  C3  UNL     1       3.694   4.248   0.102  1.00  0.00     0.009 C 
ENDBRANCH  21  22
ENDBRANCH  20  21
BRANCH  20  25
HETATM   25  N1  UNL     1       5.282   7.726   0.443  1.00  0.00    -0.066 N 
ATOM     26  H13 UNL     1       4.865   8.565   0.038  1.00  0.00     0.275 HD
ATOM     27  H12 UNL     1       5.766   8.165   1.227  1.00  0.00     0.275 HD
ATOM     28  H11 UNL     1       5.930   7.272  -0.200  1.00  0.00     0.275 HD
ENDBRANCH  20  25
ENDBRANCH  17  20
ENDBRANCH   1  16
TORSDOF 5
ENDMDL
MODEL 3
REMARK VINA RESULT: -6.288150405      2.714      3.361
REMARK  5 active torsions:
REMARK  status: ('A' for Active; 'I' for Inactive)
REMARK    1  A    between atoms: C2_2  and  C4_4 
REMARK    2  A    between atoms: C4_4  and  C5_5 
REMARK    3  A    between atoms: C5_5  and  N1_6 
REMARK    4  A    between atoms: C5_5  and  C6_10 
REMARK       I    between atoms: C6_10  and  N2_12 
REMARK    5  A    between atoms: N2_12  and  C7_14 
ROOT
HETATM    1  C7  UNL     1       8.390   9.702   2.317  1.00  0.00     0.030 C 
HETATM    2  C8  UNL     1       9.161   8.733   3.207  1.00  0.00     0.038 C 
HETATM    3  C9  UNL     1       7.888  10.913   3.131  1.00  0.00     0.035 C 
HETATM    4  C10 UNL     1       8.592  12.035   2.559  1.00  0.00    -0.010 C 
HETATM    5  C11 UNL     1       8.553  13.459   2.680  1.00  0.00     0.037 C 
HETATM    6  C12 UNL     1       9.131  14.038   1.382  1.00  0.00     0.186 C 
HETATM    7  C13 UNL     1      10.512  14.527   1.416  1.00  0.00     0.035 C 
HETATM    8  C14 UNL     1      11.340  13.323   0.929  1.00  0.00     0.035 C 
HETATM    9  C15 UNL     1      10.377  12.277   0.456  1.00  0.00     0.190 C 
HETATM   10  N3  UNL     1       9.222  13.065   0.301  1.00  0.00    -0.066 N 
ATOM     11  H31 UNL     1       9.183  13.509  -0.616  1.00  0.00     0.278 HD
ATOM     12  H32 UNL     1       8.378  12.497   0.228  1.00  0.00     0.278 HD
HETATM   13  C16 UNL     1      10.325  11.066   1.357  1.00  0.00     0.019 C 
HETATM   14  C17 UNL     1      10.042  11.648   2.705  1.00  0.00     0.011 C 
HETATM   15  C18 UNL     1       9.212  10.098   1.112  1.00  0.00     0.037 C 
ENDROOT
BRANCH   1  16
HETATM   16  N2  UNL     1       7.238   8.957   1.896  1.00  0.00    -0.350 N 
HETATM   17  C6  UNL     1       6.186   9.339   1.042  1.00  0.00     0.248 C 
HETATM   18  O1  UNL     1       6.140  10.465   0.510  1.00  0.00    -0.271 OA
ATOM     19  H2  UNL     1       7.172   8.011   2.270  1.00  0.00     0.163 HD
BRANCH  17  20
HETATM   20  C5  UNL     1       5.047   8.428   0.708  1.00  0.00     0.275 C 
BRANCH  20  21
HETATM   21  C4  UNL     1       3.986   8.441   1.762  1.00  0.00     0.046 C 
BRANCH  21  22
HETATM   22  C2  UNL     1       2.918   9.435   1.445  1.00  0.00    -0.020 C 
HETATM   23  C1  UNL     1       1.504   8.955   1.538  1.00  0.00     0.009 C 
HETATM   24  C3  UNL     1       3.057  10.702   2.279  1.00  0.00     0.009 C 
ENDBRANCH  21  22
ENDBRANCH  20  21
BRANCH  20  25
HETATM   25  N1  UNL     1       5.486   7.086   0.473  1.00  0.00    -0.066 N 
ATOM     26  H13 UNL     1       6.207   6.797   1.135  1.00  0.00     0.275 HD
ATOM     27  H12 UNL     1       4.772   6.401   0.722  1.00  0.00     0.275 HD
ATOM     28  H11 UNL     1       5.793   6.984  -0.495  1.00  0.00     0.275 HD
ENDBRANCH  20  25
ENDBRANCH  17  20
ENDBRANCH   1  16
TORSDOF 5
ENDMDL
MODEL 4
REMARK VINA RESULT: -6.233838838      2.310      3.004
REMARK  5 active torsions:
REMARK  status: ('A' for Active; 'I' for Inactive)
REMARK    1  A    between atoms: C2_2  and  C4_4 
REMARK    2  A    between atoms: C4_4  and  C5_5 
REMARK    3  A    between atoms: C5_5  and  N1_6 
REMARK    4  A    between atoms: C5_5  and  C6_10 
REMARK       I    between atoms: C6_10  and  N2_12 
REMARK    5  A    between atoms: N2_12  and  C7_14 
ROOT
HETATM    1  C7  UNL     1       8.612  10.496   1.127  1.00  0.00     0.030 C 
HETATM    2  C8  UNL     1       9.575   9.336   0.897  1.00  0.00     0.038 C 
HETATM    3  C9  UNL     1       8.701  11.001   2.583  1.00  0.00     0.035 C 
HETATM    4  C10 UNL     1       9.200  12.349   2.456  1.00  0.00    -0.010 C 
HETATM    5  C11 UNL     1       9.404  13.469   3.320  1.00  0.00     0.037 C 
HETATM    6  C12 UNL     1       9.389  14.726   2.442  1.00  0.00     0.186 C 
HETATM    7  C13 UNL     1      10.681  15.330   2.103  1.00  0.00     0.035 C 
HETATM    8  C14 UNL     1      11.030  14.709   0.738  1.00  0.00     0.035 C 
HETATM    9  C15 UNL     1       9.833  13.936   0.276  1.00  0.00     0.190 C 
HETATM   10  N3  UNL     1       8.847  14.498   1.109  1.00  0.00    -0.066 N 
ATOM     11  H31 UNL     1       8.448  15.347   0.708  1.00  0.00     0.278 HD
ATOM     12  H32 UNL     1       8.000  13.931   1.134  1.00  0.00     0.278 HD
HETATM   13  C16 UNL     1      10.046  12.441   0.296  1.00  0.00     0.019 C 
HETATM   14  C17 UNL     1      10.491  12.173   1.698  1.00  0.00     0.011 C 
HETATM   15  C18 UNL     1       8.831  11.589   0.107  1.00  0.00     0.037 C 
ENDROOT
BRANCH   1  16
HETATM   16  N2  UNL     1       7.311   9.918   0.949  1.00  0.00    -0.350 N 
HETATM   17  C6  UNL     1       6.654   8.934   1.712  1.00  0.00     0.248 C 
HETATM   18  O1  UNL     1       7.178   8.416   2.716  1.00  0.00    -0.271 OA
ATOM     19  H2  UNL     1       6.784  10.274   0.151  1.00  0.00     0.163 HD
BRANCH  17  20
HETATM   20  C5  UNL     1       5.283   8.438   1.379  1.00  0.00     0.275 C 
BRANCH  20  21
HETATM   21  C4  UNL     1       5.313   7.093   0.724  1.00  0.00     0.046 C 
BRANCH  21  22
HETATM   22  C2  UNL     1       4.618   6.068   1.558  1.00  0.00    -0.020 C 
HETATM   23  C1  UNL     1       3.123   6.127   1.589  1.00  0.00     0.009 C 
HETATM   24  C3  UNL     1       5.041   4.653   1.186  1.00  0.00     0.009 C 
ENDBRANCH  21  22
ENDBRANCH  20  21
BRANCH  20  25
HETATM   25  N1  UNL     1       4.562   9.364   0.559  1.00  0.00    -0.066 N 
ATOM     26  H13 UNL     1       4.609   9.118  -0.429  1.00  0.00     0.275 HD
ATOM     27  H12 UNL     1       3.553   9.282   0.686  1.00  0.00     0.275 HD
ATOM     28  H11 UNL     1       4.893  10.314   0.733  1.00  0.00     0.275 HD
ENDBRANCH  20  25
ENDBRANCH  17  20
ENDBRANCH   1  16
TORSDOF 5
ENDMDL
MODEL 5
REMARK VINA RESULT: -6.213358038      2.584      3.653
REMARK  5 active torsions:
REMARK  status: ('A' for Active; 'I' for Inactive)
REMARK    1  A    between atoms: C2_2  and  C4_4 
REMARK    2  A    between atoms: C4_4  and  C5_5 
REMARK    3  A    between atoms: C5_5  and  N1_6 
REMARK    4  A    between atoms: C5_5  and  C6_10 
REMARK       I    between atoms: C6_10  and  N2_12 
REMARK    5  A    between atoms: N2_12  and  C7_14 
ROOT
HETATM    1  C7  UNL     1       8.556  10.397   1.191  1.00  0.00     0.030 C 
HETATM    2  C8  UNL     1       9.584   9.271   1.224  1.00  0.00     0.038 C 
HETATM    3  C9  UNL     1       8.319  10.963   2.607  1.00  0.00     0.035 C 
HETATM    4  C10 UNL     1       8.789  12.325   2.522  1.00  0.00    -0.010 C 
HETATM    5  C11 UNL     1       8.769  13.487   3.355  1.00  0.00     0.037 C 
HETATM    6  C12 UNL     1       8.897  14.706   2.433  1.00  0.00     0.186 C 
HETATM    7  C13 UNL     1      10.210  15.350   2.342  1.00  0.00     0.035 C 
HETATM    8  C14 UNL     1      10.859  14.690   1.112  1.00  0.00     0.035 C 
HETATM    9  C15 UNL     1       9.812  13.848   0.448  1.00  0.00     0.190 C 
HETATM   10  N3  UNL     1       8.655  14.401   1.029  1.00  0.00    -0.066 N 
ATOM     11  H31 UNL     1       8.321  15.215   0.514  1.00  0.00     0.278 HD
ATOM     12  H32 UNL     1       7.841  13.800   0.904  1.00  0.00     0.278 HD
HETATM   13  C16 UNL     1      10.066  12.366   0.584  1.00  0.00     0.019 C 
HETATM   14  C17 UNL     1      10.216  12.174   2.060  1.00  0.00     0.011 C 
HETATM   15  C18 UNL     1       8.947  11.456   0.187  1.00  0.00     0.037 C 
ENDROOT
BRANCH   1  16
HETATM   16  N2  UNL     1       7.341   9.757   0.774  1.00  0.00    -0.350 N 
HETATM   17  C6  UNL     1       6.593   8.749   1.411  1.00  0.00     0.248 C 
HETATM   18  O1  UNL     1       6.935   8.263   2.507  1.00  0.00    -0.271 OA
ATOM     19  H2  UNL     1       6.963  10.081  -0.117  1.00  0.00     0.163 HD
BRANCH  17  20
HETATM   20  C5  UNL     1       5.336   8.187   0.827  1.00  0.00     0.275 C 
BRANCH  20  21
HETATM   21  C4  UNL     1       4.187   8.262   1.782  1.00  0.00     0.046 C 
BRANCH  21  22
HETATM   22  C2  UNL     1       3.209   9.314   1.373  1.00  0.00    -0.020 C 
HETATM   23  C1  UNL     1       1.762   9.012   1.603  1.00  0.00     0.009 C 
HETATM   24  C3  UNL     1       3.531  10.663   2.005  1.00  0.00     0.009 C 
ENDBRANCH  21  22
ENDBRANCH  20  21
BRANCH  20  25
HETATM   25  N1  UNL     1       5.509   6.839   0.377  1.00  0.00    -0.066 N 
ATOM     26  H13 UNL     1       5.029   6.170   0.979  1.00  0.00     0.275 HD
ATOM     27  H12 UNL     1       4.998   6.656  -0.487  1.00  0.00     0.275 HD
ATOM     28  H11 UNL     1       6.503   6.628   0.285  1.00  0.00     0.275 HD
ENDBRANCH  20  25
ENDBRANCH  17  20
ENDBRANCH   1  16
TORSDOF 5
ENDMDL
