MODEL 1
REMARK VINA RESULT: -7.206362821      0.000      0.000
REMARK  3 active torsions:
REMARK  status: ('A' for Active; 'I' for Inactive)
REMARK    1  A    between atoms: C3_3  and  N1_4 
REMARK       I    between atoms: N1_4  and  C5_6 
REMARK       I    between atoms: C5_6  and  N4_11 
REMARK    2  A    between atoms: N4_11  and  N5_13 
REMARK    3  A    between atoms: N5_13  and  C7_14 
ROOT
HETATM    1  C1  UNL     1      -3.025  -0.640  11.045  1.00  0.00     0.014 C 
HETATM    2  C2  UNL     1      -2.465   0.426  11.003  1.00  0.00    -0.097 C 
HETATM    3  C3  UNL     1      -1.804   1.734  10.967  1.00  0.00     0.234 C 
ENDROOT
BRANCH   3   4
HETATM    4  N1  UNL     1      -2.700   2.789  11.372  1.00  0.00    -0.210 N 
HETATM    5  C4  UNL     1      -3.502   3.437  10.363  1.00  0.00     0.169 C 
HETATM    6  C5  UNL     1      -2.825   3.215  12.713  1.00  0.00     0.701 C 
HETATM    7  N2  UNL     1      -2.008   4.110  13.186  1.00  0.00    -0.125 N 
HETATM    8  N4  UNL     1      -3.812   2.716  13.605  1.00  0.00    -0.135 N 
HETATM    9  C6  UNL     1      -0.990   4.686  12.418  1.00  0.00     0.196 C 
ATOM     10  H2  UNL     1      -2.115   4.405  14.157  1.00  0.00     0.197 HD
HETATM   11  N3  UNL     1      -0.139   5.165  11.800  1.00  0.00    -0.171 NA
ATOM     12  H4  UNL     1      -4.754   2.507  13.274  1.00  0.00     0.201 HD
BRANCH   8  13
HETATM   13  N5  UNL     1      -3.472   2.521  14.923  1.00  0.00    -0.121 NA
BRANCH  13  14
HETATM   14  C7  UNL     1      -4.630   2.277  15.782  1.00  0.00     0.100 C 
HETATM   15  C8  UNL     1      -4.658   0.800  16.053  1.00  0.00     0.023 C 
HETATM   16  C9  UNL     1      -5.642   0.386  17.091  1.00  0.00     0.002 C 
HETATM   17  C10 UNL     1      -6.990   1.018  16.964  1.00  0.00     0.000 C 
HETATM   18  C11 UNL     1      -6.967   2.432  17.447  1.00  0.00     0.000 C 
HETATM   19  C12 UNL     1      -6.780   3.397  16.307  1.00  0.00     0.002 C 
HETATM   20  C13 UNL     1      -5.901   2.808  15.204  1.00  0.00     0.023 C 
ENDBRANCH  13  14
ENDBRANCH   8  13
ENDBRANCH   3   4
TORSDOF 3
ENDMDL
MODEL 2
REMARK VINA RESULT: -7.201110218      1.693      3.050
REMARK  3 active torsions:
REMARK  status: ('A' for Active; 'I' for Inactive)
REMARK    1  A    between atoms: C3_3  and  N1_4 
REMARK       I    between atoms: N1_4  and  C5_6 
REMARK       I    between atoms: C5_6  and  N4_11 
REMARK    2  A    between atoms: N4_11  and  N5_13 
REMARK    3  A    between atoms: N5_13  and  C7_14 
ROOT
HETATM    1  C1  UNL     1      -6.704   6.038  13.432  1.00  0.00     0.014 C 
HETATM    2  C2  UNL     1      -5.869   5.593  12.686  1.00  0.00    -0.097 C 
HETATM    3  C3  UNL     1      -4.837   5.050  11.799  1.00  0.00     0.234 C 
ENDROOT
BRANCH   3   4
HETATM    4  N1  UNL     1      -3.556   4.986  12.458  1.00  0.00    -0.210 N 
HETATM    5  C4  UNL     1      -2.725   6.165  12.464  1.00  0.00     0.169 C 
HETATM    6  C5  UNL     1      -3.079   3.819  13.096  1.00  0.00     0.701 C 
HETATM    7  N2  UNL     1      -2.451   2.914  12.403  1.00  0.00    -0.125 N 
HETATM    8  N4  UNL     1      -3.244   3.562  14.483  1.00  0.00    -0.135 N 
HETATM    9  C6  UNL     1      -2.220   3.038  11.029  1.00  0.00     0.196 C 
ATOM     10  H2  UNL     1      -2.115   2.078  12.882  1.00  0.00     0.197 HD
HETATM   11  N3  UNL     1      -2.027   3.122   9.893  1.00  0.00    -0.171 NA
ATOM     12  H4  UNL     1      -3.175   4.318  15.164  1.00  0.00     0.201 HD
BRANCH   8  13
HETATM   13  N5  UNL     1      -3.497   2.273  14.890  1.00  0.00    -0.121 NA
BRANCH  13  14
HETATM   14  C7  UNL     1      -4.669   2.166  15.757  1.00  0.00     0.100 C 
HETATM   15  C8  UNL     1      -4.834   0.709  16.079  1.00  0.00     0.023 C 
HETATM   16  C9  UNL     1      -5.848   0.423  17.131  1.00  0.00     0.002 C 
HETATM   17  C10 UNL     1      -7.131   1.173  16.982  1.00  0.00     0.000 C 
HETATM   18  C11 UNL     1      -6.977   2.595  17.416  1.00  0.00     0.000 C 
HETATM   19  C12 UNL     1      -6.705   3.498  16.243  1.00  0.00     0.002 C 
HETATM   20  C13 UNL     1      -5.888   2.792  15.162  1.00  0.00     0.023 C 
ENDBRANCH  13  14
ENDBRANCH   8  13
ENDBRANCH   3   4
TORSDOF 3
ENDMDL
MODEL 3
REMARK VINA RESULT: -7.189557429      1.572      2.290
REMARK  3 active torsions:
REMARK  status: ('A' for Active; 'I' for Inactive)
REMARK    1  A    between atoms: C3_3  and  N1_4 
REMARK       I    between atoms: N1_4  and  C5_6 
REMARK       I    between atoms: C5_6  and  N4_11 
REMARK    2  A    between atoms: N4_11  and  N5_13 
REMARK    3  A    between atoms: N5_13  and  C7_14 
ROOT
HETATM    1  C1  UNL     1      -0.657   3.096  11.563  1.00  0.00     0.014 C 
HETATM    2  C2  UNL     1      -1.158   2.062  11.197  1.00  0.00    -0.097 C 
HETATM    3  C3  UNL     1      -1.790   0.816  10.757  1.00  0.00     0.234 C 
ENDROOT
BRANCH   3   4
HETATM    4  N1  UNL     1      -3.186   0.778  11.117  1.00  0.00    -0.210 N 
HETATM    5  C4  UNL     1      -4.052  -0.140  10.418  1.00  0.00     0.169 C 
HETATM    6  C5  UNL     1      -3.742   1.599  12.123  1.00  0.00     0.701 C 
HETATM    7  N2  UNL     1      -4.141   2.801  11.829  1.00  0.00    -0.125 N 
HETATM    8  N4  UNL     1      -3.897   1.187  13.474  1.00  0.00    -0.135 N 
HETATM    9  C6  UNL     1      -4.047   3.335  10.539  1.00  0.00     0.196 C 
ATOM     10  H2  UNL     1      -4.539   3.379  12.570  1.00  0.00     0.197 HD
HETATM   11  N3  UNL     1      -3.969   3.794   9.481  1.00  0.00    -0.171 NA
ATOM     12  H4  UNL     1      -4.163   0.228  13.698  1.00  0.00     0.201 HD
BRANCH   8  13
HETATM   13  N5  UNL     1      -3.683   2.106  14.473  1.00  0.00    -0.121 NA
BRANCH  13  14
HETATM   14  C7  UNL     1      -4.714   2.077  15.510  1.00  0.00     0.100 C 
HETATM   15  C8  UNL     1      -4.861   0.641  15.927  1.00  0.00     0.023 C 
HETATM   16  C9  UNL     1      -5.712   0.437  17.131  1.00  0.00     0.002 C 
HETATM   17  C10 UNL     1      -6.987   1.217  17.136  1.00  0.00     0.000 C 
HETATM   18  C11 UNL     1      -6.737   2.652  17.468  1.00  0.00     0.000 C 
HETATM   19  C12 UNL     1      -6.624   3.491  16.222  1.00  0.00     0.002 C 
HETATM   20  C13 UNL     1      -5.994   2.710  15.070  1.00  0.00     0.023 C 
ENDBRANCH  13  14
ENDBRANCH   8  13
ENDBRANCH   3   4
TORSDOF 3
ENDMDL
MODEL 4
REMARK VINA RESULT: -7.155339541      1.616      3.302
REMARK  3 active torsions:
REMARK  status: ('A' for Active; 'I' for Inactive)
REMARK    1  A    between atoms: C3_3  and  N1_4 
REMARK       I    between atoms: N1_4  and  C5_6 
REMARK       I    between atoms: C5_6  and  N4_11 
REMARK    2  A    between atoms: N4_11  and  N5_13 
REMARK    3  A    between atoms: N5_13  and  C7_14 
ROOT
HETATM    1  C1  UNL     1      -6.161   6.059  12.921  1.00  0.00     0.014 C 
HETATM    2  C2  UNL     1      -5.281   5.672  12.194  1.00  0.00    -0.097 C 
HETATM    3  C3  UNL     1      -4.199   5.191  11.331  1.00  0.00     0.234 C 
ENDROOT
BRANCH   3   4
HETATM    4  N1  UNL     1      -3.056   4.771  12.103  1.00  0.00    -0.210 N 
HETATM    5  C4  UNL     1      -2.026   5.740  12.391  1.00  0.00     0.169 C 
HETATM    6  C5  UNL     1      -2.900   3.454  12.589  1.00  0.00     0.701 C 
HETATM    7  N2  UNL     1      -2.367   2.543  11.829  1.00  0.00    -0.125 N 
HETATM    8  N4  UNL     1      -3.300   3.047  13.891  1.00  0.00    -0.135 N 
HETATM    9  C6  UNL     1      -1.929   2.806  10.527  1.00  0.00     0.196 C 
ATOM     10  H2  UNL     1      -2.264   1.597  12.199  1.00  0.00     0.197 HD
HETATM   11  N3  UNL     1      -1.570   3.004   9.446  1.00  0.00    -0.171 NA
ATOM     12  H4  UNL     1      -3.183   3.670  14.689  1.00  0.00     0.201 HD
BRANCH   8  13
HETATM   13  N5  UNL     1      -3.846   1.795  14.052  1.00  0.00    -0.121 NA
BRANCH  13  14
HETATM   14  C7  UNL     1      -4.933   1.767  15.030  1.00  0.00     0.100 C 
HETATM   15  C8  UNL     1      -5.491   3.160  15.091  1.00  0.00     0.023 C 
HETATM   16  C9  UNL     1      -6.752   3.282  15.873  1.00  0.00     0.002 C 
HETATM   17  C10 UNL     1      -6.749   2.558  17.180  1.00  0.00     0.000 C 
HETATM   18  C11 UNL     1      -6.931   1.087  16.980  1.00  0.00     0.000 C 
HETATM   19  C12 UNL     1      -5.608   0.369  16.965  1.00  0.00     0.002 C 
HETATM   20  C13 UNL     1      -4.503   1.232  16.357  1.00  0.00     0.023 C 
ENDBRANCH  13  14
ENDBRANCH   8  13
ENDBRANCH   3   4
TORSDOF 3
ENDMDL
MODEL 5
REMARK VINA RESULT: -7.111864987      1.472      1.976
REMARK  3 active torsions:
REMARK  status: ('A' for Active; 'I' for Inactive)
REMARK    1  A    between atoms: C3_3  and  N1_4 
REMARK       I    between atoms: N1_4  and  C5_6 
REMARK       I    between atoms: C5_6  and  N4_11 
REMARK    2  A    between atoms: N4_11  and  N5_13 
REMARK    3  A    between atoms: N5_13  and  C7_14 
ROOT
HETATM    1  C1  UNL     1      -2.952  -3.043  11.296  1.00  0.00     0.014 C 
HETATM    2  C2  UNL     1      -2.669  -1.875  11.207  1.00  0.00    -0.097 C 
HETATM    3  C3  UNL     1      -2.350  -0.448  11.108  1.00  0.00     0.234 C 
ENDROOT
BRANCH   3   4
HETATM    4  N1  UNL     1      -3.539   0.364  11.182  1.00  0.00    -0.210 N 
HETATM    5  C4  UNL     1      -4.607   0.107  10.247  1.00  0.00     0.169 C 
HETATM    6  C5  UNL     1      -3.702   1.401  12.128  1.00  0.00     0.701 C 
HETATM    7  N2  UNL     1      -3.245   2.591  11.868  1.00  0.00    -0.125 N 
HETATM    8  N4  UNL     1      -4.351   1.224  13.379  1.00  0.00    -0.135 N 
HETATM    9  C6  UNL     1      -2.586   2.905  10.675  1.00  0.00     0.196 C 
ATOM     10  H2  UNL     1      -3.373   3.326  12.565  1.00  0.00     0.197 HD
HETATM   11  N3  UNL     1      -2.033   3.179   9.698  1.00  0.00    -0.171 NA
ATOM     12  H4  UNL     1      -5.169   0.620  13.461  1.00  0.00     0.201 HD
BRANCH   8  13
HETATM   13  N5  UNL     1      -3.853   1.882  14.479  1.00  0.00    -0.121 NA
BRANCH  13  14
HETATM   14  C7  UNL     1      -4.801   1.939  15.590  1.00  0.00     0.100 C 
HETATM   15  C8  UNL     1      -4.997   0.525  16.059  1.00  0.00     0.023 C 
HETATM   16  C9  UNL     1      -5.764   0.400  17.329  1.00  0.00     0.002 C 
HETATM   17  C10 UNL     1      -6.988   1.253  17.407  1.00  0.00     0.000 C 
HETATM   18  C11 UNL     1      -6.632   2.680  17.678  1.00  0.00     0.000 C 
HETATM   19  C12 UNL     1      -6.568   3.479  16.404  1.00  0.00     0.002 C 
HETATM   20  C13 UNL     1      -6.074   2.635  15.230  1.00  0.00     0.023 C 
ENDBRANCH  13  14
ENDBRANCH   8  13
ENDBRANCH   3   4
TORSDOF 3
ENDMDL
