MODEL 1
REMARK VINA RESULT: -6.131611875      0.000      0.000
REMARK  5 active torsions:
REMARK  status: ('A' for Active; 'I' for Inactive)
REMARK       I    between atoms: N1_5  and  C5_6 
REMARK       I    between atoms: C5_6  and  N2_8 
REMARK    1  A    between atoms: N3_11  and  C8_12 
REMARK    2  A    between atoms: C8_12  and  C9_13 
REMARK    3  A    between atoms: C9_13  and  O2_14 
REMARK    4  A    between atoms: C12_18  and  C13_19 
REMARK    5  A    between atoms: C13_19  and  O3_20 
ROOT
HETATM    1  C1  UNL     1      -3.721   6.763  10.489  1.00  0.00     0.018 C 
HETATM    2  C2  UNL     1      -3.246   6.656  11.901  1.00  0.00    -0.009 C 
HETATM    3  C3  UNL     1      -2.597   7.919  12.405  1.00  0.00     0.018 C 
HETATM    4  C4  UNL     1      -4.213   6.072  12.883  1.00  0.00     0.139 C 
HETATM    5  N1  UNL     1      -3.765   4.740  12.420  1.00  0.00    -0.326 N 
HETATM    6  C5  UNL     1      -4.465   3.521  12.303  1.00  0.00     0.321 C 
HETATM    7  O1  UNL     1      -5.691   3.506  12.654  1.00  0.00    -0.247 OA
HETATM    8  N2  UNL     1      -3.914   2.310  11.822  1.00  0.00    -0.331 N 
HETATM    9  C6  UNL     1      -4.809   1.158  11.783  1.00  0.00     0.158 C 
HETATM   10  C7  UNL     1      -4.259   0.209  10.739  1.00  0.00     0.292 C 
HETATM   11  N3  UNL     1      -2.960  -0.182  11.192  1.00  0.00     0.093 N 
HETATM   12  C10 UNL     1      -2.001   0.873  11.172  1.00  0.00     0.292 C 
HETATM   13  C11 UNL     1      -2.549   2.248  11.396  1.00  0.00     0.158 C 
HETATM   14  C12 UNL     1      -2.477   5.366  12.230  1.00  0.00     0.121 C 
ENDROOT
BRANCH  14  15
HETATM   15  C13 UNL     1      -1.603   5.506  13.453  1.00  0.00     0.190 C 
BRANCH  15  16
HETATM   16  O3  UNL     1      -1.127   4.204  13.744  1.00  0.00    -0.399 OA
ATOM     17  H3  UNL     1      -0.428   4.317  14.377  1.00  0.00     0.209 HD
ENDBRANCH  15  16
ENDBRANCH  14  15
BRANCH  11  18
HETATM   18  C8  UNL     1      -2.463  -1.410  10.672  1.00  0.00     0.298 C 
BRANCH  18  19
HETATM   19  C9  UNL     1      -3.131  -2.556  11.399  1.00  0.00     0.194 C 
BRANCH  19  20
HETATM   20  O2  UNL     1      -2.488  -3.757  11.029  1.00  0.00    -0.399 OA
ATOM     21  H2  UNL     1      -2.680  -4.417  11.685  1.00  0.00     0.209 HD
ENDBRANCH  19  20
ENDBRANCH  18  19
ENDBRANCH  11  18
TORSDOF 5
ENDMDL
MODEL 2
REMARK VINA RESULT: -6.063238495      1.489      2.686
REMARK  5 active torsions:
REMARK  status: ('A' for Active; 'I' for Inactive)
REMARK       I    between atoms: N1_5  and  C5_6 
REMARK       I    between atoms: C5_6  and  N2_8 
REMARK    1  A    between atoms: N3_11  and  C8_12 
REMARK    2  A    between atoms: C8_12  and  C9_13 
REMARK    3  A    between atoms: C9_13  and  O2_14 
REMARK    4  A    between atoms: C12_18  and  C13_19 
REMARK    5  A    between atoms: C13_19  and  O3_20 
ROOT
HETATM    1  C1  UNL     1      -1.427   5.349  14.035  1.00  0.00     0.018 C 
HETATM    2  C2  UNL     1      -2.462   5.798  13.056  1.00  0.00    -0.009 C 
HETATM    3  C3  UNL     1      -3.068   7.133  13.404  1.00  0.00     0.018 C 
HETATM    4  C4  UNL     1      -2.096   5.690  11.609  1.00  0.00     0.139 C 
HETATM    5  N1  UNL     1      -2.501   4.268  11.689  1.00  0.00    -0.326 N 
HETATM    6  C5  UNL     1      -2.005   3.130  11.020  1.00  0.00     0.321 C 
HETATM    7  O1  UNL     1      -1.058   3.300  10.182  1.00  0.00    -0.247 OA
HETATM    8  N2  UNL     1      -2.476   1.808  11.205  1.00  0.00    -0.331 N 
HETATM    9  C6  UNL     1      -1.829   0.770  10.410  1.00  0.00     0.158 C 
HETATM   10  C7  UNL     1      -2.022  -0.537  11.151  1.00  0.00     0.292 C 
HETATM   11  N3  UNL     1      -3.434  -0.760  11.214  1.00  0.00     0.093 N 
HETATM   12  C10 UNL     1      -4.128   0.164  12.050  1.00  0.00     0.292 C 
HETATM   13  C11 UNL     1      -3.528   1.533  12.136  1.00  0.00     0.158 C 
HETATM   14  C12 UNL     1      -3.480   4.720  12.650  1.00  0.00     0.121 C 
ENDROOT
BRANCH  14  15
HETATM   15  C13 UNL     1      -4.756   5.305  12.094  1.00  0.00     0.190 C 
BRANCH  15  16
HETATM   16  O3  UNL     1      -5.812   4.556  12.668  1.00  0.00    -0.399 OA
ATOM     17  H3  UNL     1      -5.747   4.688  13.606  1.00  0.00     0.209 HD
ENDBRANCH  15  16
ENDBRANCH  14  15
BRANCH  11  18
HETATM   18  C8  UNL     1      -3.841  -2.110  11.402  1.00  0.00     0.298 C 
BRANCH  18  19
HETATM   19  C9  UNL     1      -2.650  -3.017  11.181  1.00  0.00     0.194 C 
BRANCH  19  20
HETATM   20  O2  UNL     1      -3.045  -4.347  11.435  1.00  0.00    -0.399 OA
ATOM     21  H2  UNL     1      -2.861  -4.870  10.663  1.00  0.00     0.209 HD
ENDBRANCH  19  20
ENDBRANCH  18  19
ENDBRANCH  11  18
TORSDOF 5
ENDMDL
MODEL 3
REMARK VINA RESULT: -6.058500826      2.181      2.436
REMARK  5 active torsions:
REMARK  status: ('A' for Active; 'I' for Inactive)
REMARK       I    between atoms: N1_5  and  C5_6 
REMARK       I    between atoms: C5_6  and  N2_8 
REMARK    1  A    between atoms: N3_11  and  C8_12 
REMARK    2  A    between atoms: C8_12  and  C9_13 
REMARK    3  A    between atoms: C9_13  and  O2_14 
REMARK    4  A    between atoms: C12_18  and  C13_19 
REMARK    5  A    between atoms: C13_19  and  O3_20 
ROOT
HETATM    1  C1  UNL     1      -1.469   4.829   7.673  1.00  0.00     0.018 C 
HETATM    2  C2  UNL     1      -1.130   5.279   9.057  1.00  0.00    -0.009 C 
HETATM    3  C3  UNL     1      -0.027   6.304   9.094  1.00  0.00     0.018 C 
HETATM    4  C4  UNL     1      -2.286   5.641   9.936  1.00  0.00     0.139 C 
HETATM    5  N1  UNL     1      -2.425   4.196  10.224  1.00  0.00    -0.326 N 
HETATM    6  C5  UNL     1      -3.569   3.416  10.491  1.00  0.00     0.321 C 
HETATM    7  O1  UNL     1      -4.699   4.009  10.514  1.00  0.00    -0.247 OA
HETATM    8  N2  UNL     1      -3.564   2.022  10.735  1.00  0.00    -0.331 N 
HETATM    9  C6  UNL     1      -4.859   1.402  10.995  1.00  0.00     0.158 C 
HETATM   10  C7  UNL     1      -4.726  -0.063  10.634  1.00  0.00     0.292 C 
HETATM   11  N3  UNL     1      -3.728  -0.604  11.506  1.00  0.00     0.093 N 
HETATM   12  C10 UNL     1      -2.414  -0.112  11.252  1.00  0.00     0.292 C 
HETATM   13  C11 UNL     1      -2.338   1.283  10.715  1.00  0.00     0.158 C 
HETATM   14  C12 UNL     1      -0.988   4.148  10.089  1.00  0.00     0.121 C 
ENDROOT
BRANCH  14  15
HETATM   15  C13 UNL     1      -0.178   4.559  11.295  1.00  0.00     0.190 C 
BRANCH  15  16
HETATM   16  O3  UNL     1       0.343   3.362  11.843  1.00  0.00    -0.399 OA
ATOM     17  H3  UNL     1       0.359   3.490  12.784  1.00  0.00     0.209 HD
ENDBRANCH  15  16
ENDBRANCH  14  15
BRANCH  11  18
HETATM   18  C8  UNL     1      -3.778  -2.011  11.709  1.00  0.00     0.298 C 
BRANCH  18  19
HETATM   19  C9  UNL     1      -2.516  -2.631  11.149  1.00  0.00     0.194 C 
BRANCH  19  20
HETATM   20  O2  UNL     1      -2.646  -4.036  11.199  1.00  0.00    -0.399 OA
ATOM     21  H2  UNL     1      -1.883  -4.425  10.787  1.00  0.00     0.209 HD
ENDBRANCH  19  20
ENDBRANCH  18  19
ENDBRANCH  11  18
TORSDOF 5
ENDMDL
MODEL 4
REMARK VINA RESULT: -5.963146207      1.779      2.421
REMARK  5 active torsions:
REMARK  status: ('A' for Active; 'I' for Inactive)
REMARK       I    between atoms: N1_5  and  C5_6 
REMARK       I    between atoms: C5_6  and  N2_8 
REMARK    1  A    between atoms: N3_11  and  C8_12 
REMARK    2  A    between atoms: C8_12  and  C9_13 
REMARK    3  A    between atoms: C9_13  and  O2_14 
REMARK    4  A    between atoms: C12_18  and  C13_19 
REMARK    5  A    between atoms: C13_19  and  O3_20 
ROOT
HETATM    1  C1  UNL     1      -1.604   5.163  13.320  1.00  0.00     0.018 C 
HETATM    2  C2  UNL     1      -3.076   5.404  13.415  1.00  0.00    -0.009 C 
HETATM    3  C3  UNL     1      -3.433   6.531  14.348  1.00  0.00     0.018 C 
HETATM    4  C4  UNL     1      -3.821   5.470  12.119  1.00  0.00     0.139 C 
HETATM    5  N1  UNL     1      -3.858   3.990  12.150  1.00  0.00    -0.326 N 
HETATM    6  C5  UNL     1      -3.830   3.045  11.103  1.00  0.00     0.321 C 
HETATM    7  O1  UNL     1      -3.777   3.487   9.907  1.00  0.00    -0.247 OA
HETATM    8  N2  UNL     1      -3.853   1.641  11.274  1.00  0.00    -0.331 N 
HETATM    9  C6  UNL     1      -3.820   0.836  10.058  1.00  0.00     0.158 C 
HETATM   10  C7  UNL     1      -3.261  -0.518  10.441  1.00  0.00     0.292 C 
HETATM   11  N3  UNL     1      -4.175  -1.079  11.388  1.00  0.00     0.093 N 
HETATM   12  C10 UNL     1      -4.197  -0.399  12.641  1.00  0.00     0.292 C 
HETATM   13  C11 UNL     1      -3.899   1.068  12.585  1.00  0.00     0.158 C 
HETATM   14  C12 UNL     1      -3.930   4.137  13.584  1.00  0.00     0.121 C 
ENDROOT
BRANCH  14  15
HETATM   15  C13 UNL     1      -5.291   4.427  14.170  1.00  0.00     0.190 C 
BRANCH  15  16
HETATM   16  O3  UNL     1      -5.642   3.283  14.927  1.00  0.00    -0.399 OA
ATOM     17  H3  UNL     1      -4.829   2.944  15.283  1.00  0.00     0.209 HD
ENDBRANCH  15  16
ENDBRANCH  14  15
BRANCH  11  18
HETATM   18  C8  UNL     1      -4.148  -2.496  11.513  1.00  0.00     0.298 C 
BRANCH  18  19
HETATM   19  C9  UNL     1      -2.746  -2.987  11.229  1.00  0.00     0.194 C 
BRANCH  19  20
HETATM   20  O2  UNL     1      -2.752  -4.398  11.239  1.00  0.00    -0.399 OA
ATOM     21  H2  UNL     1      -3.605  -4.698  10.947  1.00  0.00     0.209 HD
ENDBRANCH  19  20
ENDBRANCH  18  19
ENDBRANCH  11  18
TORSDOF 5
ENDMDL
MODEL 5
REMARK VINA RESULT: -5.861214845      3.151      4.159
REMARK  5 active torsions:
REMARK  status: ('A' for Active; 'I' for Inactive)
REMARK       I    between atoms: N1_5  and  C5_6 
REMARK       I    between atoms: C5_6  and  N2_8 
REMARK    1  A    between atoms: N3_11  and  C8_12 
REMARK    2  A    between atoms: C8_12  and  C9_13 
REMARK    3  A    between atoms: C9_13  and  O2_14 
REMARK    4  A    between atoms: C12_18  and  C13_19 
REMARK    5  A    between atoms: C13_19  and  O3_20 
ROOT
HETATM    1  C1  UNL     1      -3.256   8.612  11.148  1.00  0.00     0.018 C 
HETATM    2  C2  UNL     1      -4.696   8.455  10.779  1.00  0.00    -0.009 C 
HETATM    3  C3  UNL     1      -5.436   9.765  10.710  1.00  0.00     0.018 C 
HETATM    4  C4  UNL     1      -4.987   7.564   9.612  1.00  0.00     0.139 C 
HETATM    5  N1  UNL     1      -4.896   6.425  10.553  1.00  0.00    -0.326 N 
HETATM    6  C5  UNL     1      -4.446   5.103  10.358  1.00  0.00     0.321 C 
HETATM    7  O1  UNL     1      -4.052   4.777   9.189  1.00  0.00    -0.247 OA
HETATM    8  N2  UNL     1      -4.394   4.105  11.361  1.00  0.00    -0.331 N 
HETATM    9  C6  UNL     1      -3.897   2.796  10.951  1.00  0.00     0.158 C 
HETATM   10  C7  UNL     1      -3.369   2.116  12.197  1.00  0.00     0.292 C 
HETATM   11  N3  UNL     1      -4.484   1.974  13.083  1.00  0.00     0.093 N 
HETATM   12  C10 UNL     1      -4.970   3.211  13.600  1.00  0.00     0.292 C 
HETATM   13  C11 UNL     1      -4.806   4.397  12.700  1.00  0.00     0.158 C 
HETATM   14  C12 UNL     1      -5.439   7.338  11.531  1.00  0.00     0.121 C 
ENDROOT
BRANCH  14  15
HETATM   15  C13 UNL     1      -6.936   7.529  11.524  1.00  0.00     0.190 C 
BRANCH  15  16
HETATM   16  O3  UNL     1      -7.409   6.953  12.728  1.00  0.00    -0.399 OA
ATOM     17  H3  UNL     1      -7.965   7.610  13.132  1.00  0.00     0.209 HD
ENDBRANCH  15  16
ENDBRANCH  14  15
BRANCH  11  18
HETATM   18  C8  UNL     1      -4.369   0.954  14.068  1.00  0.00     0.298 C 
BRANCH  18  19
HETATM   19  C9  UNL     1      -4.399   1.592  15.439  1.00  0.00     0.194 C 
BRANCH  19  20
HETATM   20  O2  UNL     1      -3.628   0.802  16.319  1.00  0.00    -0.399 OA
ATOM     21  H2  UNL     1      -4.199   0.461  16.998  1.00  0.00     0.209 HD
ENDBRANCH  19  20
ENDBRANCH  18  19
ENDBRANCH  11  18
TORSDOF 5
ENDMDL
