MODEL 1
REMARK VINA RESULT: -6.604644304      0.000      0.000
REMARK  4 active torsions:
REMARK  status: ('A' for Active; 'I' for Inactive)
REMARK    1  A    between atoms: N1_5  and  C5_6 
REMARK    2  A    between atoms: C5_6  and  N2_8 
REMARK    3  A    between atoms: N2_8  and  C6_10 
REMARK    4  A    between atoms: C6_10  and  C7_11 
ROOT
HETATM    1  C5  UNL     1     -10.038  19.610  77.866  1.00  0.00     0.169 C 
HETATM    2  S1  UNL     1     -10.623  19.249  76.312  1.00  0.00    -0.041 SA
ENDROOT
BRANCH   1   3
HETATM    3  N1  UNL     1     -10.125  18.524  78.776  1.00  0.00    -0.358 N 
HETATM    4  C4  UNL     1      -9.713  18.799  80.145  1.00  0.00     0.125 C 
HETATM    5  C3  UNL     1      -9.140  17.674  80.914  1.00  0.00     0.024 C 
HETATM    6  C2  UNL     1      -9.154  16.355  80.181  1.00  0.00    -0.015 C 
HETATM    7  C1  UNL     1      -9.000  15.272  81.226  1.00  0.00     0.010 C 
HETATM    8  C12 UNL     1     -10.519  16.263  79.541  1.00  0.00     0.024 C 
HETATM    9  C11 UNL     1     -10.530  17.204  78.350  1.00  0.00     0.125 C 
ENDBRANCH   1   3
BRANCH   1  10
HETATM   10  N2  UNL     1      -9.562  20.910  78.005  1.00  0.00    -0.362 N 
ATOM     11  H2  UNL     1     -10.309  21.595  78.109  1.00  0.00     0.162 HD
BRANCH  10  12
HETATM   12  C6  UNL     1      -8.267  21.499  78.033  1.00  0.00     0.182 C 
BRANCH  12  13
HETATM   13  C7  UNL     1      -7.137  20.489  77.956  1.00  0.00     0.277 C 
HETATM   14  O1  UNL     1      -6.321  20.598  79.075  1.00  0.00    -0.360 OA
HETATM   15  C8  UNL     1      -4.981  20.373  78.716  1.00  0.00     0.173 C 
HETATM   16  C9  UNL     1      -4.581  21.654  77.970  1.00  0.00     0.053 C 
HETATM   17  C10 UNL     1      -5.569  21.754  76.825  1.00  0.00     0.173 C 
HETATM   18  O2  UNL     1      -6.409  20.647  76.773  1.00  0.00    -0.360 OA
ENDBRANCH  12  13
ENDBRANCH  10  12
ENDBRANCH   1  10
TORSDOF 4
ENDMDL
MODEL 2
REMARK VINA RESULT: -6.553032620      0.976      1.454
REMARK  4 active torsions:
REMARK  status: ('A' for Active; 'I' for Inactive)
REMARK    1  A    between atoms: N1_5  and  C5_6 
REMARK    2  A    between atoms: C5_6  and  N2_8 
REMARK    3  A    between atoms: N2_8  and  C6_10 
REMARK    4  A    between atoms: C6_10  and  C7_11 
ROOT
HETATM    1  C5  UNL     1     -10.335  19.024  77.501  1.00  0.00     0.169 C 
HETATM    2  S1  UNL     1     -11.620  18.700  76.436  1.00  0.00    -0.041 SA
ENDROOT
BRANCH   1   3
HETATM    3  N1  UNL     1     -10.290  18.156  78.622  1.00  0.00    -0.358 N 
HETATM    4  C4  UNL     1      -9.410  18.557  79.711  1.00  0.00     0.125 C 
HETATM    5  C3  UNL     1      -8.805  17.478  80.520  1.00  0.00     0.024 C 
HETATM    6  C2  UNL     1      -9.274  16.093  80.149  1.00  0.00    -0.015 C 
HETATM    7  C1  UNL     1      -8.961  15.195  81.327  1.00  0.00     0.010 C 
HETATM    8  C12 UNL     1     -10.770  16.206  79.972  1.00  0.00     0.024 C 
HETATM    9  C11 UNL     1     -11.022  16.909  78.651  1.00  0.00     0.125 C 
ENDBRANCH   1   3
BRANCH   1  10
HETATM   10  N2  UNL     1      -9.525  20.084  77.106  1.00  0.00    -0.362 N 
ATOM     11  H2  UNL     1      -9.891  20.990  77.397  1.00  0.00     0.162 HD
BRANCH  10  12
HETATM   12  C6  UNL     1      -8.301  20.190  76.388  1.00  0.00     0.182 C 
BRANCH  12  13
HETATM   13  C7  UNL     1      -7.459  21.385  76.795  1.00  0.00     0.277 C 
HETATM   14  O1  UNL     1      -6.221  21.333  76.166  1.00  0.00    -0.360 OA
HETATM   15  C8  UNL     1      -5.223  21.816  77.030  1.00  0.00     0.173 C 
HETATM   16  C9  UNL     1      -5.047  20.686  78.055  1.00  0.00     0.053 C 
HETATM   17  C10 UNL     1      -6.423  20.504  78.664  1.00  0.00     0.173 C 
HETATM   18  O2  UNL     1      -7.325  21.449  78.185  1.00  0.00    -0.360 OA
ENDBRANCH  12  13
ENDBRANCH  10  12
ENDBRANCH   1  10
TORSDOF 4
ENDMDL
MODEL 3
REMARK VINA RESULT: -6.364398644      1.948      3.059
REMARK  4 active torsions:
REMARK  status: ('A' for Active; 'I' for Inactive)
REMARK    1  A    between atoms: N1_5  and  C5_6 
REMARK    2  A    between atoms: C5_6  and  N2_8 
REMARK    3  A    between atoms: N2_8  and  C6_10 
REMARK    4  A    between atoms: C6_10  and  C7_11 
ROOT
HETATM    1  C5  UNL     1      -9.938  19.684  79.210  1.00  0.00     0.169 C 
HETATM    2  S1  UNL     1      -9.912  19.063  80.792  1.00  0.00    -0.041 SA
ENDROOT
BRANCH   1   3
HETATM    3  N1  UNL     1     -10.575  18.831  78.271  1.00  0.00    -0.358 N 
HETATM    4  C4  UNL     1     -10.449  19.208  76.871  1.00  0.00     0.125 C 
HETATM    5  C3  UNL     1     -11.560  18.834  75.970  1.00  0.00     0.024 C 
HETATM    6  C2  UNL     1     -12.641  18.016  76.632  1.00  0.00    -0.015 C 
HETATM    7  C1  UNL     1     -13.412  17.332  75.524  1.00  0.00     0.010 C 
HETATM    8  C12 UNL     1     -11.914  16.985  77.464  1.00  0.00     0.024 C 
HETATM    9  C11 UNL     1     -11.362  17.693  78.688  1.00  0.00     0.125 C 
ENDBRANCH   1   3
BRANCH   1  10
HETATM   10  N2  UNL     1      -9.337  20.932  79.081  1.00  0.00    -0.362 N 
ATOM     11  H2  UNL     1      -9.776  21.643  79.665  1.00  0.00     0.162 HD
BRANCH  10  12
HETATM   12  C6  UNL     1      -8.249  21.441  78.319  1.00  0.00     0.182 C 
BRANCH  12  13
HETATM   13  C7  UNL     1      -7.127  20.439  78.117  1.00  0.00     0.277 C 
HETATM   14  O1  UNL     1      -6.212  20.530  79.158  1.00  0.00    -0.360 OA
HETATM   15  C8  UNL     1      -4.910  20.320  78.672  1.00  0.00     0.173 C 
HETATM   16  C9  UNL     1      -4.585  21.619  77.919  1.00  0.00     0.053 C 
HETATM   17  C10 UNL     1      -5.675  21.736  76.873  1.00  0.00     0.173 C 
HETATM   18  O2  UNL     1      -6.512  20.625  76.875  1.00  0.00    -0.360 OA
ENDBRANCH  12  13
ENDBRANCH  10  12
ENDBRANCH   1  10
TORSDOF 4
ENDMDL
MODEL 4
REMARK VINA RESULT: -6.309617426      1.471      1.827
REMARK  4 active torsions:
REMARK  status: ('A' for Active; 'I' for Inactive)
REMARK    1  A    between atoms: N1_5  and  C5_6 
REMARK    2  A    between atoms: C5_6  and  N2_8 
REMARK    3  A    between atoms: N2_8  and  C6_10 
REMARK    4  A    between atoms: C6_10  and  C7_11 
ROOT
HETATM    1  C5  UNL     1      -9.647  19.476  79.553  1.00  0.00     0.169 C 
HETATM    2  S1  UNL     1     -10.606  19.016  78.227  1.00  0.00    -0.041 SA
ENDROOT
BRANCH   1   3
HETATM    3  N1  UNL     1      -9.582  18.496  80.579  1.00  0.00    -0.358 N 
HETATM    4  C4  UNL     1     -10.394  18.749  81.761  1.00  0.00     0.125 C 
HETATM    5  C3  UNL     1      -9.895  18.217  83.046  1.00  0.00     0.024 C 
HETATM    6  C2  UNL     1      -8.638  17.391  82.926  1.00  0.00    -0.015 C 
HETATM    7  C1  UNL     1      -8.541  16.556  84.183  1.00  0.00     0.010 C 
HETATM    8  C12 UNL     1      -8.856  16.495  81.728  1.00  0.00     0.024 C 
HETATM    9  C11 UNL     1      -8.705  17.351  80.484  1.00  0.00     0.125 C 
ENDBRANCH   1   3
BRANCH   1  10
HETATM   10  N2  UNL     1      -9.070  20.735  79.426  1.00  0.00    -0.362 N 
ATOM     11  H2  UNL     1      -9.408  21.397  80.124  1.00  0.00     0.162 HD
BRANCH  10  12
HETATM   12  C6  UNL     1      -8.115  21.310  78.541  1.00  0.00     0.182 C 
BRANCH  12  13
HETATM   13  C7  UNL     1      -6.981  20.370  78.177  1.00  0.00     0.277 C 
HETATM   14  O1  UNL     1      -5.997  20.407  79.158  1.00  0.00    -0.360 OA
HETATM   15  C8  UNL     1      -4.727  20.286  78.570  1.00  0.00     0.173 C 
HETATM   16  C9  UNL     1      -4.497  21.655  77.911  1.00  0.00     0.053 C 
HETATM   17  C10 UNL     1      -5.661  21.820  76.955  1.00  0.00     0.173 C 
HETATM   18  O2  UNL     1      -6.460  20.682  76.918  1.00  0.00    -0.360 OA
ENDBRANCH  12  13
ENDBRANCH  10  12
ENDBRANCH   1  10
TORSDOF 4
ENDMDL
MODEL 5
REMARK VINA RESULT: -6.250984024      2.364      5.626
REMARK  4 active torsions:
REMARK  status: ('A' for Active; 'I' for Inactive)
REMARK    1  A    between atoms: N1_5  and  C5_6 
REMARK    2  A    between atoms: C5_6  and  N2_8 
REMARK    3  A    between atoms: N2_8  and  C6_10 
REMARK    4  A    between atoms: C6_10  and  C7_11 
ROOT
HETATM    1  C5  UNL     1     -11.213  18.390  78.138  1.00  0.00     0.169 C 
HETATM    2  S1  UNL     1     -12.088  17.998  76.735  1.00  0.00    -0.041 SA
ENDROOT
BRANCH   1   3
HETATM    3  N1  UNL     1     -10.290  19.453  77.958  1.00  0.00    -0.358 N 
HETATM    4  C4  UNL     1      -9.835  19.685  76.594  1.00  0.00     0.125 C 
HETATM    5  C3  UNL     1      -8.474  20.234  76.422  1.00  0.00     0.024 C 
HETATM    6  C2  UNL     1      -7.777  20.570  77.717  1.00  0.00    -0.015 C 
HETATM    7  C1  UNL     1      -6.657  21.529  77.376  1.00  0.00     0.010 C 
HETATM    8  C12 UNL     1      -8.813  21.271  78.565  1.00  0.00     0.024 C 
HETATM    9  C11 UNL     1      -9.777  20.215  79.074  1.00  0.00     0.125 C 
ENDBRANCH   1   3
BRANCH   1  10
HETATM   10  N2  UNL     1     -11.539  17.613  79.245  1.00  0.00    -0.362 N 
ATOM     11  H2  UNL     1     -12.239  18.053  79.843  1.00  0.00     0.162 HD
BRANCH  10  12
HETATM   12  C6  UNL     1     -11.119  16.345  79.732  1.00  0.00     0.182 C 
BRANCH  12  13
HETATM   13  C7  UNL     1      -9.660  16.306  80.147  1.00  0.00     0.277 C 
HETATM   14  O1  UNL     1      -9.334  15.045  80.631  1.00  0.00    -0.360 OA
HETATM   15  C8  UNL     1      -8.420  15.159  81.693  1.00  0.00     0.173 C 
HETATM   16  C9  UNL     1      -9.275  15.679  82.858  1.00  0.00     0.053 C 
HETATM   17  C10 UNL     1      -9.869  16.977  82.348  1.00  0.00     0.173 C 
HETATM   18  O2  UNL     1      -9.382  17.303  81.086  1.00  0.00    -0.360 OA
ENDBRANCH  12  13
ENDBRANCH  10  12
ENDBRANCH   1  10
TORSDOF 4
ENDMDL
