MODEL 1
REMARK VINA RESULT: -5.890640969      0.000      0.000
REMARK  6 active torsions:
REMARK  status: ('A' for Active; 'I' for Inactive)
REMARK    1  A    between atoms: C2_2  and  C5_5 
REMARK    2  A    between atoms: C5_5  and  N2_9 
REMARK    3  A    between atoms: N2_9  and  C6_11 
REMARK    4  A    between atoms: C6_11  and  C7_12 
REMARK    5  A    between atoms: C7_12  and  C8_13 
REMARK    6  A    between atoms: C8_13  and  N3_14 
ROOT
HETATM    1  C7  UNL     1       1.023  29.941   8.602  1.00  0.00     0.039 C 
ENDROOT
BRANCH   1   2
HETATM    2  C6  UNL     1       2.326  29.127   8.620  1.00  0.00     0.122 C 
BRANCH   2   3
HETATM    3  N2  UNL     1       2.352  28.307   7.436  1.00  0.00    -0.378 N 
ATOM      4  H2  UNL     1       1.698  28.497   6.676  1.00  0.00     0.160 HD
BRANCH   3   5
HETATM    5  C5  UNL     1       3.271  27.246   7.317  1.00  0.00     0.110 C 
HETATM    6  N1  UNL     1       4.521  27.494   7.284  1.00  0.00    -0.212 N 
HETATM    7  F1  UNL     1       4.943  28.769   7.362  1.00  0.00    -0.100 F 
ATOM      8  H1  UNL     1       5.195  26.733   7.200  1.00  0.00     0.201 HD
BRANCH   5   9
HETATM    9  C2  UNL     1       2.754  25.858   7.235  1.00  0.00     0.009 C 
HETATM   10  C1  UNL     1       3.358  25.191   6.021  1.00  0.00     0.023 C 
HETATM   11  C3  UNL     1       1.243  25.849   7.095  1.00  0.00     0.023 C 
HETATM   12  C4  UNL     1       3.143  25.131   8.492  1.00  0.00     0.023 C 
ENDBRANCH   5   9
ENDBRANCH   3   5
ENDBRANCH   2   3
ENDBRANCH   1   2
BRANCH   1  13
HETATM   13  C8  UNL     1       0.346  29.745   9.905  1.00  0.00     0.120 C 
BRANCH  13  14
HETATM   14  N3  UNL     1      -1.016  29.343   9.889  1.00  0.00    -0.396 N 
HETATM   15  C9  UNL     1      -2.012  30.302  10.127  1.00  0.00     0.021 C 
HETATM   16  C10 UNL     1      -1.603  31.741   9.943  1.00  0.00     0.038 C 
HETATM   17  C11 UNL     1      -3.249  30.136   9.222  1.00  0.00     0.038 C 
HETATM   18  C12 UNL     1      -2.593  30.253  11.547  1.00  0.00     0.030 C 
HETATM   19  C13 UNL     1      -2.998  28.882  11.942  1.00  0.00     0.005 C 
HETATM   20  C14 UNL     1      -1.835  27.954  11.744  1.00  0.00     0.030 C 
HETATM   21  C15 UNL     1      -1.308  28.019  10.301  1.00  0.00     0.021 C 
HETATM   22  C16 UNL     1      -0.122  27.073  10.317  1.00  0.00     0.038 C 
HETATM   23  C17 UNL     1      -2.352  27.298   9.456  1.00  0.00     0.038 C 
ENDBRANCH  13  14
ENDBRANCH   1  13
TORSDOF 6
ENDMDL
MODEL 2
REMARK VINA RESULT: -5.885999355      1.532      2.625
REMARK  6 active torsions:
REMARK  status: ('A' for Active; 'I' for Inactive)
REMARK    1  A    between atoms: C2_2  and  C5_5 
REMARK    2  A    between atoms: C5_5  and  N2_9 
REMARK    3  A    between atoms: N2_9  and  C6_11 
REMARK    4  A    between atoms: C6_11  and  C7_12 
REMARK    5  A    between atoms: C7_12  and  C8_13 
REMARK    6  A    between atoms: C8_13  and  N3_14 
ROOT
HETATM    1  C7  UNL     1       0.653  26.246   8.783  1.00  0.00     0.039 C 
ENDROOT
BRANCH   1   2
HETATM    2  C6  UNL     1       1.422  26.184   7.454  1.00  0.00     0.122 C 
BRANCH   2   3
HETATM    3  N2  UNL     1       2.815  25.972   7.759  1.00  0.00    -0.378 N 
ATOM      4  H2  UNL     1       3.077  25.305   8.485  1.00  0.00     0.160 HD
BRANCH   3   5
HETATM    5  C5  UNL     1       3.817  26.678   7.065  1.00  0.00     0.110 C 
HETATM    6  N1  UNL     1       4.069  27.888   7.379  1.00  0.00    -0.212 N 
HETATM    7  F1  UNL     1       3.371  28.473   8.369  1.00  0.00    -0.100 F 
ATOM      8  H1  UNL     1       4.793  28.408   6.883  1.00  0.00     0.201 HD
BRANCH   5   9
HETATM    9  C2  UNL     1       4.557  25.989   5.981  1.00  0.00     0.009 C 
HETATM   10  C1  UNL     1       4.190  26.631   4.664  1.00  0.00     0.023 C 
HETATM   11  C3  UNL     1       4.191  24.517   5.925  1.00  0.00     0.023 C 
HETATM   12  C4  UNL     1       6.030  26.126   6.250  1.00  0.00     0.023 C 
ENDBRANCH   5   9
ENDBRANCH   3   5
ENDBRANCH   2   3
ENDBRANCH   1   2
BRANCH   1  13
HETATM   13  C8  UNL     1      -0.570  27.053   8.563  1.00  0.00     0.120 C 
BRANCH  13  14
HETATM   14  N3  UNL     1      -0.850  28.096   9.486  1.00  0.00    -0.396 N 
HETATM   15  C9  UNL     1      -0.156  29.310   9.374  1.00  0.00     0.021 C 
HETATM   16  C10 UNL     1       0.498  29.578   8.043  1.00  0.00     0.038 C 
HETATM   17  C11 UNL     1      -1.043  30.546   9.622  1.00  0.00     0.038 C 
HETATM   18  C12 UNL     1       0.981  29.470  10.393  1.00  0.00     0.030 C 
HETATM   19  C13 UNL     1       0.539  29.176  11.779  1.00  0.00     0.005 C 
HETATM   20  C14 UNL     1      -0.099  27.818  11.810  1.00  0.00     0.030 C 
HETATM   21  C15 UNL     1      -1.247  27.717  10.793  1.00  0.00     0.021 C 
HETATM   22  C16 UNL     1      -1.717  26.281  10.934  1.00  0.00     0.038 C 
HETATM   23  C17 UNL     1      -2.384  28.543  11.384  1.00  0.00     0.038 C 
ENDBRANCH  13  14
ENDBRANCH   1  13
TORSDOF 6
ENDMDL
MODEL 3
REMARK VINA RESULT: -5.883738188      0.785      2.382
REMARK  6 active torsions:
REMARK  status: ('A' for Active; 'I' for Inactive)
REMARK    1  A    between atoms: C2_2  and  C5_5 
REMARK    2  A    between atoms: C5_5  and  N2_9 
REMARK    3  A    between atoms: N2_9  and  C6_11 
REMARK    4  A    between atoms: C6_11  and  C7_12 
REMARK    5  A    between atoms: C7_12  and  C8_13 
REMARK    6  A    between atoms: C8_13  and  N3_14 
ROOT
HETATM    1  C7  UNL     1       1.058  29.845   8.720  1.00  0.00     0.039 C 
ENDROOT
BRANCH   1   2
HETATM    2  C6  UNL     1       2.033  28.668   8.881  1.00  0.00     0.122 C 
BRANCH   2   3
HETATM    3  N2  UNL     1       2.315  28.146   7.568  1.00  0.00    -0.378 N 
ATOM      4  H2  UNL     1       1.734  28.425   6.777  1.00  0.00     0.160 HD
BRANCH   3   5
HETATM    5  C5  UNL     1       3.387  27.253   7.366  1.00  0.00     0.110 C 
HETATM    6  N1  UNL     1       4.583  27.696   7.348  1.00  0.00    -0.212 N 
HETATM    7  F1  UNL     1       4.802  29.012   7.521  1.00  0.00    -0.100 F 
ATOM      8  H1  UNL     1       5.365  27.059   7.203  1.00  0.00     0.201 HD
BRANCH   5   9
HETATM    9  C2  UNL     1       3.092  25.812   7.179  1.00  0.00     0.009 C 
HETATM   10  C1  UNL     1       4.071  25.247   6.177  1.00  0.00     0.023 C 
HETATM   11  C3  UNL     1       1.683  25.611   6.651  1.00  0.00     0.023 C 
HETATM   12  C4  UNL     1       3.230  25.123   8.508  1.00  0.00     0.023 C 
ENDBRANCH   5   9
ENDBRANCH   3   5
ENDBRANCH   2   3
ENDBRANCH   1   2
BRANCH   1  13
HETATM   13  C8  UNL     1      -0.305  29.287   8.563  1.00  0.00     0.120 C 
BRANCH  13  14
HETATM   14  N3  UNL     1      -1.042  28.997   9.743  1.00  0.00    -0.396 N 
HETATM   15  C9  UNL     1      -1.518  27.693   9.945  1.00  0.00     0.021 C 
HETATM   16  C10 UNL     1      -0.850  26.611   9.136  1.00  0.00     0.038 C 
HETATM   17  C11 UNL     1      -1.389  27.215  11.405  1.00  0.00     0.038 C 
HETATM   18  C12 UNL     1      -3.013  27.525   9.640  1.00  0.00     0.030 C 
HETATM   19  C13 UNL     1      -3.843  28.559  10.306  1.00  0.00     0.005 C 
HETATM   20  C14 UNL     1      -3.312  29.916   9.947  1.00  0.00     0.030 C 
HETATM   21  C15 UNL     1      -1.821  30.043  10.297  1.00  0.00     0.021 C 
HETATM   22  C16 UNL     1      -1.464  31.437   9.815  1.00  0.00     0.038 C 
HETATM   23  C17 UNL     1      -1.769  30.147  11.817  1.00  0.00     0.038 C 
ENDBRANCH  13  14
ENDBRANCH   1  13
TORSDOF 6
ENDMDL
MODEL 4
REMARK VINA RESULT: -5.844951535      0.908      2.492
REMARK  6 active torsions:
REMARK  status: ('A' for Active; 'I' for Inactive)
REMARK    1  A    between atoms: C2_2  and  C5_5 
REMARK    2  A    between atoms: C5_5  and  N2_9 
REMARK    3  A    between atoms: N2_9  and  C6_11 
REMARK    4  A    between atoms: C6_11  and  C7_12 
REMARK    5  A    between atoms: C7_12  and  C8_13 
REMARK    6  A    between atoms: C8_13  and  N3_14 
ROOT
HETATM    1  C7  UNL     1       0.810  30.018   8.338  1.00  0.00     0.039 C 
ENDROOT
BRANCH   1   2
HETATM    2  C6  UNL     1       2.005  29.087   8.596  1.00  0.00     0.122 C 
BRANCH   2   3
HETATM    3  N2  UNL     1       2.257  28.345   7.387  1.00  0.00    -0.378 N 
ATOM      4  H2  UNL     1       1.733  28.566   6.540  1.00  0.00     0.160 HD
BRANCH   3   5
HETATM    5  C5  UNL     1       3.221  27.318   7.363  1.00  0.00     0.110 C 
HETATM    6  N1  UNL     1       4.460  27.613   7.429  1.00  0.00    -0.212 N 
HETATM    7  F1  UNL     1       4.827  28.903   7.519  1.00  0.00    -0.100 F 
ATOM      8  H1  UNL     1       5.165  26.877   7.413  1.00  0.00     0.201 HD
BRANCH   5   9
HETATM    9  C2  UNL     1       2.764  25.910   7.262  1.00  0.00     0.009 C 
HETATM   10  C1  UNL     1       3.413  25.280   6.052  1.00  0.00     0.023 C 
HETATM   11  C3  UNL     1       1.256  25.840   7.100  1.00  0.00     0.023 C 
HETATM   12  C4  UNL     1       3.164  25.190   8.519  1.00  0.00     0.023 C 
ENDBRANCH   5   9
ENDBRANCH   3   5
ENDBRANCH   2   3
ENDBRANCH   1   2
BRANCH   1  13
HETATM   13  C8  UNL     1      -0.378  29.426   8.995  1.00  0.00     0.120 C 
BRANCH  13  14
HETATM   14  N3  UNL     1      -0.452  29.490  10.412  1.00  0.00    -0.396 N 
HETATM   15  C9  UNL     1      -0.463  28.296  11.148  1.00  0.00     0.021 C 
HETATM   16  C10 UNL     1       0.042  27.071  10.430  1.00  0.00     0.038 C 
HETATM   17  C11 UNL     1       0.383  28.363  12.435  1.00  0.00     0.038 C 
HETATM   18  C12 UNL     1      -1.856  27.891  11.651  1.00  0.00     0.030 C 
HETATM   19  C13 UNL     1      -2.551  29.007  12.339  1.00  0.00     0.005 C 
HETATM   20  C14 UNL     1      -2.571  30.203  11.431  1.00  0.00     0.030 C 
HETATM   21  C15 UNL     1      -1.153  30.584  10.978  1.00  0.00     0.021 C 
HETATM   22  C16 UNL     1      -1.386  31.754  10.041  1.00  0.00     0.038 C 
HETATM   23  C17 UNL     1      -0.492  31.208  12.201  1.00  0.00     0.038 C 
ENDBRANCH  13  14
ENDBRANCH   1  13
TORSDOF 6
ENDMDL
MODEL 5
REMARK VINA RESULT: -5.798931164      1.020      1.653
REMARK  6 active torsions:
REMARK  status: ('A' for Active; 'I' for Inactive)
REMARK    1  A    between atoms: C2_2  and  C5_5 
REMARK    2  A    between atoms: C5_5  and  N2_9 
REMARK    3  A    between atoms: N2_9  and  C6_11 
REMARK    4  A    between atoms: C6_11  and  C7_12 
REMARK    5  A    between atoms: C7_12  and  C8_13 
REMARK    6  A    between atoms: C8_13  and  N3_14 
ROOT
HETATM    1  C7  UNL     1       0.776  29.979   8.603  1.00  0.00     0.039 C 
ENDROOT
BRANCH   1   2
HETATM    2  C6  UNL     1       2.027  29.098   8.743  1.00  0.00     0.122 C 
BRANCH   2   3
HETATM    3  N2  UNL     1       2.171  28.339   7.527  1.00  0.00    -0.378 N 
ATOM      4  H2  UNL     1       1.534  28.507   6.748  1.00  0.00     0.160 HD
BRANCH   3   5
HETATM    5  C5  UNL     1       3.184  27.367   7.403  1.00  0.00     0.110 C 
HETATM    6  N1  UNL     1       4.408  27.722   7.446  1.00  0.00    -0.212 N 
HETATM    7  F1  UNL     1       4.713  29.022   7.608  1.00  0.00    -0.100 F 
ATOM      8  H1  UNL     1       5.149  27.027   7.358  1.00  0.00     0.201 HD
BRANCH   5   9
HETATM    9  C2  UNL     1       2.795  25.947   7.226  1.00  0.00     0.009 C 
HETATM   10  C1  UNL     1       3.184  25.183   8.470  1.00  0.00     0.023 C 
HETATM   11  C3  UNL     1       3.508  25.334   6.034  1.00  0.00     0.023 C 
HETATM   12  C4  UNL     1       1.310  25.886   7.003  1.00  0.00     0.023 C 
ENDBRANCH   5   9
ENDBRANCH   3   5
ENDBRANCH   2   3
ENDBRANCH   1   2
BRANCH   1  13
HETATM   13  C8  UNL     1      -0.412  29.119   8.811  1.00  0.00     0.120 C 
BRANCH  13  14
HETATM   14  N3  UNL     1      -0.966  29.061  10.118  1.00  0.00    -0.396 N 
HETATM   15  C9  UNL     1      -1.229  30.258  10.800  1.00  0.00     0.021 C 
HETATM   16  C10 UNL     1      -1.320  31.499   9.950  1.00  0.00     0.038 C 
HETATM   17  C11 UNL     1      -2.553  30.234  11.590  1.00  0.00     0.038 C 
HETATM   18  C12 UNL     1      -0.179  30.607  11.866  1.00  0.00     0.030 C 
HETATM   19  C13 UNL     1       0.102  29.467  12.773  1.00  0.00     0.005 C 
HETATM   20  C14 UNL     1       0.467  28.266  11.949  1.00  0.00     0.030 C 
HETATM   21  C15 UNL     1      -0.626  27.942  10.919  1.00  0.00     0.021 C 
HETATM   22  C16 UNL     1      -0.056  26.757  10.162  1.00  0.00     0.038 C 
HETATM   23  C17 UNL     1      -1.779  27.354  11.724  1.00  0.00     0.038 C 
ENDBRANCH  13  14
ENDBRANCH   1  13
TORSDOF 6
ENDMDL
