MODEL 1
REMARK VINA RESULT: -8.224088143      0.000      0.000
REMARK  7 active torsions:
REMARK  status: ('A' for Active; 'I' for Inactive)
REMARK    1  A    between atoms: C2_2  and  O1_3 
REMARK    2  A    between atoms: O1_3  and  C3_4 
REMARK       I    between atoms: C3_4  and  N1_6 
REMARK    3  A    between atoms: N1_6  and  S1_8 
REMARK    4  A    between atoms: S1_8  and  N2_11 
REMARK    5  A    between atoms: N2_11  and  S2_13 
REMARK    6  A    between atoms: S2_13  and  C4_16 
REMARK    7  A    between atoms: C4_16  and  C5_17 
ROOT
HETATM    1  N2  UNL     1      94.951  15.439  30.869  1.00  0.00    -0.193 N 
ATOM      2  H2  UNL     1      94.248  15.148  31.549  1.00  0.00     0.193 HD
ENDROOT
BRANCH   1   3
HETATM    3  S1  UNL     1      96.600  14.962  30.981  1.00  0.00     0.336 S 
HETATM    4  O3  UNL     1      96.991  14.320  29.686  1.00  0.00    -0.181 OA
HETATM    5  O4  UNL     1      97.511  16.134  31.209  1.00  0.00    -0.181 OA
BRANCH   3   6
HETATM    6  N1  UNL     1      96.835  13.839  32.285  1.00  0.00    -0.212 N 
HETATM    7  C3  UNL     1      98.148  13.444  32.640  1.00  0.00     0.375 C 
HETATM    8  O2  UNL     1      99.159  13.891  32.032  1.00  0.00    -0.237 OA
ATOM      9  H1  UNL     1      96.032  13.465  32.791  1.00  0.00     0.185 HD
BRANCH   7  10
HETATM   10  O1  UNL     1      98.395  12.553  33.668  1.00  0.00    -0.304 OA
BRANCH  10  11
HETATM   11  C2  UNL     1      99.466  12.783  34.586  1.00  0.00     0.176 C 
HETATM   12  C1  UNL     1      99.770  11.450  35.238  1.00  0.00     0.034 C 
ENDBRANCH  10  11
ENDBRANCH   7  10
ENDBRANCH   3   6
ENDBRANCH   1   3
BRANCH   1  13
HETATM   13  S2  UNL     1      94.583  16.428  29.546  1.00  0.00     0.262 S 
HETATM   14  O5  UNL     1      94.550  15.688  28.240  1.00  0.00    -0.203 OA
HETATM   15  O6  UNL     1      95.719  17.435  29.401  1.00  0.00    -0.203 OA
BRANCH  13  16
HETATM   16  C4  UNL     1      93.060  17.279  29.790  1.00  0.00     0.201 C 
HETATM   17  C6  UNL     1      93.301  18.782  29.969  1.00  0.00     0.042 C 
HETATM   18  C7  UNL     1      92.008  19.294  30.578  1.00  0.00     0.005 C 
HETATM   19  C8  UNL     1      91.364  18.104  31.279  1.00  0.00     0.040 C 
HETATM   20  C9  UNL     1      92.313  16.931  31.023  1.00  0.00     0.206 C 
HETATM   21  F1  UNL     1      93.125  16.855  32.149  1.00  0.00    -0.247 F 
BRANCH  16  22
HETATM   22  C5  UNL     1      92.188  17.059  28.607  1.00  0.00     0.202 C 
HETATM   23  O7  UNL     1      92.421  17.698  27.567  1.00  0.00    -0.647 OA
HETATM   24  O8  UNL     1      91.117  16.179  28.576  1.00  0.00    -0.647 OA
ENDBRANCH  16  22
ENDBRANCH  13  16
ENDBRANCH   1  13
TORSDOF 7
ENDMDL
MODEL 2
REMARK VINA RESULT: -7.298370665      1.820      2.398
REMARK  7 active torsions:
REMARK  status: ('A' for Active; 'I' for Inactive)
REMARK    1  A    between atoms: C2_2  and  O1_3 
REMARK    2  A    between atoms: O1_3  and  C3_4 
REMARK       I    between atoms: C3_4  and  N1_6 
REMARK    3  A    between atoms: N1_6  and  S1_8 
REMARK    4  A    between atoms: S1_8  and  N2_11 
REMARK    5  A    between atoms: N2_11  and  S2_13 
REMARK    6  A    between atoms: S2_13  and  C4_16 
REMARK    7  A    between atoms: C4_16  and  C5_17 
ROOT
HETATM    1  N2  UNL     1      95.011  15.132  30.774  1.00  0.00    -0.193 N 
ATOM      2  H2  UNL     1      94.368  14.457  30.360  1.00  0.00     0.193 HD
ENDROOT
BRANCH   1   3
HETATM    3  S1  UNL     1      96.683  14.799  31.004  1.00  0.00     0.336 S 
HETATM    4  O3  UNL     1      97.218  14.193  29.744  1.00  0.00    -0.181 OA
HETATM    5  O4  UNL     1      97.472  16.045  31.289  1.00  0.00    -0.181 OA
BRANCH   3   6
HETATM    6  N1  UNL     1      96.921  13.700  32.328  1.00  0.00    -0.212 N 
HETATM    7  C3  UNL     1      98.238  13.381  32.744  1.00  0.00     0.375 C 
HETATM    8  O2  UNL     1      99.248  13.878  32.175  1.00  0.00    -0.237 OA
ATOM      9  H1  UNL     1      96.119  13.287  32.802  1.00  0.00     0.185 HD
BRANCH   7  10
HETATM   10  O1  UNL     1      98.488  12.513  33.790  1.00  0.00    -0.304 OA
BRANCH  10  11
HETATM   11  C2  UNL     1      99.582  12.744  34.679  1.00  0.00     0.176 C 
HETATM   12  C1  UNL     1      99.847  11.432  35.390  1.00  0.00     0.034 C 
ENDBRANCH  10  11
ENDBRANCH   7  10
ENDBRANCH   3   6
ENDBRANCH   1   3
BRANCH   1  13
HETATM   13  S2  UNL     1      94.512  16.665  31.288  1.00  0.00     0.262 S 
HETATM   14  O5  UNL     1      95.651  17.612  31.533  1.00  0.00    -0.203 OA
HETATM   15  O6  UNL     1      93.841  16.495  32.647  1.00  0.00    -0.203 OA
BRANCH  13  16
HETATM   16  C4  UNL     1      93.375  17.381  30.148  1.00  0.00     0.201 C 
HETATM   17  C6  UNL     1      92.366  16.336  29.659  1.00  0.00     0.042 C 
HETATM   18  C7  UNL     1      91.760  16.961  28.415  1.00  0.00     0.005 C 
HETATM   19  C8  UNL     1      92.791  17.953  27.888  1.00  0.00     0.040 C 
HETATM   20  C9  UNL     1      93.957  17.877  28.877  1.00  0.00     0.206 C 
HETATM   21  F1  UNL     1      94.867  16.990  28.313  1.00  0.00    -0.247 F 
BRANCH  16  22
HETATM   22  C5  UNL     1      92.648  18.489  30.821  1.00  0.00     0.202 C 
HETATM   23  O7  UNL     1      93.246  19.560  31.020  1.00  0.00    -0.647 OA
HETATM   24  O8  UNL     1      91.332  18.415  31.251  1.00  0.00    -0.647 OA
ENDBRANCH  16  22
ENDBRANCH  13  16
ENDBRANCH   1  13
TORSDOF 7
ENDMDL
MODEL 3
REMARK VINA RESULT: -7.203808558      2.806      6.846
REMARK  7 active torsions:
REMARK  status: ('A' for Active; 'I' for Inactive)
REMARK    1  A    between atoms: C2_2  and  O1_3 
REMARK    2  A    between atoms: O1_3  and  C3_4 
REMARK       I    between atoms: C3_4  and  N1_6 
REMARK    3  A    between atoms: N1_6  and  S1_8 
REMARK    4  A    between atoms: S1_8  and  N2_11 
REMARK    5  A    between atoms: N2_11  and  S2_13 
REMARK    6  A    between atoms: S2_13  and  C4_16 
REMARK    7  A    between atoms: C4_16  and  C5_17 
ROOT
HETATM    1  N2  UNL     1      93.820  16.595  31.326  1.00  0.00    -0.193 N 
ATOM      2  H2  UNL     1      93.580  16.124  32.199  1.00  0.00     0.193 HD
ENDROOT
BRANCH   1   3
HETATM    3  S1  UNL     1      92.806  17.784  30.607  1.00  0.00     0.336 S 
HETATM    4  O3  UNL     1      91.390  17.486  30.991  1.00  0.00    -0.181 OA
HETATM    5  O4  UNL     1      93.133  19.169  31.088  1.00  0.00    -0.181 OA
BRANCH   3   6
HETATM    6  N1  UNL     1      92.958  17.767  28.877  1.00  0.00    -0.212 N 
HETATM    7  C3  UNL     1      92.123  16.917  28.110  1.00  0.00     0.375 C 
HETATM    8  O2  UNL     1      91.266  16.169  28.654  1.00  0.00    -0.237 OA
ATOM      9  H1  UNL     1      93.644  18.364  28.417  1.00  0.00     0.185 HD
BRANCH   7  10
HETATM   10  O1  UNL     1      92.200  16.861  26.731  1.00  0.00    -0.304 OA
BRANCH  10  11
HETATM   11  C2  UNL     1      93.448  16.612  26.083  1.00  0.00     0.176 C 
HETATM   12  C1  UNL     1      93.608  15.106  26.016  1.00  0.00     0.034 C 
ENDBRANCH  10  11
ENDBRANCH   7  10
ENDBRANCH   3   6
ENDBRANCH   1   3
BRANCH   1  13
HETATM   13  S2  UNL     1      95.245  16.265  30.476  1.00  0.00     0.262 S 
HETATM   14  O5  UNL     1      95.992  17.500  30.064  1.00  0.00    -0.203 OA
HETATM   15  O6  UNL     1      94.850  15.587  29.168  1.00  0.00    -0.203 OA
BRANCH  13  16
HETATM   16  C4  UNL     1      96.307  15.204  31.399  1.00  0.00     0.201 C 
HETATM   17  C6  UNL     1      97.570  15.951  31.842  1.00  0.00     0.042 C 
HETATM   18  C7  UNL     1      98.537  14.845  32.225  1.00  0.00     0.005 C 
HETATM   19  C8  UNL     1      98.101  13.606  31.451  1.00  0.00     0.040 C 
HETATM   20  C9  UNL     1      96.867  14.046  30.660  1.00  0.00     0.206 C 
HETATM   21  F1  UNL     1      97.336  14.384  29.395  1.00  0.00    -0.247 F 
BRANCH  16  22
HETATM   22  C5  UNL     1      95.578  14.715  32.599  1.00  0.00     0.202 C 
HETATM   23  O7  UNL     1      95.612  13.501  32.863  1.00  0.00    -0.647 OA
HETATM   24  O8  UNL     1      94.854  15.525  33.459  1.00  0.00    -0.647 OA
ENDBRANCH  16  22
ENDBRANCH  13  16
ENDBRANCH   1  13
TORSDOF 7
ENDMDL
MODEL 4
REMARK VINA RESULT: -7.053690232      1.612      2.390
REMARK  7 active torsions:
REMARK  status: ('A' for Active; 'I' for Inactive)
REMARK    1  A    between atoms: C2_2  and  O1_3 
REMARK    2  A    between atoms: O1_3  and  C3_4 
REMARK       I    between atoms: C3_4  and  N1_6 
REMARK    3  A    between atoms: N1_6  and  S1_8 
REMARK    4  A    between atoms: S1_8  and  N2_11 
REMARK    5  A    between atoms: N2_11  and  S2_13 
REMARK    6  A    between atoms: S2_13  and  C4_16 
REMARK    7  A    between atoms: C4_16  and  C5_17 
ROOT
HETATM    1  N2  UNL     1      95.278  14.980  30.993  1.00  0.00    -0.193 N 
ATOM      2  H2  UNL     1      94.556  14.354  31.350  1.00  0.00     0.193 HD
ENDROOT
BRANCH   1   3
HETATM    3  S1  UNL     1      96.957  14.680  31.215  1.00  0.00     0.336 S 
HETATM    4  O3  UNL     1      97.528  14.221  29.909  1.00  0.00    -0.181 OA
HETATM    5  O4  UNL     1      97.700  15.915  31.635  1.00  0.00    -0.181 OA
BRANCH   3   6
HETATM    6  N1  UNL     1      97.215  13.461  32.426  1.00  0.00    -0.212 N 
HETATM    7  C3  UNL     1      98.487  13.343  33.040  1.00  0.00     0.375 C 
HETATM    8  O2  UNL     1      99.443  14.106  32.729  1.00  0.00    -0.237 OA
ATOM      9  H1  UNL     1      96.457  12.835  32.693  1.00  0.00     0.185 HD
BRANCH   7  10
HETATM   10  O1  UNL     1      98.750  12.393  34.008  1.00  0.00    -0.304 OA
BRANCH  10  11
HETATM   11  C2  UNL     1      99.819  12.581  34.938  1.00  0.00     0.176 C 
HETATM   12  C1  UNL     1      99.989  11.267  35.673  1.00  0.00     0.034 C 
ENDBRANCH  10  11
ENDBRANCH   7  10
ENDBRANCH   3   6
ENDBRANCH   1   3
BRANCH   1  13
HETATM   13  S2  UNL     1      94.914  16.393  30.137  1.00  0.00     0.262 S 
HETATM   14  O5  UNL     1      94.474  16.137  28.725  1.00  0.00    -0.203 OA
HETATM   15  O6  UNL     1      96.205  17.194  30.009  1.00  0.00    -0.203 OA
BRANCH  13  16
HETATM   16  C4  UNL     1      93.699  17.353  30.977  1.00  0.00     0.201 C 
HETATM   17  C6  UNL     1      92.322  16.688  30.885  1.00  0.00     0.042 C 
HETATM   18  C7  UNL     1      91.351  17.796  31.256  1.00  0.00     0.005 C 
HETATM   19  C8  UNL     1      92.059  19.109  30.942  1.00  0.00     0.040 C 
HETATM   20  C9  UNL     1      93.438  18.702  30.417  1.00  0.00     0.206 C 
HETATM   21  F1  UNL     1      93.324  18.702  29.032  1.00  0.00    -0.247 F 
BRANCH  16  22
HETATM   22  C5  UNL     1      94.088  17.481  32.406  1.00  0.00     0.202 C 
HETATM   23  O7  UNL     1      94.161  16.452  33.099  1.00  0.00    -0.647 OA
HETATM   24  O8  UNL     1      94.381  18.682  33.034  1.00  0.00    -0.647 OA
ENDBRANCH  16  22
ENDBRANCH  13  16
ENDBRANCH   1  13
TORSDOF 7
ENDMDL
MODEL 5
REMARK VINA RESULT: -6.866933569      2.419      3.300
REMARK  7 active torsions:
REMARK  status: ('A' for Active; 'I' for Inactive)
REMARK    1  A    between atoms: C2_2  and  O1_3 
REMARK    2  A    between atoms: O1_3  and  C3_4 
REMARK       I    between atoms: C3_4  and  N1_6 
REMARK    3  A    between atoms: N1_6  and  S1_8 
REMARK    4  A    between atoms: S1_8  and  N2_11 
REMARK    5  A    between atoms: N2_11  and  S2_13 
REMARK    6  A    between atoms: S2_13  and  C4_16 
REMARK    7  A    between atoms: C4_16  and  C5_17 
ROOT
HETATM    1  N2  UNL     1      95.813  14.687  31.786  1.00  0.00    -0.193 N 
ATOM      2  H2  UNL     1      95.011  14.332  32.307  1.00  0.00     0.193 HD
ENDROOT
BRANCH   1   3
HETATM    3  S1  UNL     1      97.390  14.019  31.943  1.00  0.00     0.336 S 
HETATM    4  O3  UNL     1      97.329  12.904  32.941  1.00  0.00    -0.181 OA
HETATM    5  O4  UNL     1      97.894  13.452  30.647  1.00  0.00    -0.181 OA
BRANCH   3   6
HETATM    6  N1  UNL     1      98.523  15.221  32.479  1.00  0.00    -0.212 N 
HETATM    7  C3  UNL     1      99.639  14.832  33.262  1.00  0.00     0.375 C 
HETATM    8  O2  UNL     1      99.832  13.627  33.581  1.00  0.00    -0.237 OA
ATOM      9  H1  UNL     1      98.387  16.201  32.232  1.00  0.00     0.185 HD
BRANCH   7  10
HETATM   10  O1  UNL     1     100.573  15.744  33.716  1.00  0.00    -0.304 OA
BRANCH  10  11
HETATM   11  C2  UNL     1     100.768  15.946  35.117  1.00  0.00     0.176 C 
HETATM   12  C1  UNL     1     101.755  17.087  35.256  1.00  0.00     0.034 C 
ENDBRANCH  10  11
ENDBRANCH   7  10
ENDBRANCH   3   6
ENDBRANCH   1   3
BRANCH   1  13
HETATM   13  S2  UNL     1      95.691  15.979  30.700  1.00  0.00     0.262 S 
HETATM   14  O5  UNL     1      95.639  15.548  29.263  1.00  0.00    -0.203 OA
HETATM   15  O6  UNL     1      96.973  16.798  30.820  1.00  0.00    -0.203 OA
BRANCH  13  16
HETATM   16  C4  UNL     1      94.300  16.995  31.070  1.00  0.00     0.201 C 
HETATM   17  C6  UNL     1      92.994  16.282  30.702  1.00  0.00     0.042 C 
HETATM   18  C7  UNL     1      91.962  17.396  30.669  1.00  0.00     0.005 C 
HETATM   19  C8  UNL     1      92.730  18.684  30.394  1.00  0.00     0.040 C 
HETATM   20  C9  UNL     1      94.198  18.259  30.301  1.00  0.00     0.206 C 
HETATM   21  F1  UNL     1      94.453  18.093  28.945  1.00  0.00    -0.247 F 
BRANCH  16  22
HETATM   22  C5  UNL     1      94.299  17.302  32.525  1.00  0.00     0.202 C 
HETATM   23  O7  UNL     1      94.201  16.363  33.332  1.00  0.00    -0.647 OA
HETATM   24  O8  UNL     1      94.402  18.578  33.056  1.00  0.00    -0.647 OA
ENDBRANCH  16  22
ENDBRANCH  13  16
ENDBRANCH   1  13
TORSDOF 7
ENDMDL
