MODEL 1
REMARK VINA RESULT: -6.649980647      0.000      0.000
REMARK  4 active torsions:
REMARK  status: ('A' for Active; 'I' for Inactive)
REMARK    1  A    between atoms: C3_7  and  S1_8 
REMARK    2  A    between atoms: S1_8  and  C4_9 
REMARK    3  A    between atoms: C8_13  and  C9_14 
REMARK    4  A    between atoms: C9_14  and  N3_15 
ROOT
HETATM    1  C4  UNL     1     -29.313  -3.525  -0.942  1.00  0.00     0.012 C 
HETATM    2  C5  UNL     1     -29.464  -4.997  -1.278  1.00  0.00     0.027 C 
HETATM    3  C6  UNL     1     -28.066  -3.045  -1.637  1.00  0.00     0.021 C 
HETATM    4  C7  UNL     1     -28.333  -1.676  -2.139  1.00  0.00     0.008 C 
HETATM    5  C8  UNL     1     -29.773  -1.370  -1.694  1.00  0.00     0.015 C 
HETATM    6  C15 UNL     1     -30.414  -2.695  -1.623  1.00  0.00     0.027 C 
ENDROOT
BRANCH   1   7
HETATM    7  S1  UNL     1     -29.210  -3.238   0.812  1.00  0.00    -0.083 SA
BRANCH   7   8
HETATM    8  C3  UNL     1     -30.658  -3.662   1.731  1.00  0.00     0.163 A 
HETATM    9  N2  UNL     1     -30.862  -4.871   2.335  1.00  0.00    -0.278 N 
HETATM   10  N1  UNL     1     -32.048  -4.871   2.917  1.00  0.00    -0.287 N 
ATOM     11  H2  UNL     1     -30.203  -5.650   2.337  1.00  0.00     0.189 HD
HETATM   12  C2  UNL     1     -32.647  -3.679   2.715  1.00  0.00     0.095 A 
ATOM     13  H1  UNL     1     -32.449  -5.651   3.439  1.00  0.00     0.188 HD
HETATM   14  C1  UNL     1     -33.974  -3.219   3.176  1.00  0.00     0.091 C 
HETATM   15  N5  UNL     1     -31.790  -2.958   1.992  1.00  0.00    -0.320 N 
HETATM   16  C16 UNL     1     -32.059  -1.601   1.532  1.00  0.00     0.159 C 
ENDBRANCH   7   8
ENDBRANCH   1   7
BRANCH   5  17
HETATM   17  C9  UNL     1     -30.338  -0.357  -2.620  1.00  0.00     0.277 C 
BRANCH  17  18
HETATM   18  N3  UNL     1     -30.443   0.979  -2.228  1.00  0.00     0.091 N 
HETATM   19  C10 UNL     1     -29.376   1.868  -2.549  1.00  0.00     0.291 C 
HETATM   20  C11 UNL     1     -28.593   2.280  -1.284  1.00  0.00     0.146 C 
HETATM   21  N4  UNL     1     -29.412   2.863  -0.282  1.00  0.00    -0.413 N 
HETATM   22  C12 UNL     1     -29.139   4.222   0.056  1.00  0.00     0.143 C 
HETATM   23  C13 UNL     1     -30.791   2.499  -0.338  1.00  0.00     0.146 C 
HETATM   24  C14 UNL     1     -30.875   1.074  -0.851  1.00  0.00     0.291 C 
ENDBRANCH  17  18
ENDBRANCH   5  17
TORSDOF 4
ENDMDL
MODEL 2
REMARK VINA RESULT: -6.442315378      0.806      1.150
REMARK  4 active torsions:
REMARK  status: ('A' for Active; 'I' for Inactive)
REMARK    1  A    between atoms: C3_7  and  S1_8 
REMARK    2  A    between atoms: S1_8  and  C4_9 
REMARK    3  A    between atoms: C8_13  and  C9_14 
REMARK    4  A    between atoms: C9_14  and  N3_15 
ROOT
HETATM    1  C4  UNL     1     -29.304  -3.756  -1.052  1.00  0.00     0.012 C 
HETATM    2  C5  UNL     1     -29.456  -5.198  -1.498  1.00  0.00     0.027 C 
HETATM    3  C6  UNL     1     -28.029  -3.242  -1.669  1.00  0.00     0.021 C 
HETATM    4  C7  UNL     1     -28.267  -1.837  -2.080  1.00  0.00     0.008 C 
HETATM    5  C8  UNL     1     -29.719  -1.547  -1.663  1.00  0.00     0.015 C 
HETATM    6  C15 UNL     1     -30.373  -2.867  -1.709  1.00  0.00     0.027 C 
ENDROOT
BRANCH   1   7
HETATM    7  S1  UNL     1     -29.259  -3.595   0.720  1.00  0.00    -0.083 SA
BRANCH   7   8
HETATM    8  C3  UNL     1     -30.838  -3.525   1.511  1.00  0.00     0.163 A 
HETATM    9  N2  UNL     1     -32.022  -3.345   0.853  1.00  0.00    -0.278 N 
HETATM   10  N1  UNL     1     -33.007  -3.318   1.733  1.00  0.00    -0.287 N 
ATOM     11  H2  UNL     1     -32.129  -3.247  -0.157  1.00  0.00     0.189 HD
HETATM   12  C2  UNL     1     -32.504  -3.477   2.975  1.00  0.00     0.095 A 
ATOM     13  H1  UNL     1     -33.995  -3.195   1.509  1.00  0.00     0.188 HD
HETATM   14  C1  UNL     1     -33.221  -3.515   4.267  1.00  0.00     0.091 C 
HETATM   15  N5  UNL     1     -31.186  -3.600   2.821  1.00  0.00    -0.320 N 
HETATM   16  C16 UNL     1     -30.254  -3.770   3.929  1.00  0.00     0.159 C 
ENDBRANCH   7   8
ENDBRANCH   1   7
BRANCH   5  17
HETATM   17  C9  UNL     1     -30.243  -0.465  -2.534  1.00  0.00     0.277 C 
BRANCH  17  18
HETATM   18  N3  UNL     1     -30.439   0.820  -2.023  1.00  0.00     0.091 N 
HETATM   19  C10 UNL     1     -29.527   1.848  -2.399  1.00  0.00     0.291 C 
HETATM   20  C11 UNL     1     -28.632   2.262  -1.210  1.00  0.00     0.146 C 
HETATM   21  N4  UNL     1     -29.371   2.675  -0.071  1.00  0.00    -0.413 N 
HETATM   22  C12 UNL     1     -29.205   4.031   0.342  1.00  0.00     0.143 C 
HETATM   23  C13 UNL     1     -30.698   2.156   0.014  1.00  0.00     0.146 C 
HETATM   24  C14 UNL     1     -30.693   0.770  -0.601  1.00  0.00     0.291 C 
ENDBRANCH  17  18
ENDBRANCH   5  17
TORSDOF 4
ENDMDL
MODEL 3
REMARK VINA RESULT: -6.427563501      2.758      4.386
REMARK  4 active torsions:
REMARK  status: ('A' for Active; 'I' for Inactive)
REMARK    1  A    between atoms: C3_7  and  S1_8 
REMARK    2  A    between atoms: S1_8  and  C4_9 
REMARK    3  A    between atoms: C8_13  and  C9_14 
REMARK    4  A    between atoms: C9_14  and  N3_15 
ROOT
HETATM    1  C4  UNL     1     -31.572   0.227  -1.962  1.00  0.00     0.012 C 
HETATM    2  C5  UNL     1     -32.814   0.132  -2.828  1.00  0.00     0.027 C 
HETATM    3  C6  UNL     1     -30.387   0.121  -2.887  1.00  0.00     0.021 C 
HETATM    4  C7  UNL     1     -29.349   1.058  -2.393  1.00  0.00     0.008 C 
HETATM    5  C8  UNL     1     -29.965   1.697  -1.137  1.00  0.00     0.015 C 
HETATM    6  C15 UNL     1     -31.417   1.644  -1.385  1.00  0.00     0.027 C 
ENDROOT
BRANCH   1   7
HETATM    7  S1  UNL     1     -31.516  -1.042  -0.715  1.00  0.00    -0.083 SA
BRANCH   7   8
HETATM    8  C3  UNL     1     -30.916  -2.612  -1.264  1.00  0.00     0.163 A 
HETATM    9  N2  UNL     1     -31.714  -3.632  -1.701  1.00  0.00    -0.278 N 
HETATM   10  N1  UNL     1     -30.958  -4.669  -2.015  1.00  0.00    -0.287 N 
ATOM     11  H2  UNL     1     -32.731  -3.599  -1.773  1.00  0.00     0.189 HD
HETATM   12  C2  UNL     1     -29.663  -4.363  -1.797  1.00  0.00     0.095 A 
ATOM     13  H1  UNL     1     -31.301  -5.563  -2.368  1.00  0.00     0.188 HD
HETATM   14  C1  UNL     1     -28.464  -5.203  -2.004  1.00  0.00     0.091 C 
HETATM   15  N5  UNL     1     -29.656  -3.111  -1.340  1.00  0.00    -0.320 N 
HETATM   16  C16 UNL     1     -28.446  -2.395  -0.956  1.00  0.00     0.159 C 
ENDBRANCH   7   8
ENDBRANCH   1   7
BRANCH   5  17
HETATM   17  C9  UNL     1     -29.329   3.022  -0.933  1.00  0.00     0.277 C 
BRANCH  17  18
HETATM   18  N3  UNL     1     -29.758   3.861   0.098  1.00  0.00     0.091 N 
HETATM   19  C10 UNL     1     -29.176   5.157   0.208  1.00  0.00     0.291 C 
HETATM   20  C11 UNL     1     -28.259   5.253   1.447  1.00  0.00     0.146 C 
HETATM   21  N4  UNL     1     -28.921   4.924   2.660  1.00  0.00    -0.413 N 
HETATM   22  C12 UNL     1     -29.031   5.964   3.631  1.00  0.00     0.143 C 
HETATM   23  C13 UNL     1     -30.061   4.078   2.519  1.00  0.00     0.146 C 
HETATM   24  C14 UNL     1     -29.805   3.144   1.352  1.00  0.00     0.291 C 
ENDBRANCH  17  18
ENDBRANCH   5  17
TORSDOF 4
ENDMDL
MODEL 4
REMARK VINA RESULT: -6.398138584      2.731      6.277
REMARK  4 active torsions:
REMARK  status: ('A' for Active; 'I' for Inactive)
REMARK    1  A    between atoms: C3_7  and  S1_8 
REMARK    2  A    between atoms: S1_8  and  C4_9 
REMARK    3  A    between atoms: C8_13  and  C9_14 
REMARK    4  A    between atoms: C9_14  and  N3_15 
ROOT
HETATM    1  C4  UNL     1     -32.438  -0.515  -0.723  1.00  0.00     0.012 C 
HETATM    2  C5  UNL     1     -33.672  -0.325  -1.587  1.00  0.00     0.027 C 
HETATM    3  C6  UNL     1     -32.262   0.755   0.069  1.00  0.00     0.021 C 
HETATM    4  C7  UNL     1     -31.808   0.374   1.428  1.00  0.00     0.008 C 
HETATM    5  C8  UNL     1     -31.708  -1.160   1.392  1.00  0.00     0.015 C 
HETATM    6  C15 UNL     1     -32.698  -1.559   0.376  1.00  0.00     0.027 C 
ENDROOT
BRANCH   1   7
HETATM    7  S1  UNL     1     -30.983  -0.867  -1.686  1.00  0.00    -0.083 SA
BRANCH   7   8
HETATM    8  C3  UNL     1     -30.475  -2.559  -1.691  1.00  0.00     0.163 A 
HETATM    9  N2  UNL     1     -31.331  -3.621  -1.774  1.00  0.00    -0.278 N 
HETATM   10  N1  UNL     1     -30.636  -4.744  -1.731  1.00  0.00    -0.287 N 
ATOM     11  H2  UNL     1     -32.346  -3.558  -1.857  1.00  0.00     0.189 HD
HETATM   12  C2  UNL     1     -29.323  -4.454  -1.620  1.00  0.00     0.095 A 
ATOM     13  H1  UNL     1     -31.030  -5.684  -1.774  1.00  0.00     0.188 HD
HETATM   14  C1  UNL     1     -28.173  -5.379  -1.538  1.00  0.00     0.091 C 
HETATM   15  N5  UNL     1     -29.243  -3.123  -1.596  1.00  0.00    -0.320 N 
HETATM   16  C16 UNL     1     -27.992  -2.389  -1.462  1.00  0.00     0.159 C 
ENDBRANCH   7   8
ENDBRANCH   1   7
BRANCH   5  17
HETATM   17  C9  UNL     1     -31.870  -1.667   2.778  1.00  0.00     0.277 C 
BRANCH  17  18
HETATM   18  N3  UNL     1     -30.965  -2.592   3.302  1.00  0.00     0.091 N 
HETATM   19  C10 UNL     1     -29.915  -3.068   2.464  1.00  0.00     0.291 C 
HETATM   20  C11 UNL     1     -30.137  -4.546   2.076  1.00  0.00     0.146 C 
HETATM   21  N4  UNL     1     -30.275  -5.404   3.198  1.00  0.00    -0.413 N 
HETATM   22  C12 UNL     1     -29.275  -6.410   3.361  1.00  0.00     0.143 C 
HETATM   23  C13 UNL     1     -30.724  -4.771   4.396  1.00  0.00     0.146 C 
HETATM   24  C14 UNL     1     -31.663  -3.647   4.003  1.00  0.00     0.291 C 
ENDBRANCH  17  18
ENDBRANCH   5  17
TORSDOF 4
ENDMDL
MODEL 5
REMARK VINA RESULT: -6.361082306      2.782      6.575
REMARK  4 active torsions:
REMARK  status: ('A' for Active; 'I' for Inactive)
REMARK    1  A    between atoms: C3_7  and  S1_8 
REMARK    2  A    between atoms: S1_8  and  C4_9 
REMARK    3  A    between atoms: C8_13  and  C9_14 
REMARK    4  A    between atoms: C9_14  and  N3_15 
ROOT
HETATM    1  C4  UNL     1     -33.555  -0.671  -0.117  1.00  0.00     0.012 C 
HETATM    2  C5  UNL     1     -35.027  -0.361  -0.319  1.00  0.00     0.027 C 
HETATM    3  C6  UNL     1     -32.966   0.491   0.641  1.00  0.00     0.021 C 
HETATM    4  C7  UNL     1     -31.987  -0.059   1.609  1.00  0.00     0.008 C 
HETATM    5  C8  UNL     1     -32.014  -1.579   1.374  1.00  0.00     0.015 C 
HETATM    6  C15 UNL     1     -33.374  -1.837   0.868  1.00  0.00     0.027 C 
ENDROOT
BRANCH   1   7
HETATM    7  S1  UNL     1     -32.698  -0.921  -1.657  1.00  0.00    -0.083 SA
BRANCH   7   8
HETATM    8  C3  UNL     1     -31.721  -2.391  -1.744  1.00  0.00     0.163 A 
HETATM    9  N2  UNL     1     -32.231  -3.646  -1.928  1.00  0.00    -0.278 N 
HETATM   10  N1  UNL     1     -31.241  -4.522  -1.923  1.00  0.00    -0.287 N 
ATOM     11  H2  UNL     1     -33.218  -3.872  -2.048  1.00  0.00     0.189 HD
HETATM   12  C2  UNL     1     -30.072  -3.875  -1.740  1.00  0.00     0.095 A 
ATOM     13  H1  UNL     1     -31.346  -5.530  -2.040  1.00  0.00     0.188 HD
HETATM   14  C1  UNL     1     -28.705  -4.435  -1.666  1.00  0.00     0.091 C 
HETATM   15  N5  UNL     1     -30.381  -2.583  -1.631  1.00  0.00    -0.320 N 
HETATM   16  C16 UNL     1     -29.400  -1.531  -1.401  1.00  0.00     0.159 C 
ENDBRANCH   7   8
ENDBRANCH   1   7
BRANCH   5  17
HETATM   17  C9  UNL     1     -31.584  -2.249   2.627  1.00  0.00     0.277 C 
BRANCH  17  18
HETATM   18  N3  UNL     1     -31.293  -3.615   2.633  1.00  0.00     0.091 N 
HETATM   19  C10 UNL     1     -31.530  -4.356   3.827  1.00  0.00     0.291 C 
HETATM   20  C11 UNL     1     -30.203  -4.775   4.496  1.00  0.00     0.146 C 
HETATM   21  N4  UNL     1     -29.353  -5.519   3.636  1.00  0.00    -0.413 N 
HETATM   22  C12 UNL     1     -29.068  -6.863   4.024  1.00  0.00     0.143 C 
HETATM   23  C13 UNL     1     -29.561  -5.303   2.241  1.00  0.00     0.146 C 
HETATM   24  C14 UNL     1     -29.991  -3.861   2.053  1.00  0.00     0.291 C 
ENDBRANCH  17  18
ENDBRANCH   5  17
TORSDOF 4
ENDMDL
