MODEL 1
REMARK VINA RESULT: -6.058731075      0.000      0.000
REMARK  6 active torsions:
REMARK  status: ('A' for Active; 'I' for Inactive)
REMARK    1  A    between atoms: S1_2  and  C2_3 
REMARK    2  A    between atoms: C2_3  and  O1_5 
REMARK    3  A    between atoms: O1_5  and  C3_6 
REMARK    4  A    between atoms: C3_6  and  N1_7 
REMARK    5  A    between atoms: C3_6  and  C8_16 
REMARK    6  A    between atoms: N1_7  and  C4_9 
ROOT
HETATM    1  C3  UNL     1     -30.558  -0.718  -1.218  1.00  0.00     0.232 C 
ENDROOT
BRANCH   1   2
HETATM    2  O1  UNL     1     -31.954  -0.828  -0.845  1.00  0.00    -0.309 OA
BRANCH   2   3
HETATM    3  C2  UNL     1     -32.365  -0.931   0.449  1.00  0.00     0.176 C 
HETATM    4  S2  UNL     1     -31.583  -0.192   1.656  1.00  0.00    -0.045 SA
BRANCH   3   5
HETATM    5  S1  UNL     1     -33.798  -1.901   0.835  1.00  0.00    -0.098 SA
HETATM    6  C1  UNL     1     -33.390  -3.160   2.036  1.00  0.00     0.098 C 
ENDBRANCH   3   5
ENDBRANCH   2   3
ENDBRANCH   1   2
BRANCH   1   7
HETATM    7  N1  UNL     1     -30.123  -2.015  -1.474  1.00  0.00    -0.391 N 
ATOM      8  H1  UNL     1     -30.486  -2.493  -2.299  1.00  0.00     0.156 HD
BRANCH   7   9
HETATM    9  C4  UNL     1     -29.209  -2.699  -0.653  1.00  0.00     0.093 C 
HETATM   10  C5  UNL     1     -29.932  -3.478   0.395  1.00  0.00     0.040 C 
HETATM   11  C6  UNL     1     -29.214  -4.730   0.743  1.00  0.00     0.142 C 
HETATM   12  S3  UNL     1     -28.694  -5.260  -0.874  1.00  0.00     0.146 S 
HETATM   13  O2  UNL     1     -29.792  -5.974  -1.608  1.00  0.00    -0.228 OA
HETATM   14  O3  UNL     1     -27.440  -6.073  -0.814  1.00  0.00    -0.228 OA
HETATM   15  C7  UNL     1     -28.429  -3.639  -1.549  1.00  0.00     0.164 C 
ENDBRANCH   7   9
ENDBRANCH   1   7
BRANCH   1  16
HETATM   16  C8  UNL     1     -30.546   0.278  -2.348  1.00  0.00    -0.007 C 
HETATM   17  C9  UNL     1     -31.955   0.323  -2.966  1.00  0.00     0.019 C 
HETATM   18  C10 UNL     1     -29.570   0.059  -3.429  1.00  0.00     0.019 C 
HETATM   19  C11 UNL     1     -30.333   1.686  -1.790  1.00  0.00     0.019 C 
ENDBRANCH   1  16
TORSDOF 6
ENDMDL
MODEL 2
REMARK VINA RESULT: -6.042962290      0.266      1.011
REMARK  6 active torsions:
REMARK  status: ('A' for Active; 'I' for Inactive)
REMARK    1  A    between atoms: S1_2  and  C2_3 
REMARK    2  A    between atoms: C2_3  and  O1_5 
REMARK    3  A    between atoms: O1_5  and  C3_6 
REMARK    4  A    between atoms: C3_6  and  N1_7 
REMARK    5  A    between atoms: C3_6  and  C8_16 
REMARK    6  A    between atoms: N1_7  and  C4_9 
ROOT
HETATM    1  C3  UNL     1     -30.789  -0.824  -1.237  1.00  0.00     0.232 C 
ENDROOT
BRANCH   1   2
HETATM    2  O1  UNL     1     -32.176  -1.113  -0.930  1.00  0.00    -0.309 OA
BRANCH   2   3
HETATM    3  C2  UNL     1     -32.678  -1.051   0.335  1.00  0.00     0.176 C 
HETATM    4  S2  UNL     1     -31.920  -0.252   1.518  1.00  0.00    -0.045 SA
BRANCH   3   5
HETATM    5  S1  UNL     1     -34.209  -1.866   0.707  1.00  0.00    -0.098 SA
HETATM    6  C1  UNL     1     -33.932  -3.217   1.842  1.00  0.00     0.098 C 
ENDBRANCH   3   5
ENDBRANCH   2   3
ENDBRANCH   1   2
BRANCH   1   7
HETATM    7  N1  UNL     1     -30.200  -2.045  -1.550  1.00  0.00    -0.391 N 
ATOM      8  H1  UNL     1     -30.452  -2.492  -2.432  1.00  0.00     0.156 HD
BRANCH   7   9
HETATM    9  C4  UNL     1     -29.275  -2.693  -0.713  1.00  0.00     0.093 C 
HETATM   10  C5  UNL     1     -29.985  -3.462   0.352  1.00  0.00     0.040 C 
HETATM   11  C6  UNL     1     -29.244  -4.692   0.729  1.00  0.00     0.142 C 
HETATM   12  S3  UNL     1     -28.712  -5.249  -0.875  1.00  0.00     0.146 S 
HETATM   13  O2  UNL     1     -29.794  -5.999  -1.594  1.00  0.00    -0.228 OA
HETATM   14  O3  UNL     1     -27.442  -6.035  -0.795  1.00  0.00    -0.228 OA
HETATM   15  C7  UNL     1     -28.476  -3.638  -1.587  1.00  0.00     0.164 C 
ENDBRANCH   7   9
ENDBRANCH   1   7
BRANCH   1  16
HETATM   16  C8  UNL     1     -30.853   0.236  -2.305  1.00  0.00    -0.007 C 
HETATM   17  C9  UNL     1     -30.568   1.599  -1.649  1.00  0.00     0.019 C 
HETATM   18  C10 UNL     1     -32.104   0.343  -3.075  1.00  0.00     0.019 C 
HETATM   19  C11 UNL     1     -29.700   0.043  -3.291  1.00  0.00     0.019 C 
ENDBRANCH   1  16
TORSDOF 6
ENDMDL
MODEL 3
REMARK VINA RESULT: -5.987326697      0.643      1.164
REMARK  6 active torsions:
REMARK  status: ('A' for Active; 'I' for Inactive)
REMARK    1  A    between atoms: S1_2  and  C2_3 
REMARK    2  A    between atoms: C2_3  and  O1_5 
REMARK    3  A    between atoms: O1_5  and  C3_6 
REMARK    4  A    between atoms: C3_6  and  N1_7 
REMARK    5  A    between atoms: C3_6  and  C8_16 
REMARK    6  A    between atoms: N1_7  and  C4_9 
ROOT
HETATM    1  C3  UNL     1     -30.645  -0.748  -1.240  1.00  0.00     0.232 C 
ENDROOT
BRANCH   1   2
HETATM    2  O1  UNL     1     -32.063  -0.862  -0.963  1.00  0.00    -0.309 OA
BRANCH   2   3
HETATM    3  C2  UNL     1     -32.558  -0.995   0.298  1.00  0.00     0.176 C 
HETATM    4  S2  UNL     1     -33.912  -1.826   0.602  1.00  0.00    -0.045 SA
BRANCH   3   5
HETATM    5  S1  UNL     1     -31.703  -0.242   1.657  1.00  0.00    -0.098 SA
HETATM    6  C1  UNL     1     -31.750  -1.311   3.089  1.00  0.00     0.098 C 
ENDBRANCH   3   5
ENDBRANCH   2   3
ENDBRANCH   1   2
BRANCH   1   7
HETATM    7  N1  UNL     1     -30.194  -2.041  -1.483  1.00  0.00    -0.391 N 
ATOM      8  H1  UNL     1     -30.549  -2.531  -2.304  1.00  0.00     0.156 HD
BRANCH   7   9
HETATM    9  C4  UNL     1     -29.272  -2.706  -0.655  1.00  0.00     0.093 C 
HETATM   10  C5  UNL     1     -29.987  -3.502   0.386  1.00  0.00     0.040 C 
HETATM   11  C6  UNL     1     -29.244  -4.738   0.739  1.00  0.00     0.142 C 
HETATM   12  S3  UNL     1     -28.699  -5.256  -0.874  1.00  0.00     0.146 S 
HETATM   13  O2  UNL     1     -29.774  -5.992  -1.618  1.00  0.00    -0.228 OA
HETATM   14  O3  UNL     1     -27.428  -6.040  -0.804  1.00  0.00    -0.228 OA
HETATM   15  C7  UNL     1     -28.464  -3.627  -1.546  1.00  0.00     0.164 C 
ENDBRANCH   7   9
ENDBRANCH   1   7
BRANCH   1  16
HETATM   16  C8  UNL     1     -30.558   0.263  -2.353  1.00  0.00    -0.007 C 
HETATM   17  C9  UNL     1     -31.936   0.352  -3.033  1.00  0.00     0.019 C 
HETATM   18  C10 UNL     1     -29.539   0.035  -3.392  1.00  0.00     0.019 C 
HETATM   19  C11 UNL     1     -30.336   1.657  -1.765  1.00  0.00     0.019 C 
ENDBRANCH   1  16
TORSDOF 6
ENDMDL
MODEL 4
REMARK VINA RESULT: -5.979759927      0.663      1.526
REMARK  6 active torsions:
REMARK  status: ('A' for Active; 'I' for Inactive)
REMARK    1  A    between atoms: S1_2  and  C2_3 
REMARK    2  A    between atoms: C2_3  and  O1_5 
REMARK    3  A    between atoms: O1_5  and  C3_6 
REMARK    4  A    between atoms: C3_6  and  N1_7 
REMARK    5  A    between atoms: C3_6  and  C8_16 
REMARK    6  A    between atoms: N1_7  and  C4_9 
ROOT
HETATM    1  C3  UNL     1     -30.813  -0.825  -1.232  1.00  0.00     0.232 C 
ENDROOT
BRANCH   1   2
HETATM    2  O1  UNL     1     -32.207  -1.106  -0.957  1.00  0.00    -0.309 OA
BRANCH   2   3
HETATM    3  C2  UNL     1     -32.750  -0.996   0.287  1.00  0.00     0.176 C 
HETATM    4  S2  UNL     1     -34.255  -1.492   0.610  1.00  0.00    -0.045 SA
BRANCH   3   5
HETATM    5  S1  UNL     1     -31.789  -0.290   1.600  1.00  0.00    -0.098 SA
HETATM    6  C1  UNL     1     -31.738  -1.403   2.997  1.00  0.00     0.098 C 
ENDBRANCH   3   5
ENDBRANCH   2   3
ENDBRANCH   1   2
BRANCH   1   7
HETATM    7  N1  UNL     1     -30.224  -2.048  -1.538  1.00  0.00    -0.391 N 
ATOM      8  H1  UNL     1     -30.475  -2.499  -2.417  1.00  0.00     0.156 HD
BRANCH   7   9
HETATM    9  C4  UNL     1     -29.301  -2.692  -0.696  1.00  0.00     0.093 C 
HETATM   10  C5  UNL     1     -30.014  -3.470   0.360  1.00  0.00     0.040 C 
HETATM   11  C6  UNL     1     -29.266  -4.697   0.738  1.00  0.00     0.142 C 
HETATM   12  S3  UNL     1     -28.717  -5.243  -0.864  1.00  0.00     0.146 S 
HETATM   13  O2  UNL     1     -29.789  -5.999  -1.594  1.00  0.00    -0.228 OA
HETATM   14  O3  UNL     1     -27.443  -6.021  -0.777  1.00  0.00    -0.228 OA
HETATM   15  C7  UNL     1     -28.488  -3.628  -1.567  1.00  0.00     0.164 C 
ENDBRANCH   7   9
ENDBRANCH   1   7
BRANCH   1  16
HETATM   16  C8  UNL     1     -30.845   0.241  -2.296  1.00  0.00    -0.007 C 
HETATM   17  C9  UNL     1     -30.516   1.592  -1.635  1.00  0.00     0.019 C 
HETATM   18  C10 UNL     1     -32.094   0.390  -3.062  1.00  0.00     0.019 C 
HETATM   19  C11 UNL     1     -29.701   0.016  -3.285  1.00  0.00     0.019 C 
ENDBRANCH   1  16
TORSDOF 6
ENDMDL
MODEL 5
REMARK VINA RESULT: -5.884497825      1.169      1.795
REMARK  6 active torsions:
REMARK  status: ('A' for Active; 'I' for Inactive)
REMARK    1  A    between atoms: S1_2  and  C2_3 
REMARK    2  A    between atoms: C2_3  and  O1_5 
REMARK    3  A    between atoms: O1_5  and  C3_6 
REMARK    4  A    between atoms: C3_6  and  N1_7 
REMARK    5  A    between atoms: C3_6  and  C8_16 
REMARK    6  A    between atoms: N1_7  and  C4_9 
ROOT
HETATM    1  C3  UNL     1     -30.452  -1.060  -1.357  1.00  0.00     0.232 C 
ENDROOT
BRANCH   1   2
HETATM    2  O1  UNL     1     -31.814  -1.463  -1.069  1.00  0.00    -0.309 OA
BRANCH   2   3
HETATM    3  C2  UNL     1     -32.319  -1.501   0.195  1.00  0.00     0.176 C 
HETATM    4  S2  UNL     1     -33.861  -1.890   0.488  1.00  0.00    -0.045 SA
BRANCH   3   5
HETATM    5  S1  UNL     1     -31.266  -1.118   1.569  1.00  0.00    -0.098 SA
HETATM    6  C1  UNL     1     -30.849  -2.606   2.466  1.00  0.00     0.098 C 
ENDBRANCH   3   5
ENDBRANCH   2   3
ENDBRANCH   1   2
BRANCH   1   7
HETATM    7  N1  UNL     1     -29.791  -2.207  -1.783  1.00  0.00    -0.391 N 
ATOM      8  H1  UNL     1     -29.908  -2.501  -2.753  1.00  0.00     0.156 HD
BRANCH   7   9
HETATM    9  C4  UNL     1     -28.969  -2.981  -0.945  1.00  0.00     0.093 C 
HETATM   10  C5  UNL     1     -29.633  -4.277  -0.616  1.00  0.00     0.040 C 
HETATM   11  C6  UNL     1     -28.646  -5.374  -0.451  1.00  0.00     0.142 C 
HETATM   12  S3  UNL     1     -27.532  -5.006  -1.788  1.00  0.00     0.146 S 
HETATM   13  O2  UNL     1     -28.042  -5.525  -3.101  1.00  0.00    -0.228 OA
HETATM   14  O3  UNL     1     -26.143  -5.481  -1.498  1.00  0.00    -0.228 OA
HETATM   15  C7  UNL     1     -27.683  -3.237  -1.703  1.00  0.00     0.164 C 
ENDBRANCH   7   9
ENDBRANCH   1   7
BRANCH   1  16
HETATM   16  C8  UNL     1     -30.594   0.087  -2.323  1.00  0.00    -0.007 C 
HETATM   17  C9  UNL     1     -30.277   1.393  -1.572  1.00  0.00     0.019 C 
HETATM   18  C10 UNL     1     -31.894   0.242  -2.998  1.00  0.00     0.019 C 
HETATM   19  C11 UNL     1     -29.508  -0.005  -3.395  1.00  0.00     0.019 C 
ENDBRANCH   1  16
TORSDOF 6
ENDMDL
