MODEL 1
REMARK VINA RESULT: -6.398917374      0.000      0.000
REMARK  3 active torsions:
REMARK  status: ('A' for Active; 'I' for Inactive)
REMARK    1  A    between atoms: C2_2  and  N1_3 
REMARK    2  A    between atoms: N1_3  and  N2_4 
REMARK    3  A    between atoms: N1_3  and  N4_14 
ROOT
HETATM    1  N2  UNL     1      -3.891   3.219  14.253  1.00  0.00    -0.268 N 
ATOM      2  H2  UNL     1      -3.400   4.030  14.631  1.00  0.00     0.190 HD
HETATM    3  C3  UNL     1      -3.630   2.787  13.076  1.00  0.00     0.095 C 
HETATM    4  C4  UNL     1      -4.303   1.608  12.450  1.00  0.00     0.078 C 
HETATM    5  C5  UNL     1      -3.287   0.836  11.684  1.00  0.00     0.012 C 
HETATM    6  C6  UNL     1      -2.386   1.632  10.812  1.00  0.00     0.059 C 
HETATM    7  C7  UNL     1      -2.573   3.126  10.906  1.00  0.00     0.270 C 
HETATM    8  F1  UNL     1      -3.715   3.547  10.226  1.00  0.00    -0.227 F 
HETATM    9  N3  UNL     1      -2.643   3.464  12.312  1.00  0.00    -0.348 N 
ATOM     10  H3  UNL     1      -2.016   4.150  12.731  1.00  0.00     0.163 HD
ENDROOT
BRANCH   1  11
HETATM   11  N1  UNL     1      -4.861   2.559  15.011  1.00  0.00    -0.173 N 
BRANCH  11  12
HETATM   12  C2  UNL     1      -6.145   3.192  15.146  1.00  0.00     0.171 C 
HETATM   13  C1  UNL     1      -5.961   4.686  15.065  1.00  0.00     0.030 C 
ENDBRANCH  11  12
BRANCH  11  14
HETATM   14  N4  UNL     1      -4.634   1.331  15.628  1.00  0.00    -0.021 N 
HETATM   15  O1  UNL     1      -5.473   0.428  15.721  1.00  0.00    -0.515 OA
HETATM   16  O2  UNL     1      -3.370   1.136  16.164  1.00  0.00    -0.515 OA
ENDBRANCH  11  14
ENDBRANCH   1  11
TORSDOF 3
ENDMDL
MODEL 2
REMARK VINA RESULT: -6.392817523      2.018      3.837
REMARK  3 active torsions:
REMARK  status: ('A' for Active; 'I' for Inactive)
REMARK    1  A    between atoms: C2_2  and  N1_3 
REMARK    2  A    between atoms: N1_3  and  N2_4 
REMARK    3  A    between atoms: N1_3  and  N4_14 
ROOT
HETATM    1  N2  UNL     1      -3.568   2.615  13.427  1.00  0.00    -0.268 N 
ATOM      2  H2  UNL     1      -2.695   2.745  12.917  1.00  0.00     0.190 HD
HETATM    3  C3  UNL     1      -4.301   3.619  13.735  1.00  0.00     0.095 C 
HETATM    4  C4  UNL     1      -5.593   3.514  14.480  1.00  0.00     0.078 C 
HETATM    5  C5  UNL     1      -6.557   4.485  13.893  1.00  0.00     0.012 C 
HETATM    6  C6  UNL     1      -6.035   5.854  13.651  1.00  0.00     0.059 C 
HETATM    7  C7  UNL     1      -4.567   6.032  13.948  1.00  0.00     0.270 C 
HETATM    8  F1  UNL     1      -4.323   6.109  15.319  1.00  0.00    -0.227 F 
HETATM    9  N3  UNL     1      -3.868   4.915  13.350  1.00  0.00    -0.348 N 
ATOM     10  H3  UNL     1      -3.105   5.052  12.688  1.00  0.00     0.163 HD
ENDROOT
BRANCH   1  11
HETATM   11  N1  UNL     1      -3.988   1.337  13.802  1.00  0.00    -0.173 N 
BRANCH  11  12
HETATM   12  C2  UNL     1      -4.330   0.414  12.754  1.00  0.00     0.171 C 
HETATM   13  C1  UNL     1      -3.383   0.616  11.600  1.00  0.00     0.030 C 
ENDBRANCH  11  12
BRANCH  11  14
HETATM   14  N4  UNL     1      -4.084   0.931  15.132  1.00  0.00    -0.021 N 
HETATM   15  O1  UNL     1      -3.302   1.273  16.026  1.00  0.00    -0.515 OA
HETATM   16  O2  UNL     1      -5.139   0.087  15.443  1.00  0.00    -0.515 OA
ENDBRANCH  11  14
ENDBRANCH   1  11
TORSDOF 3
ENDMDL
MODEL 3
REMARK VINA RESULT: -6.335925225      2.397      3.155
REMARK  3 active torsions:
REMARK  status: ('A' for Active; 'I' for Inactive)
REMARK    1  A    between atoms: C2_2  and  N1_3 
REMARK    2  A    between atoms: N1_3  and  N2_4 
REMARK    3  A    between atoms: N1_3  and  N4_14 
ROOT
HETATM    1  N2  UNL     1      -5.556   2.864  14.062  1.00  0.00    -0.268 N 
ATOM      2  H2  UNL     1      -6.202   2.475  13.375  1.00  0.00     0.190 HD
HETATM    3  C3  UNL     1      -4.886   3.924  13.801  1.00  0.00     0.095 C 
HETATM    4  C4  UNL     1      -3.921   4.558  14.751  1.00  0.00     0.078 C 
HETATM    5  C5  UNL     1      -4.061   6.036  14.650  1.00  0.00     0.012 C 
HETATM    6  C6  UNL     1      -4.105   6.592  13.273  1.00  0.00     0.059 C 
HETATM    7  C7  UNL     1      -4.100   5.560  12.175  1.00  0.00     0.270 C 
HETATM    8  F1  UNL     1      -2.831   5.013  11.984  1.00  0.00    -0.227 F 
HETATM    9  N3  UNL     1      -5.063   4.541  12.535  1.00  0.00    -0.348 N 
ATOM     10  H3  UNL     1      -5.829   4.282  11.914  1.00  0.00     0.163 HD
ENDROOT
BRANCH   1  11
HETATM   11  N1  UNL     1      -5.386   2.251  15.306  1.00  0.00    -0.173 N 
BRANCH  11  12
HETATM   12  C2  UNL     1      -6.185   2.733  16.399  1.00  0.00     0.171 C 
HETATM   13  C1  UNL     1      -7.173   1.664  16.788  1.00  0.00     0.030 C 
ENDBRANCH  11  12
BRANCH  11  14
HETATM   14  N4  UNL     1      -4.489   1.207  15.519  1.00  0.00    -0.021 N 
HETATM   15  O1  UNL     1      -3.437   1.309  16.161  1.00  0.00    -0.515 OA
HETATM   16  O2  UNL     1      -4.824  -0.017  14.962  1.00  0.00    -0.515 OA
ENDBRANCH  11  14
ENDBRANCH   1  11
TORSDOF 3
ENDMDL
MODEL 4
REMARK VINA RESULT: -6.106497014      2.203      2.709
REMARK  3 active torsions:
REMARK  status: ('A' for Active; 'I' for Inactive)
REMARK    1  A    between atoms: C2_2  and  N1_3 
REMARK    2  A    between atoms: N1_3  and  N2_4 
REMARK    3  A    between atoms: N1_3  and  N4_14 
ROOT
HETATM    1  N2  UNL     1      -4.510   0.573  14.535  1.00  0.00    -0.268 N 
ATOM      2  H2  UNL     1      -4.400  -0.349  14.958  1.00  0.00     0.190 HD
HETATM    3  C3  UNL     1      -4.361   0.736  13.274  1.00  0.00     0.095 C 
HETATM    4  C4  UNL     1      -4.504   2.051  12.577  1.00  0.00     0.078 C 
HETATM    5  C5  UNL     1      -5.195   1.824  11.278  1.00  0.00     0.012 C 
HETATM    6  C6  UNL     1      -4.692   0.689  10.463  1.00  0.00     0.059 C 
HETATM    7  C7  UNL     1      -3.613  -0.132  11.123  1.00  0.00     0.270 C 
HETATM    8  F1  UNL     1      -2.380   0.519  11.097  1.00  0.00    -0.227 F 
HETATM    9  N3  UNL     1      -4.041  -0.397  12.480  1.00  0.00    -0.348 N 
ATOM     10  H3  UNL     1      -4.109  -1.346  12.846  1.00  0.00     0.163 HD
ENDROOT
BRANCH   1  11
HETATM   11  N1  UNL     1      -4.825   1.683  15.322  1.00  0.00    -0.173 N 
BRANCH  11  12
HETATM   12  C2  UNL     1      -6.174   1.793  15.807  1.00  0.00     0.171 C 
HETATM   13  C1  UNL     1      -6.282   1.055  17.116  1.00  0.00     0.030 C 
ENDBRANCH  11  12
BRANCH  11  14
HETATM   14  N4  UNL     1      -3.895   2.668  15.650  1.00  0.00    -0.021 N 
HETATM   15  O1  UNL     1      -4.012   3.864  15.360  1.00  0.00    -0.515 OA
HETATM   16  O2  UNL     1      -2.774   2.248  16.349  1.00  0.00    -0.515 OA
ENDBRANCH  11  14
ENDBRANCH   1  11
TORSDOF 3
ENDMDL
MODEL 5
REMARK VINA RESULT: -6.102535712      3.402      5.109
REMARK  3 active torsions:
REMARK  status: ('A' for Active; 'I' for Inactive)
REMARK    1  A    between atoms: C2_2  and  N1_3 
REMARK    2  A    between atoms: N1_3  and  N2_4 
REMARK    3  A    between atoms: N1_3  and  N4_14 
ROOT
HETATM    1  N2  UNL     1      -4.157   2.239  14.661  1.00  0.00    -0.268 N 
ATOM      2  H2  UNL     1      -3.226   1.848  14.801  1.00  0.00     0.190 HD
HETATM    3  C3  UNL     1      -5.035   2.183  15.592  1.00  0.00     0.095 C 
HETATM    4  C4  UNL     1      -6.421   2.731  15.469  1.00  0.00     0.078 C 
HETATM    5  C5  UNL     1      -6.796   3.362  16.763  1.00  0.00     0.012 C 
HETATM    6  C6  UNL     1      -6.498   2.571  17.984  1.00  0.00     0.059 C 
HETATM    7  C7  UNL     1      -5.765   1.277  17.734  1.00  0.00     0.270 C 
HETATM    8  F1  UNL     1      -6.612   0.294  17.222  1.00  0.00    -0.227 F 
HETATM    9  N3  UNL     1      -4.680   1.565  16.820  1.00  0.00    -0.348 N 
ATOM     10  H3  UNL     1      -3.712   1.338  17.047  1.00  0.00     0.163 HD
ENDROOT
BRANCH   1  11
HETATM   11  N1  UNL     1      -4.500   2.845  13.450  1.00  0.00    -0.173 N 
BRANCH  11  12
HETATM   12  C2  UNL     1      -4.227   4.249  13.309  1.00  0.00     0.171 C 
HETATM   13  C1  UNL     1      -3.055   4.607  14.184  1.00  0.00     0.030 C 
ENDBRANCH  11  12
BRANCH  11  14
HETATM   14  N4  UNL     1      -5.084   2.149  12.394  1.00  0.00    -0.021 N 
HETATM   15  O1  UNL     1      -5.843   2.653  11.559  1.00  0.00    -0.515 OA
HETATM   16  O2  UNL     1      -4.774   0.801  12.299  1.00  0.00    -0.515 OA
ENDBRANCH  11  14
ENDBRANCH   1  11
TORSDOF 3
ENDMDL
