MODEL 1
REMARK VINA RESULT: -6.777306802      0.000      0.000
REMARK  4 active torsions:
REMARK  status: ('A' for Active; 'I' for Inactive)
REMARK    1  A    between atoms: C2_2  and  C4_4 
REMARK    2  A    between atoms: C4_4  and  C5_5 
REMARK    3  A    between atoms: C5_5  and  N1_7 
REMARK    4  A    between atoms: N1_7  and  N2_9 
ROOT
HETATM    1  N1  UNL     1      -4.076   1.749  13.272  1.00  0.00    -0.294 N 
ATOM      2  H1  UNL     1      -3.436   1.095  13.724  1.00  0.00     0.187 HD
ENDROOT
BRANCH   1   3
HETATM    3  C5  UNL     1      -4.261   1.724  11.868  1.00  0.00     0.092 C 
HETATM    4  S1  UNL     1      -4.252   3.167  11.052  1.00  0.00    -0.064 SA
BRANCH   3   5
HETATM    5  C4  UNL     1      -4.457   0.455  11.136  1.00  0.00     0.075 C 
BRANCH   5   6
HETATM    6  C2  UNL     1      -3.205  -0.167  10.618  1.00  0.00    -0.016 C 
HETATM    7  C1  UNL     1      -2.018   0.758  10.856  1.00  0.00     0.010 C 
HETATM    8  C3  UNL     1      -2.887  -1.510  11.191  1.00  0.00     0.010 C 
ENDBRANCH   5   6
ENDBRANCH   3   5
ENDBRANCH   1   3
BRANCH   1   9
HETATM    9  N2  UNL     1      -4.789   2.689  14.026  1.00  0.00    -0.308 N 
HETATM   10  C6  UNL     1      -5.107   2.546  15.253  1.00  0.00     0.004 C 
HETATM   11  C7  UNL     1      -5.873   3.659  15.895  1.00  0.00     0.054 C 
HETATM   12  C11 UNL     1      -4.736   1.343  15.998  1.00  0.00     0.054 C 
HETATM   13  C8  UNL     1      -6.932   3.070  16.804  1.00  0.00     0.006 C 
HETATM   14  C9  UNL     1      -6.207   2.168  17.788  1.00  0.00     0.001 C 
HETATM   15  C10 UNL     1      -5.767   0.949  17.042  1.00  0.00     0.006 C 
ATOM     16  H2  UNL     1      -5.075   3.550  13.560  1.00  0.00     0.186 HD
ENDBRANCH   1   9
TORSDOF 4
ENDMDL
MODEL 2
REMARK VINA RESULT: -6.733008796      1.465      6.220
REMARK  4 active torsions:
REMARK  status: ('A' for Active; 'I' for Inactive)
REMARK    1  A    between atoms: C2_2  and  C4_4 
REMARK    2  A    between atoms: C4_4  and  C5_5 
REMARK    3  A    between atoms: C5_5  and  N1_7 
REMARK    4  A    between atoms: N1_7  and  N2_9 
ROOT
HETATM    1  N1  UNL     1      -4.630   1.691  14.368  1.00  0.00    -0.294 N 
ATOM      2  H1  UNL     1      -4.866   0.702  14.446  1.00  0.00     0.187 HD
ENDROOT
BRANCH   1   3
HETATM    3  C5  UNL     1      -5.063   2.617  15.348  1.00  0.00     0.092 C 
HETATM    4  S1  UNL     1      -5.518   4.130  14.848  1.00  0.00    -0.064 SA
BRANCH   3   5
HETATM    5  C4  UNL     1      -5.114   2.259  16.782  1.00  0.00     0.075 C 
BRANCH   5   6
HETATM    6  C2  UNL     1      -6.422   2.527  17.445  1.00  0.00    -0.016 C 
HETATM    7  C1  UNL     1      -7.466   1.519  16.983  1.00  0.00     0.010 C 
HETATM    8  C3  UNL     1      -6.381   2.523  18.939  1.00  0.00     0.010 C 
ENDBRANCH   5   6
ENDBRANCH   3   5
ENDBRANCH   1   3
BRANCH   1   9
HETATM    9  N2  UNL     1      -3.870   2.162  13.290  1.00  0.00    -0.308 N 
HETATM   10  C6  UNL     1      -3.649   1.510  12.216  1.00  0.00     0.004 C 
HETATM   11  C7  UNL     1      -2.811   2.176  11.171  1.00  0.00     0.054 C 
HETATM   12  C11 UNL     1      -4.194   0.167  12.019  1.00  0.00     0.054 C 
HETATM   13  C8  UNL     1      -1.884   1.150  10.554  1.00  0.00     0.006 C 
HETATM   14  C9  UNL     1      -2.763   0.031  10.023  1.00  0.00     0.001 C 
HETATM   15  C10 UNL     1      -3.283  -0.731  11.200  1.00  0.00     0.006 C 
ATOM     16  H2  UNL     1      -3.463   3.095  13.369  1.00  0.00     0.186 HD
ENDBRANCH   1   9
TORSDOF 4
ENDMDL
MODEL 3
REMARK VINA RESULT: -6.550313823      2.048      2.943
REMARK  4 active torsions:
REMARK  status: ('A' for Active; 'I' for Inactive)
REMARK    1  A    between atoms: C2_2  and  C4_4 
REMARK    2  A    between atoms: C4_4  and  C5_5 
REMARK    3  A    between atoms: C5_5  and  N1_7 
REMARK    4  A    between atoms: N1_7  and  N2_9 
ROOT
HETATM    1  N1  UNL     1      -3.503   4.290  14.959  1.00  0.00    -0.294 N 
ATOM      2  H1  UNL     1      -3.556   5.056  15.630  1.00  0.00     0.187 HD
ENDROOT
BRANCH   1   3
HETATM    3  C5  UNL     1      -3.152   4.533  13.609  1.00  0.00     0.092 C 
HETATM    4  S1  UNL     1      -1.765   5.386  13.303  1.00  0.00    -0.064 SA
BRANCH   3   5
HETATM    5  C4  UNL     1      -3.989   4.045  12.492  1.00  0.00     0.075 C 
BRANCH   5   6
HETATM    6  C2  UNL     1      -3.640   2.681  12.001  1.00  0.00    -0.016 C 
HETATM    7  C1  UNL     1      -4.893   1.947  11.541  1.00  0.00     0.010 C 
HETATM    8  C3  UNL     1      -2.634   2.651  10.896  1.00  0.00     0.010 C 
ENDBRANCH   5   6
ENDBRANCH   3   5
ENDBRANCH   1   3
BRANCH   1   9
HETATM    9  N2  UNL     1      -3.777   2.974  15.354  1.00  0.00    -0.308 N 
HETATM   10  C6  UNL     1      -4.914   2.558  15.757  1.00  0.00     0.004 C 
HETATM   11  C7  UNL     1      -5.018   1.115  16.138  1.00  0.00     0.054 C 
HETATM   12  C11 UNL     1      -6.065   3.456  15.839  1.00  0.00     0.054 C 
HETATM   13  C8  UNL     1      -5.888   0.992  17.372  1.00  0.00     0.006 C 
HETATM   14  C9  UNL     1      -7.219   1.641  17.032  1.00  0.00     0.001 C 
HETATM   15  C10 UNL     1      -7.001   3.119  16.987  1.00  0.00     0.006 C 
ATOM     16  H2  UNL     1      -3.012   2.300  15.318  1.00  0.00     0.186 HD
ENDBRANCH   1   9
TORSDOF 4
ENDMDL
MODEL 4
REMARK VINA RESULT: -6.538847532      1.970      2.857
REMARK  4 active torsions:
REMARK  status: ('A' for Active; 'I' for Inactive)
REMARK    1  A    between atoms: C2_2  and  C4_4 
REMARK    2  A    between atoms: C4_4  and  C5_5 
REMARK    3  A    between atoms: C5_5  and  N1_7 
REMARK    4  A    between atoms: N1_7  and  N2_9 
ROOT
HETATM    1  N1  UNL     1      -3.480   4.189  15.121  1.00  0.00    -0.294 N 
ATOM      2  H1  UNL     1      -3.122   4.879  15.782  1.00  0.00     0.187 HD
ENDROOT
BRANCH   1   3
HETATM    3  C5  UNL     1      -3.687   4.528  13.762  1.00  0.00     0.092 C 
HETATM    4  S1  UNL     1      -4.429   5.969  13.418  1.00  0.00    -0.064 SA
BRANCH   3   5
HETATM    5  C4  UNL     1      -3.257   3.631  12.668  1.00  0.00     0.075 C 
BRANCH   5   6
HETATM    6  C2  UNL     1      -4.337   2.770  12.107  1.00  0.00    -0.016 C 
HETATM    7  C1  UNL     1      -4.415   2.934  10.595  1.00  0.00     0.010 C 
HETATM    8  C3  UNL     1      -4.207   1.315  12.424  1.00  0.00     0.010 C 
ENDBRANCH   5   6
ENDBRANCH   3   5
ENDBRANCH   1   3
BRANCH   1   9
HETATM    9  N2  UNL     1      -3.779   2.886  15.540  1.00  0.00    -0.308 N 
HETATM   10  C6  UNL     1      -4.933   2.487  15.908  1.00  0.00     0.004 C 
HETATM   11  C7  UNL     1      -5.062   1.057  16.324  1.00  0.00     0.054 C 
HETATM   12  C11 UNL     1      -6.081   3.394  15.921  1.00  0.00     0.054 C 
HETATM   13  C8  UNL     1      -5.981   0.972  17.525  1.00  0.00     0.006 C 
HETATM   14  C9  UNL     1      -7.293   1.619  17.115  1.00  0.00     0.001 C 
HETATM   15  C10 UNL     1      -7.063   3.094  17.040  1.00  0.00     0.006 C 
ATOM     16  H2  UNL     1      -3.018   2.206  15.552  1.00  0.00     0.186 HD
ENDBRANCH   1   9
TORSDOF 4
ENDMDL
MODEL 5
REMARK VINA RESULT: -6.459406026      1.503      5.664
REMARK  4 active torsions:
REMARK  status: ('A' for Active; 'I' for Inactive)
REMARK    1  A    between atoms: C2_2  and  C4_4 
REMARK    2  A    between atoms: C4_4  and  C5_5 
REMARK    3  A    between atoms: C5_5  and  N1_7 
REMARK    4  A    between atoms: N1_7  and  N2_9 
ROOT
HETATM    1  N1  UNL     1      -5.114   3.388  13.156  1.00  0.00    -0.294 N 
ATOM      2  H1  UNL     1      -6.058   3.230  12.802  1.00  0.00     0.187 HD
ENDROOT
BRANCH   1   3
HETATM    3  C5  UNL     1      -4.901   3.754  14.507  1.00  0.00     0.092 C 
HETATM    4  S1  UNL     1      -3.592   4.707  14.863  1.00  0.00    -0.064 SA
BRANCH   3   5
HETATM    5  C4  UNL     1      -5.811   3.307  15.583  1.00  0.00     0.075 C 
BRANCH   5   6
HETATM    6  C2  UNL     1      -5.266   2.223  16.450  1.00  0.00    -0.016 C 
HETATM    7  C1  UNL     1      -6.384   1.585  17.265  1.00  0.00     0.010 C 
HETATM    8  C3  UNL     1      -4.531   1.146  15.720  1.00  0.00     0.010 C 
ENDBRANCH   5   6
ENDBRANCH   3   5
ENDBRANCH   1   3
BRANCH   1   9
HETATM    9  N2  UNL     1      -4.003   3.249  12.315  1.00  0.00    -0.308 N 
HETATM   10  C6  UNL     1      -3.749   2.215  11.613  1.00  0.00     0.004 C 
HETATM   11  C7  UNL     1      -2.511   2.246  10.773  1.00  0.00     0.054 C 
HETATM   12  C11 UNL     1      -4.633   1.050  11.629  1.00  0.00     0.054 C 
HETATM   13  C8  UNL     1      -1.843   0.888  10.826  1.00  0.00     0.006 C 
HETATM   14  C9  UNL     1      -2.878  -0.124  10.367  1.00  0.00     0.001 C 
HETATM   15  C10 UNL     1      -3.888  -0.264  11.460  1.00  0.00     0.006 C 
ATOM     16  H2  UNL     1      -3.349   4.030  12.261  1.00  0.00     0.186 HD
ENDBRANCH   1   9
TORSDOF 4
ENDMDL
