MODEL 1
REMARK VINA RESULT: -6.610444418      0.000      0.000
REMARK  5 active torsions:
REMARK  status: ('A' for Active; 'I' for Inactive)
REMARK    1  A    between atoms: N1_4  and  C4_5 
REMARK    2  A    between atoms: C4_5  and  C5_6 
REMARK    3  A    between atoms: C5_6  and  C6_7 
REMARK    4  A    between atoms: C6_7  and  N2_8 
REMARK    5  A    between atoms: C9_12  and  N3_13 
ROOT
HETATM    1  C5  UNL     1      19.878  64.457  33.271  1.00  0.00     0.040 C 
ENDROOT
BRANCH   1   2
HETATM    2  C4  UNL     1      18.496  65.024  33.131  1.00  0.00     0.130 C 
BRANCH   2   3
HETATM    3  N1  UNL     1      17.922  64.764  31.833  1.00  0.00    -0.359 N 
HETATM    4  C3  UNL     1      18.543  64.310  30.737  1.00  0.00     0.099 A 
HETATM    5  C2  UNL     1      17.659  64.189  29.688  1.00  0.00    -0.027 A 
HETATM    6  C1  UNL     1      17.899  63.729  28.295  1.00  0.00     0.051 C 
HETATM    7  C12 UNL     1      16.436  64.594  30.186  1.00  0.00     0.040 A 
HETATM    8  C10 UNL     1      16.641  64.939  31.510  1.00  0.00     0.025 A 
HETATM    9 BR1  UNL     1      14.807  64.647  29.197  1.00  0.00    -0.048 Br
HETATM   10  C11 UNL     1      15.524  65.432  32.382  1.00  0.00     0.070 C 
ENDBRANCH   2   3
ENDBRANCH   1   2
BRANCH   1  11
HETATM   11  C6  UNL     1      19.795  63.134  33.954  1.00  0.00     0.132 C 
BRANCH  11  12
HETATM   12  N2  UNL     1      20.950  62.917  34.870  1.00  0.00    -0.337 N 
HETATM   13  C7  UNL     1      20.941  63.352  36.101  1.00  0.00     0.100 A 
HETATM   14  C8  UNL     1      22.048  63.099  36.875  1.00  0.00     0.070 A 
HETATM   15  S1  UNL     1      23.054  62.246  35.799  1.00  0.00    -0.065 SA
HETATM   16  C9  UNL     1      22.026  62.256  34.438  1.00  0.00     0.144 A 
BRANCH  16  17
HETATM   17  N3  UNL     1      22.228  61.745  33.241  1.00  0.00    -0.379 N 
ATOM     18  H32 UNL     1      22.848  62.069  32.499  1.00  0.00     0.158 HD
ATOM     19  H31 UNL     1      21.789  60.918  32.836  1.00  0.00     0.158 HD
ENDBRANCH  16  17
ENDBRANCH  11  12
ENDBRANCH   1  11
TORSDOF 5
ENDMDL
MODEL 2
REMARK VINA RESULT: -6.566582895      0.990      2.132
REMARK  5 active torsions:
REMARK  status: ('A' for Active; 'I' for Inactive)
REMARK    1  A    between atoms: N1_4  and  C4_5 
REMARK    2  A    between atoms: C4_5  and  C5_6 
REMARK    3  A    between atoms: C5_6  and  C6_7 
REMARK    4  A    between atoms: C6_7  and  N2_8 
REMARK    5  A    between atoms: C9_12  and  N3_13 
ROOT
HETATM    1  C5  UNL     1      18.159  63.617  33.875  1.00  0.00     0.040 C 
ENDROOT
BRANCH   1   2
HETATM    2  C4  UNL     1      18.224  64.863  33.041  1.00  0.00     0.130 C 
BRANCH   2   3
HETATM    3  N1  UNL     1      17.110  64.976  32.132  1.00  0.00    -0.359 N 
HETATM    4  C3  UNL     1      15.896  65.484  32.380  1.00  0.00     0.099 A 
HETATM    5  C2  UNL     1      15.099  65.419  31.259  1.00  0.00    -0.027 A 
HETATM    6  C1  UNL     1      13.692  65.859  31.070  1.00  0.00     0.051 C 
HETATM    7  C12 UNL     1      15.882  64.838  30.281  1.00  0.00     0.040 A 
HETATM    8  C10 UNL     1      17.113  64.580  30.859  1.00  0.00     0.025 A 
HETATM    9 BR1  UNL     1      15.327  64.481  28.493  1.00  0.00    -0.048 Br
HETATM   10  C11 UNL     1      18.232  63.944  30.089  1.00  0.00     0.070 C 
ENDBRANCH   2   3
ENDBRANCH   1   2
BRANCH   1  11
HETATM   11  C6  UNL     1      19.239  62.684  33.444  1.00  0.00     0.132 C 
BRANCH  11  12
HETATM   12  N2  UNL     1      20.377  62.682  34.405  1.00  0.00    -0.337 N 
HETATM   13  C7  UNL     1      20.222  63.028  35.654  1.00  0.00     0.100 A 
HETATM   14  C8  UNL     1      21.327  62.989  36.469  1.00  0.00     0.070 A 
HETATM   15  S1  UNL     1      22.544  62.457  35.403  1.00  0.00    -0.065 SA
HETATM   16  C9  UNL     1      21.593  62.314  33.995  1.00  0.00     0.144 A 
BRANCH  16  17
HETATM   17  N3  UNL     1      21.952  61.936  32.785  1.00  0.00    -0.379 N 
ATOM     18  H32 UNL     1      21.690  62.333  31.882  1.00  0.00     0.158 HD
ATOM     19  H31 UNL     1      22.566  61.163  32.531  1.00  0.00     0.158 HD
ENDBRANCH  16  17
ENDBRANCH  11  12
ENDBRANCH   1  11
TORSDOF 5
ENDMDL
MODEL 3
REMARK VINA RESULT: -6.558618365      0.641      2.044
REMARK  5 active torsions:
REMARK  status: ('A' for Active; 'I' for Inactive)
REMARK    1  A    between atoms: N1_4  and  C4_5 
REMARK    2  A    between atoms: C4_5  and  C5_6 
REMARK    3  A    between atoms: C5_6  and  C6_7 
REMARK    4  A    between atoms: C6_7  and  N2_8 
REMARK    5  A    between atoms: C9_12  and  N3_13 
ROOT
HETATM    1  C5  UNL     1      19.590  64.471  33.766  1.00  0.00     0.040 C 
ENDROOT
BRANCH   1   2
HETATM    2  C4  UNL     1      19.393  64.534  32.280  1.00  0.00     0.130 C 
BRANCH   2   3
HETATM    3  N1  UNL     1      18.013  64.742  31.915  1.00  0.00    -0.359 N 
HETATM    4  C3  UNL     1      17.019  65.201  32.687  1.00  0.00     0.099 A 
HETATM    5  C2  UNL     1      15.839  65.261  31.981  1.00  0.00    -0.027 A 
HETATM    6  C1  UNL     1      14.491  65.703  32.426  1.00  0.00     0.051 C 
HETATM    7  C12 UNL     1      16.143  64.811  30.712  1.00  0.00     0.040 A 
HETATM    8  C10 UNL     1      17.491  64.502  30.712  1.00  0.00     0.025 A 
HETATM    9 BR1  UNL     1      14.905  64.664  29.269  1.00  0.00    -0.048 Br
HETATM   10  C11 UNL     1      18.184  63.977  29.489  1.00  0.00     0.070 C 
ENDBRANCH   2   3
ENDBRANCH   1   2
BRANCH   1  11
HETATM   11  C6  UNL     1      19.753  63.047  34.177  1.00  0.00     0.132 C 
BRANCH  11  12
HETATM   12  N2  UNL     1      20.978  62.852  35.003  1.00  0.00    -0.337 N 
HETATM   13  C7  UNL     1      21.031  63.228  36.252  1.00  0.00     0.100 A 
HETATM   14  C8  UNL     1      22.199  63.001  36.937  1.00  0.00     0.070 A 
HETATM   15  S1  UNL     1      23.172  62.256  35.755  1.00  0.00    -0.065 SA
HETATM   16  C9  UNL     1      22.054  62.273  34.468  1.00  0.00     0.144 A 
BRANCH  16  17
HETATM   17  N3  UNL     1      22.200  61.830  33.235  1.00  0.00    -0.379 N 
ATOM     18  H32 UNL     1      21.701  61.079  32.759  1.00  0.00     0.158 HD
ATOM     19  H31 UNL     1      22.852  62.165  32.527  1.00  0.00     0.158 HD
ENDBRANCH  16  17
ENDBRANCH  11  12
ENDBRANCH   1  11
TORSDOF 5
ENDMDL
MODEL 4
REMARK VINA RESULT: -6.557003053      0.991      1.667
REMARK  5 active torsions:
REMARK  status: ('A' for Active; 'I' for Inactive)
REMARK    1  A    between atoms: N1_4  and  C4_5 
REMARK    2  A    between atoms: C4_5  and  C5_6 
REMARK    3  A    between atoms: C5_6  and  C6_7 
REMARK    4  A    between atoms: C6_7  and  N2_8 
REMARK    5  A    between atoms: C9_12  and  N3_13 
ROOT
HETATM    1  C5  UNL     1      19.615  64.791  33.527  1.00  0.00     0.040 C 
ENDROOT
BRANCH   1   2
HETATM    2  C4  UNL     1      18.176  65.137  33.281  1.00  0.00     0.130 C 
BRANCH   2   3
HETATM    3  N1  UNL     1      17.759  64.840  31.933  1.00  0.00    -0.359 N 
HETATM    4  C3  UNL     1      18.515  64.401  30.918  1.00  0.00     0.099 A 
HETATM    5  C2  UNL     1      17.757  64.231  29.781  1.00  0.00    -0.027 A 
HETATM    6  C1  UNL     1      18.168  63.767  28.430  1.00  0.00     0.051 C 
HETATM    7  C12 UNL     1      16.472  64.590  30.136  1.00  0.00     0.040 A 
HETATM    8  C10 UNL     1      16.515  64.958  31.469  1.00  0.00     0.025 A 
HETATM    9 BR1  UNL     1      14.961  64.564  28.974  1.00  0.00    -0.048 Br
HETATM   10  C11 UNL     1      15.290  65.412  32.206  1.00  0.00     0.070 C 
ENDBRANCH   2   3
ENDBRANCH   1   2
BRANCH   1  11
HETATM   11  C6  UNL     1      19.809  64.511  34.979  1.00  0.00     0.132 C 
BRANCH  11  12
HETATM   12  N2  UNL     1      20.723  63.356  35.197  1.00  0.00    -0.337 N 
HETATM   13  C7  UNL     1      21.414  62.833  34.220  1.00  0.00     0.100 A 
HETATM   14  C8  UNL     1      22.237  61.774  34.516  1.00  0.00     0.070 A 
HETATM   15  S1  UNL     1      21.982  61.574  36.188  1.00  0.00    -0.065 SA
HETATM   16  C9  UNL     1      20.855  62.834  36.418  1.00  0.00     0.144 A 
BRANCH  16  17
HETATM   17  N3  UNL     1      20.249  63.214  37.524  1.00  0.00    -0.379 N 
ATOM     18  H32 UNL     1      20.493  63.013  38.493  1.00  0.00     0.158 HD
ATOM     19  H31 UNL     1      19.409  63.786  37.607  1.00  0.00     0.158 HD
ENDBRANCH  16  17
ENDBRANCH  11  12
ENDBRANCH   1  11
TORSDOF 5
ENDMDL
MODEL 5
REMARK VINA RESULT: -6.547807148      1.527      2.337
REMARK  5 active torsions:
REMARK  status: ('A' for Active; 'I' for Inactive)
REMARK    1  A    between atoms: N1_4  and  C4_5 
REMARK    2  A    between atoms: C4_5  and  C5_6 
REMARK    3  A    between atoms: C5_6  and  C6_7 
REMARK    4  A    between atoms: C6_7  and  N2_8 
REMARK    5  A    between atoms: C9_12  and  N3_13 
ROOT
HETATM    1  C5  UNL     1      20.528  62.149  33.143  1.00  0.00     0.040 C 
ENDROOT
BRANCH   1   2
HETATM    2  C4  UNL     1      20.497  63.614  32.821  1.00  0.00     0.130 C 
BRANCH   2   3
HETATM    3  N1  UNL     1      19.246  64.023  32.232  1.00  0.00    -0.359 N 
HETATM    4  C3  UNL     1      18.885  63.961  30.944  1.00  0.00     0.099 A 
HETATM    5  C2  UNL     1      17.609  64.446  30.769  1.00  0.00    -0.027 A 
HETATM    6  C1  UNL     1      16.805  64.570  29.525  1.00  0.00     0.051 C 
HETATM    7  C12 UNL     1      17.179  64.821  32.026  1.00  0.00     0.040 A 
HETATM    8  C10 UNL     1      18.216  64.544  32.900  1.00  0.00     0.025 A 
HETATM    9 BR1  UNL     1      15.474  65.571  32.430  1.00  0.00    -0.048 Br
HETATM   10  C11 UNL     1      18.110  64.823  34.370  1.00  0.00     0.070 C 
ENDBRANCH   2   3
ENDBRANCH   1   2
BRANCH   1  11
HETATM   11  C6  UNL     1      20.365  61.969  34.614  1.00  0.00     0.132 C 
BRANCH  11  12
HETATM   12  N2  UNL     1      21.679  61.984  35.317  1.00  0.00    -0.337 N 
HETATM   13  C7  UNL     1      22.587  61.072  35.095  1.00  0.00     0.100 A 
HETATM   14  C8  UNL     1      23.771  61.171  35.784  1.00  0.00     0.070 A 
HETATM   15  S1  UNL     1      23.529  62.571  36.722  1.00  0.00    -0.065 SA
HETATM   16  C9  UNL     1      21.952  62.952  36.194  1.00  0.00     0.144 A 
BRANCH  16  17
HETATM   17  N3  UNL     1      21.175  63.953  36.555  1.00  0.00    -0.379 N 
ATOM     18  H32 UNL     1      20.176  63.950  36.760  1.00  0.00     0.158 HD
ATOM     19  H31 UNL     1      21.440  64.928  36.693  1.00  0.00     0.158 HD
ENDBRANCH  16  17
ENDBRANCH  11  12
ENDBRANCH   1  11
TORSDOF 5
ENDMDL
