MODEL 1
REMARK VINA RESULT: -5.207395930      0.000      0.000
REMARK  4 active torsions:
REMARK  status: ('A' for Active; 'I' for Inactive)
REMARK       I    between atoms: N1_2  and  C2_4 
REMARK       I    between atoms: C2_4  and  N2_6 
REMARK    1  A    between atoms: N2_6  and  N3_8 
REMARK    2  A    between atoms: C3_10  and  C5_12 
REMARK    3  A    between atoms: N4_14  and  C7_15 
REMARK    4  A    between atoms: C7_15  and  C8_16 
ROOT
HETATM    1  C5  UNL     1     -25.286 -14.422  23.527  1.00  0.00     0.090 A 
HETATM    2  C6  UNL     1     -25.278 -14.036  24.853  1.00  0.00     0.145 A 
HETATM    3  N4  UNL     1     -25.843 -14.997  25.593  1.00  0.00    -0.278 N 
HETATM    4  N6  UNL     1     -26.198 -15.959  24.765  1.00  0.00    -0.240 N 
ATOM      5  H6  UNL     1     -26.656 -16.827  25.042  1.00  0.00     0.208 HD
HETATM    6  N7  UNL     1     -25.874 -15.638  23.526  1.00  0.00    -0.283 N 
ATOM      7  H7  UNL     1     -26.042 -16.214  22.702  1.00  0.00     0.188 HD
ENDROOT
BRANCH   1   8
HETATM    8  C3  UNL     1     -24.768 -13.666  22.406  1.00  0.00     0.051 C 
HETATM    9  N3  UNL     1     -24.261 -14.253  21.377  1.00  0.00    -0.299 N 
ATOM     10  H3  UNL     1     -24.229 -15.273  21.361  1.00  0.00     0.186 HD
HETATM   11  C4  UNL     1     -24.810 -12.201  22.420  1.00  0.00     0.072 C 
BRANCH   9  12
HETATM   12  N2  UNL     1     -23.759 -13.556  20.290  1.00  0.00    -0.252 N 
HETATM   13  C2  UNL     1     -23.242 -14.257  19.180  1.00  0.00     0.334 C 
HETATM   14  N1  UNL     1     -22.723 -13.563  18.060  1.00  0.00    -0.346 N 
HETATM   15  O1  UNL     1     -23.223 -15.532  19.147  1.00  0.00    -0.246 OA
HETATM   16  C1  UNL     1     -22.184 -14.281  16.902  1.00  0.00     0.151 C 
ATOM     17  H1  UNL     1     -22.725 -12.542  18.059  1.00  0.00     0.163 HD
ATOM     18  H2  UNL     1     -23.762 -12.536  20.292  1.00  0.00     0.191 HD
ENDBRANCH   9  12
ENDBRANCH   1   8
BRANCH   3  19
HETATM   19  C7  UNL     1     -26.041 -15.006  27.022  1.00  0.00     0.249 C 
BRANCH  19  20
HETATM   20  C8  UNL     1     -27.202 -15.830  27.413  1.00  0.00     0.251 C 
HETATM   21  N5  UNL     1     -27.203 -17.247  27.436  1.00  0.00    -0.061 NA
HETATM   22  O2  UNL     1     -28.259 -15.236  27.749  1.00  0.00    -0.275 OA
ENDBRANCH  19  20
ENDBRANCH   3  19
TORSDOF 4
ENDMDL
MODEL 2
REMARK VINA RESULT: -5.142729196      3.206      3.398
REMARK  4 active torsions:
REMARK  status: ('A' for Active; 'I' for Inactive)
REMARK       I    between atoms: N1_2  and  C2_4 
REMARK       I    between atoms: C2_4  and  N2_6 
REMARK    1  A    between atoms: N2_6  and  N3_8 
REMARK    2  A    between atoms: C3_10  and  C5_12 
REMARK    3  A    between atoms: N4_14  and  C7_15 
REMARK    4  A    between atoms: C7_15  and  C8_16 
ROOT
HETATM    1  C5  UNL     1     -25.788 -14.101  25.100  1.00  0.00     0.090 A 
HETATM    2  C6  UNL     1     -27.080 -14.473  25.414  1.00  0.00     0.145 A 
HETATM    3  N4  UNL     1     -27.122 -14.879  26.689  1.00  0.00    -0.278 N 
HETATM    4  N6  UNL     1     -25.899 -14.767  27.167  1.00  0.00    -0.240 N 
ATOM      5  H6  UNL     1     -25.620 -15.005  28.118  1.00  0.00     0.208 HD
HETATM    6  N7  UNL     1     -25.086 -14.305  26.235  1.00  0.00    -0.283 N 
ATOM      7  H7  UNL     1     -24.088 -14.129  26.353  1.00  0.00     0.188 HD
ENDROOT
BRANCH   1   8
HETATM    8  C3  UNL     1     -25.321 -13.604  23.823  1.00  0.00     0.051 C 
HETATM    9  N3  UNL     1     -25.557 -12.394  23.445  1.00  0.00    -0.299 N 
ATOM     10  H3  UNL     1     -26.085 -11.782  24.067  1.00  0.00     0.186 HD
HETATM   11  C4  UNL     1     -24.562 -14.477  22.923  1.00  0.00     0.072 C 
BRANCH   9  12
HETATM   12  N2  UNL     1     -25.122 -11.892  22.229  1.00  0.00    -0.252 N 
HETATM   13  C2  UNL     1     -26.038 -11.267  21.357  1.00  0.00     0.334 C 
HETATM   14  N1  UNL     1     -25.614 -10.748  20.109  1.00  0.00    -0.346 N 
HETATM   15  O1  UNL     1     -27.272 -11.148  21.659  1.00  0.00    -0.246 OA
HETATM   16  C1  UNL     1     -26.557 -10.097  19.196  1.00  0.00     0.151 C 
ATOM     17  H1  UNL     1     -24.633 -10.829  19.841  1.00  0.00     0.163 HD
ATOM     18  H2  UNL     1     -24.141 -11.975  21.964  1.00  0.00     0.191 HD
ENDBRANCH   9  12
ENDBRANCH   1   8
BRANCH   3  19
HETATM   19  C7  UNL     1     -28.269 -15.352  27.425  1.00  0.00     0.249 C 
BRANCH  19  20
HETATM   20  C8  UNL     1     -28.009 -16.653  28.074  1.00  0.00     0.251 C 
HETATM   21  N5  UNL     1     -28.577 -17.057  29.307  1.00  0.00    -0.061 NA
HETATM   22  O2  UNL     1     -27.235 -17.457  27.492  1.00  0.00    -0.275 OA
ENDBRANCH  19  20
ENDBRANCH   3  19
TORSDOF 4
ENDMDL
MODEL 3
REMARK VINA RESULT: -5.142229879      2.132      2.384
REMARK  4 active torsions:
REMARK  status: ('A' for Active; 'I' for Inactive)
REMARK       I    between atoms: N1_2  and  C2_4 
REMARK       I    between atoms: C2_4  and  N2_6 
REMARK    1  A    between atoms: N2_6  and  N3_8 
REMARK    2  A    between atoms: C3_10  and  C5_12 
REMARK    3  A    between atoms: N4_14  and  C7_15 
REMARK    4  A    between atoms: C7_15  and  C8_16 
ROOT
HETATM    1  C5  UNL     1     -25.530 -14.507  24.898  1.00  0.00     0.090 A 
HETATM    2  C6  UNL     1     -26.811 -14.962  25.138  1.00  0.00     0.145 A 
HETATM    3  N4  UNL     1     -27.018 -15.016  26.459  1.00  0.00    -0.278 N 
HETATM    4  N6  UNL     1     -25.906 -14.608  27.038  1.00  0.00    -0.240 N 
ATOM      5  H6  UNL     1     -25.764 -14.541  28.045  1.00  0.00     0.208 HD
HETATM    6  N7  UNL     1     -25.004 -14.299  26.125  1.00  0.00    -0.283 N 
ATOM      7  H7  UNL     1     -24.062 -13.958  26.315  1.00  0.00     0.188 HD
ENDROOT
BRANCH   1   8
HETATM    8  C3  UNL     1     -24.915 -14.306  23.604  1.00  0.00     0.051 C 
HETATM    9  N3  UNL     1     -24.366 -15.281  22.963  1.00  0.00    -0.299 N 
ATOM     10  H3  UNL     1     -24.372 -16.209  23.385  1.00  0.00     0.186 HD
HETATM   11  C4  UNL     1     -24.902 -12.975  22.989  1.00  0.00     0.072 C 
BRANCH   9  12
HETATM   12  N2  UNL     1     -23.770 -15.118  21.722  1.00  0.00    -0.252 N 
HETATM   13  C2  UNL     1     -22.670 -15.922  21.358  1.00  0.00     0.334 C 
HETATM   14  N1  UNL     1     -22.045 -15.771  20.096  1.00  0.00    -0.346 N 
HETATM   15  O1  UNL     1     -22.200 -16.807  22.148  1.00  0.00    -0.246 OA
HETATM   16  C1  UNL     1     -20.902 -16.602  19.708  1.00  0.00     0.151 C 
ATOM     17  H1  UNL     1     -22.399 -15.071  19.444  1.00  0.00     0.163 HD
ATOM     18  H2  UNL     1     -24.126 -14.417  21.073  1.00  0.00     0.191 HD
ENDBRANCH   9  12
ENDBRANCH   1   8
BRANCH   3  19
HETATM   19  C7  UNL     1     -28.215 -15.435  27.147  1.00  0.00     0.249 C 
BRANCH  19  20
HETATM   20  C8  UNL     1     -28.003 -16.676  27.918  1.00  0.00     0.251 C 
HETATM   21  N5  UNL     1     -28.664 -16.984  29.133  1.00  0.00    -0.061 NA
HETATM   22  O2  UNL     1     -27.181 -17.516  27.467  1.00  0.00    -0.275 OA
ENDBRANCH  19  20
ENDBRANCH   3  19
TORSDOF 4
ENDMDL
MODEL 4
REMARK VINA RESULT: -5.076284304      1.751      1.946
REMARK  4 active torsions:
REMARK  status: ('A' for Active; 'I' for Inactive)
REMARK       I    between atoms: N1_2  and  C2_4 
REMARK       I    between atoms: C2_4  and  N2_6 
REMARK    1  A    between atoms: N2_6  and  N3_8 
REMARK    2  A    between atoms: C3_10  and  C5_12 
REMARK    3  A    between atoms: N4_14  and  C7_15 
REMARK    4  A    between atoms: C7_15  and  C8_16 
ROOT
HETATM    1  C5  UNL     1     -25.825 -13.911  24.897  1.00  0.00     0.090 A 
HETATM    2  C6  UNL     1     -27.115 -14.233  25.269  1.00  0.00     0.145 A 
HETATM    3  N4  UNL     1     -27.095 -14.785  26.488  1.00  0.00    -0.278 N 
HETATM    4  N6  UNL     1     -25.837 -14.812  26.877  1.00  0.00    -0.240 N 
ATOM      5  H6  UNL     1     -25.509 -15.179  27.770  1.00  0.00     0.208 HD
HETATM    6  N7  UNL     1     -25.060 -14.295  25.942  1.00  0.00    -0.283 N 
ATOM      7  H7  UNL     1     -24.046 -14.202  26.000  1.00  0.00     0.188 HD
ENDROOT
BRANCH   1   8
HETATM    8  C3  UNL     1     -25.414 -13.298  23.653  1.00  0.00     0.051 C 
HETATM    9  N3  UNL     1     -24.604 -13.893  22.845  1.00  0.00    -0.299 N 
ATOM     10  H3  UNL     1     -24.251 -14.815  23.098  1.00  0.00     0.186 HD
HETATM   11  C4  UNL     1     -25.917 -11.972  23.281  1.00  0.00     0.072 C 
BRANCH   9  12
HETATM   12  N2  UNL     1     -24.194 -13.329  21.647  1.00  0.00    -0.252 N 
HETATM   13  C2  UNL     1     -24.435 -14.004  20.432  1.00  0.00     0.334 C 
HETATM   14  N1  UNL     1     -24.023 -13.445  19.197  1.00  0.00    -0.346 N 
HETATM   15  O1  UNL     1     -25.027 -15.133  20.402  1.00  0.00    -0.246 OA
HETATM   16  C1  UNL     1     -24.269 -14.138  17.929  1.00  0.00     0.151 C 
ATOM     17  H1  UNL     1     -23.547 -12.543  19.190  1.00  0.00     0.163 HD
ATOM     18  H2  UNL     1     -23.718 -12.427  21.644  1.00  0.00     0.191 HD
ENDBRANCH   9  12
ENDBRANCH   1   8
BRANCH   3  19
HETATM   19  C7  UNL     1     -28.219 -15.266  27.255  1.00  0.00     0.249 C 
BRANCH  19  20
HETATM   20  C8  UNL     1     -27.936 -16.570  27.888  1.00  0.00     0.251 C 
HETATM   21  N5  UNL     1     -28.509 -17.005  29.109  1.00  0.00    -0.061 NA
HETATM   22  O2  UNL     1     -27.136 -17.346  27.305  1.00  0.00    -0.275 OA
ENDBRANCH  19  20
ENDBRANCH   3  19
TORSDOF 4
ENDMDL
MODEL 5
REMARK VINA RESULT: -5.044183430      2.939      4.676
REMARK  4 active torsions:
REMARK  status: ('A' for Active; 'I' for Inactive)
REMARK       I    between atoms: N1_2  and  C2_4 
REMARK       I    between atoms: C2_4  and  N2_6 
REMARK    1  A    between atoms: N2_6  and  N3_8 
REMARK    2  A    between atoms: C3_10  and  C5_12 
REMARK    3  A    between atoms: N4_14  and  C7_15 
REMARK    4  A    between atoms: C7_15  and  C8_16 
ROOT
HETATM    1  C5  UNL     1     -27.198 -16.158  26.917  1.00  0.00     0.090 A 
HETATM    2  C6  UNL     1     -28.078 -15.896  27.948  1.00  0.00     0.145 A 
HETATM    3  N4  UNL     1     -28.823 -16.984  28.177  1.00  0.00    -0.278 N 
HETATM    4  N6  UNL     1     -28.428 -17.904  27.321  1.00  0.00    -0.240 N 
ATOM      5  H6  UNL     1     -28.816 -18.845  27.256  1.00  0.00     0.208 HD
HETATM    6  N7  UNL     1     -27.459 -17.434  26.558  1.00  0.00    -0.283 N 
ATOM      7  H7  UNL     1     -26.984 -17.949  25.818  1.00  0.00     0.188 HD
ENDROOT
BRANCH   1   8
HETATM    8  C3  UNL     1     -26.221 -15.244  26.364  1.00  0.00     0.051 C 
HETATM    9  N3  UNL     1     -26.037 -15.146  25.092  1.00  0.00    -0.299 N 
ATOM     10  H3  UNL     1     -26.597 -15.730  24.470  1.00  0.00     0.186 HD
HETATM   11  C4  UNL     1     -25.412 -14.401  27.250  1.00  0.00     0.072 C 
BRANCH   9  12
HETATM   12  N2  UNL     1     -25.109 -14.281  24.534  1.00  0.00    -0.252 N 
HETATM   13  C2  UNL     1     -25.427 -13.568  23.360  1.00  0.00     0.334 C 
HETATM   14  N1  UNL     1     -24.493 -12.679  22.774  1.00  0.00    -0.346 N 
HETATM   15  O1  UNL     1     -26.560 -13.698  22.787  1.00  0.00    -0.246 OA
HETATM   16  C1  UNL     1     -24.814 -11.933  21.554  1.00  0.00     0.151 C 
ATOM     17  H1  UNL     1     -23.579 -12.555  23.210  1.00  0.00     0.163 HD
ATOM     18  H2  UNL     1     -24.197 -14.159  24.973  1.00  0.00     0.191 HD
ENDBRANCH   9  12
ENDBRANCH   1   8
BRANCH   3  19
HETATM   19  C7  UNL     1     -29.862 -17.147  29.163  1.00  0.00     0.249 C 
BRANCH  19  20
HETATM   20  C8  UNL     1     -29.427 -18.001  30.287  1.00  0.00     0.251 C 
HETATM   21  N5  UNL     1     -29.147 -17.523  31.591  1.00  0.00    -0.061 NA
HETATM   22  O2  UNL     1     -29.296 -19.234  30.073  1.00  0.00    -0.275 OA
ENDBRANCH  19  20
ENDBRANCH   3  19
TORSDOF 4
ENDMDL
