MODEL 1
REMARK VINA RESULT: -8.404978825      0.000      0.000
REMARK  10 active torsions:
REMARK  status: ('A' for Active; 'I' for Inactive)
REMARK    1  A    between atoms: N1_2  and  C3_5 
REMARK    2  A    between atoms: C4_8  and  N4_9 
REMARK    3  A    between atoms: N4_9  and  C5_11 
REMARK    4  A    between atoms: C8_18  and  N7_19 
REMARK    5  A    between atoms: N12_32  and  O1_34 
REMARK    6  A    between atoms: O1_34  and  C11_35 
REMARK    7  A    between atoms: C11_35  and  C12_36 
REMARK    8  A    between atoms: C12_36  and  O2_37 
REMARK    9  A    between atoms: C12_36  and  C13_39 
REMARK   10  A    between atoms: C13_39  and  O3_40 
ROOT
HETATM    1  C1  UNL     1      58.995   3.619  80.528  1.00  0.00     0.188 C 
HETATM    2  N1  UNL     1      59.537   4.850  80.047  1.00  0.00    -0.122 N 
HETATM    3  C2  UNL     1      58.681   5.748  79.394  1.00  0.00     0.198 C 
HETATM    4  N2  UNL     1      57.973   6.483  78.837  1.00  0.00    -0.171 NA
ENDROOT
BRANCH   2   5
HETATM    5  C3  UNL     1      60.925   5.219  80.199  1.00  0.00     0.689 C 
HETATM    6  N3  UNL     1      61.396   5.418  81.381  1.00  0.00    -0.198 N 
HETATM    7  C4  UNL     1      62.790   5.787  81.505  1.00  0.00     0.266 C 
ATOM      8  H3  UNL     1      60.803   5.319  82.205  1.00  0.00     0.180 HD
HETATM    9  C10 UNL     1      63.129   6.724  80.420  1.00  0.00     0.071 C 
HETATM   10  N12 UNL     1      63.673   7.879  80.581  1.00  0.00    -0.269 N 
HETATM   11  C14 UNL     1      62.824   6.298  79.032  1.00  0.00     0.199 C 
ATOM     12  H12 UNL     1      63.890   8.176  81.532  1.00  0.00     0.194 HD
HETATM   13  N13 UNL     1      61.707   5.344  79.019  1.00  0.00    -0.216 N 
HETATM   14  C15 UNL     1      61.430   4.571  77.840  1.00  0.00     0.169 C 
BRANCH   7  15
HETATM   15  N4  UNL     1      63.122   6.261  82.821  1.00  0.00    -0.199 N 
ATOM     16  H4  UNL     1      62.787   7.182  83.106  1.00  0.00     0.180 HD
BRANCH  15  17
HETATM   17  C5  UNL     1      63.900   5.500  83.747  1.00  0.00     0.682 A 
HETATM   18  N5  UNL     1      64.284   4.221  83.640  1.00  0.00    -0.174 N 
HETATM   19  C6  UNL     1      64.999   3.820  84.691  1.00  0.00     0.149 A 
ATOM     20  H5  UNL     1      64.056   3.623  82.845  1.00  0.00     0.186 HD
HETATM   21  C7  UNL     1      65.075   4.915  85.523  1.00  0.00     0.140 A 
HETATM   22  N11 UNL     1      65.568   2.514  84.904  1.00  0.00    -0.357 N 
HETATM   23  N6  UNL     1      64.405   5.922  84.938  1.00  0.00    -0.184 N 
HETATM   24  C8  UNL     1      65.757   4.984  86.809  1.00  0.00     0.165 C 
ATOM     25  H6  UNL     1      64.294   6.859  85.326  1.00  0.00     0.184 HD
HETATM   26  N9  UNL     1      66.519   4.097  87.378  1.00  0.00    -0.285 N 
HETATM   27  N10 UNL     1      66.884   2.837  86.894  1.00  0.00    -0.317 N 
ATOM     28  H9  UNL     1      66.898   4.353  88.290  1.00  0.00     0.188 HD
HETATM   29  C9  UNL     1      66.080   1.931  86.131  1.00  0.00     0.262 C 
ATOM     30  H10 UNL     1      67.832   2.528  87.111  1.00  0.00     0.182 HD
ATOM     31  H11 UNL     1      65.618   1.916  84.079  1.00  0.00     0.162 HD
BRANCH  24  32
HETATM   32  N7  UNL     1      65.585   6.163  87.566  1.00  0.00    -0.289 N 
HETATM   33  N8  UNL     1      66.553   6.538  88.302  1.00  0.00    -0.344 N 
ATOM     34  H82 UNL     1      67.415   5.995  88.333  1.00  0.00     0.176 HD
ATOM     35  H81 UNL     1      66.429   7.390  88.849  1.00  0.00     0.176 HD
ATOM     36  H7  UNL     1      64.716   6.696  87.524  1.00  0.00     0.188 HD
ENDBRANCH  24  32
ENDBRANCH  15  17
ENDBRANCH   7  15
BRANCH  10  37
HETATM   37  O1  UNL     1      63.975   8.724  79.572  1.00  0.00    -0.278 OA
BRANCH  37  38
HETATM   38  C11 UNL     1      64.729   9.896  79.641  1.00  0.00     0.235 C 
BRANCH  38  39
HETATM   39  C12 UNL     1      63.920  11.062  80.144  1.00  0.00     0.167 C 
BRANCH  39  40
HETATM   40  O2  UNL     1      64.707  12.219  80.064  1.00  0.00    -0.391 OA
ATOM     41  H2  UNL     1      65.602  11.991  80.288  1.00  0.00     0.210 HD
ENDBRANCH  39  40
BRANCH  39  42
HETATM   42  C13 UNL     1      63.580  10.896  81.619  1.00  0.00     0.198 C 
BRANCH  42  43
HETATM   43  O3  UNL     1      64.580  10.188  82.285  1.00  0.00    -0.398 OA
ATOM     44  H3  UNL     1      64.244   9.369  82.630  1.00  0.00     0.209 HD
ENDBRANCH  42  43
ENDBRANCH  39  42
ENDBRANCH  38  39
ENDBRANCH  37  38
ENDBRANCH  10  37
ENDBRANCH   2   5
TORSDOF 10
ENDMDL
MODEL 2
REMARK VINA RESULT: -8.314598911      0.863      2.049
REMARK  10 active torsions:
REMARK  status: ('A' for Active; 'I' for Inactive)
REMARK    1  A    between atoms: N1_2  and  C3_5 
REMARK    2  A    between atoms: C4_8  and  N4_9 
REMARK    3  A    between atoms: N4_9  and  C5_11 
REMARK    4  A    between atoms: C8_18  and  N7_19 
REMARK    5  A    between atoms: N12_32  and  O1_34 
REMARK    6  A    between atoms: O1_34  and  C11_35 
REMARK    7  A    between atoms: C11_35  and  C12_36 
REMARK    8  A    between atoms: C12_36  and  O2_37 
REMARK    9  A    between atoms: C12_36  and  C13_39 
REMARK   10  A    between atoms: C13_39  and  O3_40 
ROOT
HETATM    1  C1  UNL     1      59.112   3.850  79.468  1.00  0.00     0.188 C 
HETATM    2  N1  UNL     1      59.739   5.101  79.183  1.00  0.00    -0.122 N 
HETATM    3  C2  UNL     1      59.022   6.056  78.449  1.00  0.00     0.198 C 
HETATM    4  N2  UNL     1      58.432   6.840  77.825  1.00  0.00    -0.171 NA
ENDROOT
BRANCH   2   5
HETATM    5  C3  UNL     1      61.077   5.435  79.613  1.00  0.00     0.689 C 
HETATM    6  N3  UNL     1      61.290   5.696  80.857  1.00  0.00    -0.198 N 
HETATM    7  C4  UNL     1      62.640   6.027  81.261  1.00  0.00     0.266 C 
ATOM      8  H3  UNL     1      60.530   5.669  81.536  1.00  0.00     0.180 HD
HETATM    9  C10 UNL     1      63.247   6.880  80.225  1.00  0.00     0.071 C 
HETATM   10  N12 UNL     1      63.795   8.025  80.435  1.00  0.00    -0.269 N 
HETATM   11  C14 UNL     1      63.230   6.374  78.830  1.00  0.00     0.199 C 
ATOM     12  H12 UNL     1      63.815   8.376  81.393  1.00  0.00     0.194 HD
HETATM   13  N13 UNL     1      62.100   5.458  78.628  1.00  0.00    -0.216 N 
HETATM   14  C15 UNL     1      62.049   4.619  77.462  1.00  0.00     0.169 C 
BRANCH   7  15
HETATM   15  N4  UNL     1      62.701   6.575  82.588  1.00  0.00    -0.199 N 
ATOM     16  H4  UNL     1      62.118   7.382  82.810  1.00  0.00     0.180 HD
BRANCH  15  17
HETATM   17  C5  UNL     1      63.542   6.039  83.612  1.00  0.00     0.682 A 
HETATM   18  N5  UNL     1      63.778   6.545  84.830  1.00  0.00    -0.174 N 
HETATM   19  C6  UNL     1      64.622   5.791  85.533  1.00  0.00     0.149 A 
ATOM     20  H5  UNL     1      63.358   7.407  85.178  1.00  0.00     0.186 HD
HETATM   21  C7  UNL     1      64.947   4.736  84.710  1.00  0.00     0.140 A 
HETATM   22  N11 UNL     1      65.092   6.037  86.873  1.00  0.00    -0.357 N 
HETATM   23  N6  UNL     1      64.285   4.900  83.552  1.00  0.00    -0.184 N 
HETATM   24  C8  UNL     1      65.844   3.631  85.025  1.00  0.00     0.165 C 
ATOM     25  H6  UNL     1      64.333   4.269  82.752  1.00  0.00     0.184 HD
HETATM   26  N9  UNL     1      66.419   3.343  86.155  1.00  0.00    -0.285 N 
HETATM   27  N10 UNL     1      66.322   4.027  87.370  1.00  0.00    -0.317 N 
ATOM     28  H9  UNL     1      67.015   2.515  86.155  1.00  0.00     0.188 HD
HETATM   29  C9  UNL     1      66.219   5.442  87.567  1.00  0.00     0.262 C 
ATOM     30  H10 UNL     1      66.325   3.453  88.214  1.00  0.00     0.182 HD
ATOM     31  H11 UNL     1      64.559   6.724  87.407  1.00  0.00     0.162 HD
BRANCH  24  32
HETATM   32  N7  UNL     1      66.150   2.733  83.980  1.00  0.00    -0.289 N 
HETATM   33  N8  UNL     1      66.154   1.490  84.252  1.00  0.00    -0.344 N 
ATOM     34  H82 UNL     1      65.941   1.170  85.197  1.00  0.00     0.176 HD
ATOM     35  H81 UNL     1      66.375   0.840  83.498  1.00  0.00     0.176 HD
ATOM     36  H7  UNL     1      66.360   3.068  83.040  1.00  0.00     0.188 HD
ENDBRANCH  24  32
ENDBRANCH  15  17
ENDBRANCH   7  15
BRANCH  10  37
HETATM   37  O1  UNL     1      64.346   8.793  79.470  1.00  0.00    -0.278 OA
BRANCH  37  38
HETATM   38  C11 UNL     1      64.959  10.037  79.619  1.00  0.00     0.235 C 
BRANCH  38  39
HETATM   39  C12 UNL     1      63.994  11.091  80.095  1.00  0.00     0.167 C 
BRANCH  39  40
HETATM   40  O2  UNL     1      64.634  12.337  80.044  1.00  0.00    -0.391 OA
ATOM     41  H2  UNL     1      64.074  12.981  80.460  1.00  0.00     0.210 HD
ENDBRANCH  39  40
BRANCH  39  42
HETATM   42  C13 UNL     1      63.626  10.876  81.557  1.00  0.00     0.198 C 
BRANCH  42  43
HETATM   43  O3  UNL     1      64.651  10.221  82.239  1.00  0.00    -0.398 OA
ATOM     44  H3  UNL     1      64.445   9.302  82.361  1.00  0.00     0.209 HD
ENDBRANCH  42  43
ENDBRANCH  39  42
ENDBRANCH  38  39
ENDBRANCH  37  38
ENDBRANCH  10  37
ENDBRANCH   2   5
TORSDOF 10
ENDMDL
MODEL 3
REMARK VINA RESULT: -8.092710187      0.971      2.229
REMARK  10 active torsions:
REMARK  status: ('A' for Active; 'I' for Inactive)
REMARK    1  A    between atoms: N1_2  and  C3_5 
REMARK    2  A    between atoms: C4_8  and  N4_9 
REMARK    3  A    between atoms: N4_9  and  C5_11 
REMARK    4  A    between atoms: C8_18  and  N7_19 
REMARK    5  A    between atoms: N12_32  and  O1_34 
REMARK    6  A    between atoms: O1_34  and  C11_35 
REMARK    7  A    between atoms: C11_35  and  C12_36 
REMARK    8  A    between atoms: C12_36  and  O2_37 
REMARK    9  A    between atoms: C12_36  and  C13_39 
REMARK   10  A    between atoms: C13_39  and  O3_40 
ROOT
HETATM    1  C1  UNL     1      58.535   3.511  80.229  1.00  0.00     0.188 C 
HETATM    2  N1  UNL     1      59.113   4.758  79.840  1.00  0.00    -0.122 N 
HETATM    3  C2  UNL     1      58.305   5.691  79.175  1.00  0.00     0.198 C 
HETATM    4  N2  UNL     1      57.637   6.455  78.608  1.00  0.00    -0.171 NA
ENDROOT
BRANCH   2   5
HETATM    5  C3  UNL     1      60.490   5.109  80.096  1.00  0.00     0.689 C 
HETATM    6  N3  UNL     1      60.844   5.427  81.293  1.00  0.00    -0.198 N 
HETATM    7  C4  UNL     1      62.231   5.774  81.522  1.00  0.00     0.266 C 
ATOM      8  H3  UNL     1      60.168   5.434  82.056  1.00  0.00     0.180 HD
HETATM    9  C10 UNL     1      62.711   6.577  80.385  1.00  0.00     0.071 C 
HETATM   10  N12 UNL     1      63.276   7.730  80.476  1.00  0.00    -0.269 N 
HETATM   11  C14 UNL     1      62.535   6.006  79.027  1.00  0.00     0.199 C 
ATOM     12  H12 UNL     1      63.405   8.126  81.407  1.00  0.00     0.194 HD
HETATM   13  N13 UNL     1      61.393   5.084  78.999  1.00  0.00    -0.216 N 
HETATM   14  C15 UNL     1      61.210   4.191  77.888  1.00  0.00     0.169 C 
BRANCH   7  15
HETATM   15  N4  UNL     1      62.443   6.385  82.807  1.00  0.00    -0.199 N 
ATOM     16  H4  UNL     1      61.915   7.226  83.040  1.00  0.00     0.180 HD
BRANCH  15  17
HETATM   17  C5  UNL     1      63.360   5.865  83.771  1.00  0.00     0.682 A 
HETATM   18  N5  UNL     1      63.651   6.363  84.980  1.00  0.00    -0.174 N 
HETATM   19  C6  UNL     1      64.560   5.630  85.622  1.00  0.00     0.149 A 
ATOM     20  H5  UNL     1      63.225   7.207  85.365  1.00  0.00     0.186 HD
HETATM   21  C7  UNL     1      64.869   4.596  84.766  1.00  0.00     0.140 A 
HETATM   22  N11 UNL     1      65.100   5.875  86.935  1.00  0.00    -0.357 N 
HETATM   23  N6  UNL     1      64.135   4.753  83.652  1.00  0.00    -0.184 N 
HETATM   24  C8  UNL     1      65.819   3.518  85.013  1.00  0.00     0.165 C 
ATOM     25  H6  UNL     1      64.156   4.133  82.842  1.00  0.00     0.184 HD
HETATM   26  N9  UNL     1      66.469   3.236  86.103  1.00  0.00    -0.285 N 
HETATM   27  N10 UNL     1      66.422   3.902  87.331  1.00  0.00    -0.317 N 
ATOM     28  H9  UNL     1      67.091   2.429  86.056  1.00  0.00     0.188 HD
HETATM   29  C9  UNL     1      66.285   5.310  87.554  1.00  0.00     0.262 C 
ATOM     30  H10 UNL     1      66.494   3.318  88.165  1.00  0.00     0.182 HD
ATOM     31  H11 UNL     1      64.578   6.537  87.510  1.00  0.00     0.162 HD
BRANCH  24  32
HETATM   32  N7  UNL     1      66.092   2.643  83.939  1.00  0.00    -0.289 N 
HETATM   33  N8  UNL     1      66.324   1.423  84.216  1.00  0.00    -0.344 N 
ATOM     34  H82 UNL     1      66.309   1.105  85.185  1.00  0.00     0.176 HD
ATOM     35  H81 UNL     1      66.521   0.791  83.440  1.00  0.00     0.176 HD
ATOM     36  H7  UNL     1      66.103   2.977  82.975  1.00  0.00     0.188 HD
ENDBRANCH  24  32
ENDBRANCH  15  17
ENDBRANCH   7  15
BRANCH  10  37
HETATM   37  O1  UNL     1      63.709   8.450  79.418  1.00  0.00    -0.278 OA
BRANCH  37  38
HETATM   38  C11 UNL     1      64.793   9.327  79.373  1.00  0.00     0.235 C 
BRANCH  38  39
HETATM   39  C12 UNL     1      64.563  10.557  80.210  1.00  0.00     0.167 C 
BRANCH  39  40
HETATM   40  O2  UNL     1      63.186  10.691  80.436  1.00  0.00    -0.391 OA
ATOM     41  H2  UNL     1      63.049  10.892  81.354  1.00  0.00     0.210 HD
ENDBRANCH  39  40
BRANCH  39  42
HETATM   42  C13 UNL     1      64.982  11.815  79.461  1.00  0.00     0.198 C 
BRANCH  42  43
HETATM   43  O3  UNL     1      63.965  12.768  79.477  1.00  0.00    -0.398 OA
ATOM     44  H3  UNL     1      63.646  12.910  80.360  1.00  0.00     0.209 HD
ENDBRANCH  42  43
ENDBRANCH  39  42
ENDBRANCH  38  39
ENDBRANCH  37  38
ENDBRANCH  10  37
ENDBRANCH   2   5
TORSDOF 10
ENDMDL
MODEL 4
REMARK VINA RESULT: -8.018726801      0.856      2.222
REMARK  10 active torsions:
REMARK  status: ('A' for Active; 'I' for Inactive)
REMARK    1  A    between atoms: N1_2  and  C3_5 
REMARK    2  A    between atoms: C4_8  and  N4_9 
REMARK    3  A    between atoms: N4_9  and  C5_11 
REMARK    4  A    between atoms: C8_18  and  N7_19 
REMARK    5  A    between atoms: N12_32  and  O1_34 
REMARK    6  A    between atoms: O1_34  and  C11_35 
REMARK    7  A    between atoms: C11_35  and  C12_36 
REMARK    8  A    between atoms: C12_36  and  O2_37 
REMARK    9  A    between atoms: C12_36  and  C13_39 
REMARK   10  A    between atoms: C13_39  and  O3_40 
ROOT
HETATM    1  C1  UNL     1      58.549   5.921  78.716  1.00  0.00     0.188 C 
HETATM    2  N1  UNL     1      59.380   5.044  79.478  1.00  0.00    -0.122 N 
HETATM    3  C2  UNL     1      58.850   3.816  79.896  1.00  0.00     0.198 C 
HETATM    4  N2  UNL     1      58.402   2.805  80.256  1.00  0.00    -0.171 NA
ENDROOT
BRANCH   2   5
HETATM    5  C3  UNL     1      60.742   5.359  79.841  1.00  0.00     0.689 C 
HETATM    6  N3  UNL     1      61.018   5.626  81.071  1.00  0.00    -0.198 N 
HETATM    7  C4  UNL     1      62.391   5.937  81.407  1.00  0.00     0.266 C 
ATOM      8  H3  UNL     1      60.290   5.618  81.785  1.00  0.00     0.180 HD
HETATM    9  C10 UNL     1      62.963   6.771  80.336  1.00  0.00     0.071 C 
HETATM   10  N12 UNL     1      63.539   7.909  80.509  1.00  0.00    -0.269 N 
HETATM   11  C14 UNL     1      62.871   6.254  78.949  1.00  0.00     0.199 C 
ATOM     12  H12 UNL     1      63.610   8.267  81.462  1.00  0.00     0.194 HD
HETATM   13  N13 UNL     1      61.718   5.355  78.808  1.00  0.00    -0.216 N 
HETATM   14  C15 UNL     1      61.597   4.508  77.654  1.00  0.00     0.169 C 
BRANCH   7  15
HETATM   15  N4  UNL     1      62.524   6.496  82.725  1.00  0.00    -0.199 N 
ATOM     16  H4  UNL     1      61.957   7.308  82.970  1.00  0.00     0.180 HD
BRANCH  15  17
HETATM   17  C5  UNL     1      63.414   5.963  83.708  1.00  0.00     0.682 A 
HETATM   18  N5  UNL     1      63.691   6.460  84.921  1.00  0.00    -0.174 N 
HETATM   19  C6  UNL     1      64.576   5.713  85.581  1.00  0.00     0.149 A 
ATOM     20  H5  UNL     1      63.273   7.312  85.295  1.00  0.00     0.186 HD
HETATM   21  C7  UNL     1      64.883   4.672  84.734  1.00  0.00     0.140 A 
HETATM   22  N11 UNL     1      65.095   5.953  86.903  1.00  0.00    -0.357 N 
HETATM   23  N6  UNL     1      64.173   4.838  83.606  1.00  0.00    -0.184 N 
HETATM   24  C8  UNL     1      65.810   3.579  85.001  1.00  0.00     0.165 C 
ATOM     25  H6  UNL     1      64.198   4.216  82.797  1.00  0.00     0.184 HD
HETATM   26  N9  UNL     1      66.435   3.288  86.103  1.00  0.00    -0.285 N 
HETATM   27  N10 UNL     1      66.376   3.959  87.329  1.00  0.00    -0.317 N 
ATOM     28  H9  UNL     1      67.044   2.471  86.070  1.00  0.00     0.188 HD
HETATM   29  C9  UNL     1      66.259   5.369  87.545  1.00  0.00     0.262 C 
ATOM     30  H10 UNL     1      66.423   3.376  88.165  1.00  0.00     0.182 HD
ATOM     31  H11 UNL     1      64.574   6.625  87.466  1.00  0.00     0.162 HD
BRANCH  24  32
HETATM   32  N7  UNL     1      66.088   2.697  83.934  1.00  0.00    -0.289 N 
HETATM   33  N8  UNL     1      66.266   1.468  84.215  1.00  0.00    -0.344 N 
ATOM     34  H82 UNL     1      66.206   1.149  85.182  1.00  0.00     0.176 HD
ATOM     35  H81 UNL     1      66.467   0.831  83.445  1.00  0.00     0.176 HD
ATOM     36  H7  UNL     1      66.144   3.032  82.972  1.00  0.00     0.188 HD
ENDBRANCH  24  32
ENDBRANCH  15  17
ENDBRANCH   7  15
BRANCH  10  37
HETATM   37  O1  UNL     1      64.057   8.658  79.512  1.00  0.00    -0.278 OA
BRANCH  37  38
HETATM   38  C11 UNL     1      64.805   9.830  79.629  1.00  0.00     0.235 C 
BRANCH  38  39
HETATM   39  C12 UNL     1      63.970  10.993  80.093  1.00  0.00     0.167 C 
BRANCH  39  40
HETATM   40  O2  UNL     1      64.753  12.154  80.038  1.00  0.00    -0.391 OA
ATOM     41  H2  UNL     1      65.229  12.237  80.856  1.00  0.00     0.210 HD
ENDBRANCH  39  40
BRANCH  39  42
HETATM   42  C13 UNL     1      63.572  10.833  81.554  1.00  0.00     0.198 C 
BRANCH  42  43
HETATM   43  O3  UNL     1      64.585  10.210  82.282  1.00  0.00    -0.398 OA
ATOM     44  H3  UNL     1      64.716  10.640  83.120  1.00  0.00     0.209 HD
ENDBRANCH  42  43
ENDBRANCH  39  42
ENDBRANCH  38  39
ENDBRANCH  37  38
ENDBRANCH  10  37
ENDBRANCH   2   5
TORSDOF 10
ENDMDL
MODEL 5
REMARK VINA RESULT: -7.712740954      1.616      2.834
REMARK  10 active torsions:
REMARK  status: ('A' for Active; 'I' for Inactive)
REMARK    1  A    between atoms: N1_2  and  C3_5 
REMARK    2  A    between atoms: C4_8  and  N4_9 
REMARK    3  A    between atoms: N4_9  and  C5_11 
REMARK    4  A    between atoms: C8_18  and  N7_19 
REMARK    5  A    between atoms: N12_32  and  O1_34 
REMARK    6  A    between atoms: O1_34  and  C11_35 
REMARK    7  A    between atoms: C11_35  and  C12_36 
REMARK    8  A    between atoms: C12_36  and  O2_37 
REMARK    9  A    between atoms: C12_36  and  C13_39 
REMARK   10  A    between atoms: C13_39  and  O3_40 
ROOT
HETATM    1  C1  UNL     1      59.009   4.264  81.567  1.00  0.00     0.188 C 
HETATM    2  N1  UNL     1      59.578   5.573  81.510  1.00  0.00    -0.122 N 
HETATM    3  C2  UNL     1      58.745   6.675  81.752  1.00  0.00     0.198 C 
HETATM    4  N2  UNL     1      58.049   7.587  81.935  1.00  0.00    -0.171 NA
ENDROOT
BRANCH   2   5
HETATM    5  C3  UNL     1      60.970   5.822  81.215  1.00  0.00     0.689 C 
HETATM    6  N3  UNL     1      61.839   5.723  82.161  1.00  0.00    -0.198 N 
HETATM    7  C4  UNL     1      63.227   5.977  81.838  1.00  0.00     0.266 C 
ATOM      8  H3  UNL     1      61.557   5.473  83.108  1.00  0.00     0.180 HD
HETATM    9  C10 UNL     1      63.294   7.115  80.905  1.00  0.00     0.071 C 
HETATM   10  N12 UNL     1      64.007   8.173  81.074  1.00  0.00    -0.269 N 
HETATM   11  C14 UNL     1      62.479   7.030  79.668  1.00  0.00     0.199 C 
ATOM     12  H12 UNL     1      64.574   8.235  81.920  1.00  0.00     0.194 HD
HETATM   13  N13 UNL     1      61.310   6.167  79.879  1.00  0.00    -0.216 N 
HETATM   14  C15 UNL     1      60.546   5.696  78.757  1.00  0.00     0.169 C 
BRANCH   7  15
HETATM   15  N4  UNL     1      64.049   6.124  83.008  1.00  0.00    -0.199 N 
ATOM     16  H4  UNL     1      64.336   7.062  83.288  1.00  0.00     0.180 HD
BRANCH  15  17
HETATM   17  C5  UNL     1      64.481   5.014  83.797  1.00  0.00     0.682 A 
HETATM   18  N5  UNL     1      65.355   5.019  84.812  1.00  0.00    -0.174 N 
HETATM   19  C6  UNL     1      65.537   3.803  85.326  1.00  0.00     0.149 A 
ATOM     20  H5  UNL     1      65.828   5.857  85.152  1.00  0.00     0.186 HD
HETATM   21  C7  UNL     1      64.725   2.967  84.591  1.00  0.00     0.140 A 
HETATM   22  N11 UNL     1      66.403   3.445  86.421  1.00  0.00    -0.357 N 
HETATM   23  N6  UNL     1      64.093   3.715  83.671  1.00  0.00    -0.184 N 
HETATM   24  C8  UNL     1      64.568   1.529  84.770  1.00  0.00     0.165 C 
ATOM     25  H6  UNL     1      63.426   3.364  82.984  1.00  0.00     0.184 HD
HETATM   26  N9  UNL     1      65.048   0.765  85.706  1.00  0.00    -0.285 N 
HETATM   27  N10 UNL     1      65.846   1.132  86.793  1.00  0.00    -0.317 N 
ATOM     28  H9  UNL     1      64.813  -0.225  85.638  1.00  0.00     0.188 HD
HETATM   29  C9  UNL     1      66.872   2.132  86.822  1.00  0.00     0.262 C 
ATOM     30  H10 UNL     1      65.680   0.631  87.666  1.00  0.00     0.182 HD
ATOM     31  H11 UNL     1      66.732   4.223  86.994  1.00  0.00     0.162 HD
BRANCH  24  32
HETATM   32  N7  UNL     1      63.793   0.843  83.810  1.00  0.00    -0.289 N 
HETATM   33  N8  UNL     1      63.190  -0.213  84.183  1.00  0.00    -0.344 N 
ATOM     34  H82 UNL     1      63.273  -0.538  85.146  1.00  0.00     0.176 HD
ATOM     35  H81 UNL     1      62.630  -0.709  83.490  1.00  0.00     0.176 HD
ATOM     36  H7  UNL     1      63.720   1.182  82.850  1.00  0.00     0.188 HD
ENDBRANCH  24  32
ENDBRANCH  15  17
ENDBRANCH   7  15
BRANCH  10  37
HETATM   37  O1  UNL     1      64.054   9.206  80.206  1.00  0.00    -0.278 OA
BRANCH  37  38
HETATM   38  C11 UNL     1      63.609  10.512  80.413  1.00  0.00     0.235 C 
BRANCH  38  39
HETATM   39  C12 UNL     1      64.639  11.533  80.011  1.00  0.00     0.167 C 
BRANCH  39  40
HETATM   40  O2  UNL     1      63.976  12.681  79.556  1.00  0.00    -0.391 OA
ATOM     41  H2  UNL     1      63.369  12.427  78.870  1.00  0.00     0.210 HD
ENDBRANCH  39  40
BRANCH  39  42
HETATM   42  C13 UNL     1      65.467  11.041  78.831  1.00  0.00     0.198 C 
BRANCH  42  43
HETATM   43  O3  UNL     1      65.754  12.084  77.952  1.00  0.00    -0.398 OA
ATOM     44  H3  UNL     1      66.195  11.763  77.174  1.00  0.00     0.209 HD
ENDBRANCH  42  43
ENDBRANCH  39  42
ENDBRANCH  38  39
ENDBRANCH  37  38
ENDBRANCH  10  37
ENDBRANCH   2   5
TORSDOF 10
ENDMDL
