MODEL 1
REMARK VINA RESULT: -9.175198731      0.000      0.000
REMARK  19 active torsions:
REMARK  status: ('A' for Active; 'I' for Inactive)
REMARK    1  A    between atoms: O1_2  and  C2_3 
REMARK    2  A    between atoms: C3_4  and  O2_5 
REMARK    3  A    between atoms: C7_14  and  C8_15 
REMARK       I    between atoms: C8_15  and  N3_17 
REMARK    4  A    between atoms: N3_17  and  N4_18 
REMARK    5  A    between atoms: N4_18  and  C9_19 
REMARK    6  A    between atoms: C10_21  and  C11_22 
REMARK    7  A    between atoms: C11_22  and  O5_23 
REMARK    8  A    between atoms: C11_22  and  O6_25 
REMARK    9  A    between atoms: C12_27  and  C13_28 
REMARK   10  A    between atoms: C13_28  and  O7_29 
REMARK   11  A    between atoms: C13_28  and  O8_31 
REMARK   12  A    between atoms: C14_35  and  O9_36 
REMARK   13  A    between atoms: O9_36  and  C15_37 
REMARK   14  A    between atoms: C15_37  and  O10_38 
REMARK   15  A    between atoms: C15_37  and  C16_40 
REMARK   16  A    between atoms: C16_40  and  C17_42 
REMARK   17  A    between atoms: C17_42  and  N6_43 
REMARK   18  A    between atoms: C19_50  and  O12_51 
REMARK   19  A    between atoms: O12_51  and  N8_52 
ROOT
HETATM    1  C9  UNL     1      26.590   6.723   9.437  1.00  0.00     0.313 A 
HETATM    2  O4  UNL     1      26.856   6.479   8.180  1.00  0.00    -0.274 OA
HETATM    3  C10 UNL     1      25.912   6.100   7.306  1.00  0.00     0.138 A 
HETATM    4  C12 UNL     1      24.630   5.959   7.735  1.00  0.00     0.101 A 
HETATM    5  N5  UNL     1      24.377   6.218   9.049  1.00  0.00    -0.329 N 
ATOM      6  H5  UNL     1      23.418   6.115   9.379  1.00  0.00     0.168 HD
HETATM    7  C14 UNL     1      25.299   6.597   9.932  1.00  0.00     0.216 A 
ENDROOT
BRANCH   1   8
HETATM    8  N4  UNL     1      27.556   7.079  10.159  1.00  0.00    -0.214 NA
BRANCH   8   9
HETATM    9  N3  UNL     1      28.389   7.239  10.858  1.00  0.00    -0.198 NA
HETATM   10  C8  UNL     1      29.520   7.506  11.808  1.00  0.00     0.395 C 
HETATM   11  O3  UNL     1      29.876   8.602  12.151  1.00  0.00    -0.244 OA
BRANCH  10  12
HETATM   12  C7  UNL     1      30.148   6.258  12.290  1.00  0.00     0.208 A 
HETATM   13  N2  UNL     1      31.289   5.834  11.699  1.00  0.00    -0.279 N 
HETATM   14  N1  UNL     1      31.852   4.687  12.046  1.00  0.00    -0.296 N 
ATOM     15  H2  UNL     1      31.723   6.407  10.975  1.00  0.00     0.189 HD
HETATM   16  C6  UNL     1      31.295   3.931  12.993  1.00  0.00     0.086 A 
ATOM     17  H1  UNL     1      32.712   4.382  11.589  1.00  0.00     0.187 HD
HETATM   18  C4  UNL     1      31.899   2.738  13.306  1.00  0.00     0.004 A 
HETATM   19  C18 UNL     1      30.125   4.311  13.632  1.00  0.00     0.102 A 
HETATM   20  C3  UNL     1      31.323   1.929  14.259  1.00  0.00     0.110 A 
HETATM   21  C5  UNL     1      33.186   2.369  12.625  1.00  0.00     0.054 C 
HETATM   22  C2  UNL     1      30.147   2.304  14.903  1.00  0.00     0.140 A 
HETATM   23  C19 UNL     1      29.540   3.515  14.587  1.00  0.00     0.163 A 
HETATM   24  N7  UNL     1      29.583   5.503  13.240  1.00  0.00    -0.332 N 
ATOM     25  H7  UNL     1      28.724   5.827  13.684  1.00  0.00     0.168 HD
BRANCH  20  26
HETATM   26  O2  UNL     1      31.914   0.737  14.579  1.00  0.00    -0.357 OA
ATOM     27  H2  UNL     1      32.857   0.695  14.675  1.00  0.00     0.217 HD
ENDBRANCH  20  26
BRANCH  22  28
HETATM   28  O1  UNL     1      29.575   1.499  15.844  1.00  0.00    -0.350 OA
HETATM   29  C1  UNL     1      29.946   1.515  17.194  1.00  0.00     0.210 C 
ENDBRANCH  22  28
BRANCH  23  30
HETATM   30  O12 UNL     1      28.381   3.925  15.200  1.00  0.00    -0.240 OA
BRANCH  30  31
HETATM   31  N8  UNL     1      28.362   4.390  16.467  1.00  0.00    -0.305 N 
ATOM     32  H82 UNL     1      28.858   5.260  16.664  1.00  0.00     0.184 HD
ATOM     33  H81 UNL     1      27.874   3.901  17.218  1.00  0.00     0.184 HD
ENDBRANCH  30  31
ENDBRANCH  23  30
ENDBRANCH  10  12
ENDBRANCH   8   9
ENDBRANCH   1   8
BRANCH   7  34
HETATM   34  O9  UNL     1      25.070   6.865  11.265  1.00  0.00    -0.293 OA
BRANCH  34  35
HETATM   35  C15 UNL     1      24.888   5.926  12.294  1.00  0.00     0.338 C 
BRANCH  35  36
HETATM   36  O10 UNL     1      23.813   6.218  13.081  1.00  0.00    -0.364 OA
ATOM     37  H10 UNL     1      22.995   6.203  12.598  1.00  0.00     0.213 HD
ENDBRANCH  35  36
BRANCH  35  38
HETATM   38  C16 UNL     1      26.172   5.676  13.028  1.00  0.00     0.206 C 
HETATM   39  O11 UNL     1      26.760   4.648  12.710  1.00  0.00    -0.291 OA
BRANCH  38  40
HETATM   40  C17 UNL     1      26.753   6.545  14.059  1.00  0.00     0.312 C 
BRANCH  40  41
HETATM   41  N6  UNL     1      26.162   6.259  15.370  1.00  0.00    -0.073 N 
ATOM     42  H63 UNL     1      25.248   5.814  15.283  1.00  0.00     0.274 HD
ATOM     43  H62 UNL     1      26.654   5.505  15.850  1.00  0.00     0.274 HD
ATOM     44  H61 UNL     1      26.119   7.105  15.937  1.00  0.00     0.274 HD
ENDBRANCH  40  41
ENDBRANCH  38  40
ENDBRANCH  35  38
ENDBRANCH  34  35
ENDBRANCH   7  34
BRANCH   3  45
HETATM   45  C11 UNL     1      26.306   5.864   5.905  1.00  0.00     0.315 C 
BRANCH  45  46
HETATM   46  O5  UNL     1      26.651   4.491   5.734  1.00  0.00    -0.365 OA
ATOM     47  H5  UNL     1      27.257   4.405   5.009  1.00  0.00     0.213 HD
ENDBRANCH  45  46
BRANCH  45  48
HETATM   48  O6  UNL     1      27.417   6.629   5.501  1.00  0.00    -0.365 OA
ATOM     49  H6  UNL     1      27.748   6.389   4.644  1.00  0.00     0.213 HD
ENDBRANCH  45  48
ENDBRANCH   3  45
BRANCH   4  50
HETATM   50  C13 UNL     1      23.535   5.440   6.907  1.00  0.00     0.308 C 
BRANCH  50  51
HETATM   51  O7  UNL     1      24.018   4.230   6.314  1.00  0.00    -0.366 OA
ATOM     52  H7  UNL     1      23.931   4.339   5.375  1.00  0.00     0.213 HD
ENDBRANCH  50  51
BRANCH  50  53
HETATM   53  O8  UNL     1      22.373   5.112   7.545  1.00  0.00    -0.366 OA
ATOM     54  H8  UNL     1      21.781   5.824   7.760  1.00  0.00     0.213 HD
ENDBRANCH  50  53
ENDBRANCH   4  50
TORSDOF 19
ENDMDL
MODEL 2
REMARK VINA RESULT: -9.051969415      1.667      3.094
REMARK  19 active torsions:
REMARK  status: ('A' for Active; 'I' for Inactive)
REMARK    1  A    between atoms: O1_2  and  C2_3 
REMARK    2  A    between atoms: C3_4  and  O2_5 
REMARK    3  A    between atoms: C7_14  and  C8_15 
REMARK       I    between atoms: C8_15  and  N3_17 
REMARK    4  A    between atoms: N3_17  and  N4_18 
REMARK    5  A    between atoms: N4_18  and  C9_19 
REMARK    6  A    between atoms: C10_21  and  C11_22 
REMARK    7  A    between atoms: C11_22  and  O5_23 
REMARK    8  A    between atoms: C11_22  and  O6_25 
REMARK    9  A    between atoms: C12_27  and  C13_28 
REMARK   10  A    between atoms: C13_28  and  O7_29 
REMARK   11  A    between atoms: C13_28  and  O8_31 
REMARK   12  A    between atoms: C14_35  and  O9_36 
REMARK   13  A    between atoms: O9_36  and  C15_37 
REMARK   14  A    between atoms: C15_37  and  O10_38 
REMARK   15  A    between atoms: C15_37  and  C16_40 
REMARK   16  A    between atoms: C16_40  and  C17_42 
REMARK   17  A    between atoms: C17_42  and  N6_43 
REMARK   18  A    between atoms: C19_50  and  O12_51 
REMARK   19  A    between atoms: O12_51  and  N8_52 
ROOT
HETATM    1  C9  UNL     1      26.700   6.644   9.461  1.00  0.00     0.313 A 
HETATM    2  O4  UNL     1      26.922   6.408   8.194  1.00  0.00    -0.274 OA
HETATM    3  C10 UNL     1      25.942   6.066   7.344  1.00  0.00     0.138 A 
HETATM    4  C12 UNL     1      24.670   5.956   7.809  1.00  0.00     0.101 A 
HETATM    5  N5  UNL     1      24.463   6.206   9.134  1.00  0.00    -0.329 N 
ATOM      6  H5  UNL     1      23.511   6.126   9.490  1.00  0.00     0.168 HD
HETATM    7  C14 UNL     1      25.421   6.549   9.993  1.00  0.00     0.216 A 
ENDROOT
BRANCH   1   8
HETATM    8  N4  UNL     1      27.696   6.964  10.158  1.00  0.00    -0.214 NA
BRANCH   8   9
HETATM    9  N3  UNL     1      28.575   7.083  10.808  1.00  0.00    -0.198 NA
HETATM   10  C8  UNL     1      29.766   7.294  11.695  1.00  0.00     0.395 C 
HETATM   11  O3  UNL     1      30.131   8.366  12.100  1.00  0.00    -0.244 OA
BRANCH  10  12
HETATM   12  C7  UNL     1      30.443   6.024  12.030  1.00  0.00     0.208 A 
HETATM   13  N2  UNL     1      29.911   5.238  12.993  1.00  0.00    -0.279 N 
HETATM   14  N1  UNL     1      30.517   4.125  13.378  1.00  0.00    -0.296 N 
ATOM     15  H2  UNL     1      29.028   5.505  13.429  1.00  0.00     0.189 HD
HETATM   16  C6  UNL     1      31.670   3.765  12.813  1.00  0.00     0.086 A 
ATOM     17  H1  UNL     1      30.102   3.544  14.108  1.00  0.00     0.187 HD
HETATM   18  C4  UNL     1      32.277   2.616  13.259  1.00  0.00     0.004 A 
HETATM   19  C18 UNL     1      32.266   4.530  11.823  1.00  0.00     0.102 A 
HETATM   20  C3  UNL     1      33.482   2.242  12.710  1.00  0.00     0.110 A 
HETATM   21  C5  UNL     1      31.590   1.785  14.305  1.00  0.00     0.054 C 
HETATM   22  C2  UNL     1      34.086   3.008  11.717  1.00  0.00     0.140 A 
HETATM   23  C19 UNL     1      33.467   4.169  11.264  1.00  0.00     0.163 A 
HETATM   24  N7  UNL     1      31.601   5.668  11.459  1.00  0.00    -0.332 N 
ATOM     25  H7  UNL     1      31.998   6.263  10.732  1.00  0.00     0.168 HD
BRANCH  20  26
HETATM   26  O2  UNL     1      34.098   1.100  13.146  1.00  0.00    -0.357 OA
ATOM     27  H2  UNL     1      33.613   0.484  13.680  1.00  0.00     0.217 HD
ENDBRANCH  20  26
BRANCH  22  28
HETATM   28  O1  UNL     1      35.284   2.640  11.176  1.00  0.00    -0.350 OA
HETATM   29  C1  UNL     1      36.517   3.065  11.685  1.00  0.00     0.210 C 
ENDBRANCH  22  28
BRANCH  23  30
HETATM   30  O12 UNL     1      34.026   4.953  10.285  1.00  0.00    -0.240 OA
BRANCH  30  31
HETATM   31  N8  UNL     1      33.956   4.629   8.976  1.00  0.00    -0.305 N 
ATOM     32  H82 UNL     1      33.962   3.639   8.729  1.00  0.00     0.184 HD
ATOM     33  H81 UNL     1      33.899   5.336   8.243  1.00  0.00     0.184 HD
ENDBRANCH  30  31
ENDBRANCH  23  30
ENDBRANCH  10  12
ENDBRANCH   8   9
ENDBRANCH   1   8
BRANCH   7  34
HETATM   34  O9  UNL     1      25.239   6.807  11.335  1.00  0.00    -0.293 OA
BRANCH  34  35
HETATM   35  C15 UNL     1      25.068   5.861  12.359  1.00  0.00     0.338 C 
BRANCH  35  36
HETATM   36  O10 UNL     1      23.977   6.123  13.134  1.00  0.00    -0.364 OA
ATOM     37  H10 UNL     1      24.191   6.167  14.059  1.00  0.00     0.213 HD
ENDBRANCH  35  36
BRANCH  35  38
HETATM   38  C16 UNL     1      26.350   5.641  13.108  1.00  0.00     0.206 C 
HETATM   39  O11 UNL     1      26.973   4.636  12.786  1.00  0.00    -0.291 OA
BRANCH  38  40
HETATM   40  C17 UNL     1      26.890   6.515  14.157  1.00  0.00     0.312 C 
BRANCH  40  41
HETATM   41  N6  UNL     1      26.234   6.247  15.441  1.00  0.00    -0.073 N 
ATOM     42  H63 UNL     1      25.219   6.317  15.369  1.00  0.00     0.274 HD
ATOM     43  H62 UNL     1      26.303   5.263  15.703  1.00  0.00     0.274 HD
ATOM     44  H61 UNL     1      26.605   6.859  16.168  1.00  0.00     0.274 HD
ENDBRANCH  40  41
ENDBRANCH  38  40
ENDBRANCH  35  38
ENDBRANCH  34  35
ENDBRANCH   7  34
BRANCH   3  45
HETATM   45  C11 UNL     1      26.288   5.836   5.930  1.00  0.00     0.315 C 
BRANCH  45  46
HETATM   46  O5  UNL     1      26.634   4.465   5.743  1.00  0.00    -0.365 OA
ATOM     47  H5  UNL     1      27.242   4.389   5.018  1.00  0.00     0.213 HD
ENDBRANCH  45  46
BRANCH  45  48
HETATM   48  O6  UNL     1      27.380   6.608   5.489  1.00  0.00    -0.365 OA
ATOM     49  H6  UNL     1      27.529   6.548   4.553  1.00  0.00     0.213 HD
ENDBRANCH  45  48
ENDBRANCH   3  45
BRANCH   4  50
HETATM   50  C13 UNL     1      23.536   5.478   7.009  1.00  0.00     0.308 C 
BRANCH  50  51
HETATM   51  O7  UNL     1      23.981   4.284   6.356  1.00  0.00    -0.366 OA
ATOM     52  H7  UNL     1      24.687   4.544   5.776  1.00  0.00     0.213 HD
ENDBRANCH  50  51
BRANCH  50  53
HETATM   53  O8  UNL     1      22.397   5.140   7.681  1.00  0.00    -0.366 OA
ATOM     54  H8  UNL     1      21.572   5.257   7.223  1.00  0.00     0.213 HD
ENDBRANCH  50  53
ENDBRANCH   4  50
TORSDOF 19
ENDMDL
MODEL 3
REMARK VINA RESULT: -8.754300194      1.283      1.609
REMARK  19 active torsions:
REMARK  status: ('A' for Active; 'I' for Inactive)
REMARK    1  A    between atoms: O1_2  and  C2_3 
REMARK    2  A    between atoms: C3_4  and  O2_5 
REMARK    3  A    between atoms: C7_14  and  C8_15 
REMARK       I    between atoms: C8_15  and  N3_17 
REMARK    4  A    between atoms: N3_17  and  N4_18 
REMARK    5  A    between atoms: N4_18  and  C9_19 
REMARK    6  A    between atoms: C10_21  and  C11_22 
REMARK    7  A    between atoms: C11_22  and  O5_23 
REMARK    8  A    between atoms: C11_22  and  O6_25 
REMARK    9  A    between atoms: C12_27  and  C13_28 
REMARK   10  A    between atoms: C13_28  and  O7_29 
REMARK   11  A    between atoms: C13_28  and  O8_31 
REMARK   12  A    between atoms: C14_35  and  O9_36 
REMARK   13  A    between atoms: O9_36  and  C15_37 
REMARK   14  A    between atoms: C15_37  and  O10_38 
REMARK   15  A    between atoms: C15_37  and  C16_40 
REMARK   16  A    between atoms: C16_40  and  C17_42 
REMARK   17  A    between atoms: C17_42  and  N6_43 
REMARK   18  A    between atoms: C19_50  and  O12_51 
REMARK   19  A    between atoms: O12_51  and  N8_52 
ROOT
HETATM    1  C9  UNL     1      26.806   6.501   8.563  1.00  0.00     0.313 A 
HETATM    2  O4  UNL     1      27.262   6.850   7.388  1.00  0.00    -0.274 OA
HETATM    3  C10 UNL     1      26.680   6.457   6.246  1.00  0.00     0.138 A 
HETATM    4  C12 UNL     1      25.577   5.665   6.302  1.00  0.00     0.101 A 
HETATM    5  N5  UNL     1      25.120   5.314   7.538  1.00  0.00    -0.329 N 
ATOM      6  H5  UNL     1      24.292   4.720   7.589  1.00  0.00     0.168 HD
HETATM    7  C14 UNL     1      25.682   5.695   8.684  1.00  0.00     0.216 A 
ENDROOT
BRANCH   1   8
HETATM    8  N4  UNL     1      27.431   6.937   9.563  1.00  0.00    -0.214 NA
BRANCH   8   9
HETATM    9  N3  UNL     1      28.029   7.162  10.458  1.00  0.00    -0.198 NA
HETATM   10  C8  UNL     1      28.831   7.515  11.676  1.00  0.00     0.395 C 
HETATM   11  O3  UNL     1      28.913   8.622  12.138  1.00  0.00    -0.244 OA
BRANCH  10  12
HETATM   12  C7  UNL     1      29.508   6.337  12.257  1.00  0.00     0.208 A 
HETATM   13  N2  UNL     1      30.689   5.940  11.730  1.00  0.00    -0.279 N 
HETATM   14  N1  UNL     1      31.301   4.850  12.169  1.00  0.00    -0.296 N 
ATOM     15  H2  UNL     1      31.116   6.489  10.983  1.00  0.00     0.189 HD
HETATM   16  C6  UNL     1      30.753   4.127  13.146  1.00  0.00     0.086 A 
ATOM     17  H1  UNL     1      32.191   4.564  11.759  1.00  0.00     0.187 HD
HETATM   18  C4  UNL     1      31.409   2.991  13.555  1.00  0.00     0.004 A 
HETATM   19  C18 UNL     1      29.544   4.481  13.724  1.00  0.00     0.102 A 
HETATM   20  C3  UNL     1      30.846   2.214  14.541  1.00  0.00     0.110 A 
HETATM   21  C5  UNL     1      32.736   2.652  12.939  1.00  0.00     0.054 C 
HETATM   22  C2  UNL     1      29.630   2.564  15.124  1.00  0.00     0.140 A 
HETATM   23  C19 UNL     1      28.970   3.718  14.711  1.00  0.00     0.163 A 
HETATM   24  N7  UNL     1      28.953   5.615  13.238  1.00  0.00    -0.332 N 
ATOM     25  H7  UNL     1      28.064   5.919  13.634  1.00  0.00     0.168 HD
BRANCH  20  26
HETATM   26  O2  UNL     1      31.488   1.080  14.957  1.00  0.00    -0.357 OA
ATOM     27  H2  UNL     1      31.662   0.387  14.332  1.00  0.00     0.217 HD
ENDBRANCH  20  26
BRANCH  22  28
HETATM   28  O1  UNL     1      29.070   1.791  16.098  1.00  0.00    -0.350 OA
HETATM   29  C1  UNL     1      29.719   1.483  17.300  1.00  0.00     0.210 C 
ENDBRANCH  22  28
BRANCH  23  30
HETATM   30  O12 UNL     1      27.772   4.102  15.260  1.00  0.00    -0.240 OA
BRANCH  30  31
HETATM   31  N8  UNL     1      27.670   4.536  16.535  1.00  0.00    -0.305 N 
ATOM     32  H82 UNL     1      28.532   4.749  17.036  1.00  0.00     0.184 HD
ATOM     33  H81 UNL     1      26.769   4.654  16.998  1.00  0.00     0.184 HD
ENDBRANCH  30  31
ENDBRANCH  23  30
ENDBRANCH  10  12
ENDBRANCH   8   9
ENDBRANCH   1   8
BRANCH   7  34
HETATM   34  O9  UNL     1      25.241   5.354   9.944  1.00  0.00    -0.293 OA
BRANCH  34  35
HETATM   35  C15 UNL     1      24.426   6.126  10.790  1.00  0.00     0.338 C 
BRANCH  35  36
HETATM   36  O10 UNL     1      24.420   7.445  10.445  1.00  0.00    -0.364 OA
ATOM     37  H10 UNL     1      23.955   7.606   9.633  1.00  0.00     0.213 HD
ENDBRANCH  35  36
BRANCH  35  38
HETATM   38  C16 UNL     1      24.723   5.840  12.232  1.00  0.00     0.206 C 
HETATM   39  O11 UNL     1      24.021   6.444  13.036  1.00  0.00    -0.291 OA
BRANCH  38  40
HETATM   40  C17 UNL     1      25.754   4.920  12.728  1.00  0.00     0.312 C 
BRANCH  40  41
HETATM   41  N6  UNL     1      25.248   4.143  13.864  1.00  0.00    -0.073 N 
ATOM     42  H63 UNL     1      24.742   4.728  14.529  1.00  0.00     0.274 HD
ATOM     43  H62 UNL     1      24.484   3.525  13.590  1.00  0.00     0.274 HD
ATOM     44  H61 UNL     1      26.007   3.629  14.314  1.00  0.00     0.274 HD
ENDBRANCH  40  41
ENDBRANCH  38  40
ENDBRANCH  35  38
ENDBRANCH  34  35
ENDBRANCH   7  34
BRANCH   3  45
HETATM   45  C11 UNL     1      27.257   6.915   4.969  1.00  0.00     0.315 C 
BRANCH  45  46
HETATM   46  O5  UNL     1      28.449   7.655   5.226  1.00  0.00    -0.365 OA
ATOM     47  H5  UNL     1      28.735   8.081   4.427  1.00  0.00     0.213 HD
ENDBRANCH  45  46
BRANCH  45  48
HETATM   48  O6  UNL     1      26.395   7.752   4.235  1.00  0.00    -0.365 OA
ATOM     49  H6  UNL     1      26.565   8.677   4.367  1.00  0.00     0.213 HD
ENDBRANCH  45  48
ENDBRANCH   3  45
BRANCH   4  50
HETATM   50  C13 UNL     1      24.921   5.077   5.128  1.00  0.00     0.308 C 
BRANCH  50  51
HETATM   51  O7  UNL     1      24.345   3.842   5.567  1.00  0.00    -0.366 OA
ATOM     52  H7  UNL     1      23.965   3.436   4.796  1.00  0.00     0.213 HD
ENDBRANCH  50  51
BRANCH  50  53
HETATM   53  O8  UNL     1      23.905   5.789   4.559  1.00  0.00    -0.366 OA
ATOM     54  H8  UNL     1      23.942   5.922   3.619  1.00  0.00     0.213 HD
ENDBRANCH  50  53
ENDBRANCH   4  50
TORSDOF 19
ENDMDL
MODEL 4
REMARK VINA RESULT: -8.683696086      3.078      4.926
REMARK  19 active torsions:
REMARK  status: ('A' for Active; 'I' for Inactive)
REMARK    1  A    between atoms: O1_2  and  C2_3 
REMARK    2  A    between atoms: C3_4  and  O2_5 
REMARK    3  A    between atoms: C7_14  and  C8_15 
REMARK       I    between atoms: C8_15  and  N3_17 
REMARK    4  A    between atoms: N3_17  and  N4_18 
REMARK    5  A    between atoms: N4_18  and  C9_19 
REMARK    6  A    between atoms: C10_21  and  C11_22 
REMARK    7  A    between atoms: C11_22  and  O5_23 
REMARK    8  A    between atoms: C11_22  and  O6_25 
REMARK    9  A    between atoms: C12_27  and  C13_28 
REMARK   10  A    between atoms: C13_28  and  O7_29 
REMARK   11  A    between atoms: C13_28  and  O8_31 
REMARK   12  A    between atoms: C14_35  and  O9_36 
REMARK   13  A    between atoms: O9_36  and  C15_37 
REMARK   14  A    between atoms: C15_37  and  O10_38 
REMARK   15  A    between atoms: C15_37  and  C16_40 
REMARK   16  A    between atoms: C16_40  and  C17_42 
REMARK   17  A    between atoms: C17_42  and  N6_43 
REMARK   18  A    between atoms: C19_50  and  O12_51 
REMARK   19  A    between atoms: O12_51  and  N8_52 
ROOT
HETATM    1  C9  UNL     1      27.705   5.425  11.792  1.00  0.00     0.313 A 
HETATM    2  O4  UNL     1      27.474   5.064  10.557  1.00  0.00    -0.274 OA
HETATM    3  C10 UNL     1      26.423   5.520   9.860  1.00  0.00     0.138 A 
HETATM    4  C12 UNL     1      25.560   6.387  10.453  1.00  0.00     0.101 A 
HETATM    5  N5  UNL     1      25.821   6.748  11.742  1.00  0.00    -0.329 N 
ATOM      6  H5  UNL     1      25.179   7.398  12.194  1.00  0.00     0.168 HD
HETATM    7  C14 UNL     1      26.860   6.308  12.450  1.00  0.00     0.216 A 
ENDROOT
BRANCH   1   8
HETATM    8  N4  UNL     1      28.727   4.937  12.340  1.00  0.00    -0.214 NA
BRANCH   8   9
HETATM    9  N3  UNL     1      29.530   4.373  12.835  1.00  0.00    -0.198 NA
HETATM   10  C8  UNL     1      30.596   3.595  13.548  1.00  0.00     0.395 C 
HETATM   11  O3  UNL     1      30.460   3.088  14.630  1.00  0.00    -0.244 OA
BRANCH  10  12
HETATM   12  C7  UNL     1      31.843   3.508  12.760  1.00  0.00     0.208 A 
HETATM   13  N2  UNL     1      32.688   2.477  12.991  1.00  0.00    -0.279 N 
HETATM   14  N1  UNL     1      33.851   2.392  12.362  1.00  0.00    -0.296 N 
ATOM     15  H2  UNL     1      32.426   1.753  13.661  1.00  0.00     0.189 HD
HETATM   16  C6  UNL     1      34.202   3.332  11.484  1.00  0.00     0.086 A 
ATOM     17  H1  UNL     1      34.477   1.609  12.550  1.00  0.00     0.187 HD
HETATM   18  C4  UNL     1      35.426   3.218  10.871  1.00  0.00     0.004 A 
HETATM   19  C18 UNL     1      33.380   4.413  11.206  1.00  0.00     0.102 A 
HETATM   20  C3  UNL     1      35.821   4.193   9.984  1.00  0.00     0.110 A 
HETATM   21  C5  UNL     1      36.280   2.017  11.161  1.00  0.00     0.054 C 
HETATM   22  C2  UNL     1      35.001   5.282   9.703  1.00  0.00     0.140 A 
HETATM   23  C19 UNL     1      33.759   5.393  10.321  1.00  0.00     0.163 A 
HETATM   24  N7  UNL     1      32.191   4.454  11.880  1.00  0.00    -0.332 N 
ATOM     25  H7  UNL     1      31.550   5.229  11.707  1.00  0.00     0.168 HD
BRANCH  20  26
HETATM   26  O2  UNL     1      37.039   4.093   9.367  1.00  0.00    -0.357 OA
ATOM     27  H2  UNL     1      37.825   4.026   9.896  1.00  0.00     0.217 HD
ENDBRANCH  20  26
BRANCH  22  28
HETATM   28  O1  UNL     1      35.395   6.251   8.827  1.00  0.00    -0.350 OA
HETATM   29  C1  UNL     1      35.114   6.205   7.456  1.00  0.00     0.210 C 
ENDBRANCH  22  28
BRANCH  23  30
HETATM   30  O12 UNL     1      32.918   6.449  10.071  1.00  0.00    -0.240 OA
BRANCH  30  31
HETATM   31  N8  UNL     1      33.239   7.719  10.396  1.00  0.00    -0.305 N 
ATOM     32  H82 UNL     1      34.032   7.865  11.022  1.00  0.00     0.184 HD
ATOM     33  H81 UNL     1      32.719   8.520  10.039  1.00  0.00     0.184 HD
ENDBRANCH  30  31
ENDBRANCH  23  30
ENDBRANCH  10  12
ENDBRANCH   8   9
ENDBRANCH   1   8
BRANCH   7  34
HETATM   34  O9  UNL     1      27.147   6.657  13.752  1.00  0.00    -0.293 OA
BRANCH  34  35
HETATM   35  C15 UNL     1      26.440   6.271  14.903  1.00  0.00     0.338 C 
BRANCH  35  36
HETATM   36  O10 UNL     1      26.542   7.187  15.908  1.00  0.00    -0.364 OA
ATOM     37  H10 UNL     1      27.326   7.065  16.432  1.00  0.00     0.213 HD
ENDBRANCH  35  36
BRANCH  35  38
HETATM   38  C16 UNL     1      26.766   4.858  15.287  1.00  0.00     0.206 C 
HETATM   39  O11 UNL     1      26.039   4.005  14.790  1.00  0.00    -0.291 OA
BRANCH  38  40
HETATM   40  C17 UNL     1      27.856   4.442  16.178  1.00  0.00     0.312 C 
BRANCH  40  41
HETATM   41  N6  UNL     1      28.997   5.356  16.061  1.00  0.00    -0.073 N 
ATOM     42  H63 UNL     1      28.747   6.211  15.563  1.00  0.00     0.274 HD
ATOM     43  H62 UNL     1      29.245   5.768  16.960  1.00  0.00     0.274 HD
ATOM     44  H61 UNL     1      29.792   4.885  15.628  1.00  0.00     0.274 HD
ENDBRANCH  40  41
ENDBRANCH  38  40
ENDBRANCH  35  38
ENDBRANCH  34  35
ENDBRANCH   7  34
BRANCH   3  45
HETATM   45  C11 UNL     1      26.254   5.069   8.467  1.00  0.00     0.315 C 
BRANCH  45  46
HETATM   46  O5  UNL     1      26.772   3.747   8.330  1.00  0.00    -0.365 OA
ATOM     47  H5  UNL     1      26.301   3.293   7.642  1.00  0.00     0.213 HD
ENDBRANCH  45  46
BRANCH  45  48
HETATM   48  O6  UNL     1      26.925   5.881   7.532  1.00  0.00    -0.365 OA
ATOM     49  H6  UNL     1      27.565   5.409   7.015  1.00  0.00     0.213 HD
ENDBRANCH  45  48
ENDBRANCH   3  45
BRANCH   4  50
HETATM   50  C13 UNL     1      24.315   6.863   9.839  1.00  0.00     0.308 C 
BRANCH  50  51
HETATM   51  O7  UNL     1      23.399   5.764   9.883  1.00  0.00    -0.366 OA
ATOM     52  H7  UNL     1      23.576   5.238   9.112  1.00  0.00     0.213 HD
ENDBRANCH  50  51
BRANCH  50  53
HETATM   53  O8  UNL     1      23.681   7.910  10.445  1.00  0.00    -0.366 OA
ATOM     54  H8  UNL     1      22.737   7.855  10.531  1.00  0.00     0.213 HD
ENDBRANCH  50  53
ENDBRANCH   4  50
TORSDOF 19
ENDMDL
MODEL 5
REMARK VINA RESULT: -8.635553787      2.917      4.713
REMARK  19 active torsions:
REMARK  status: ('A' for Active; 'I' for Inactive)
REMARK    1  A    between atoms: O1_2  and  C2_3 
REMARK    2  A    between atoms: C3_4  and  O2_5 
REMARK    3  A    between atoms: C7_14  and  C8_15 
REMARK       I    between atoms: C8_15  and  N3_17 
REMARK    4  A    between atoms: N3_17  and  N4_18 
REMARK    5  A    between atoms: N4_18  and  C9_19 
REMARK    6  A    between atoms: C10_21  and  C11_22 
REMARK    7  A    between atoms: C11_22  and  O5_23 
REMARK    8  A    between atoms: C11_22  and  O6_25 
REMARK    9  A    between atoms: C12_27  and  C13_28 
REMARK   10  A    between atoms: C13_28  and  O7_29 
REMARK   11  A    between atoms: C13_28  and  O8_31 
REMARK   12  A    between atoms: C14_35  and  O9_36 
REMARK   13  A    between atoms: O9_36  and  C15_37 
REMARK   14  A    between atoms: C15_37  and  O10_38 
REMARK   15  A    between atoms: C15_37  and  C16_40 
REMARK   16  A    between atoms: C16_40  and  C17_42 
REMARK   17  A    between atoms: C17_42  and  N6_43 
REMARK   18  A    between atoms: C19_50  and  O12_51 
REMARK   19  A    between atoms: O12_51  and  N8_52 
ROOT
HETATM    1  C9  UNL     1      27.727   5.384  11.812  1.00  0.00     0.313 A 
HETATM    2  O4  UNL     1      27.486   5.027  10.578  1.00  0.00    -0.274 OA
HETATM    3  C10 UNL     1      26.426   5.479   9.894  1.00  0.00     0.138 A 
HETATM    4  C12 UNL     1      25.562   6.337  10.499  1.00  0.00     0.101 A 
HETATM    5  N5  UNL     1      25.834   6.694  11.787  1.00  0.00    -0.329 N 
ATOM      6  H5  UNL     1      25.192   7.338  12.248  1.00  0.00     0.168 HD
HETATM    7  C14 UNL     1      26.883   6.259  12.482  1.00  0.00     0.216 A 
ENDROOT
BRANCH   1   8
HETATM    8  N4  UNL     1      28.758   4.901  12.348  1.00  0.00    -0.214 NA
BRANCH   8   9
HETATM    9  N3  UNL     1      29.575   4.336  12.817  1.00  0.00    -0.198 NA
HETATM   10  C8  UNL     1      30.661   3.550  13.493  1.00  0.00     0.395 C 
HETATM   11  O3  UNL     1      30.515   2.924  14.509  1.00  0.00    -0.244 OA
BRANCH  10  12
HETATM   12  C7  UNL     1      31.940   3.622  12.757  1.00  0.00     0.208 A 
HETATM   13  N2  UNL     1      32.112   4.607  11.846  1.00  0.00    -0.279 N 
HETATM   14  N1  UNL     1      33.211   4.673  11.111  1.00  0.00    -0.296 N 
ATOM     15  H2  UNL     1      31.384   5.310  11.724  1.00  0.00     0.189 HD
HETATM   16  C6  UNL     1      34.171   3.759  11.264  1.00  0.00     0.086 A 
ATOM     17  H1  UNL     1      33.324   5.421  10.427  1.00  0.00     0.187 HD
HETATM   18  C4  UNL     1      35.284   3.850  10.465  1.00  0.00     0.004 A 
HETATM   19  C18 UNL     1      34.052   2.725  12.179  1.00  0.00     0.102 A 
HETATM   20  C3  UNL     1      36.273   2.900  10.586  1.00  0.00     0.110 A 
HETATM   21  C5  UNL     1      35.405   5.003   9.509  1.00  0.00     0.054 C 
HETATM   22  C2  UNL     1      36.157   1.858  11.502  1.00  0.00     0.140 A 
HETATM   23  C19 UNL     1      35.030   1.770  12.314  1.00  0.00     0.163 A 
HETATM   24  N7  UNL     1      32.899   2.701  12.915  1.00  0.00    -0.332 N 
ATOM     25  H7  UNL     1      32.767   1.961  13.605  1.00  0.00     0.168 HD
BRANCH  20  26
HETATM   26  O2  UNL     1      37.386   2.979   9.795  1.00  0.00    -0.357 OA
ATOM     27  H2  UNL     1      37.738   2.188   9.406  1.00  0.00     0.217 HD
ENDBRANCH  20  26
BRANCH  22  28
HETATM   28  O1  UNL     1      37.135   0.914  11.618  1.00  0.00    -0.350 OA
HETATM   29  C1  UNL     1      38.243   1.059  12.462  1.00  0.00     0.210 C 
ENDBRANCH  22  28
BRANCH  23  30
HETATM   30  O12 UNL     1      34.877   0.761  13.232  1.00  0.00    -0.240 OA
BRANCH  30  31
HETATM   31  N8  UNL     1      35.054  -0.538  12.911  1.00  0.00    -0.305 N 
ATOM     32  H82 UNL     1      34.293  -1.019  12.429  1.00  0.00     0.184 HD
ATOM     33  H81 UNL     1      35.913  -1.041  13.133  1.00  0.00     0.184 HD
ENDBRANCH  30  31
ENDBRANCH  23  30
ENDBRANCH  10  12
ENDBRANCH   8   9
ENDBRANCH   1   8
BRANCH   7  34
HETATM   34  O9  UNL     1      27.180   6.604  13.783  1.00  0.00    -0.293 OA
BRANCH  34  35
HETATM   35  C15 UNL     1      26.492   6.202  14.941  1.00  0.00     0.338 C 
BRANCH  35  36
HETATM   36  O10 UNL     1      26.591   7.114  15.949  1.00  0.00    -0.364 OA
ATOM     37  H10 UNL     1      27.433   7.078  16.389  1.00  0.00     0.213 HD
ENDBRANCH  35  36
BRANCH  35  38
HETATM   38  C16 UNL     1      26.843   4.792  15.313  1.00  0.00     0.206 C 
HETATM   39  O11 UNL     1      26.104   3.932  14.845  1.00  0.00    -0.291 OA
BRANCH  38  40
HETATM   40  C17 UNL     1      27.968   4.385  16.164  1.00  0.00     0.312 C 
BRANCH  40  41
HETATM   41  N6  UNL     1      29.067   5.350  16.062  1.00  0.00    -0.073 N 
ATOM     42  H63 UNL     1      29.163   5.906  16.913  1.00  0.00     0.274 HD
ATOM     43  H62 UNL     1      29.978   4.890  16.077  1.00  0.00     0.274 HD
ATOM     44  H61 UNL     1      28.954   5.938  15.236  1.00  0.00     0.274 HD
ENDBRANCH  40  41
ENDBRANCH  38  40
ENDBRANCH  35  38
ENDBRANCH  34  35
ENDBRANCH   7  34
BRANCH   3  45
HETATM   45  C11 UNL     1      26.246   5.033   8.500  1.00  0.00     0.315 C 
BRANCH  45  46
HETATM   46  O5  UNL     1      26.734   3.700   8.362  1.00  0.00    -0.365 OA
ATOM     47  H5  UNL     1      27.338   3.659   7.630  1.00  0.00     0.213 HD
ENDBRANCH  45  46
BRANCH  45  48
HETATM   48  O6  UNL     1      26.935   5.830   7.566  1.00  0.00    -0.365 OA
ATOM     49  H6  UNL     1      27.151   5.369   6.765  1.00  0.00     0.213 HD
ENDBRANCH  45  48
ENDBRANCH   3  45
BRANCH   4  50
HETATM   50  C13 UNL     1      24.308   6.808   9.899  1.00  0.00     0.308 C 
BRANCH  50  51
HETATM   51  O7  UNL     1      23.357   5.753  10.078  1.00  0.00    -0.366 OA
ATOM     52  H7  UNL     1      23.056   5.814  10.977  1.00  0.00     0.213 HD
ENDBRANCH  50  51
BRANCH  50  53
HETATM   53  O8  UNL     1      23.740   7.926  10.439  1.00  0.00    -0.366 OA
ATOM     54  H8  UNL     1      23.526   8.634   9.843  1.00  0.00     0.213 HD
ENDBRANCH  50  53
ENDBRANCH   4  50
TORSDOF 19
ENDMDL
