MODEL 1
REMARK VINA RESULT: -5.616053847      0.000      0.000
REMARK  17 active torsions:
REMARK  status: ('A' for Active; 'I' for Inactive)
REMARK    1  A    between atoms: N1_1  and  C1_5 
REMARK    2  A    between atoms: C1_5  and  O1_6 
REMARK    3  A    between atoms: C1_5  and  C2_8 
REMARK    4  A    between atoms: C2_8  and  N2_9 
REMARK    5  A    between atoms: C2_8  and  C17_48 
REMARK    6  A    between atoms: N2_9  and  C3_11 
REMARK    7  A    between atoms: C4_14  and  N4_15 
REMARK    8  A    between atoms: N4_15  and  C5_16 
REMARK    9  A    between atoms: C6_17  and  O2_18 
REMARK   10  A    between atoms: C7_20  and  O3_21 
REMARK   11  A    between atoms: C8_23  and  N5_24 
REMARK   12  A    between atoms: N5_24  and  C9_26 
REMARK   13  A    between atoms: C10_29  and  N6_30 
REMARK   14  A    between atoms: N10_42  and  C16_43 
REMARK   15  A    between atoms: C16_43  and  O6_44 
REMARK   16  A    between atoms: C17_48  and  O7_49 
REMARK   17  A    between atoms: C17_48  and  O8_51 
ROOT
HETATM    1  C3  UNL     1      21.180   2.816  12.963  1.00  0.00     0.682 A 
HETATM    2  N3  UNL     1      20.432   1.884  13.533  1.00  0.00    -0.162 N 
ATOM      3  H3  UNL     1      19.562   2.167  13.984  1.00  0.00     0.187 HD
HETATM    4  C4  UNL     1      20.774   0.547  13.546  1.00  0.00     0.218 A 
HETATM    5  C13 UNL     1      21.976   0.145  12.924  1.00  0.00     0.141 A 
HETATM    6  C14 UNL     1      22.721   1.141  12.349  1.00  0.00     0.154 A 
HETATM    7  N9  UNL     1      23.823   0.527  11.832  1.00  0.00    -0.336 N 
ATOM      8  H9  UNL     1      24.588   0.984  11.334  1.00  0.00     0.168 HD
HETATM    9  C15 UNL     1      23.722  -0.782  12.095  1.00  0.00     0.187 A 
HETATM   10  N10 UNL     1      22.573  -1.045  12.777  1.00  0.00    -0.314 N 
HETATM   11  N11 UNL     1      22.322   2.430  12.377  1.00  0.00    -0.174 N 
ATOM     12  H11 UNL     1      22.911   3.136  11.935  1.00  0.00     0.186 HD
ENDROOT
BRANCH   4  13
HETATM   13  N4  UNL     1      20.091  -0.290  14.110  1.00  0.00    -0.415 NA
BRANCH  13  14
HETATM   14  C5  UNL     1      19.260  -0.990  14.889  1.00  0.00     0.247 C 
HETATM   15  C6  UNL     1      18.656  -0.079  15.977  1.00  0.00     0.191 C 
HETATM   16  C7  UNL     1      17.897  -0.892  16.980  1.00  0.00     0.199 C 
HETATM   17  C8  UNL     1      16.767  -1.558  16.176  1.00  0.00     0.257 C 
HETATM   18  O5  UNL     1      17.359  -2.340  15.225  1.00  0.00    -0.335 OA
HETATM   19  C10 UNL     1      18.036  -1.625  14.232  1.00  0.00     0.285 C 
BRANCH  15  20
HETATM   20  O2  UNL     1      17.809   0.802  15.348  1.00  0.00    -0.390 OA
ATOM     21  H2  UNL     1      17.464   1.386  16.013  1.00  0.00     0.210 HD
ENDBRANCH  15  20
BRANCH  16  22
HETATM   22  O3  UNL     1      17.368  -0.018  17.925  1.00  0.00    -0.388 OA
ATOM     23  H3  UNL     1      16.519  -0.353  18.189  1.00  0.00     0.210 HD
ENDBRANCH  16  22
BRANCH  17  24
HETATM   24  N5  UNL     1      16.071  -2.404  17.126  1.00  0.00    -0.340 N 
ATOM     25  H5  UNL     1      16.471  -2.609  18.041  1.00  0.00     0.164 HD
BRANCH  24  26
HETATM   26  C9  UNL     1      14.812  -2.937  16.739  1.00  0.00     0.350 C 
HETATM   27  O4  UNL     1      14.058  -3.404  17.630  1.00  0.00    -0.284 OA
ENDBRANCH  24  26
ENDBRANCH  17  24
BRANCH  19  28
HETATM   28  N6  UNL     1      18.421  -2.619  13.259  1.00  0.00    -0.255 N 
HETATM   29  C11 UNL     1      18.488  -3.924  13.505  1.00  0.00     0.133 A 
HETATM   30  C12 UNL     1      18.892  -4.527  12.328  1.00  0.00     0.127 A 
HETATM   31  N7  UNL     1      19.039  -3.525  11.451  1.00  0.00    -0.296 N 
HETATM   32  N8  UNL     1      18.753  -2.376  12.021  1.00  0.00    -0.239 N 
ATOM     33  H7  UNL     1      19.332  -3.638  10.480  1.00  0.00     0.187 HD
ATOM     34  H8  UNL     1      18.784  -1.459  11.576  1.00  0.00     0.208 HD
ENDBRANCH  19  28
ENDBRANCH  13  14
ENDBRANCH   4  13
BRANCH   1  35
HETATM   35  N2  UNL     1      20.814   4.077  12.980  1.00  0.00    -0.212 N 
ATOM     36  H2  UNL     1      20.957   4.602  12.118  1.00  0.00     0.178 HD
BRANCH  35  37
HETATM   37  C2  UNL     1      20.244   4.787  14.057  1.00  0.00     0.210 C 
BRANCH  37  38
HETATM   38  C1  UNL     1      20.674   6.255  14.002  1.00  0.00     0.344 C 
BRANCH  38  39
HETATM   39  N1  UNL     1      19.702   7.048  14.707  1.00  0.00    -0.051 N 
ATOM     40  H13 UNL     1      19.265   7.749  14.109  1.00  0.00     0.277 HD
ATOM     41  H12 UNL     1      18.863   6.518  14.942  1.00  0.00     0.277 HD
ATOM     42  H11 UNL     1      20.145   7.459  15.529  1.00  0.00     0.277 HD
ENDBRANCH  38  39
BRANCH  38  43
HETATM   43  O1  UNL     1      20.752   6.702  12.685  1.00  0.00    -0.368 OA
ATOM     44  H1  UNL     1      21.431   7.363  12.623  1.00  0.00     0.212 HD
ENDBRANCH  38  43
ENDBRANCH  37  38
BRANCH  37  45
HETATM   45  C17 UNL     1      18.721   4.775  14.087  1.00  0.00     0.281 C 
BRANCH  45  46
HETATM   46  O7  UNL     1      18.182   3.651  14.648  1.00  0.00    -0.369 OA
ATOM     47  H7  UNL     1      18.333   3.573  15.583  1.00  0.00     0.212 HD
ENDBRANCH  45  46
BRANCH  45  48
HETATM   48  O8  UNL     1      18.178   5.064  12.847  1.00  0.00    -0.369 OA
ATOM     49  H8  UNL     1      17.312   5.448  12.920  1.00  0.00     0.212 HD
ENDBRANCH  45  48
ENDBRANCH  37  45
ENDBRANCH  35  37
ENDBRANCH   1  35
BRANCH  10  50
HETATM   50  C16 UNL     1      22.111  -2.355  13.192  1.00  0.00     0.296 C 
BRANCH  50  51
HETATM   51  O6  UNL     1      21.913  -3.131  12.058  1.00  0.00    -0.382 OA
ATOM     52  H6  UNL     1      22.406  -3.937  12.156  1.00  0.00     0.211 HD
ENDBRANCH  50  51
ENDBRANCH  10  50
TORSDOF 17
ENDMDL
MODEL 2
REMARK VINA RESULT: -5.378441502      4.243      8.040
REMARK  17 active torsions:
REMARK  status: ('A' for Active; 'I' for Inactive)
REMARK    1  A    between atoms: N1_1  and  C1_5 
REMARK    2  A    between atoms: C1_5  and  O1_6 
REMARK    3  A    between atoms: C1_5  and  C2_8 
REMARK    4  A    between atoms: C2_8  and  N2_9 
REMARK    5  A    between atoms: C2_8  and  C17_48 
REMARK    6  A    between atoms: N2_9  and  C3_11 
REMARK    7  A    between atoms: C4_14  and  N4_15 
REMARK    8  A    between atoms: N4_15  and  C5_16 
REMARK    9  A    between atoms: C6_17  and  O2_18 
REMARK   10  A    between atoms: C7_20  and  O3_21 
REMARK   11  A    between atoms: C8_23  and  N5_24 
REMARK   12  A    between atoms: N5_24  and  C9_26 
REMARK   13  A    between atoms: C10_29  and  N6_30 
REMARK   14  A    between atoms: N10_42  and  C16_43 
REMARK   15  A    between atoms: C16_43  and  O6_44 
REMARK   16  A    between atoms: C17_48  and  O7_49 
REMARK   17  A    between atoms: C17_48  and  O8_51 
ROOT
HETATM    1  C3  UNL     1      18.089  -3.207  14.787  1.00  0.00     0.682 A 
HETATM    2  N3  UNL     1      17.299  -4.260  14.644  1.00  0.00    -0.162 N 
ATOM      3  H3  UNL     1      17.396  -4.829  13.803  1.00  0.00     0.187 HD
HETATM    4  C4  UNL     1      16.351  -4.624  15.577  1.00  0.00     0.218 A 
HETATM    5  C13 UNL     1      16.209  -3.842  16.744  1.00  0.00     0.141 A 
HETATM    6  C14 UNL     1      17.043  -2.760  16.853  1.00  0.00     0.154 A 
HETATM    7  N9  UNL     1      16.719  -2.160  18.033  1.00  0.00    -0.336 N 
ATOM      8  H9  UNL     1      17.152  -1.321  18.419  1.00  0.00     0.168 HD
HETATM    9  C15 UNL     1      15.732  -2.870  18.595  1.00  0.00     0.187 A 
HETATM   10  N10 UNL     1      15.396  -3.928  17.806  1.00  0.00    -0.314 N 
HETATM   11  N11 UNL     1      17.948  -2.466  15.896  1.00  0.00    -0.174 N 
ATOM     12  H11 UNL     1      18.547  -1.650  16.021  1.00  0.00     0.186 HD
ENDROOT
BRANCH   4  13
HETATM   13  N4  UNL     1      15.607  -5.574  15.407  1.00  0.00    -0.415 NA
BRANCH  13  14
HETATM   14  C5  UNL     1      14.993  -6.704  15.044  1.00  0.00     0.247 C 
HETATM   15  C6  UNL     1      13.486  -6.616  15.358  1.00  0.00     0.191 C 
HETATM   16  C7  UNL     1      12.828  -7.946  15.157  1.00  0.00     0.199 C 
HETATM   17  C8  UNL     1      13.029  -8.265  13.666  1.00  0.00     0.257 C 
HETATM   18  O5  UNL     1      14.376  -8.321  13.445  1.00  0.00    -0.335 OA
HETATM   19  C10 UNL     1      15.029  -7.090  13.567  1.00  0.00     0.285 C 
BRANCH  15  20
HETATM   20  O2  UNL     1      12.944  -5.689  14.500  1.00  0.00    -0.390 OA
ATOM     21  H2  UNL     1      12.238  -6.117  14.030  1.00  0.00     0.210 HD
ENDBRANCH  15  20
BRANCH  16  22
HETATM   22  O3  UNL     1      11.474  -7.800  15.443  1.00  0.00    -0.388 OA
ATOM     23  H3  UNL     1      10.996  -8.438  14.925  1.00  0.00     0.210 HD
ENDBRANCH  16  22
BRANCH  17  24
HETATM   24  N5  UNL     1      12.458  -9.585  13.479  1.00  0.00    -0.340 N 
ATOM     25  H5  UNL     1      12.289 -10.203  14.272  1.00  0.00     0.164 HD
BRANCH  24  26
HETATM   26  C9  UNL     1      12.143  -9.988  12.153  1.00  0.00     0.350 C 
HETATM   27  O4  UNL     1      10.959  -9.857  11.751  1.00  0.00    -0.284 OA
ENDBRANCH  24  26
ENDBRANCH  17  24
BRANCH  19  28
HETATM   28  N6  UNL     1      16.380  -7.346  13.126  1.00  0.00    -0.255 N 
HETATM   29  C11 UNL     1      17.245  -8.123  13.769  1.00  0.00     0.133 A 
HETATM   30  C12 UNL     1      18.415  -8.106  13.030  1.00  0.00     0.127 A 
HETATM   31  N7  UNL     1      18.160  -7.308  11.984  1.00  0.00    -0.296 N 
HETATM   32  N8  UNL     1      16.929  -6.853  12.050  1.00  0.00    -0.239 N 
ATOM     33  H7  UNL     1      18.826  -7.086  11.245  1.00  0.00     0.187 HD
ATOM     34  H8  UNL     1      16.482  -6.228  11.379  1.00  0.00     0.208 HD
ENDBRANCH  19  28
ENDBRANCH  13  14
ENDBRANCH   4  13
BRANCH   1  35
HETATM   35  N2  UNL     1      18.975  -2.898  13.868  1.00  0.00    -0.212 N 
ATOM     36  H2  UNL     1      19.937  -2.786  14.187  1.00  0.00     0.178 HD
BRANCH  35  37
HETATM   37  C2  UNL     1      18.746  -2.705  12.491  1.00  0.00     0.210 C 
BRANCH  37  38
HETATM   38  C1  UNL     1      19.444  -1.428  12.018  1.00  0.00     0.344 C 
BRANCH  38  39
HETATM   39  N1  UNL     1      20.789  -1.754  11.626  1.00  0.00    -0.051 N 
ATOM     40  H13 UNL     1      21.426  -0.964  11.728  1.00  0.00     0.277 HD
ATOM     41  H12 UNL     1      21.243  -2.389  12.284  1.00  0.00     0.277 HD
ATOM     42  H11 UNL     1      20.777  -2.124  10.676  1.00  0.00     0.277 HD
ENDBRANCH  38  39
BRANCH  38  43
HETATM   43  O1  UNL     1      19.487  -0.478  13.036  1.00  0.00    -0.368 OA
ATOM     44  H1  UNL     1      18.705   0.059  12.991  1.00  0.00     0.212 HD
ENDBRANCH  38  43
ENDBRANCH  37  38
BRANCH  37  45
HETATM   45  C17 UNL     1      19.247  -3.836  11.601  1.00  0.00     0.281 C 
BRANCH  45  46
HETATM   46  O7  UNL     1      18.277  -4.404  10.821  1.00  0.00    -0.369 OA
ATOM     47  H7  UNL     1      18.468  -4.387   9.891  1.00  0.00     0.212 HD
ENDBRANCH  45  46
BRANCH  45  48
HETATM   48  O8  UNL     1      19.971  -4.773  12.316  1.00  0.00    -0.369 OA
ATOM     49  H8  UNL     1      19.483  -5.579  12.440  1.00  0.00     0.212 HD
ENDBRANCH  45  48
ENDBRANCH  37  45
ENDBRANCH  35  37
ENDBRANCH   1  35
BRANCH  10  50
HETATM   50  C16 UNL     1      14.400  -4.936  18.113  1.00  0.00     0.296 C 
BRANCH  50  51
HETATM   51  O6  UNL     1      13.399  -4.347  18.874  1.00  0.00    -0.382 OA
ATOM     52  H6  UNL     1      12.853  -5.035  19.236  1.00  0.00     0.211 HD
ENDBRANCH  50  51
ENDBRANCH  10  50
TORSDOF 17
ENDMDL
MODEL 3
REMARK VINA RESULT: -5.261088729      8.635     12.347
REMARK  17 active torsions:
REMARK  status: ('A' for Active; 'I' for Inactive)
REMARK    1  A    between atoms: N1_1  and  C1_5 
REMARK    2  A    between atoms: C1_5  and  O1_6 
REMARK    3  A    between atoms: C1_5  and  C2_8 
REMARK    4  A    between atoms: C2_8  and  N2_9 
REMARK    5  A    between atoms: C2_8  and  C17_48 
REMARK    6  A    between atoms: N2_9  and  C3_11 
REMARK    7  A    between atoms: C4_14  and  N4_15 
REMARK    8  A    between atoms: N4_15  and  C5_16 
REMARK    9  A    between atoms: C6_17  and  O2_18 
REMARK   10  A    between atoms: C7_20  and  O3_21 
REMARK   11  A    between atoms: C8_23  and  N5_24 
REMARK   12  A    between atoms: N5_24  and  C9_26 
REMARK   13  A    between atoms: C10_29  and  N6_30 
REMARK   14  A    between atoms: N10_42  and  C16_43 
REMARK   15  A    between atoms: C16_43  and  O6_44 
REMARK   16  A    between atoms: C17_48  and  O7_49 
REMARK   17  A    between atoms: C17_48  and  O8_51 
ROOT
HETATM    1  C3  UNL     1      13.440  -7.518  14.090  1.00  0.00     0.682 A 
HETATM    2  N3  UNL     1      12.545  -7.646  15.057  1.00  0.00    -0.162 N 
ATOM      3  H3  UNL     1      11.786  -8.315  14.932  1.00  0.00     0.187 HD
HETATM    4  C4  UNL     1      12.591  -6.916  16.227  1.00  0.00     0.218 A 
HETATM    5  C13 UNL     1      13.637  -5.986  16.410  1.00  0.00     0.141 A 
HETATM    6  C14 UNL     1      14.540  -5.883  15.384  1.00  0.00     0.154 A 
HETATM    7  N9  UNL     1      15.435  -4.931  15.772  1.00  0.00    -0.336 N 
ATOM      8  H9  UNL     1      16.240  -4.608  15.236  1.00  0.00     0.168 HD
HETATM    9  C15 UNL     1      15.068  -4.497  16.985  1.00  0.00     0.187 A 
HETATM   10  N10 UNL     1      13.946  -5.143  17.405  1.00  0.00    -0.314 N 
HETATM   11  N11 UNL     1      14.430  -6.631  14.266  1.00  0.00    -0.174 N 
ATOM     12  H11 UNL     1      15.126  -6.519  13.529  1.00  0.00     0.186 HD
ENDROOT
BRANCH   4  13
HETATM   13  N4  UNL     1      11.735  -7.020  17.089  1.00  0.00    -0.415 NA
BRANCH  13  14
HETATM   14  C5  UNL     1      10.639  -7.236  17.823  1.00  0.00     0.247 C 
HETATM   15  C6  UNL     1       9.459  -7.635  16.913  1.00  0.00     0.191 C 
HETATM   16  C7  UNL     1       8.182  -7.668  17.694  1.00  0.00     0.199 C 
HETATM   17  C8  UNL     1       8.401  -8.752  18.764  1.00  0.00     0.257 C 
HETATM   18  O5  UNL     1       9.459  -8.352  19.529  1.00  0.00    -0.335 OA
HETATM   19  C10 UNL     1      10.687  -8.356  18.860  1.00  0.00     0.285 C 
BRANCH  15  20
HETATM   20  O2  UNL     1       9.736  -8.883  16.409  1.00  0.00    -0.390 OA
ATOM     21  H2  UNL     1       9.574  -8.853  15.474  1.00  0.00     0.210 HD
ENDBRANCH  15  20
BRANCH  16  22
HETATM   22  O3  UNL     1       7.161  -8.044  16.826  1.00  0.00    -0.388 OA
ATOM     23  H3  UNL     1       6.466  -8.433  17.345  1.00  0.00     0.210 HD
ENDBRANCH  16  22
BRANCH  17  24
HETATM   24  N5  UNL     1       7.195  -8.740  19.570  1.00  0.00    -0.340 N 
ATOM     25  H5  UNL     1       6.997  -7.973  20.211  1.00  0.00     0.164 HD
BRANCH  24  26
HETATM   26  C9  UNL     1       6.300  -9.836  19.436  1.00  0.00     0.350 C 
HETATM   27  O4  UNL     1       5.422  -9.788  18.538  1.00  0.00    -0.284 OA
ENDBRANCH  24  26
ENDBRANCH  17  24
BRANCH  19  28
HETATM   28  N6  UNL     1      11.666  -8.080  19.884  1.00  0.00    -0.255 N 
HETATM   29  C11 UNL     1      11.377  -7.593  21.087  1.00  0.00     0.133 A 
HETATM   30  C12 UNL     1      12.578  -7.472  21.762  1.00  0.00     0.127 A 
HETATM   31  N7  UNL     1      13.512  -7.901  20.902  1.00  0.00    -0.296 N 
HETATM   32  N8  UNL     1      12.952  -8.266  19.770  1.00  0.00    -0.239 N 
ATOM     33  H7  UNL     1      14.512  -7.938  21.097  1.00  0.00     0.187 HD
ATOM     34  H8  UNL     1      13.437  -8.631  18.949  1.00  0.00     0.208 HD
ENDBRANCH  19  28
ENDBRANCH  13  14
ENDBRANCH   4  13
BRANCH   1  35
HETATM   35  N2  UNL     1      13.352  -8.233  12.992  1.00  0.00    -0.212 N 
ATOM     36  H2  UNL     1      13.135  -9.222  13.113  1.00  0.00     0.178 HD
BRANCH  35  37
HETATM   37  C2  UNL     1      13.524  -7.788  11.665  1.00  0.00     0.210 C 
BRANCH  37  38
HETATM   38  C1  UNL     1      14.879  -8.252  11.128  1.00  0.00     0.344 C 
BRANCH  38  39
HETATM   39  N1  UNL     1      15.822  -7.173  11.255  1.00  0.00    -0.051 N 
ATOM     40  H13 UNL     1      16.785  -7.504  11.319  1.00  0.00     0.277 HD
ATOM     41  H12 UNL     1      15.913  -6.633  10.395  1.00  0.00     0.277 HD
ATOM     42  H11 UNL     1      15.556  -6.594  12.052  1.00  0.00     0.277 HD
ENDBRANCH  38  39
BRANCH  38  43
HETATM   43  O1  UNL     1      14.784  -8.614   9.786  1.00  0.00    -0.368 OA
ATOM     44  H1  UNL     1      14.700  -7.828   9.260  1.00  0.00     0.212 HD
ENDBRANCH  38  43
ENDBRANCH  37  38
BRANCH  37  45
HETATM   45  C17 UNL     1      12.468  -8.289  10.688  1.00  0.00     0.281 C 
BRANCH  45  46
HETATM   46  O7  UNL     1      12.003  -7.332   9.828  1.00  0.00    -0.369 OA
ATOM     47  H7  UNL     1      11.074  -7.154   9.911  1.00  0.00     0.212 HD
ENDBRANCH  45  46
BRANCH  45  48
HETATM   48  O8  UNL     1      11.447  -8.965  11.333  1.00  0.00    -0.369 OA
ATOM     49  H8  UNL     1      10.976  -8.403  11.937  1.00  0.00     0.212 HD
ENDBRANCH  45  48
ENDBRANCH  37  45
ENDBRANCH  35  37
ENDBRANCH   1  35
BRANCH  10  50
HETATM   50  C16 UNL     1      13.287  -4.963  18.684  1.00  0.00     0.296 C 
BRANCH  50  51
HETATM   51  O6  UNL     1      14.184  -5.296  19.691  1.00  0.00    -0.382 OA
ATOM     52  H6  UNL     1      13.701  -5.707  20.399  1.00  0.00     0.211 HD
ENDBRANCH  50  51
ENDBRANCH  10  50
TORSDOF 17
ENDMDL
MODEL 4
REMARK VINA RESULT: -5.244447425      6.010     10.833
REMARK  17 active torsions:
REMARK  status: ('A' for Active; 'I' for Inactive)
REMARK    1  A    between atoms: N1_1  and  C1_5 
REMARK    2  A    between atoms: C1_5  and  O1_6 
REMARK    3  A    between atoms: C1_5  and  C2_8 
REMARK    4  A    between atoms: C2_8  and  N2_9 
REMARK    5  A    between atoms: C2_8  and  C17_48 
REMARK    6  A    between atoms: N2_9  and  C3_11 
REMARK    7  A    between atoms: C4_14  and  N4_15 
REMARK    8  A    between atoms: N4_15  and  C5_16 
REMARK    9  A    between atoms: C6_17  and  O2_18 
REMARK   10  A    between atoms: C7_20  and  O3_21 
REMARK   11  A    between atoms: C8_23  and  N5_24 
REMARK   12  A    between atoms: N5_24  and  C9_26 
REMARK   13  A    between atoms: C10_29  and  N6_30 
REMARK   14  A    between atoms: N10_42  and  C16_43 
REMARK   15  A    between atoms: C16_43  and  O6_44 
REMARK   16  A    between atoms: C17_48  and  O7_49 
REMARK   17  A    between atoms: C17_48  and  O8_51 
ROOT
HETATM    1  C3  UNL     1      13.894  -6.921  12.865  1.00  0.00     0.682 A 
HETATM    2  N3  UNL     1      15.204  -7.113  12.852  1.00  0.00    -0.162 N 
ATOM      3  H3  UNL     1      15.627  -7.523  12.020  1.00  0.00     0.187 HD
HETATM    4  C4  UNL     1      16.024  -6.786  13.912  1.00  0.00     0.218 A 
HETATM    5  C13 UNL     1      15.447  -6.219  15.070  1.00  0.00     0.141 A 
HETATM    6  C14 UNL     1      14.089  -6.039  15.043  1.00  0.00     0.154 A 
HETATM    7  N9  UNL     1      13.763  -5.500  16.251  1.00  0.00    -0.336 N 
ATOM      8  H9  UNL     1      12.826  -5.243  16.562  1.00  0.00     0.168 HD
HETATM    9  C15 UNL     1      14.893  -5.367  16.958  1.00  0.00     0.187 A 
HETATM   10  N10 UNL     1      15.961  -5.810  16.238  1.00  0.00    -0.314 N 
HETATM   11  N11 UNL     1      13.350  -6.384  13.967  1.00  0.00    -0.174 N 
ATOM     12  H11 UNL     1      12.343  -6.232  13.994  1.00  0.00     0.186 HD
ENDROOT
BRANCH   4  13
HETATM   13  N4  UNL     1      17.222  -7.007  13.896  1.00  0.00    -0.415 NA
BRANCH  13  14
HETATM   14  C5  UNL     1      18.482  -7.361  13.624  1.00  0.00     0.247 C 
HETATM   15  C6  UNL     1      18.623  -8.896  13.657  1.00  0.00     0.191 C 
HETATM   16  C7  UNL     1      20.064  -9.294  13.568  1.00  0.00     0.199 C 
HETATM   17  C8  UNL     1      20.539  -8.759  12.206  1.00  0.00     0.257 C 
HETATM   18  O5  UNL     1      20.382  -7.402  12.231  1.00  0.00    -0.335 OA
HETATM   19  C10 UNL     1      19.049  -6.978  12.259  1.00  0.00     0.285 C 
BRANCH  15  20
HETATM   20  O2  UNL     1      17.931  -9.393  12.578  1.00  0.00    -0.390 OA
ATOM     21  H2  UNL     1      17.008  -9.381  12.805  1.00  0.00     0.210 HD
ENDBRANCH  15  20
BRANCH  16  22
HETATM   22  O3  UNL     1      20.126 -10.684  13.590  1.00  0.00    -0.388 OA
ATOM     23  H3  UNL     1      19.416 -11.016  13.053  1.00  0.00     0.210 HD
ENDBRANCH  16  22
BRANCH  17  24
HETATM   24  N5  UNL     1      21.952  -9.076  12.144  1.00  0.00    -0.340 N 
ATOM     25  H5  UNL     1      22.277 -10.042  12.188  1.00  0.00     0.164 HD
BRANCH  24  26
HETATM   26  C9  UNL     1      22.868  -7.997  12.019  1.00  0.00     0.350 C 
HETATM   27  O4  UNL     1      23.454  -7.832  10.920  1.00  0.00    -0.284 OA
ENDBRANCH  24  26
ENDBRANCH  17  24
BRANCH  19  28
HETATM   28  N6  UNL     1      19.116  -5.545  12.103  1.00  0.00    -0.255 N 
HETATM   29  C11 UNL     1      19.990  -4.761  12.728  1.00  0.00     0.133 A 
HETATM   30  C12 UNL     1      19.726  -3.467  12.315  1.00  0.00     0.127 A 
HETATM   31  N7  UNL     1      18.698  -3.573  11.462  1.00  0.00    -0.296 N 
HETATM   32  N8  UNL     1      18.336  -4.830  11.339  1.00  0.00    -0.239 N 
ATOM     33  H7  UNL     1      18.260  -2.789  10.977  1.00  0.00     0.187 HD
ATOM     34  H8  UNL     1      17.581  -5.185  10.752  1.00  0.00     0.208 HD
ENDBRANCH  19  28
ENDBRANCH  13  14
ENDBRANCH   4  13
BRANCH   1  35
HETATM   35  N2  UNL     1      13.154  -7.252  11.831  1.00  0.00    -0.212 N 
ATOM     36  H2  UNL     1      12.644  -6.494  11.379  1.00  0.00     0.178 HD
BRANCH  35  37
HETATM   37  C2  UNL     1      12.986  -8.538  11.278  1.00  0.00     0.210 C 
BRANCH  37  38
HETATM   38  C1  UNL     1      11.878  -8.513  10.223  1.00  0.00     0.344 C 
BRANCH  38  39
HETATM   39  N1  UNL     1      12.127  -9.557   9.265  1.00  0.00    -0.051 N 
ATOM     40  H13 UNL     1      12.018  -9.236   8.303  1.00  0.00     0.277 HD
ATOM     41  H12 UNL     1      13.113  -9.815   9.218  1.00  0.00     0.277 HD
ATOM     42  H11 UNL     1      11.528 -10.354   9.480  1.00  0.00     0.277 HD
ENDBRANCH  38  39
BRANCH  38  43
HETATM   43  O1  UNL     1      11.849  -7.288   9.560  1.00  0.00    -0.368 OA
ATOM     44  H1  UNL     1      11.746  -7.444   8.628  1.00  0.00     0.212 HD
ENDBRANCH  38  43
ENDBRANCH  37  38
BRANCH  37  45
HETATM   45  C17 UNL     1      14.228  -9.100  10.598  1.00  0.00     0.281 C 
BRANCH  45  46
HETATM   46  O7  UNL     1      15.097  -9.726  11.450  1.00  0.00    -0.369 OA
ATOM     47  H7  UNL     1      15.258  -9.251  12.257  1.00  0.00     0.212 HD
ENDBRANCH  45  46
BRANCH  45  48
HETATM   48  O8  UNL     1      14.852  -8.157   9.800  1.00  0.00    -0.369 OA
ATOM     49  H8  UNL     1      15.747  -7.995  10.076  1.00  0.00     0.212 HD
ENDBRANCH  45  48
ENDBRANCH  37  45
ENDBRANCH  35  37
ENDBRANCH   1  35
BRANCH  10  50
HETATM   50  C16 UNL     1      17.346  -5.781  16.665  1.00  0.00     0.296 C 
BRANCH  50  51
HETATM   51  O6  UNL     1      17.997  -4.766  15.975  1.00  0.00    -0.382 OA
ATOM     52  H6  UNL     1      18.492  -5.156  15.264  1.00  0.00     0.211 HD
ENDBRANCH  50  51
ENDBRANCH  10  50
TORSDOF 17
ENDMDL
MODEL 5
REMARK VINA RESULT: -5.224463145      2.610      7.562
REMARK  17 active torsions:
REMARK  status: ('A' for Active; 'I' for Inactive)
REMARK    1  A    between atoms: N1_1  and  C1_5 
REMARK    2  A    between atoms: C1_5  and  O1_6 
REMARK    3  A    between atoms: C1_5  and  C2_8 
REMARK    4  A    between atoms: C2_8  and  N2_9 
REMARK    5  A    between atoms: C2_8  and  C17_48 
REMARK    6  A    between atoms: N2_9  and  C3_11 
REMARK    7  A    between atoms: C4_14  and  N4_15 
REMARK    8  A    between atoms: N4_15  and  C5_16 
REMARK    9  A    between atoms: C6_17  and  O2_18 
REMARK   10  A    between atoms: C7_20  and  O3_21 
REMARK   11  A    between atoms: C8_23  and  N5_24 
REMARK   12  A    between atoms: N5_24  and  C9_26 
REMARK   13  A    between atoms: C10_29  and  N6_30 
REMARK   14  A    between atoms: N10_42  and  C16_43 
REMARK   15  A    between atoms: C16_43  and  O6_44 
REMARK   16  A    between atoms: C17_48  and  O7_49 
REMARK   17  A    between atoms: C17_48  and  O8_51 
ROOT
HETATM    1  C3  UNL     1      17.378  -1.864  15.678  1.00  0.00     0.682 A 
HETATM    2  N3  UNL     1      18.196  -1.911  14.638  1.00  0.00    -0.162 N 
ATOM      3  H3  UNL     1      18.148  -2.718  14.017  1.00  0.00     0.187 HD
HETATM    4  C4  UNL     1      19.113  -0.919  14.355  1.00  0.00     0.218 A 
HETATM    5  C13 UNL     1      19.188   0.202  15.209  1.00  0.00     0.141 A 
HETATM    6  C14 UNL     1      18.326   0.211  16.274  1.00  0.00     0.154 A 
HETATM    7  N9  UNL     1      18.586   1.364  16.953  1.00  0.00    -0.336 N 
ATOM      8  H9  UNL     1      18.119   1.680  17.803  1.00  0.00     0.168 HD
HETATM    9  C15 UNL     1      19.564   2.008  16.303  1.00  0.00     0.187 A 
HETATM   10  N10 UNL     1      19.957   1.300  15.208  1.00  0.00    -0.314 N 
HETATM   11  N11 UNL     1      17.455  -0.799  16.488  1.00  0.00    -0.174 N 
ATOM     12  H11 UNL     1      16.833  -0.748  17.295  1.00  0.00     0.186 HD
ENDROOT
BRANCH   4  13
HETATM   13  N4  UNL     1      19.884  -1.000  13.415  1.00  0.00    -0.415 NA
BRANCH  13  14
HETATM   14  C5  UNL     1      20.576  -1.314  12.316  1.00  0.00     0.247 C 
HETATM   15  C6  UNL     1      21.871  -0.481  12.245  1.00  0.00     0.191 C 
HETATM   16  C7  UNL     1      22.543  -0.666  10.920  1.00  0.00     0.199 C 
HETATM   17  C8  UNL     1      22.887  -2.163  10.856  1.00  0.00     0.257 C 
HETATM   18  O5  UNL     1      21.708  -2.849  10.933  1.00  0.00    -0.335 OA
HETATM   19  C10 UNL     1      21.067  -2.753  12.172  1.00  0.00     0.285 C 
BRANCH  15  20
HETATM   20  O2  UNL     1      22.694  -0.919  13.255  1.00  0.00    -0.390 OA
ATOM     21  H2  UNL     1      22.608  -0.305  13.976  1.00  0.00     0.210 HD
ENDBRANCH  15  20
BRANCH  16  22
HETATM   22  O3  UNL     1      23.707   0.099  10.921  1.00  0.00    -0.388 OA
ATOM     23  H3  UNL     1      23.974   0.224  10.017  1.00  0.00     0.210 HD
ENDBRANCH  16  22
BRANCH  17  24
HETATM   24  N5  UNL     1      23.473  -2.364   9.545  1.00  0.00    -0.340 N 
ATOM     25  H5  UNL     1      23.006  -2.032   8.702  1.00  0.00     0.164 HD
BRANCH  24  26
HETATM   26  C9  UNL     1      24.722  -3.040   9.475  1.00  0.00     0.350 C 
HETATM   27  O4  UNL     1      24.722  -4.282   9.288  1.00  0.00    -0.284 OA
ENDBRANCH  24  26
ENDBRANCH  17  24
BRANCH  19  28
HETATM   28  N6  UNL     1      19.962  -3.678  12.088  1.00  0.00    -0.255 N 
HETATM   29  C11 UNL     1      19.848  -4.782  12.819  1.00  0.00     0.133 A 
HETATM   30  C12 UNL     1      18.663  -5.386  12.442  1.00  0.00     0.127 A 
HETATM   31  N7  UNL     1      18.146  -4.588  11.497  1.00  0.00    -0.296 N 
HETATM   32  N8  UNL     1      18.937  -3.558  11.290  1.00  0.00    -0.239 N 
ATOM     33  H7  UNL     1      17.266  -4.755  11.010  1.00  0.00     0.187 HD
ATOM     34  H8  UNL     1      18.777  -2.802  10.624  1.00  0.00     0.208 HD
ENDBRANCH  19  28
ENDBRANCH  13  14
ENDBRANCH   4  13
BRANCH   1  35
HETATM   35  N2  UNL     1      16.525  -2.836  15.908  1.00  0.00    -0.212 N 
ATOM     36  H2  UNL     1      15.743  -2.914  15.258  1.00  0.00     0.178 HD
BRANCH  35  37
HETATM   37  C2  UNL     1      16.568  -3.782  16.952  1.00  0.00     0.210 C 
BRANCH  37  38
HETATM   38  C1  UNL     1      15.631  -3.355  18.085  1.00  0.00     0.344 C 
BRANCH  38  39
HETATM   39  N1  UNL     1      14.345  -3.034  17.526  1.00  0.00    -0.051 N 
ATOM     40  H13 UNL     1      14.300  -3.218  16.524  1.00  0.00     0.277 HD
ATOM     41  H12 UNL     1      13.618  -3.684  17.824  1.00  0.00     0.277 HD
ATOM     42  H11 UNL     1      14.117  -2.066  17.754  1.00  0.00     0.277 HD
ENDBRANCH  38  39
BRANCH  38  43
HETATM   43  O1  UNL     1      16.129  -2.234  18.746  1.00  0.00    -0.368 OA
ATOM     44  H1  UNL     1      15.892  -2.287  19.665  1.00  0.00     0.212 HD
ENDBRANCH  38  43
ENDBRANCH  37  38
BRANCH  37  45
HETATM   45  C17 UNL     1      16.154  -5.191  16.547  1.00  0.00     0.281 C 
BRANCH  45  46
HETATM   46  O7  UNL     1      15.312  -5.237  15.469  1.00  0.00    -0.369 OA
ATOM     47  H7  UNL     1      15.750  -5.144  14.631  1.00  0.00     0.212 HD
ENDBRANCH  45  46
BRANCH  45  48
HETATM   48  O8  UNL     1      15.680  -5.920  17.623  1.00  0.00    -0.369 OA
ATOM     49  H8  UNL     1      14.731  -5.902  17.673  1.00  0.00     0.212 HD
ENDBRANCH  45  48
ENDBRANCH  37  45
ENDBRANCH  35  37
ENDBRANCH   1  35
BRANCH  10  50
HETATM   50  C16 UNL     1      20.962   1.708  14.246  1.00  0.00     0.296 C 
BRANCH  50  51
HETATM   51  O6  UNL     1      20.322   2.318  13.175  1.00  0.00    -0.382 OA
ATOM     52  H6  UNL     1      19.429   2.517  13.432  1.00  0.00     0.211 HD
ENDBRANCH  50  51
ENDBRANCH  10  50
TORSDOF 17
ENDMDL
