MODEL 1
REMARK VINA RESULT: -5.399954979      0.000      0.000
REMARK  11 active torsions:
REMARK  status: ('A' for Active; 'I' for Inactive)
REMARK    1  A    between atoms: C2_2  and  C3_3 
REMARK    2  A    between atoms: C2_2  and  N2_8 
REMARK    3  A    between atoms: C3_3  and  N1_4 
REMARK    4  A    between atoms: N2_8  and  C4_10 
REMARK    5  A    between atoms: C7_17  and  N5_18 
REMARK    6  A    between atoms: N5_18  and  C8_20 
REMARK    7  A    between atoms: C8_20  and  N6_21 
REMARK    8  A    between atoms: C8_20  and  C9_25 
REMARK    9  A    between atoms: C9_25  and  C10_26 
REMARK   10  A    between atoms: C10_26  and  C11_27 
REMARK   11  A    between atoms: C11_27  and  N7_28 
ROOT
HETATM    1  C4  UNL     1     -81.890 -46.257 110.197  1.00  0.00     0.146 A 
HETATM    2  N3  UNL     1     -81.702 -45.790 111.439  1.00  0.00    -0.348 N 
ATOM      3  H3  UNL     1     -81.126 -44.959 111.570  1.00  0.00     0.167 HD
HETATM    4  C5  UNL     1     -82.250 -46.384 112.526  1.00  0.00     0.107 A 
HETATM    5  C6  UNL     1     -83.030 -47.508 112.363  1.00  0.00     0.107 A 
HETATM    6  N4  UNL     1     -83.213 -47.970 111.103  1.00  0.00    -0.348 N 
ATOM      7  H4  UNL     1     -83.788 -48.801 110.966  1.00  0.00     0.167 HD
HETATM    8  C7  UNL     1     -82.672 -47.383 110.030  1.00  0.00     0.147 A 
ENDROOT
BRANCH   8   9
HETATM    9  N5  UNL     1     -82.853 -47.832 108.832  1.00  0.00    -0.346 N 
ATOM     10  H5  UNL     1     -82.053 -47.849 108.200  1.00  0.00     0.163 HD
BRANCH   9  11
HETATM   11  C8  UNL     1     -84.112 -48.308 108.341  1.00  0.00     0.283 C 
BRANCH  11  12
HETATM   12  N6  UNL     1     -84.244 -48.232 106.907  1.00  0.00    -0.058 N 
ATOM     13  H63 UNL     1     -85.225 -48.296 106.633  1.00  0.00     0.276 HD
ATOM     14  H62 UNL     1     -84.035 -47.290 106.577  1.00  0.00     0.276 HD
ATOM     15  H61 UNL     1     -83.685 -48.922 106.404  1.00  0.00     0.276 HD
ENDBRANCH  11  12
BRANCH  11  16
HETATM   16  C9  UNL     1     -85.217 -47.474 108.945  1.00  0.00     0.056 C 
BRANCH  16  17
HETATM   17  C10 UNL     1     -86.380 -48.347 109.402  1.00  0.00     0.031 C 
BRANCH  17  18
HETATM   18  C11 UNL     1     -86.472 -48.416 110.897  1.00  0.00     0.230 C 
BRANCH  18  19
HETATM   19  N7  UNL     1     -87.824 -48.064 111.274  1.00  0.00    -0.079 N 
ATOM     20  H73 UNL     1     -88.188 -47.271 110.747  1.00  0.00     0.274 HD
ATOM     21  H72 UNL     1     -88.511 -48.754 110.972  1.00  0.00     0.274 HD
ATOM     22  H71 UNL     1     -87.837 -47.908 112.282  1.00  0.00     0.274 HD
ENDBRANCH  18  19
ENDBRANCH  17  18
ENDBRANCH  16  17
ENDBRANCH  11  16
ENDBRANCH   9  11
ENDBRANCH   8   9
BRANCH   1  23
HETATM   23  N2  UNL     1     -81.377 -45.704 109.153  1.00  0.00    -0.367 N 
ATOM     24  H2  UNL     1     -81.740 -45.995 108.246  1.00  0.00     0.161 HD
BRANCH  23  25
HETATM   25  C2  UNL     1     -80.348 -44.722 109.154  1.00  0.00     0.104 C 
HETATM   26  C1  UNL     1     -80.819 -43.329 108.839  1.00  0.00     0.034 C 
BRANCH  25  27
HETATM   27  C3  UNL     1     -79.366 -45.109 108.039  1.00  0.00     0.254 C 
BRANCH  27  28
HETATM   28  N1  UNL     1     -78.012 -44.744 108.393  1.00  0.00    -0.077 N 
ATOM     29  H13 UNL     1     -77.990 -43.924 108.999  1.00  0.00     0.274 HD
ATOM     30  H12 UNL     1     -77.595 -45.420 109.032  1.00  0.00     0.274 HD
ATOM     31  H11 UNL     1     -77.441 -44.612 107.558  1.00  0.00     0.274 HD
ENDBRANCH  27  28
ENDBRANCH  25  27
ENDBRANCH  23  25
ENDBRANCH   1  23
TORSDOF 11
ENDMDL
MODEL 2
REMARK VINA RESULT: -5.309400316      1.544      6.007
REMARK  11 active torsions:
REMARK  status: ('A' for Active; 'I' for Inactive)
REMARK    1  A    between atoms: C2_2  and  C3_3 
REMARK    2  A    between atoms: C2_2  and  N2_8 
REMARK    3  A    between atoms: C3_3  and  N1_4 
REMARK    4  A    between atoms: N2_8  and  C4_10 
REMARK    5  A    between atoms: C7_17  and  N5_18 
REMARK    6  A    between atoms: N5_18  and  C8_20 
REMARK    7  A    between atoms: C8_20  and  N6_21 
REMARK    8  A    between atoms: C8_20  and  C9_25 
REMARK    9  A    between atoms: C9_25  and  C10_26 
REMARK   10  A    between atoms: C10_26  and  C11_27 
REMARK   11  A    between atoms: C11_27  and  N7_28 
ROOT
HETATM    1  C4  UNL     1     -84.122 -47.406 110.643  1.00  0.00     0.146 A 
HETATM    2  N3  UNL     1     -85.342 -47.955 110.576  1.00  0.00    -0.348 N 
ATOM      3  H3  UNL     1     -85.849 -48.134 111.443  1.00  0.00     0.167 HD
HETATM    4  C5  UNL     1     -85.927 -48.280 109.398  1.00  0.00     0.107 A 
HETATM    5  C6  UNL     1     -85.253 -48.043 108.219  1.00  0.00     0.107 A 
HETATM    6  N4  UNL     1     -84.020 -47.487 108.300  1.00  0.00    -0.348 N 
ATOM      7  H4  UNL     1     -83.509 -47.306 107.436  1.00  0.00     0.167 HD
HETATM    8  C7  UNL     1     -83.444 -47.167 109.463  1.00  0.00     0.147 A 
ENDROOT
BRANCH   8   9
HETATM    9  N5  UNL     1     -82.267 -46.638 109.529  1.00  0.00    -0.346 N 
ATOM     10  H5  UNL     1     -81.472 -47.196 109.217  1.00  0.00     0.163 HD
BRANCH   9  11
HETATM   11  C8  UNL     1     -82.014 -45.313 110.013  1.00  0.00     0.283 C 
BRANCH  11  12
HETATM   12  N6  UNL     1     -82.718 -44.284 109.290  1.00  0.00    -0.058 N 
ATOM     13  H63 UNL     1     -82.930 -44.593 108.341  1.00  0.00     0.276 HD
ATOM     14  H62 UNL     1     -83.666 -44.176 109.650  1.00  0.00     0.276 HD
ATOM     15  H61 UNL     1     -82.235 -43.386 109.276  1.00  0.00     0.276 HD
ENDBRANCH  11  12
BRANCH  11  16
HETATM   16  C9  UNL     1     -80.536 -45.025 109.892  1.00  0.00     0.056 C 
BRANCH  16  17
HETATM   17  C10 UNL     1     -80.278 -43.856 108.948  1.00  0.00     0.031 C 
BRANCH  17  18
HETATM   18  C11 UNL     1     -79.026 -44.053 108.146  1.00  0.00     0.230 C 
BRANCH  18  19
HETATM   19  N7  UNL     1     -77.900 -43.730 108.994  1.00  0.00    -0.079 N 
ATOM     20  H73 UNL     1     -78.144 -43.085 109.746  1.00  0.00     0.274 HD
ATOM     21  H72 UNL     1     -77.606 -44.513 109.577  1.00  0.00     0.274 HD
ATOM     22  H71 UNL     1     -77.151 -43.377 108.398  1.00  0.00     0.274 HD
ENDBRANCH  18  19
ENDBRANCH  17  18
ENDBRANCH  16  17
ENDBRANCH  11  16
ENDBRANCH   9  11
ENDBRANCH   8   9
BRANCH   1  23
HETATM   23  N2  UNL     1     -83.553 -47.091 111.754  1.00  0.00    -0.367 N 
ATOM     24  H2  UNL     1     -83.611 -46.116 112.047  1.00  0.00     0.161 HD
BRANCH  23  25
HETATM   25  C2  UNL     1     -82.850 -47.984 112.610  1.00  0.00     0.104 C 
HETATM   26  C1  UNL     1     -81.856 -48.866 111.905  1.00  0.00     0.034 C 
BRANCH  25  27
HETATM   27  C3  UNL     1     -83.898 -48.921 113.227  1.00  0.00     0.254 C 
BRANCH  27  28
HETATM   28  N1  UNL     1     -83.281 -49.850 114.148  1.00  0.00    -0.077 N 
ATOM     29  H13 UNL     1     -82.333 -50.092 113.860  1.00  0.00     0.274 HD
ATOM     30  H12 UNL     1     -83.064 -49.407 115.040  1.00  0.00     0.274 HD
ATOM     31  H11 UNL     1     -83.861 -50.680 114.271  1.00  0.00     0.274 HD
ENDBRANCH  27  28
ENDBRANCH  25  27
ENDBRANCH  23  25
ENDBRANCH   1  23
TORSDOF 11
ENDMDL
MODEL 3
REMARK VINA RESULT: -5.132860085      1.432      5.765
REMARK  11 active torsions:
REMARK  status: ('A' for Active; 'I' for Inactive)
REMARK    1  A    between atoms: C2_2  and  C3_3 
REMARK    2  A    between atoms: C2_2  and  N2_8 
REMARK    3  A    between atoms: C3_3  and  N1_4 
REMARK    4  A    between atoms: N2_8  and  C4_10 
REMARK    5  A    between atoms: C7_17  and  N5_18 
REMARK    6  A    between atoms: N5_18  and  C8_20 
REMARK    7  A    between atoms: C8_20  and  N6_21 
REMARK    8  A    between atoms: C8_20  and  C9_25 
REMARK    9  A    between atoms: C9_25  and  C10_26 
REMARK   10  A    between atoms: C10_26  and  C11_27 
REMARK   11  A    between atoms: C11_27  and  N7_28 
ROOT
HETATM    1  C4  UNL     1     -84.315 -47.599 111.257  1.00  0.00     0.146 A 
HETATM    2  N3  UNL     1     -84.693 -48.367 112.288  1.00  0.00    -0.348 N 
ATOM      3  H3  UNL     1     -85.689 -48.502 112.462  1.00  0.00     0.167 HD
HETATM    4  C5  UNL     1     -83.799 -48.971 113.108  1.00  0.00     0.107 A 
HETATM    5  C6  UNL     1     -82.450 -48.797 112.885  1.00  0.00     0.107 A 
HETATM    6  N4  UNL     1     -82.080 -48.019 111.840  1.00  0.00    -0.348 N 
ATOM      7  H4  UNL     1     -81.086 -47.881 111.662  1.00  0.00     0.167 HD
HETATM    8  C7  UNL     1     -82.963 -47.423 111.031  1.00  0.00     0.147 A 
ENDROOT
BRANCH   8   9
HETATM    9  N5  UNL     1     -82.600 -46.682 110.037  1.00  0.00    -0.346 N 
ATOM     10  H5  UNL     1     -82.661 -47.074 109.098  1.00  0.00     0.163 HD
BRANCH   9  11
HETATM   11  C8  UNL     1     -82.115 -45.341 110.179  1.00  0.00     0.283 C 
BRANCH  11  12
HETATM   12  N6  UNL     1     -82.823 -44.378 109.372  1.00  0.00    -0.058 N 
ATOM     13  H63 UNL     1     -83.752 -44.725 109.131  1.00  0.00     0.276 HD
ATOM     14  H62 UNL     1     -83.083 -43.564 109.929  1.00  0.00     0.276 HD
ATOM     15  H61 UNL     1     -82.318 -44.092 108.533  1.00  0.00     0.276 HD
ENDBRANCH  11  12
BRANCH  11  16
HETATM   16  C9  UNL     1     -80.663 -45.302 109.765  1.00  0.00     0.056 C 
BRANCH  16  17
HETATM   17  C10 UNL     1     -80.337 -44.014 109.017  1.00  0.00     0.031 C 
BRANCH  17  18
HETATM   18  C11 UNL     1     -79.101 -44.152 108.179  1.00  0.00     0.230 C 
BRANCH  18  19
HETATM   19  N7  UNL     1     -77.968 -43.775 108.996  1.00  0.00    -0.079 N 
ATOM     20  H73 UNL     1     -77.662 -42.816 108.830  1.00  0.00     0.274 HD
ATOM     21  H72 UNL     1     -78.207 -43.672 109.982  1.00  0.00     0.274 HD
ATOM     22  H71 UNL     1     -77.228 -44.459 108.837  1.00  0.00     0.274 HD
ENDBRANCH  18  19
ENDBRANCH  17  18
ENDBRANCH  16  17
ENDBRANCH  11  16
ENDBRANCH   9  11
ENDBRANCH   8   9
BRANCH   1  23
HETATM   23  N2  UNL     1     -85.151 -47.019 110.470  1.00  0.00    -0.367 N 
ATOM     24  H2  UNL     1     -85.086 -46.004 110.387  1.00  0.00     0.161 HD
BRANCH  23  25
HETATM   25  C2  UNL     1     -86.158 -47.668 109.704  1.00  0.00     0.104 C 
HETATM   26  C1  UNL     1     -87.008 -48.631 110.486  1.00  0.00     0.034 C 
BRANCH  25  27
HETATM   27  C3  UNL     1     -85.434 -48.499 108.635  1.00  0.00     0.254 C 
BRANCH  27  28
HETATM   28  N1  UNL     1     -84.876 -47.647 107.608  1.00  0.00    -0.077 N 
ATOM     29  H13 UNL     1     -84.559 -46.755 107.990  1.00  0.00     0.274 HD
ATOM     30  H12 UNL     1     -83.980 -47.999 107.273  1.00  0.00     0.274 HD
ATOM     31  H11 UNL     1     -85.539 -47.515 106.844  1.00  0.00     0.274 HD
ENDBRANCH  27  28
ENDBRANCH  25  27
ENDBRANCH  23  25
ENDBRANCH   1  23
TORSDOF 11
ENDMDL
MODEL 4
REMARK VINA RESULT: -5.044445069      1.545      6.046
REMARK  11 active torsions:
REMARK  status: ('A' for Active; 'I' for Inactive)
REMARK    1  A    between atoms: C2_2  and  C3_3 
REMARK    2  A    between atoms: C2_2  and  N2_8 
REMARK    3  A    between atoms: C3_3  and  N1_4 
REMARK    4  A    between atoms: N2_8  and  C4_10 
REMARK    5  A    between atoms: C7_17  and  N5_18 
REMARK    6  A    between atoms: N5_18  and  C8_20 
REMARK    7  A    between atoms: C8_20  and  N6_21 
REMARK    8  A    between atoms: C8_20  and  C9_25 
REMARK    9  A    between atoms: C9_25  and  C10_26 
REMARK   10  A    between atoms: C10_26  and  C11_27 
REMARK   11  A    between atoms: C11_27  and  N7_28 
ROOT
HETATM    1  C4  UNL     1     -84.239 -47.928 111.437  1.00  0.00     0.146 A 
HETATM    2  N3  UNL     1     -84.582 -48.644 112.517  1.00  0.00    -0.348 N 
ATOM      3  H3  UNL     1     -85.572 -48.802 112.708  1.00  0.00     0.167 HD
HETATM    4  C5  UNL     1     -83.662 -49.167 113.362  1.00  0.00     0.107 A 
HETATM    5  C6  UNL     1     -82.321 -48.962 113.115  1.00  0.00     0.107 A 
HETATM    6  N4  UNL     1     -81.987 -48.237 112.021  1.00  0.00    -0.348 N 
ATOM      7  H4  UNL     1     -80.999 -48.077 111.826  1.00  0.00     0.167 HD
HETATM    8  C7  UNL     1     -82.896 -47.722 111.187  1.00  0.00     0.147 A 
ENDROOT
BRANCH   8   9
HETATM    9  N5  UNL     1     -82.566 -47.031 110.147  1.00  0.00    -0.346 N 
ATOM     10  H5  UNL     1     -82.631 -47.478 109.232  1.00  0.00     0.163 HD
BRANCH   9  11
HETATM   11  C8  UNL     1     -82.113 -45.672 110.203  1.00  0.00     0.283 C 
BRANCH  11  12
HETATM   12  N6  UNL     1     -82.874 -44.770 109.375  1.00  0.00    -0.058 N 
ATOM     13  H63 UNL     1     -83.874 -44.938 109.486  1.00  0.00     0.276 HD
ATOM     14  H62 UNL     1     -82.819 -43.818 109.736  1.00  0.00     0.276 HD
ATOM     15  H61 UNL     1     -82.613 -44.796 108.389  1.00  0.00     0.276 HD
ENDBRANCH  11  12
BRANCH  11  16
HETATM   16  C9  UNL     1     -80.677 -45.618 109.734  1.00  0.00     0.056 C 
BRANCH  16  17
HETATM   17  C10 UNL     1     -80.312 -44.224 109.239  1.00  0.00     0.031 C 
BRANCH  17  18
HETATM   18  C11 UNL     1     -79.168 -44.258 108.270  1.00  0.00     0.230 C 
BRANCH  18  19
HETATM   19  N7  UNL     1     -77.999 -43.737 108.945  1.00  0.00    -0.079 N 
ATOM     20  H73 UNL     1     -77.712 -42.825 108.590  1.00  0.00     0.274 HD
ATOM     21  H72 UNL     1     -78.191 -43.454 109.906  1.00  0.00     0.274 HD
ATOM     22  H71 UNL     1     -77.261 -44.437 108.878  1.00  0.00     0.274 HD
ENDBRANCH  18  19
ENDBRANCH  17  18
ENDBRANCH  16  17
ENDBRANCH  11  16
ENDBRANCH   9  11
ENDBRANCH   8   9
BRANCH   1  23
HETATM   23  N2  UNL     1     -85.101 -47.425 110.624  1.00  0.00    -0.367 N 
ATOM     24  H2  UNL     1     -85.176 -46.409 110.596  1.00  0.00     0.161 HD
BRANCH  23  25
HETATM   25  C2  UNL     1     -85.957 -48.162 109.761  1.00  0.00     0.104 C 
HETATM   26  C1  UNL     1     -85.691 -47.953 108.296  1.00  0.00     0.034 C 
BRANCH  25  27
HETATM   27  C3  UNL     1     -87.384 -47.658 110.018  1.00  0.00     0.254 C 
BRANCH  27  28
HETATM   28  N1  UNL     1     -87.855 -48.079 111.319  1.00  0.00    -0.077 N 
ATOM     29  H13 UNL     1     -88.311 -47.316 111.820  1.00  0.00     0.274 HD
ATOM     30  H12 UNL     1     -88.651 -48.712 111.244  1.00  0.00     0.274 HD
ATOM     31  H11 UNL     1     -87.097 -48.489 111.865  1.00  0.00     0.274 HD
ENDBRANCH  27  28
ENDBRANCH  25  27
ENDBRANCH  23  25
ENDBRANCH   1  23
TORSDOF 11
ENDMDL
MODEL 5
REMARK VINA RESULT: -5.014292810      1.965      6.460
REMARK  11 active torsions:
REMARK  status: ('A' for Active; 'I' for Inactive)
REMARK    1  A    between atoms: C2_2  and  C3_3 
REMARK    2  A    between atoms: C2_2  and  N2_8 
REMARK    3  A    between atoms: C3_3  and  N1_4 
REMARK    4  A    between atoms: N2_8  and  C4_10 
REMARK    5  A    between atoms: C7_17  and  N5_18 
REMARK    6  A    between atoms: N5_18  and  C8_20 
REMARK    7  A    between atoms: C8_20  and  N6_21 
REMARK    8  A    between atoms: C8_20  and  C9_25 
REMARK    9  A    between atoms: C9_25  and  C10_26 
REMARK   10  A    between atoms: C10_26  and  C11_27 
REMARK   11  A    between atoms: C11_27  and  N7_28 
ROOT
HETATM    1  C4  UNL     1     -85.667 -47.950 109.684  1.00  0.00     0.146 A 
HETATM    2  N3  UNL     1     -86.144 -48.025 108.434  1.00  0.00    -0.348 N 
ATOM      3  H3  UNL     1     -87.154 -48.033 108.292  1.00  0.00     0.167 HD
HETATM    4  C5  UNL     1     -85.331 -48.090 107.351  1.00  0.00     0.107 A 
HETATM    5  C6  UNL     1     -83.964 -48.079 107.528  1.00  0.00     0.107 A 
HETATM    6  N4  UNL     1     -83.495 -48.003 108.796  1.00  0.00    -0.348 N 
ATOM      7  H4  UNL     1     -82.485 -47.994 108.943  1.00  0.00     0.167 HD
HETATM    8  C7  UNL     1     -84.297 -47.938 109.864  1.00  0.00     0.147 A 
ENDROOT
BRANCH   8   9
HETATM    9  N5  UNL     1     -83.838 -47.866 111.070  1.00  0.00    -0.346 N 
ATOM     10  H5  UNL     1     -84.507 -47.878 111.840  1.00  0.00     0.163 HD
BRANCH   9  11
HETATM   11  C8  UNL     1     -82.444 -47.770 111.387  1.00  0.00     0.283 C 
BRANCH  11  12
HETATM   12  N6  UNL     1     -82.007 -48.718 112.382  1.00  0.00    -0.058 N 
ATOM     13  H63 UNL     1     -82.783 -49.309 112.681  1.00  0.00     0.276 HD
ATOM     14  H62 UNL     1     -81.404 -49.426 111.964  1.00  0.00     0.276 HD
ATOM     15  H61 UNL     1     -81.552 -48.289 113.189  1.00  0.00     0.276 HD
ENDBRANCH  11  12
BRANCH  11  16
HETATM   16  C9  UNL     1     -82.161 -46.386 111.922  1.00  0.00     0.056 C 
BRANCH  16  17
HETATM   17  C10 UNL     1     -81.539 -45.498 110.850  1.00  0.00     0.031 C 
BRANCH  17  18
HETATM   18  C11 UNL     1     -82.511 -44.476 110.340  1.00  0.00     0.230 C 
BRANCH  18  19
HETATM   19  N7  UNL     1     -81.984 -43.941 109.104  1.00  0.00    -0.079 N 
ATOM     20  H73 UNL     1     -82.690 -43.867 108.371  1.00  0.00     0.274 HD
ATOM     21  H72 UNL     1     -81.752 -42.950 109.168  1.00  0.00     0.274 HD
ATOM     22  H71 UNL     1     -81.188 -44.517 108.828  1.00  0.00     0.274 HD
ENDBRANCH  18  19
ENDBRANCH  17  18
ENDBRANCH  16  17
ENDBRANCH  11  16
ENDBRANCH   9  11
ENDBRANCH   8   9
BRANCH   1  23
HETATM   23  N2  UNL     1     -86.425 -47.887 110.722  1.00  0.00    -0.367 N 
ATOM     24  H2  UNL     1     -86.133 -47.263 111.475  1.00  0.00     0.161 HD
BRANCH  23  25
HETATM   25  C2  UNL     1     -87.634 -48.610 110.913  1.00  0.00     0.104 C 
HETATM   26  C1  UNL     1     -88.555 -48.018 111.944  1.00  0.00     0.034 C 
BRANCH  25  27
HETATM   27  C3  UNL     1     -87.240 -50.000 111.433  1.00  0.00     0.254 C 
BRANCH  27  28
HETATM   28  N1  UNL     1     -87.836 -51.042 110.626  1.00  0.00    -0.077 N 
ATOM     29  H13 UNL     1     -88.540 -50.669 109.989  1.00  0.00     0.274 HD
ATOM     30  H12 UNL     1     -87.180 -51.404 109.935  1.00  0.00     0.274 HD
ATOM     31  H11 UNL     1     -88.215 -51.785 111.212  1.00  0.00     0.274 HD
ENDBRANCH  27  28
ENDBRANCH  25  27
ENDBRANCH  23  25
ENDBRANCH   1  23
TORSDOF 11
ENDMDL
