MODEL 1
REMARK VINA RESULT: -4.708256282      0.000      0.000
REMARK  3 active torsions:
REMARK  status: ('A' for Active; 'I' for Inactive)
REMARK       I    between atoms: C1_2  and  N1_3 
REMARK    1  A    between atoms: C1_2  and  C4_8 
REMARK    2  A    between atoms: N1_3  and  C2_5 
REMARK    3  A    between atoms: C2_5  and  C3_6 
ROOT
HETATM    1  C4  UNL     1     124.538 107.279 -42.901  1.00  0.00     0.045 A 
HETATM    2  C5  UNL     1     124.856 107.089 -44.364  1.00  0.00     0.020 C 
HETATM    3  C6  UNL     1     126.108 107.825 -44.776  1.00  0.00     0.001 C 
HETATM    4  C7  UNL     1     126.012 109.299 -44.500  1.00  0.00     0.000 C 
HETATM    5  C8  UNL     1     124.854 109.657 -43.619  1.00  0.00     0.006 C 
HETATM    6  C9  UNL     1     124.623 108.685 -42.506  1.00  0.00     0.004 A 
HETATM    7  C10 UNL     1     123.259 108.005 -42.561  1.00  0.00     0.025 A 
ENDROOT
BRANCH   1   8
HETATM    8  C1  UNL     1     124.869 106.166 -42.015  1.00  0.00     0.226 C 
HETATM    9  O1  UNL     1     125.395 106.398 -40.898  1.00  0.00    -0.273 OA
HETATM   10  N1  UNL     1     124.615 104.823 -42.370  1.00  0.00    -0.360 N 
ATOM     11  H1  UNL     1     124.187 104.629 -43.275  1.00  0.00     0.162 HD
BRANCH  10  12
HETATM   12  C2  UNL     1     124.939 103.705 -41.496  1.00  0.00     0.133 C 
BRANCH  12  13
HETATM   13  C3  UNL     1     125.082 102.450 -42.320  1.00  0.00     0.104 C 
HETATM   14 BR1  UNL     1     124.770 102.783 -44.195  1.00  0.00    -0.095 Br
ENDBRANCH  12  13
ENDBRANCH  10  12
ENDBRANCH   1   8
TORSDOF 3
ENDMDL
MODEL 2
REMARK VINA RESULT: -4.609782770      2.739      5.646
REMARK  3 active torsions:
REMARK  status: ('A' for Active; 'I' for Inactive)
REMARK       I    between atoms: C1_2  and  N1_3 
REMARK    1  A    between atoms: C1_2  and  C4_8 
REMARK    2  A    between atoms: N1_3  and  C2_5 
REMARK    3  A    between atoms: C2_5  and  C3_6 
ROOT
HETATM    1  C4  UNL     1     124.907 102.984 -43.748  1.00  0.00     0.045 A 
HETATM    2  C5  UNL     1     124.303 103.018 -42.365  1.00  0.00     0.020 C 
HETATM    3  C6  UNL     1     125.295 103.466 -41.320  1.00  0.00     0.001 C 
HETATM    4  C7  UNL     1     126.512 102.586 -41.284  1.00  0.00     0.000 C 
HETATM    5  C8  UNL     1     126.611 101.671 -42.466  1.00  0.00     0.006 C 
HETATM    6  C9  UNL     1     126.206 102.310 -43.756  1.00  0.00     0.004 A 
HETATM    7  C10 UNL     1     125.011 101.638 -44.425  1.00  0.00     0.025 A 
ENDROOT
BRANCH   1   8
HETATM    8  C1  UNL     1     124.563 104.093 -44.634  1.00  0.00     0.226 C 
HETATM    9  O1  UNL     1     124.423 103.882 -45.865  1.00  0.00    -0.273 OA
HETATM   10  N1  UNL     1     124.378 105.407 -44.155  1.00  0.00    -0.360 N 
ATOM     11  H1  UNL     1     124.489 105.584 -43.156  1.00  0.00     0.162 HD
BRANCH  10  12
HETATM   12  C2  UNL     1     124.035 106.522 -45.026  1.00  0.00     0.133 C 
BRANCH  12  13
HETATM   13  C3  UNL     1     123.959 107.789 -44.214  1.00  0.00     0.104 C 
HETATM   14 BR1  UNL     1     124.565 107.518 -42.402  1.00  0.00    -0.095 Br
ENDBRANCH  12  13
ENDBRANCH  10  12
ENDBRANCH   1   8
TORSDOF 3
ENDMDL
MODEL 3
REMARK VINA RESULT: -4.570726896      0.995      2.327
REMARK  3 active torsions:
REMARK  status: ('A' for Active; 'I' for Inactive)
REMARK       I    between atoms: C1_2  and  N1_3 
REMARK    1  A    between atoms: C1_2  and  C4_8 
REMARK    2  A    between atoms: N1_3  and  C2_5 
REMARK    3  A    between atoms: C2_5  and  C3_6 
ROOT
HETATM    1  C4  UNL     1     124.344 107.145 -43.050  1.00  0.00     0.045 A 
HETATM    2  C5  UNL     1     123.823 108.439 -42.474  1.00  0.00     0.020 C 
HETATM    3  C6  UNL     1     122.314 108.503 -42.490  1.00  0.00     0.001 C 
HETATM    4  C7  UNL     1     121.758 108.345 -43.877  1.00  0.00     0.000 C 
HETATM    5  C8  UNL     1     122.775 107.862 -44.866  1.00  0.00     0.006 C 
HETATM    6  C9  UNL     1     123.694 106.816 -44.320  1.00  0.00     0.004 A 
HETATM    7  C10 UNL     1     125.162 107.233 -44.317  1.00  0.00     0.025 A 
ENDROOT
BRANCH   1   8
HETATM    8  C1  UNL     1     124.802 106.144 -42.091  1.00  0.00     0.226 C 
HETATM    9  O1  UNL     1     125.409 106.512 -41.054  1.00  0.00    -0.273 OA
HETATM   10  N1  UNL     1     124.585 104.763 -42.285  1.00  0.00    -0.360 N 
ATOM     11  H1  UNL     1     124.091 104.459 -43.124  1.00  0.00     0.162 HD
BRANCH  10  12
HETATM   12  C2  UNL     1     125.036 103.755 -41.337  1.00  0.00     0.133 C 
BRANCH  12  13
HETATM   13  C3  UNL     1     125.262 102.452 -42.060  1.00  0.00     0.104 C 
HETATM   14 BR1  UNL     1     124.838 102.589 -43.938  1.00  0.00    -0.095 Br
ENDBRANCH  12  13
ENDBRANCH  10  12
ENDBRANCH   1   8
TORSDOF 3
ENDMDL
MODEL 4
REMARK VINA RESULT: -4.434147507      2.056      2.416
REMARK  3 active torsions:
REMARK  status: ('A' for Active; 'I' for Inactive)
REMARK       I    between atoms: C1_2  and  N1_3 
REMARK    1  A    between atoms: C1_2  and  C4_8 
REMARK    2  A    between atoms: N1_3  and  C2_5 
REMARK    3  A    between atoms: C2_5  and  C3_6 
ROOT
HETATM    1  C4  UNL     1     124.133 106.769 -43.655  1.00  0.00     0.045 A 
HETATM    2  C5  UNL     1     122.842 107.480 -43.980  1.00  0.00     0.020 C 
HETATM    3  C6  UNL     1     123.063 108.695 -44.847  1.00  0.00     0.001 C 
HETATM    4  C7  UNL     1     123.999 109.681 -44.207  1.00  0.00     0.000 C 
HETATM    5  C8  UNL     1     124.727 109.119 -43.025  1.00  0.00     0.006 C 
HETATM    6  C9  UNL     1     125.169 107.702 -43.211  1.00  0.00     0.004 A 
HETATM    7  C10 UNL     1     124.556 106.732 -42.206  1.00  0.00     0.025 A 
ENDROOT
BRANCH   1   8
HETATM    8  C1  UNL     1     124.409 105.548 -44.408  1.00  0.00     0.226 C 
HETATM    9  O1  UNL     1     124.591 105.613 -45.649  1.00  0.00    -0.273 OA
HETATM   10  N1  UNL     1     124.482 104.283 -43.786  1.00  0.00    -0.360 N 
ATOM     11  H1  UNL     1     124.337 104.225 -42.778  1.00  0.00     0.162 HD
BRANCH  10  12
HETATM   12  C2  UNL     1     124.757 103.059 -44.523  1.00  0.00     0.133 C 
BRANCH  12  13
HETATM   13  C3  UNL     1     125.475 102.083 -43.627  1.00  0.00     0.104 C 
HETATM   14 BR1  UNL     1     125.412 102.628 -41.776  1.00  0.00    -0.095 Br
ENDBRANCH  12  13
ENDBRANCH  10  12
ENDBRANCH   1   8
TORSDOF 3
ENDMDL
MODEL 5
REMARK VINA RESULT: -4.313576518      2.205      2.746
REMARK  3 active torsions:
REMARK  status: ('A' for Active; 'I' for Inactive)
REMARK       I    between atoms: C1_2  and  N1_3 
REMARK    1  A    between atoms: C1_2  and  C4_8 
REMARK    2  A    between atoms: N1_3  and  C2_5 
REMARK    3  A    between atoms: C2_5  and  C3_6 
ROOT
HETATM    1  C4  UNL     1     124.111 106.969 -43.505  1.00  0.00     0.045 A 
HETATM    2  C5  UNL     1     122.783 107.672 -43.655  1.00  0.00     0.020 C 
HETATM    3  C6  UNL     1     122.948 109.126 -44.027  1.00  0.00     0.001 C 
HETATM    4  C7  UNL     1     123.769 109.876 -43.017  1.00  0.00     0.000 C 
HETATM    5  C8  UNL     1     124.483 108.976 -42.055  1.00  0.00     0.006 C 
HETATM    6  C9  UNL     1     125.046 107.745 -42.689  1.00  0.00     0.004 A 
HETATM    7  C10 UNL     1     124.465 106.449 -42.132  1.00  0.00     0.025 A 
ENDROOT
BRANCH   1   8
HETATM    8  C1  UNL     1     124.520 106.110 -44.613  1.00  0.00     0.226 C 
HETATM    9  O1  UNL     1     125.384 106.519 -45.428  1.00  0.00    -0.273 OA
HETATM   10  N1  UNL     1     123.976 104.822 -44.805  1.00  0.00    -0.360 N 
ATOM     11  H1  UNL     1     123.275 104.484 -44.146  1.00  0.00     0.162 HD
BRANCH  10  12
HETATM   12  C2  UNL     1     124.374 103.955 -45.904  1.00  0.00     0.133 C 
BRANCH  12  13
HETATM   13  C3  UNL     1     124.412 102.526 -45.429  1.00  0.00     0.104 C 
HETATM   14 BR1  UNL     1     125.091 102.386 -43.627  1.00  0.00    -0.095 Br
ENDBRANCH  12  13
ENDBRANCH  10  12
ENDBRANCH   1   8
TORSDOF 3
ENDMDL
