MODEL 1
REMARK VINA RESULT: -4.815726406      0.000      0.000
REMARK  4 active torsions:
REMARK  status: ('A' for Active; 'I' for Inactive)
REMARK    1  A    between atoms: C2_2  and  C3_5 
REMARK    2  A    between atoms: C5_8  and  C6_9 
REMARK    3  A    between atoms: C6_9  and  N1_10 
REMARK       I    between atoms: N1_10  and  C7_12 
REMARK    4  A    between atoms: C7_12  and  C8_14 
ROOT
HETATM    1  C3  UNL     1      90.869  98.715 -43.221  1.00  0.00     0.058 A 
HETATM    2 BR1  UNL     1      89.138  99.122 -42.494  1.00  0.00    -0.082 Br
HETATM    3  C4  UNL     1      90.915  97.392 -43.976  1.00  0.00     0.032 A 
HETATM    4  C5  UNL     1      91.680  97.605 -42.720  1.00  0.00     0.027 A 
ENDROOT
BRANCH   4   5
HETATM    5  C6  UNL     1      91.229  96.872 -41.485  1.00  0.00     0.129 C 
BRANCH   5   6
HETATM    6  N1  UNL     1      92.055  95.731 -41.193  1.00  0.00    -0.360 N 
HETATM    7  C7  UNL     1      91.906  94.481 -41.809  1.00  0.00     0.221 C 
HETATM    8  O1  UNL     1      91.001  94.298 -42.684  1.00  0.00    -0.273 OA
ATOM      9  H1  UNL     1      92.792  95.837 -40.496  1.00  0.00     0.162 HD
BRANCH   7  10
HETATM   10  C8  UNL     1      92.764  93.323 -41.496  1.00  0.00     0.078 A 
HETATM   11  C9  UNL     1      94.198  93.544 -41.074  1.00  0.00     0.015 A 
HETATM   12  C10 UNL     1      93.921  93.031 -42.429  1.00  0.00     0.015 A 
ENDBRANCH   7  10
ENDBRANCH   5   6
ENDBRANCH   4   5
BRANCH   1  13
HETATM   13  C2  UNL     1      91.614  99.887 -43.821  1.00  0.00     0.127 C 
HETATM   14  C1  UNL     1      91.989 100.869 -42.745  1.00  0.00     0.052 C 
HETATM   15 CL1  UNL     1      93.035  99.284 -44.700  1.00  0.00    -0.100 Cl
HETATM   16 CL2  UNL     1      90.501 100.653 -44.996  1.00  0.00    -0.100 Cl
ENDBRANCH   1  13
TORSDOF 4
ENDMDL
MODEL 2
REMARK VINA RESULT: -4.802130414      2.027      2.389
REMARK  4 active torsions:
REMARK  status: ('A' for Active; 'I' for Inactive)
REMARK    1  A    between atoms: C2_2  and  C3_5 
REMARK    2  A    between atoms: C5_8  and  C6_9 
REMARK    3  A    between atoms: C6_9  and  N1_10 
REMARK       I    between atoms: N1_10  and  C7_12 
REMARK    4  A    between atoms: C7_12  and  C8_14 
ROOT
HETATM    1  C3  UNL     1      91.322  99.141 -43.389  1.00  0.00     0.058 A 
HETATM    2 BR1  UNL     1      92.670  99.237 -44.752  1.00  0.00    -0.082 Br
HETATM    3  C4  UNL     1      91.771  98.389 -42.142  1.00  0.00     0.032 A 
HETATM    4  C5  UNL     1      90.684  97.878 -43.016  1.00  0.00     0.027 A 
ENDROOT
BRANCH   4   5
HETATM    5  C6  UNL     1      90.960  96.650 -43.841  1.00  0.00     0.129 C 
BRANCH   5   6
HETATM    6  N1  UNL     1      91.462  95.558 -43.050  1.00  0.00    -0.360 N 
HETATM    7  C7  UNL     1      91.654  94.261 -43.543  1.00  0.00     0.221 C 
HETATM    8  O1  UNL     1      91.384  93.985 -44.755  1.00  0.00    -0.273 OA
ATOM      9  H1  UNL     1      91.691  95.739 -42.073  1.00  0.00     0.162 HD
BRANCH   7  10
HETATM   10  C8  UNL     1      92.172  93.154 -42.716  1.00  0.00     0.078 A 
HETATM   11  C9  UNL     1      92.814  93.454 -41.380  1.00  0.00     0.015 A 
HETATM   12  C10 UNL     1      93.671  93.064 -42.517  1.00  0.00     0.015 A 
ENDBRANCH   7  10
ENDBRANCH   5   6
ENDBRANCH   4   5
BRANCH   1  13
HETATM   13  C2  UNL     1      90.506 100.400 -43.190  1.00  0.00     0.127 C 
HETATM   14  C1  UNL     1      90.195 101.032 -44.518  1.00  0.00     0.052 C 
HETATM   15 CL1  UNL     1      89.035 100.001 -42.278  1.00  0.00    -0.100 Cl
HETATM   16 CL2  UNL     1      91.508 101.505 -42.199  1.00  0.00    -0.100 Cl
ENDBRANCH   1  13
TORSDOF 4
ENDMDL
MODEL 3
REMARK VINA RESULT: -4.727416241      2.382      2.806
REMARK  4 active torsions:
REMARK  status: ('A' for Active; 'I' for Inactive)
REMARK    1  A    between atoms: C2_2  and  C3_5 
REMARK    2  A    between atoms: C5_8  and  C6_9 
REMARK    3  A    between atoms: C6_9  and  N1_10 
REMARK       I    between atoms: N1_10  and  C7_12 
REMARK    4  A    between atoms: C7_12  and  C8_14 
ROOT
HETATM    1  C3  UNL     1      89.518  98.145 -44.842  1.00  0.00     0.058 A 
HETATM    2 BR1  UNL     1      88.644  97.424 -46.392  1.00  0.00    -0.082 Br
HETATM    3  C4  UNL     1      90.968  98.545 -45.092  1.00  0.00     0.032 A 
HETATM    4  C5  UNL     1      90.608  97.440 -44.167  1.00  0.00     0.027 A 
ENDROOT
BRANCH   4   5
HETATM    5  C6  UNL     1      90.936  96.032 -44.587  1.00  0.00     0.129 C 
BRANCH   5   6
HETATM    6  N1  UNL     1      91.437  95.237 -43.497  1.00  0.00    -0.360 N 
HETATM    7  C7  UNL     1      91.699  93.864 -43.590  1.00  0.00     0.221 C 
HETATM    8  O1  UNL     1      91.499  93.241 -44.681  1.00  0.00    -0.273 OA
ATOM      9  H1  UNL     1      91.610  95.699 -42.605  1.00  0.00     0.162 HD
BRANCH   7  10
HETATM   10  C8  UNL     1      92.214  93.065 -42.462  1.00  0.00     0.078 A 
HETATM   11  C9  UNL     1      92.829  93.761 -41.269  1.00  0.00     0.015 A 
HETATM   12  C10 UNL     1      93.710  93.062 -42.224  1.00  0.00     0.015 A 
ENDBRANCH   7  10
ENDBRANCH   5   6
ENDBRANCH   4   5
BRANCH   1  13
HETATM   13  C2  UNL     1      88.676  99.070 -43.991  1.00  0.00     0.127 C 
HETATM   14  C1  UNL     1      87.243  98.614 -43.991  1.00  0.00     0.052 C 
HETATM   15 CL1  UNL     1      89.357  99.134 -42.352  1.00  0.00    -0.100 Cl
HETATM   16 CL2  UNL     1      88.806 100.698 -44.725  1.00  0.00    -0.100 Cl
ENDBRANCH   1  13
TORSDOF 4
ENDMDL
MODEL 4
REMARK VINA RESULT: -4.676976778      2.856      3.476
REMARK  4 active torsions:
REMARK  status: ('A' for Active; 'I' for Inactive)
REMARK    1  A    between atoms: C2_2  and  C3_5 
REMARK    2  A    between atoms: C5_8  and  C6_9 
REMARK    3  A    between atoms: C6_9  and  N1_10 
REMARK       I    between atoms: N1_10  and  C7_12 
REMARK    4  A    between atoms: C7_12  and  C8_14 
ROOT
HETATM    1  C3  UNL     1      91.411  99.706 -43.059  1.00  0.00     0.058 A 
HETATM    2 BR1  UNL     1      92.615  99.854 -44.547  1.00  0.00    -0.082 Br
HETATM    3  C4  UNL     1      91.635  98.455 -42.218  1.00  0.00     0.032 A 
HETATM    4  C5  UNL     1      90.384  98.666 -42.992  1.00  0.00     0.027 A 
ENDROOT
BRANCH   4   5
HETATM    5  C6  UNL     1      90.145  97.798 -44.198  1.00  0.00     0.129 C 
BRANCH   5   6
HETATM    6  N1  UNL     1      90.952  96.606 -44.186  1.00  0.00    -0.360 N 
HETATM    7  C7  UNL     1      91.037  95.711 -45.260  1.00  0.00     0.221 C 
HETATM    8  O1  UNL     1      90.381  95.922 -46.329  1.00  0.00    -0.273 OA
ATOM      9  H1  UNL     1      91.493  96.402 -43.347  1.00  0.00     0.162 HD
BRANCH   7  10
HETATM   10  C8  UNL     1      91.871  94.494 -45.229  1.00  0.00     0.078 A 
HETATM   11  C9  UNL     1      91.269  93.162 -45.617  1.00  0.00     0.015 A 
HETATM   12  C10 UNL     1      91.540  93.439 -44.193  1.00  0.00     0.015 A 
ENDBRANCH   7  10
ENDBRANCH   5   6
ENDBRANCH   4   5
BRANCH   1  13
HETATM   13  C2  UNL     1      91.120 100.997 -42.326  1.00  0.00     0.127 C 
HETATM   14  C1  UNL     1      91.391 102.174 -43.220  1.00  0.00     0.052 C 
HETATM   15 CL1  UNL     1      89.442 100.971 -41.744  1.00  0.00    -0.100 Cl
HETATM   16 CL2  UNL     1      92.213 101.035 -40.907  1.00  0.00    -0.100 Cl
ENDBRANCH   1  13
TORSDOF 4
ENDMDL
MODEL 5
REMARK VINA RESULT: -4.653252155      1.836      2.156
REMARK  4 active torsions:
REMARK  status: ('A' for Active; 'I' for Inactive)
REMARK    1  A    between atoms: C2_2  and  C3_5 
REMARK    2  A    between atoms: C5_8  and  C6_9 
REMARK    3  A    between atoms: C6_9  and  N1_10 
REMARK       I    between atoms: N1_10  and  C7_12 
REMARK    4  A    between atoms: C7_12  and  C8_14 
ROOT
HETATM    1  C3  UNL     1      91.335  99.111 -43.378  1.00  0.00     0.058 A 
HETATM    2 BR1  UNL     1      92.668  99.201 -44.757  1.00  0.00    -0.082 Br
HETATM    3  C4  UNL     1      91.794  98.356 -42.137  1.00  0.00     0.032 A 
HETATM    4  C5  UNL     1      90.694  97.852 -42.998  1.00  0.00     0.027 A 
ENDROOT
BRANCH   4   5
HETATM    5  C6  UNL     1      90.952  96.623 -43.828  1.00  0.00     0.129 C 
BRANCH   5   6
HETATM    6  N1  UNL     1      91.474  95.533 -43.047  1.00  0.00    -0.360 N 
HETATM    7  C7  UNL     1      91.630  94.229 -43.534  1.00  0.00     0.221 C 
HETATM    8  O1  UNL     1      91.307  93.945 -44.731  1.00  0.00    -0.273 OA
ATOM      9  H1  UNL     1      91.745  95.721 -42.082  1.00  0.00     0.162 HD
BRANCH   7  10
HETATM   10  C8  UNL     1      92.169  93.125 -42.718  1.00  0.00     0.078 A 
HETATM   11  C9  UNL     1      92.822  93.425 -41.388  1.00  0.00     0.015 A 
HETATM   12  C10 UNL     1      93.671  93.050 -42.536  1.00  0.00     0.015 A 
ENDBRANCH   7  10
ENDBRANCH   5   6
ENDBRANCH   4   5
BRANCH   1  13
HETATM   13  C2  UNL     1      90.531 100.375 -43.168  1.00  0.00     0.127 C 
HETATM   14  C1  UNL     1      89.189 100.044 -42.576  1.00  0.00     0.052 C 
HETATM   15 CL1  UNL     1      91.457 101.490 -42.140  1.00  0.00    -0.100 Cl
HETATM   16 CL2  UNL     1      90.327 101.125 -44.781  1.00  0.00    -0.100 Cl
ENDBRANCH   1  13
TORSDOF 4
ENDMDL
