MODEL 1
REMARK VINA RESULT: -5.756406863      0.000      0.000
REMARK  4 active torsions:
REMARK  status: ('A' for Active; 'I' for Inactive)
REMARK    1  A    between atoms: C2_2  and  C3_4 
REMARK    2  A    between atoms: C3_4  and  C4_6 
REMARK       I    between atoms: N1_11  and  C9_12 
REMARK       I    between atoms: C9_12  and  N2_14 
REMARK    3  A    between atoms: N2_14  and  C10_16 
REMARK    4  A    between atoms: C10_16  and  C11_17 
ROOT
HETATM    1  C4  UNL     1      90.245  97.730 -43.673  1.00  0.00     0.164 C 
HETATM    2  C5  UNL     1      89.482  98.953 -44.177  1.00  0.00     0.034 C 
HETATM    3  C6  UNL     1      89.026  99.821 -43.048  1.00  0.00     0.004 C 
HETATM    4  C7  UNL     1      90.130 100.350 -42.202  1.00  0.00     0.020 C 
HETATM    5  C8  UNL     1      91.392  99.570 -42.451  1.00  0.00     0.128 C 
HETATM    6  N1  UNL     1      91.144  98.165 -42.599  1.00  0.00    -0.322 N 
HETATM    7  C9  UNL     1      91.724  97.171 -41.766  1.00  0.00     0.322 C 
HETATM    8  O2  UNL     1      92.479  97.575 -40.861  1.00  0.00    -0.247 OA
HETATM    9  N2  UNL     1      91.481  95.792 -41.928  1.00  0.00    -0.320 N 
ATOM     10  H2  UNL     1      90.847  95.547 -42.689  1.00  0.00     0.169 HD
ENDROOT
BRANCH   1  11
HETATM   11  C3  UNL     1      91.016  97.211 -44.822  1.00  0.00     0.192 C 
HETATM   12  O1  UNL     1      91.979  97.957 -45.217  1.00  0.00    -0.289 OA
BRANCH  11  13
HETATM   13  C2  UNL     1      90.777  95.974 -45.505  1.00  0.00     0.072 C 
HETATM   14  C1  UNL     1      91.449  94.866 -45.277  1.00  0.00     0.040 C 
HETATM   15 CL1  UNL     1      89.505  95.894 -46.719  1.00  0.00    -0.081 Cl
ENDBRANCH  11  13
ENDBRANCH   1  11
BRANCH   9  16
HETATM   16  C10 UNL     1      91.986  94.706 -41.193  1.00  0.00     0.101 C 
BRANCH  16  17
HETATM   17  C11 UNL     1      92.868  93.713 -41.834  1.00  0.00     0.216 C 
HETATM   18 CL2  UNL     1      94.401  93.470 -40.947  1.00  0.00    -0.102 Cl
HETATM   19 CL3  UNL     1      92.127  92.199 -42.331  1.00  0.00    -0.102 Cl
ENDBRANCH  16  17
ENDBRANCH   9  16
TORSDOF 4
ENDMDL
MODEL 2
REMARK VINA RESULT: -5.578436585      0.598      1.061
REMARK  4 active torsions:
REMARK  status: ('A' for Active; 'I' for Inactive)
REMARK    1  A    between atoms: C2_2  and  C3_4 
REMARK    2  A    between atoms: C3_4  and  C4_6 
REMARK       I    between atoms: N1_11  and  C9_12 
REMARK       I    between atoms: C9_12  and  N2_14 
REMARK    3  A    between atoms: N2_14  and  C10_16 
REMARK    4  A    between atoms: C10_16  and  C11_17 
ROOT
HETATM    1  C4  UNL     1      90.213  97.579 -43.765  1.00  0.00     0.164 C 
HETATM    2  C5  UNL     1      89.537  98.848 -44.280  1.00  0.00     0.034 C 
HETATM    3  C6  UNL     1      89.169  99.769 -43.160  1.00  0.00     0.004 C 
HETATM    4  C7  UNL     1      90.324 100.226 -42.342  1.00  0.00     0.020 C 
HETATM    5  C8  UNL     1      91.518  99.347 -42.597  1.00  0.00     0.128 C 
HETATM    6  N1  UNL     1      91.161  97.963 -42.714  1.00  0.00    -0.322 N 
HETATM    7  C9  UNL     1      91.678  96.942 -41.872  1.00  0.00     0.322 C 
HETATM    8  O2  UNL     1      92.477  97.302 -40.987  1.00  0.00    -0.247 OA
HETATM    9  N2  UNL     1      91.327  95.583 -42.004  1.00  0.00    -0.320 N 
ATOM     10  H2  UNL     1      90.663  95.374 -42.750  1.00  0.00     0.169 HD
ENDROOT
BRANCH   1  11
HETATM   11  C3  UNL     1      90.923  96.982 -44.916  1.00  0.00     0.192 C 
HETATM   12  O1  UNL     1      92.107  97.425 -45.118  1.00  0.00    -0.289 OA
BRANCH  11  13
HETATM   13  C2  UNL     1      90.402  95.978 -45.796  1.00  0.00     0.072 C 
HETATM   14  C1  UNL     1      90.865  94.747 -45.862  1.00  0.00     0.040 C 
HETATM   15 CL1  UNL     1      89.053  96.375 -46.853  1.00  0.00    -0.081 Cl
ENDBRANCH  11  13
ENDBRANCH   1  11
BRANCH   9  16
HETATM   16  C10 UNL     1      91.761  94.474 -41.257  1.00  0.00     0.101 C 
BRANCH  16  17
HETATM   17  C11 UNL     1      92.741  93.528 -41.821  1.00  0.00     0.216 C 
HETATM   18 CL2  UNL     1      92.799  93.571 -43.607  1.00  0.00    -0.102 Cl
HETATM   19 CL3  UNL     1      94.340  93.515 -41.093  1.00  0.00    -0.102 Cl
ENDBRANCH  16  17
ENDBRANCH   9  16
TORSDOF 4
ENDMDL
MODEL 3
REMARK VINA RESULT: -5.479905749      1.708      2.058
REMARK  4 active torsions:
REMARK  status: ('A' for Active; 'I' for Inactive)
REMARK    1  A    between atoms: C2_2  and  C3_4 
REMARK    2  A    between atoms: C3_4  and  C4_6 
REMARK       I    between atoms: N1_11  and  C9_12 
REMARK       I    between atoms: C9_12  and  N2_14 
REMARK    3  A    between atoms: N2_14  and  C10_16 
REMARK    4  A    between atoms: C10_16  and  C11_17 
ROOT
HETATM    1  C4  UNL     1      90.099  98.826 -43.101  1.00  0.00     0.164 C 
HETATM    2  C5  UNL     1      89.454 100.195 -43.305  1.00  0.00     0.034 C 
HETATM    3  C6  UNL     1      89.288 100.924 -42.010  1.00  0.00     0.004 C 
HETATM    4  C7  UNL     1      90.562 101.178 -41.285  1.00  0.00     0.020 C 
HETATM    5  C8  UNL     1      91.653 100.301 -41.835  1.00  0.00     0.128 C 
HETATM    6  N1  UNL     1      91.191  98.977 -42.133  1.00  0.00    -0.322 N 
HETATM    7  C9  UNL     1      91.734  97.803 -41.547  1.00  0.00     0.322 C 
HETATM    8  O2  UNL     1      92.657  97.966 -40.727  1.00  0.00    -0.247 OA
HETATM    9  N2  UNL     1      91.279  96.505 -41.856  1.00  0.00    -0.320 N 
ATOM     10  H2  UNL     1      90.517  96.459 -42.533  1.00  0.00     0.169 HD
ENDROOT
BRANCH   1  11
HETATM   11  C3  UNL     1      90.622  98.405 -44.418  1.00  0.00     0.192 C 
HETATM   12  O1  UNL     1      90.389  97.187 -44.736  1.00  0.00    -0.289 OA
BRANCH  11  13
HETATM   13  C2  UNL     1      91.348  99.232 -45.336  1.00  0.00     0.072 C 
HETATM   14  C1  UNL     1      92.655  99.391 -45.307  1.00  0.00     0.040 C 
HETATM   15 CL1  UNL     1      90.473 100.089 -46.600  1.00  0.00    -0.081 Cl
ENDBRANCH  11  13
ENDBRANCH   1  11
BRANCH   9  16
HETATM   16  C10 UNL     1      91.723  95.265 -41.367  1.00  0.00     0.101 C 
BRANCH  16  17
HETATM   17  C11 UNL     1      92.266  94.248 -42.286  1.00  0.00     0.216 C 
HETATM   18 CL2  UNL     1      93.006  92.864 -41.431  1.00  0.00    -0.102 Cl
HETATM   19 CL3  UNL     1      91.231  93.747 -43.615  1.00  0.00    -0.102 Cl
ENDBRANCH  16  17
ENDBRANCH   9  16
TORSDOF 4
ENDMDL
MODEL 4
REMARK VINA RESULT: -5.075777990      2.737      4.089
REMARK  4 active torsions:
REMARK  status: ('A' for Active; 'I' for Inactive)
REMARK    1  A    between atoms: C2_2  and  C3_4 
REMARK    2  A    between atoms: C3_4  and  C4_6 
REMARK       I    between atoms: N1_11  and  C9_12 
REMARK       I    between atoms: C9_12  and  N2_14 
REMARK    3  A    between atoms: N2_14  and  C10_16 
REMARK    4  A    between atoms: C10_16  and  C11_17 
ROOT
HETATM    1  C4  UNL     1      91.831  99.188 -44.001  1.00  0.00     0.164 C 
HETATM    2  C5  UNL     1      92.154 100.648 -44.309  1.00  0.00     0.034 C 
HETATM    3  C6  UNL     1      92.342 100.873 -45.775  1.00  0.00     0.004 C 
HETATM    4  C7  UNL     1      91.152 100.537 -46.601  1.00  0.00     0.020 C 
HETATM    5  C8  UNL     1      90.195  99.689 -45.808  1.00  0.00     0.128 C 
HETATM    6  N1  UNL     1      90.871  98.713 -45.003  1.00  0.00    -0.322 N 
HETATM    7  C9  UNL     1      90.658  97.313 -45.118  1.00  0.00     0.322 C 
HETATM    8  O2  UNL     1      89.839  96.944 -45.981  1.00  0.00    -0.247 OA
HETATM    9  N2  UNL     1      91.320  96.364 -44.313  1.00  0.00    -0.320 N 
ATOM     10  H2  UNL     1      91.978  96.750 -43.635  1.00  0.00     0.169 HD
ENDROOT
BRANCH   1  11
HETATM   11  C3  UNL     1      91.232  99.163 -42.650  1.00  0.00     0.192 C 
HETATM   12  O1  UNL     1      91.783  98.358 -41.821  1.00  0.00    -0.289 OA
BRANCH  11  13
HETATM   13  C2  UNL     1      90.115  99.947 -42.212  1.00  0.00     0.072 C 
HETATM   14  C1  UNL     1      88.859  99.583 -42.357  1.00  0.00     0.040 C 
HETATM   15 CL1  UNL     1      90.407 101.490 -41.416  1.00  0.00    -0.081 Cl
ENDBRANCH  11  13
ENDBRANCH   1  11
BRANCH   9  16
HETATM   16  C10 UNL     1      91.204  94.964 -44.308  1.00  0.00     0.101 C 
BRANCH  16  17
HETATM   17  C11 UNL     1      91.606  94.182 -43.124  1.00  0.00     0.216 C 
HETATM   18 CL2  UNL     1      93.125  93.274 -43.374  1.00  0.00    -0.102 Cl
HETATM   19 CL3  UNL     1      91.561  95.012 -41.575  1.00  0.00    -0.102 Cl
ENDBRANCH  16  17
ENDBRANCH   9  16
TORSDOF 4
ENDMDL
MODEL 5
REMARK VINA RESULT: -4.872228968      2.386      3.439
REMARK  4 active torsions:
REMARK  status: ('A' for Active; 'I' for Inactive)
REMARK    1  A    between atoms: C2_2  and  C3_4 
REMARK    2  A    between atoms: C3_4  and  C4_6 
REMARK       I    between atoms: N1_11  and  C9_12 
REMARK       I    between atoms: C9_12  and  N2_14 
REMARK    3  A    between atoms: N2_14  and  C10_16 
REMARK    4  A    between atoms: C10_16  and  C11_17 
ROOT
HETATM    1  C4  UNL     1      89.082  98.785 -45.072  1.00  0.00     0.164 C 
HETATM    2  C5  UNL     1      88.009  99.808 -44.704  1.00  0.00     0.034 C 
HETATM    3  C6  UNL     1      87.384  99.499 -43.382  1.00  0.00     0.004 C 
HETATM    4  C7  UNL     1      88.341  99.485 -42.243  1.00  0.00     0.020 C 
HETATM    5  C8  UNL     1      89.753  99.398 -42.755  1.00  0.00     0.128 C 
HETATM    6  N1  UNL     1      89.874  98.504 -43.870  1.00  0.00    -0.322 N 
HETATM    7  C9  UNL     1      90.721  97.364 -43.877  1.00  0.00     0.322 C 
HETATM    8  O2  UNL     1      91.377  97.152 -42.840  1.00  0.00    -0.247 OA
HETATM    9  N2  UNL     1      90.840  96.499 -44.984  1.00  0.00    -0.320 N 
ATOM     10  H2  UNL     1      90.266  96.741 -45.791  1.00  0.00     0.169 HD
ENDROOT
BRANCH   1  11
HETATM   11  C3  UNL     1      89.921  99.410 -46.117  1.00  0.00     0.192 C 
HETATM   12  O1  UNL     1      89.653  99.058 -47.318  1.00  0.00    -0.289 OA
BRANCH  11  13
HETATM   13  C2  UNL     1      90.979 100.350 -45.893  1.00  0.00     0.072 C 
HETATM   14  C1  UNL     1      90.799 101.652 -45.805  1.00  0.00     0.040 C 
HETATM   15 CL1  UNL     1      92.627  99.763 -45.705  1.00  0.00    -0.081 Cl
ENDBRANCH  11  13
ENDBRANCH   1  11
BRANCH   9  16
HETATM   16  C10 UNL     1      91.637  95.351 -45.135  1.00  0.00     0.101 C 
BRANCH  16  17
HETATM   17  C11 UNL     1      91.242  94.077 -44.506  1.00  0.00     0.216 C 
HETATM   18 CL2  UNL     1      91.344  92.688 -45.626  1.00  0.00    -0.102 Cl
HETATM   19 CL3  UNL     1      91.932  93.725 -42.928  1.00  0.00    -0.102 Cl
ENDBRANCH  16  17
ENDBRANCH   9  16
TORSDOF 4
ENDMDL
