MODEL 1
REMARK VINA RESULT: -5.442749032      0.000      0.000
REMARK  10 active torsions:
REMARK  status: ('A' for Active; 'I' for Inactive)
REMARK    1  A    between atoms: C2_2  and  N1_4 
REMARK    2  A    between atoms: N1_4  and  C4_6 
REMARK    3  A    between atoms: C5_9  and  N3_10 
REMARK    4  A    between atoms: C9_14  and  N4_15 
REMARK    5  A    between atoms: C9_14  and  C10_19 
REMARK    6  A    between atoms: C10_19  and  O1_20 
REMARK    7  A    between atoms: C12_25  and  S1_26 
REMARK    8  A    between atoms: S1_26  and  C13_27 
REMARK    9  A    between atoms: C13_27  and  C14_28 
REMARK   10  A    between atoms: C14_28  and  N6_29 
ROOT
HETATM    1  C4  UNL     1     -42.418  12.398   2.983  1.00  0.00     0.695 A 
HETATM    2  N2  UNL     1     -41.208  11.988   2.547  1.00  0.00    -0.022 N 
ATOM      3  H2  UNL     1     -40.593  12.676   2.113  1.00  0.00     0.203 HD
HETATM    4  C5  UNL     1     -40.774  10.729   2.656  1.00  0.00     0.696 A 
HETATM    5  N5  UNL     1     -41.609   9.839   3.233  1.00  0.00    -0.169 N 
ATOM      6  H5  UNL     1     -41.312   8.868   3.332  1.00  0.00     0.186 HD
HETATM    7  C12 UNL     1     -42.828  10.203   3.681  1.00  0.00     0.174 A 
HETATM    8  N7  UNL     1     -43.239  11.472   3.563  1.00  0.00    -0.169 N 
ATOM      9  H7  UNL     1     -44.160  11.746   3.905  1.00  0.00     0.186 HD
ENDROOT
BRANCH   4  10
HETATM   10  N3  UNL     1     -39.493  10.283   2.191  1.00  0.00    -0.215 N 
HETATM   11  C6  UNL     1     -39.009  10.707   0.900  1.00  0.00     0.141 C 
HETATM   12  C7  UNL     1     -37.508  10.684   0.915  1.00  0.00     0.023 C 
HETATM   13  C8  UNL     1     -37.018  11.116   2.260  1.00  0.00     0.044 C 
HETATM   14  C9  UNL     1     -37.361  10.104   3.341  1.00  0.00     0.161 C 
HETATM   15  C11 UNL     1     -38.668   9.407   2.995  1.00  0.00     0.182 C 
BRANCH  14  16
HETATM   16  N4  UNL     1     -37.469  10.817   4.571  1.00  0.00    -0.067 N 
ATOM     17  H43 UNL     1     -36.735  11.514   4.693  1.00  0.00     0.275 HD
ATOM     18  H42 UNL     1     -38.264  11.457   4.592  1.00  0.00     0.275 HD
ATOM     19  H41 UNL     1     -37.493  10.126   5.320  1.00  0.00     0.275 HD
ENDBRANCH  14  16
BRANCH  14  20
HETATM   20  C10 UNL     1     -36.239   9.067   3.345  1.00  0.00     0.204 C 
BRANCH  20  21
HETATM   21  O1  UNL     1     -35.986   8.588   4.619  1.00  0.00    -0.398 OA
ATOM     22  H1  UNL     1     -35.146   8.147   4.670  1.00  0.00     0.209 HD
ENDBRANCH  20  21
ENDBRANCH  14  20
ENDBRANCH   4  10
BRANCH   1  23
HETATM   23  N1  UNL     1     -42.824  13.573   2.873  1.00  0.00    -0.222 N 
ATOM     24  H1  UNL     1     -42.959  13.855   1.902  1.00  0.00     0.178 HD
BRANCH  23  25
HETATM   25  C2  UNL     1     -43.135  14.594   3.786  1.00  0.00     0.091 C 
HETATM   26  C1  UNL     1     -42.163  15.753   3.829  1.00  0.00     0.032 C 
HETATM   27  C3  UNL     1     -44.509  15.195   3.454  1.00  0.00     0.032 C 
ENDBRANCH  23  25
ENDBRANCH   1  23
BRANCH   7  28
HETATM   28  S1  UNL     1     -43.920   8.994   4.417  1.00  0.00    -0.091 SA
BRANCH  28  29
HETATM   29  C13 UNL     1     -43.032   7.682   5.263  1.00  0.00     0.109 C 
BRANCH  29  30
HETATM   30  C14 UNL     1     -42.463   8.274   6.538  1.00  0.00     0.240 C 
BRANCH  30  31
HETATM   31  N6  UNL     1     -40.998   8.284   6.422  1.00  0.00    -0.079 N 
ATOM     32  H63 UNL     1     -40.583   7.367   6.593  1.00  0.00     0.274 HD
ATOM     33  H62 UNL     1     -40.679   8.400   5.460  1.00  0.00     0.274 HD
ATOM     34  H61 UNL     1     -40.635   9.004   7.046  1.00  0.00     0.274 HD
ENDBRANCH  30  31
ENDBRANCH  29  30
ENDBRANCH  28  29
ENDBRANCH   7  28
TORSDOF 10
ENDMDL
MODEL 2
REMARK VINA RESULT: -5.360352417      3.521      6.605
REMARK  10 active torsions:
REMARK  status: ('A' for Active; 'I' for Inactive)
REMARK    1  A    between atoms: C2_2  and  N1_4 
REMARK    2  A    between atoms: N1_4  and  C4_6 
REMARK    3  A    between atoms: C5_9  and  N3_10 
REMARK    4  A    between atoms: C9_14  and  N4_15 
REMARK    5  A    between atoms: C9_14  and  C10_19 
REMARK    6  A    between atoms: C10_19  and  O1_20 
REMARK    7  A    between atoms: C12_25  and  S1_26 
REMARK    8  A    between atoms: S1_26  and  C13_27 
REMARK    9  A    between atoms: C13_27  and  C14_28 
REMARK   10  A    between atoms: C14_28  and  N6_29 
ROOT
HETATM    1  C4  UNL     1     -38.926   8.199   1.034  1.00  0.00     0.695 A 
HETATM    2  N2  UNL     1     -39.964   9.048   0.877  1.00  0.00    -0.022 N 
ATOM      3  H2  UNL     1     -40.802   8.705   0.406  1.00  0.00     0.203 HD
HETATM    4  C5  UNL     1     -39.953  10.313   1.307  1.00  0.00     0.696 A 
HETATM    5  N5  UNL     1     -38.831  10.742   1.925  1.00  0.00    -0.169 N 
ATOM      6  H5  UNL     1     -38.786  11.702   2.267  1.00  0.00     0.186 HD
HETATM    7  C12 UNL     1     -37.769   9.929   2.103  1.00  0.00     0.174 A 
HETATM    8  N7  UNL     1     -37.807   8.664   1.665  1.00  0.00    -0.169 N 
ATOM      9  H7  UNL     1     -37.003   8.051   1.802  1.00  0.00     0.186 HD
ENDROOT
BRANCH   4  10
HETATM   10  N3  UNL     1     -41.048  11.224   1.140  1.00  0.00    -0.215 N 
HETATM   11  C6  UNL     1     -42.239  10.796   0.448  1.00  0.00     0.141 C 
HETATM   12  C7  UNL     1     -43.404  11.602   0.947  1.00  0.00     0.023 C 
HETATM   13  C8  UNL     1     -43.240  11.857   2.411  1.00  0.00     0.044 C 
HETATM   14  C9  UNL     1     -42.068  12.782   2.699  1.00  0.00     0.161 C 
HETATM   15  C11 UNL     1     -40.984  12.575   1.654  1.00  0.00     0.182 C 
BRANCH  14  16
HETATM   16  N4  UNL     1     -41.591  12.466   4.005  1.00  0.00    -0.067 N 
ATOM     17  H43 UNL     1     -41.083  13.236   4.440  1.00  0.00     0.275 HD
ATOM     18  H42 UNL     1     -42.337  12.393   4.696  1.00  0.00     0.275 HD
ATOM     19  H41 UNL     1     -41.034  11.615   3.925  1.00  0.00     0.275 HD
ENDBRANCH  14  16
BRANCH  14  20
HETATM   20  C10 UNL     1     -42.596  14.211   2.582  1.00  0.00     0.204 C 
BRANCH  20  21
HETATM   21  O1  UNL     1     -41.584  15.145   2.717  1.00  0.00    -0.398 OA
ATOM     22  H1  UNL     1     -41.539  15.728   1.968  1.00  0.00     0.209 HD
ENDBRANCH  20  21
ENDBRANCH  14  20
ENDBRANCH   4  10
BRANCH   1  23
HETATM   23  N1  UNL     1     -38.938   7.021   0.624  1.00  0.00    -0.222 N 
ATOM     24  H1  UNL     1     -38.001   6.645   0.478  1.00  0.00     0.178 HD
BRANCH  23  25
HETATM   25  C2  UNL     1     -39.950   6.096   0.319  1.00  0.00     0.091 C 
HETATM   26  C1  UNL     1     -39.667   5.175  -0.847  1.00  0.00     0.032 C 
HETATM   27  C3  UNL     1     -40.217   5.190   1.531  1.00  0.00     0.032 C 
ENDBRANCH  23  25
ENDBRANCH   1  23
BRANCH   7  28
HETATM   28  S1  UNL     1     -36.290  10.536   2.902  1.00  0.00    -0.091 SA
BRANCH  28  29
HETATM   29  C13 UNL     1     -36.348  10.366   4.689  1.00  0.00     0.109 C 
BRANCH  29  30
HETATM   30  C14 UNL     1     -37.797  10.133   5.071  1.00  0.00     0.240 C 
BRANCH  30  31
HETATM   31  N6  UNL     1     -37.894   8.811   5.706  1.00  0.00    -0.079 N 
ATOM     32  H63 UNL     1     -36.999   8.483   6.072  1.00  0.00     0.274 HD
ATOM     33  H62 UNL     1     -38.402   8.834   6.589  1.00  0.00     0.274 HD
ATOM     34  H61 UNL     1     -38.304   8.166   5.031  1.00  0.00     0.274 HD
ENDBRANCH  30  31
ENDBRANCH  29  30
ENDBRANCH  28  29
ENDBRANCH   7  28
TORSDOF 10
ENDMDL
MODEL 3
REMARK VINA RESULT: -5.337647097      3.004      6.163
REMARK  10 active torsions:
REMARK  status: ('A' for Active; 'I' for Inactive)
REMARK    1  A    between atoms: C2_2  and  N1_4 
REMARK    2  A    between atoms: N1_4  and  C4_6 
REMARK    3  A    between atoms: C5_9  and  N3_10 
REMARK    4  A    between atoms: C9_14  and  N4_15 
REMARK    5  A    between atoms: C9_14  and  C10_19 
REMARK    6  A    between atoms: C10_19  and  O1_20 
REMARK    7  A    between atoms: C12_25  and  S1_26 
REMARK    8  A    between atoms: S1_26  and  C13_27 
REMARK    9  A    between atoms: C13_27  and  C14_28 
REMARK   10  A    between atoms: C14_28  and  N6_29 
ROOT
HETATM    1  C4  UNL     1     -39.585  10.008   1.243  1.00  0.00     0.695 A 
HETATM    2  N2  UNL     1     -40.533  10.970   1.251  1.00  0.00    -0.022 N 
ATOM      3  H2  UNL     1     -40.751  11.440   0.372  1.00  0.00     0.203 HD
HETATM    4  C5  UNL     1     -41.200  11.338   2.349  1.00  0.00     0.696 A 
HETATM    5  N5  UNL     1     -40.890  10.700   3.499  1.00  0.00    -0.169 N 
ATOM      6  H5  UNL     1     -41.379  10.955   4.357  1.00  0.00     0.186 HD
HETATM    7  C12 UNL     1     -39.950   9.734   3.538  1.00  0.00     0.174 A 
HETATM    8  N7  UNL     1     -39.297   9.382   2.423  1.00  0.00    -0.169 N 
ATOM      9  H7  UNL     1     -38.587   8.650   2.455  1.00  0.00     0.186 HD
ENDROOT
BRANCH   4  10
HETATM   10  N3  UNL     1     -42.203  12.362   2.369  1.00  0.00    -0.215 N 
HETATM   11  C6  UNL     1     -43.594  12.008   2.220  1.00  0.00     0.141 C 
HETATM   12  C7  UNL     1     -44.434  13.053   2.896  1.00  0.00     0.023 C 
HETATM   13  C8  UNL     1     -43.738  13.525   4.133  1.00  0.00     0.044 C 
HETATM   14  C9  UNL     1     -42.469  14.297   3.812  1.00  0.00     0.161 C 
HETATM   15  C11 UNL     1     -41.849  13.755   2.534  1.00  0.00     0.182 C 
BRANCH  14  16
HETATM   16  N4  UNL     1     -41.585  14.138   4.920  1.00  0.00    -0.067 N 
ATOM     17  H43 UNL     1     -41.983  13.572   5.669  1.00  0.00     0.275 HD
ATOM     18  H42 UNL     1     -40.787  13.538   4.710  1.00  0.00     0.275 HD
ATOM     19  H41 UNL     1     -41.314  15.072   5.227  1.00  0.00     0.275 HD
ENDBRANCH  14  16
BRANCH  14  20
HETATM   20  C10 UNL     1     -42.884  15.749   3.579  1.00  0.00     0.204 C 
BRANCH  20  21
HETATM   21  O1  UNL     1     -41.795  16.555   3.297  1.00  0.00    -0.398 OA
ATOM     22  H1  UNL     1     -41.238  16.174   2.629  1.00  0.00     0.209 HD
ENDBRANCH  20  21
ENDBRANCH  14  20
ENDBRANCH   4  10
BRANCH   1  23
HETATM   23  N1  UNL     1     -38.959   9.673   0.218  1.00  0.00    -0.222 N 
ATOM     24  H1  UNL     1     -39.546   9.192  -0.464  1.00  0.00     0.178 HD
BRANCH  23  25
HETATM   25  C2  UNL     1     -37.627   9.809  -0.209  1.00  0.00     0.091 C 
HETATM   26  C1  UNL     1     -37.414   9.790  -1.706  1.00  0.00     0.032 C 
HETATM   27  C3  UNL     1     -37.048  11.140   0.294  1.00  0.00     0.032 C 
ENDBRANCH  23  25
ENDBRANCH   1  23
BRANCH   7  28
HETATM   28  S1  UNL     1     -39.545   8.929   5.082  1.00  0.00    -0.091 SA
BRANCH  28  29
HETATM   29  C13 UNL     1     -38.149   9.691   5.916  1.00  0.00     0.109 C 
BRANCH  29  30
HETATM   30  C14 UNL     1     -37.132  10.055   4.851  1.00  0.00     0.240 C 
BRANCH  30  31
HETATM   31  N6  UNL     1     -36.411   8.832   4.473  1.00  0.00    -0.079 N 
ATOM     32  H63 UNL     1     -36.408   8.131   5.215  1.00  0.00     0.274 HD
ATOM     33  H62 UNL     1     -36.906   8.284   3.770  1.00  0.00     0.274 HD
ATOM     34  H61 UNL     1     -35.472   9.097   4.177  1.00  0.00     0.274 HD
ENDBRANCH  30  31
ENDBRANCH  29  30
ENDBRANCH  28  29
ENDBRANCH   7  28
TORSDOF 10
ENDMDL
MODEL 4
REMARK VINA RESULT: -5.320460757      3.252      6.605
REMARK  10 active torsions:
REMARK  status: ('A' for Active; 'I' for Inactive)
REMARK    1  A    between atoms: C2_2  and  N1_4 
REMARK    2  A    between atoms: N1_4  and  C4_6 
REMARK    3  A    between atoms: C5_9  and  N3_10 
REMARK    4  A    between atoms: C9_14  and  N4_15 
REMARK    5  A    between atoms: C9_14  and  C10_19 
REMARK    6  A    between atoms: C10_19  and  O1_20 
REMARK    7  A    between atoms: C12_25  and  S1_26 
REMARK    8  A    between atoms: S1_26  and  C13_27 
REMARK    9  A    between atoms: C13_27  and  C14_28 
REMARK   10  A    between atoms: C14_28  and  N6_29 
ROOT
HETATM    1  C4  UNL     1     -40.290   8.572   2.556  1.00  0.00     0.695 A 
HETATM    2  N2  UNL     1     -41.265   9.504   2.510  1.00  0.00    -0.022 N 
ATOM      3  H2  UNL     1     -42.229   9.201   2.653  1.00  0.00     0.203 HD
HETATM    4  C5  UNL     1     -41.035  10.802   2.287  1.00  0.00     0.696 A 
HETATM    5  N5  UNL     1     -39.751  11.174   2.099  1.00  0.00    -0.169 N 
ATOM      6  H5  UNL     1     -39.537  12.156   1.927  1.00  0.00     0.186 HD
HETATM    7  C12 UNL     1     -38.744  10.278   2.136  1.00  0.00     0.174 A 
HETATM    8  N7  UNL     1     -39.001   8.983   2.363  1.00  0.00    -0.169 N 
ATOM      9  H7  UNL     1     -38.237   8.307   2.392  1.00  0.00     0.186 HD
ENDROOT
BRANCH   4  10
HETATM   10  N3  UNL     1     -42.065  11.798   2.231  1.00  0.00    -0.215 N 
HETATM   11  C6  UNL     1     -43.442  11.399   2.069  1.00  0.00     0.141 C 
HETATM   12  C7  UNL     1     -44.325  12.455   2.670  1.00  0.00     0.023 C 
HETATM   13  C8  UNL     1     -43.672  13.008   3.897  1.00  0.00     0.044 C 
HETATM   14  C9  UNL     1     -42.415  13.797   3.564  1.00  0.00     0.161 C 
HETATM   15  C11 UNL     1     -41.751  13.207   2.331  1.00  0.00     0.182 C 
BRANCH  14  16
HETATM   16  N4  UNL     1     -41.554  13.719   4.698  1.00  0.00    -0.067 N 
ATOM     17  H43 UNL     1     -41.614  14.539   5.301  1.00  0.00     0.275 HD
ATOM     18  H42 UNL     1     -41.859  13.028   5.384  1.00  0.00     0.275 HD
ATOM     19  H41 UNL     1     -40.611  13.548   4.351  1.00  0.00     0.275 HD
ENDBRANCH  14  16
BRANCH  14  20
HETATM   20  C10 UNL     1     -42.862  15.223   3.246  1.00  0.00     0.204 C 
BRANCH  20  21
HETATM   21  O1  UNL     1     -41.793  16.102   3.220  1.00  0.00    -0.398 OA
ATOM     22  H1  UNL     1     -41.293  16.026   2.416  1.00  0.00     0.209 HD
ENDBRANCH  20  21
ENDBRANCH  14  20
ENDBRANCH   4  10
BRANCH   1  23
HETATM   23  N1  UNL     1     -40.509   7.361   2.756  1.00  0.00    -0.222 N 
ATOM     24  H1  UNL     1     -40.431   7.103   3.740  1.00  0.00     0.178 HD
BRANCH  23  25
HETATM   25  C2  UNL     1     -40.839   6.273   1.931  1.00  0.00     0.091 C 
HETATM   26  C1  UNL     1     -39.915   6.038   0.756  1.00  0.00     0.032 C 
HETATM   27  C3  UNL     1     -40.835   4.972   2.750  1.00  0.00     0.032 C 
ENDBRANCH  23  25
ENDBRANCH   1  23
BRANCH   7  28
HETATM   28  S1  UNL     1     -37.057  10.800   1.857  1.00  0.00    -0.091 SA
BRANCH  28  29
HETATM   29  C13 UNL     1     -35.933  10.225   3.135  1.00  0.00     0.109 C 
BRANCH  29  30
HETATM   30  C14 UNL     1     -36.636  10.406   4.466  1.00  0.00     0.240 C 
BRANCH  30  31
HETATM   31  N6  UNL     1     -36.817   9.079   5.070  1.00  0.00    -0.079 N 
ATOM     32  H63 UNL     1     -36.301   8.349   4.578  1.00  0.00     0.274 HD
ATOM     33  H62 UNL     1     -36.352   8.990   5.973  1.00  0.00     0.274 HD
ATOM     34  H61 UNL     1     -37.818   8.888   5.121  1.00  0.00     0.274 HD
ENDBRANCH  30  31
ENDBRANCH  29  30
ENDBRANCH  28  29
ENDBRANCH   7  28
TORSDOF 10
ENDMDL
MODEL 5
REMARK VINA RESULT: -5.304909867      2.972      4.106
REMARK  10 active torsions:
REMARK  status: ('A' for Active; 'I' for Inactive)
REMARK    1  A    between atoms: C2_2  and  N1_4 
REMARK    2  A    between atoms: N1_4  and  C4_6 
REMARK    3  A    between atoms: C5_9  and  N3_10 
REMARK    4  A    between atoms: C9_14  and  N4_15 
REMARK    5  A    between atoms: C9_14  and  C10_19 
REMARK    6  A    between atoms: C10_19  and  O1_20 
REMARK    7  A    between atoms: C12_25  and  S1_26 
REMARK    8  A    between atoms: S1_26  and  C13_27 
REMARK    9  A    between atoms: C13_27  and  C14_28 
REMARK   10  A    between atoms: C14_28  and  N6_29 
ROOT
HETATM    1  C4  UNL     1     -41.171  12.169   2.632  1.00  0.00     0.695 A 
HETATM    2  N2  UNL     1     -40.564  11.953   1.445  1.00  0.00    -0.022 N 
ATOM      3  H2  UNL     1     -40.706  12.635   0.700  1.00  0.00     0.203 HD
HETATM    4  C5  UNL     1     -39.789  10.894   1.196  1.00  0.00     0.696 A 
HETATM    5  N5  UNL     1     -39.621  10.006   2.199  1.00  0.00    -0.169 N 
ATOM      6  H5  UNL     1     -39.035   9.185   2.046  1.00  0.00     0.186 HD
HETATM    7  C12 UNL     1     -40.208  10.181   3.401  1.00  0.00     0.174 A 
HETATM    8  N7  UNL     1     -40.978  11.252   3.626  1.00  0.00    -0.169 N 
ATOM      9  H7  UNL     1     -41.420  11.383   4.537  1.00  0.00     0.186 HD
ENDROOT
BRANCH   4  10
HETATM   10  N3  UNL     1     -39.146  10.653  -0.063  1.00  0.00    -0.215 N 
HETATM   11  C6  UNL     1     -37.738  10.928  -0.214  1.00  0.00     0.141 C 
HETATM   12  C7  UNL     1     -37.186  10.041  -1.293  1.00  0.00     0.023 C 
HETATM   13  C8  UNL     1     -37.854   8.704  -1.227  1.00  0.00     0.044 C 
HETATM   14  C9  UNL     1     -39.324   8.785  -1.605  1.00  0.00     0.161 C 
HETATM   15  C11 UNL     1     -39.885  10.138  -1.195  1.00  0.00     0.182 C 
BRANCH  14  16
HETATM   16  N4  UNL     1     -39.994   7.725  -0.928  1.00  0.00    -0.067 N 
ATOM     17  H43 UNL     1     -39.354   7.042  -0.524  1.00  0.00     0.275 HD
ATOM     18  H42 UNL     1     -40.435   8.023  -0.057  1.00  0.00     0.275 HD
ATOM     19  H41 UNL     1     -40.653   7.312  -1.588  1.00  0.00     0.275 HD
ENDBRANCH  14  16
BRANCH  14  20
HETATM   20  C10 UNL     1     -39.395   8.665  -3.127  1.00  0.00     0.204 C 
BRANCH  20  21
HETATM   21  O1  UNL     1     -40.104   9.711  -3.692  1.00  0.00    -0.398 OA
ATOM     22  H1  UNL     1     -41.020   9.490  -3.815  1.00  0.00     0.209 HD
ENDBRANCH  20  21
ENDBRANCH  14  20
ENDBRANCH   4  10
BRANCH   1  23
HETATM   23  N1  UNL     1     -41.900  13.156   2.858  1.00  0.00    -0.222 N 
ATOM     24  H1  UNL     1     -42.289  13.563   2.008  1.00  0.00     0.178 HD
BRANCH  23  25
HETATM   25  C2  UNL     1     -42.306  13.830   4.021  1.00  0.00     0.091 C 
HETATM   26  C1  UNL     1     -41.997  15.311   4.061  1.00  0.00     0.032 C 
HETATM   27  C3  UNL     1     -43.827  13.702   4.200  1.00  0.00     0.032 C 
ENDBRANCH  23  25
ENDBRANCH   1  23
BRANCH   7  28
HETATM   28  S1  UNL     1     -39.986   8.973   4.700  1.00  0.00    -0.091 SA
BRANCH  28  29
HETATM   29  C13 UNL     1     -38.637   9.389   5.810  1.00  0.00     0.109 C 
BRANCH  29  30
HETATM   30  C14 UNL     1     -37.496   9.911   4.957  1.00  0.00     0.240 C 
BRANCH  30  31
HETATM   31  N6  UNL     1     -36.543   8.812   4.750  1.00  0.00    -0.079 N 
ATOM     32  H63 UNL     1     -35.612   9.025   5.107  1.00  0.00     0.274 HD
ATOM     33  H62 UNL     1     -36.736   8.006   5.344  1.00  0.00     0.274 HD
ATOM     34  H61 UNL     1     -36.541   8.577   3.757  1.00  0.00     0.274 HD
ENDBRANCH  30  31
ENDBRANCH  29  30
ENDBRANCH  28  29
ENDBRANCH   7  28
TORSDOF 10
ENDMDL
