MODEL 1
REMARK VINA RESULT: -5.417813972      0.000      0.000
REMARK  1 active torsions:
REMARK  status: ('A' for Active; 'I' for Inactive)
REMARK    1  A    between atoms: N1_4  and  N2_5 
ROOT
HETATM    1  N2  UNL     1      14.107  -6.851 -33.467  1.00  0.00    -0.254 N 
ATOM      2  H2  UNL     1      14.048  -7.869 -33.436  1.00  0.00     0.193 HD
HETATM    3  C4  UNL     1      14.987  -6.200 -32.593  1.00  0.00     0.193 C 
HETATM    4  N3  UNL     1      15.720  -5.656 -31.862  1.00  0.00    -0.171 NA
ENDROOT
BRANCH   1   5
HETATM    5  N1  UNL     1      13.310  -6.163 -34.372  1.00  0.00    -0.196 NA
HETATM    6  C3  UNL     1      12.095  -5.687 -33.725  1.00  0.00     0.148 C 
HETATM    7  C2  UNL     1      11.016  -6.248 -34.600  1.00  0.00     0.134 C 
HETATM    8  C1  UNL     1       9.889  -5.236 -34.650  1.00  0.00     0.041 C 
HETATM    9  O1  UNL     1      11.654  -6.368 -35.828  1.00  0.00    -0.369 OA
HETATM   10  C5  UNL     1      12.871  -6.977 -35.452  1.00  0.00     0.282 C 
ENDBRANCH   1   5
TORSDOF 1
ENDMDL
MODEL 2
REMARK VINA RESULT: -5.221632343      1.383      1.456
REMARK  1 active torsions:
REMARK  status: ('A' for Active; 'I' for Inactive)
REMARK    1  A    between atoms: N1_4  and  N2_5 
ROOT
HETATM    1  N2  UNL     1      14.064  -4.047 -33.384  1.00  0.00    -0.254 N 
ATOM      2  H2  UNL     1      14.306  -3.086 -33.141  1.00  0.00     0.193 HD
HETATM    3  C4  UNL     1      14.764  -5.094 -32.771  1.00  0.00     0.193 C 
HETATM    4  N3  UNL     1      15.351  -5.968 -32.262  1.00  0.00    -0.171 NA
ENDROOT
BRANCH   1   5
HETATM    5  N1  UNL     1      13.054  -4.267 -34.310  1.00  0.00    -0.196 NA
HETATM    6  C3  UNL     1      11.829  -4.684 -33.641  1.00  0.00     0.148 C 
HETATM    7  C2  UNL     1      11.494  -5.967 -34.340  1.00  0.00     0.134 C 
HETATM    8  C1  UNL     1       9.985  -6.058 -34.441  1.00  0.00     0.041 C 
HETATM    9  O1  UNL     1      12.084  -5.795 -35.586  1.00  0.00    -0.369 OA
HETATM   10  C5  UNL     1      13.360  -5.309 -35.227  1.00  0.00     0.282 C 
ENDBRANCH   1   5
TORSDOF 1
ENDMDL
MODEL 3
REMARK VINA RESULT: -5.159464712      1.373      1.406
REMARK  1 active torsions:
REMARK  status: ('A' for Active; 'I' for Inactive)
REMARK    1  A    between atoms: N1_4  and  N2_5 
ROOT
HETATM    1  N2  UNL     1      14.200  -5.229 -33.838  1.00  0.00    -0.254 N 
ATOM      2  H2  UNL     1      15.003  -5.857 -33.842  1.00  0.00     0.193 HD
HETATM    3  C4  UNL     1      14.066  -4.313 -32.787  1.00  0.00     0.193 C 
HETATM    4  N3  UNL     1      13.952  -3.550 -31.908  1.00  0.00    -0.171 NA
ENDROOT
BRANCH   1   5
HETATM    5  N1  UNL     1      13.281  -5.314 -34.875  1.00  0.00    -0.196 NA
HETATM    6  C3  UNL     1      11.986  -4.797 -34.454  1.00  0.00     0.148 C 
HETATM    7  C2  UNL     1      11.062  -5.936 -34.762  1.00  0.00     0.134 C 
HETATM    8  C1  UNL     1       9.742  -5.350 -35.222  1.00  0.00     0.041 C 
HETATM    9  O1  UNL     1      11.723  -6.589 -35.795  1.00  0.00    -0.369 OA
HETATM   10  C5  UNL     1      13.039  -6.652 -35.290  1.00  0.00     0.282 C 
ENDBRANCH   1   5
TORSDOF 1
ENDMDL
MODEL 4
REMARK VINA RESULT: -5.124604320      2.397      3.155
REMARK  1 active torsions:
REMARK  status: ('A' for Active; 'I' for Inactive)
REMARK    1  A    between atoms: N1_4  and  N2_5 
ROOT
HETATM    1  N2  UNL     1      11.676  -5.337 -33.373  1.00  0.00    -0.254 N 
ATOM      2  H2  UNL     1      10.842  -5.799 -33.009  1.00  0.00     0.193 HD
HETATM    3  C4  UNL     1      12.323  -4.386 -32.574  1.00  0.00     0.193 C 
HETATM    4  N3  UNL     1      12.862  -3.590 -31.908  1.00  0.00    -0.171 NA
ENDROOT
BRANCH   1   5
HETATM    5  N1  UNL     1      12.124  -5.674 -34.643  1.00  0.00    -0.196 NA
HETATM    6  C3  UNL     1      13.087  -6.765 -34.572  1.00  0.00     0.148 C 
HETATM    7  C2  UNL     1      14.271  -6.205 -35.300  1.00  0.00     0.134 C 
HETATM    8  C1  UNL     1      14.929  -7.341 -36.056  1.00  0.00     0.041 C 
HETATM    9  O1  UNL     1      13.689  -5.283 -36.160  1.00  0.00    -0.369 OA
HETATM   10  C5  UNL     1      12.806  -4.608 -35.291  1.00  0.00     0.282 C 
ENDBRANCH   1   5
TORSDOF 1
ENDMDL
MODEL 5
REMARK VINA RESULT: -5.075401154      1.347      1.698
REMARK  1 active torsions:
REMARK  status: ('A' for Active; 'I' for Inactive)
REMARK    1  A    between atoms: N1_4  and  N2_5 
ROOT
HETATM    1  N2  UNL     1      13.994  -6.433 -33.344  1.00  0.00    -0.254 N 
ATOM      2  H2  UNL     1      14.202  -7.011 -34.158  1.00  0.00     0.193 HD
HETATM    3  C4  UNL     1      15.041  -6.081 -32.483  1.00  0.00     0.193 C 
HETATM    4  N3  UNL     1      15.915  -5.790 -31.762  1.00  0.00    -0.171 NA
ENDROOT
BRANCH   1   5
HETATM    5  N1  UNL     1      12.684  -6.025 -33.131  1.00  0.00    -0.196 NA
HETATM    6  C3  UNL     1      11.841  -6.410 -34.255  1.00  0.00     0.148 C 
HETATM    7  C2  UNL     1      11.214  -5.109 -34.654  1.00  0.00     0.134 C 
HETATM    8  C1  UNL     1       9.798  -5.399 -35.111  1.00  0.00     0.041 C 
HETATM    9  O1  UNL     1      11.234  -4.387 -33.467  1.00  0.00    -0.369 OA
HETATM   10  C5  UNL     1      12.554  -4.614 -33.024  1.00  0.00     0.282 C 
ENDBRANCH   1   5
TORSDOF 1
ENDMDL
