MODEL 1
REMARK VINA RESULT: -8.641845513      0.000      0.000
REMARK  7 active torsions:
REMARK  status: ('A' for Active; 'I' for Inactive)
REMARK    1  A    between atoms: C2_5  and  N3_6 
REMARK    2  A    between atoms: N3_6  and  C3_8 
REMARK    3  A    between atoms: C3_8  and  C4_9 
REMARK       I    between atoms: C4_9  and  N4_11 
REMARK    4  A    between atoms: N4_11  and  C5_13 
REMARK    5  A    between atoms: C5_13  and  C6_14 
REMARK    6  A    between atoms: C6_14  and  N5_15 
REMARK    7  A    between atoms: C6_14  and  C7_19 
ROOT
HETATM    1  C1  UNL     1     -17.497 -18.175   7.105  1.00  0.00     0.178 C 
HETATM    2  N1  UNL     1     -18.037 -16.857   7.104  1.00  0.00    -0.288 N 
HETATM    3  N2  UNL     1     -18.815 -16.398   8.098  1.00  0.00    -0.281 N 
ATOM      4  H2  UNL     1     -19.079 -16.942   8.919  1.00  0.00     0.189 HD
HETATM    5  C2  UNL     1     -19.194 -15.153   7.877  1.00  0.00     0.146 A 
HETATM    6  C8  UNL     1     -18.650 -14.759   6.685  1.00  0.00     0.128 A 
HETATM    7  N6  UNL     1     -18.651 -13.655   5.923  1.00  0.00    -0.183 N 
ATOM      8  H6  UNL     1     -19.168 -12.830   6.226  1.00  0.00     0.184 HD
HETATM    9  C9  UNL     1     -17.974 -13.629   4.764  1.00  0.00     0.711 A 
HETATM   10  N7  UNL     1     -17.857 -12.630   3.874  1.00  0.00    -0.138 N 
ATOM     11  H7  UNL     1     -18.275 -11.702   3.935  1.00  0.00     0.189 HD
HETATM   12  C10 UNL     1     -17.078 -13.104   2.889  1.00  0.00     0.356 A 
HETATM   13  O4  UNL     1     -16.748 -12.442   1.873  1.00  0.00    -0.244 OA
HETATM   14  N8  UNL     1     -16.708 -14.373   3.144  1.00  0.00    -0.222 N 
HETATM   15  C11 UNL     1     -15.879 -15.168   2.296  1.00  0.00     0.184 C 
HETATM   16  N9  UNL     1     -17.271 -14.673   4.301  1.00  0.00    -0.039 N 
HETATM   17  C12 UNL     1     -17.242 -15.800   5.033  1.00  0.00     0.313 A 
HETATM   18  O5  UNL     1     -16.591 -16.772   4.607  1.00  0.00    -0.263 OA
HETATM   19  C13 UNL     1     -17.931 -15.845   6.225  1.00  0.00     0.152 A 
ENDROOT
BRANCH   5  20
HETATM   20  N3  UNL     1     -19.937 -14.391   8.602  1.00  0.00    -0.365 N 
ATOM     21  H3  UNL     1     -20.609 -13.751   8.179  1.00  0.00     0.161 HD
BRANCH  20  22
HETATM   22  C3  UNL     1     -19.784 -14.476  10.041  1.00  0.00     0.224 C 
BRANCH  22  23
HETATM   23  C4  UNL     1     -19.042 -13.295  10.582  1.00  0.00     0.235 C 
HETATM   24  O1  UNL     1     -19.616 -12.199  10.672  1.00  0.00    -0.272 OA
HETATM   25  N4  UNL     1     -17.694 -13.509  10.969  1.00  0.00    -0.357 N 
ATOM     26  H4  UNL     1     -17.274 -14.433  10.868  1.00  0.00     0.162 HD
BRANCH  25  27
HETATM   27  C5  UNL     1     -16.922 -12.426  11.503  1.00  0.00     0.166 C 
BRANCH  27  28
HETATM   28  C6  UNL     1     -16.342 -12.804  12.841  1.00  0.00     0.300 C 
BRANCH  28  29
HETATM   29  N5  UNL     1     -15.947 -11.573  13.522  1.00  0.00    -0.064 N 
ATOM     30  H53 UNL     1     -16.103 -10.740  12.955  1.00  0.00     0.275 HD
ATOM     31  H52 UNL     1     -16.569 -11.331  14.293  1.00  0.00     0.275 HD
ATOM     32  H51 UNL     1     -14.976 -11.676  13.814  1.00  0.00     0.275 HD
ENDBRANCH  28  29
BRANCH  28  33
HETATM   33  C7  UNL     1     -15.158 -13.659  12.575  1.00  0.00     0.206 C 
HETATM   34  O2  UNL     1     -14.307 -13.877  13.464  1.00  0.00    -0.646 OA
HETATM   35  O3  UNL     1     -15.007 -14.217  11.322  1.00  0.00    -0.646 OA
ENDBRANCH  28  33
ENDBRANCH  27  28
ENDBRANCH  25  27
ENDBRANCH  22  23
ENDBRANCH  20  22
ENDBRANCH   5  20
TORSDOF 7
ENDMDL
MODEL 2
REMARK VINA RESULT: -8.470600392      3.511      6.848
REMARK  7 active torsions:
REMARK  status: ('A' for Active; 'I' for Inactive)
REMARK    1  A    between atoms: C2_5  and  N3_6 
REMARK    2  A    between atoms: N3_6  and  C3_8 
REMARK    3  A    between atoms: C3_8  and  C4_9 
REMARK       I    between atoms: C4_9  and  N4_11 
REMARK    4  A    between atoms: N4_11  and  C5_13 
REMARK    5  A    between atoms: C5_13  and  C6_14 
REMARK    6  A    between atoms: C6_14  and  N5_15 
REMARK    7  A    between atoms: C6_14  and  C7_19 
ROOT
HETATM    1  C1  UNL     1     -19.083 -14.130   8.626  1.00  0.00     0.178 C 
HETATM    2  N1  UNL     1     -18.306 -15.111   7.945  1.00  0.00    -0.288 N 
HETATM    3  N2  UNL     1     -17.897 -16.243   8.540  1.00  0.00    -0.281 N 
ATOM      4  H2  UNL     1     -18.103 -16.490   9.508  1.00  0.00     0.189 HD
HETATM    5  C2  UNL     1     -17.194 -16.994   7.713  1.00  0.00     0.146 A 
HETATM    6  C8  UNL     1     -17.127 -16.340   6.513  1.00  0.00     0.128 A 
HETATM    7  N6  UNL     1     -16.584 -16.556   5.306  1.00  0.00    -0.183 N 
ATOM      8  H6  UNL     1     -16.056 -17.411   5.134  1.00  0.00     0.184 HD
HETATM    9  C9  UNL     1     -16.730 -15.654   4.323  1.00  0.00     0.711 A 
HETATM   10  N7  UNL     1     -16.265 -15.690   3.064  1.00  0.00    -0.138 N 
ATOM     11  H7  UNL     1     -15.709 -16.430   2.636  1.00  0.00     0.189 HD
HETATM   12  C10 UNL     1     -16.683 -14.554   2.484  1.00  0.00     0.356 A 
HETATM   13  O4  UNL     1     -16.433 -14.239   1.293  1.00  0.00    -0.244 OA
HETATM   14  N8  UNL     1     -17.395 -13.811   3.351  1.00  0.00    -0.222 N 
HETATM   15  C11 UNL     1     -17.983 -12.545   3.053  1.00  0.00     0.184 C 
HETATM   16  N9  UNL     1     -17.411 -14.508   4.474  1.00  0.00    -0.039 N 
HETATM   17  C12 UNL     1     -17.973 -14.250   5.668  1.00  0.00     0.313 A 
HETATM   18  O5  UNL     1     -18.606 -13.188   5.813  1.00  0.00    -0.263 OA
HETATM   19  C13 UNL     1     -17.833 -15.165   6.688  1.00  0.00     0.152 A 
ENDROOT
BRANCH   5  20
HETATM   20  N3  UNL     1     -16.643 -18.138   7.927  1.00  0.00    -0.365 N 
ATOM     21  H3  UNL     1     -15.660 -18.211   8.188  1.00  0.00     0.161 HD
BRANCH  20  22
HETATM   22  C3  UNL     1     -17.471 -19.319   7.783  1.00  0.00     0.224 C 
BRANCH  22  23
HETATM   23  C4  UNL     1     -17.981 -19.462   6.383  1.00  0.00     0.235 C 
HETATM   24  O1  UNL     1     -19.197 -19.355   6.160  1.00  0.00    -0.272 OA
HETATM   25  N4  UNL     1     -17.018 -19.717   5.374  1.00  0.00    -0.357 N 
ATOM     26  H4  UNL     1     -16.031 -19.799   5.619  1.00  0.00     0.162 HD
BRANCH  25  27
HETATM   27  C5  UNL     1     -17.431 -19.859   4.009  1.00  0.00     0.166 C 
BRANCH  27  28
HETATM   28  C6  UNL     1     -17.511 -21.316   3.634  1.00  0.00     0.300 C 
BRANCH  28  29
HETATM   29  N5  UNL     1     -18.433 -21.967   4.561  1.00  0.00    -0.064 N 
ATOM     30  H53 UNL     1     -19.003 -21.303   5.084  1.00  0.00     0.275 HD
ATOM     31  H52 UNL     1     -19.194 -22.454   4.086  1.00  0.00     0.275 HD
ATOM     32  H51 UNL     1     -17.887 -22.581   5.165  1.00  0.00     0.275 HD
ENDBRANCH  28  29
BRANCH  28  33
HETATM   33  C7  UNL     1     -16.143 -21.876   3.773  1.00  0.00     0.206 C 
HETATM   34  O2  UNL     1     -15.419 -22.064   2.773  1.00  0.00    -0.646 OA
HETATM   35  O3  UNL     1     -15.678 -22.190   5.033  1.00  0.00    -0.646 OA
ENDBRANCH  28  33
ENDBRANCH  27  28
ENDBRANCH  25  27
ENDBRANCH  22  23
ENDBRANCH  20  22
ENDBRANCH   5  20
TORSDOF 7
ENDMDL
MODEL 3
REMARK VINA RESULT: -8.405510362      1.946      3.216
REMARK  7 active torsions:
REMARK  status: ('A' for Active; 'I' for Inactive)
REMARK    1  A    between atoms: C2_5  and  N3_6 
REMARK    2  A    between atoms: N3_6  and  C3_8 
REMARK    3  A    between atoms: C3_8  and  C4_9 
REMARK       I    between atoms: C4_9  and  N4_11 
REMARK    4  A    between atoms: N4_11  and  C5_13 
REMARK    5  A    between atoms: C5_13  and  C6_14 
REMARK    6  A    between atoms: C6_14  and  N5_15 
REMARK    7  A    between atoms: C6_14  and  C7_19 
ROOT
HETATM    1  C1  UNL     1     -16.888 -19.612   4.152  1.00  0.00     0.178 C 
HETATM    2  N1  UNL     1     -17.127 -18.516   5.031  1.00  0.00    -0.288 N 
HETATM    3  N2  UNL     1     -17.299 -18.680   6.352  1.00  0.00    -0.281 N 
ATOM      4  H2  UNL     1     -17.274 -19.582   6.827  1.00  0.00     0.189 HD
HETATM    5  C2  UNL     1     -17.505 -17.525   6.957  1.00  0.00     0.146 A 
HETATM    6  C8  UNL     1     -17.472 -16.545   6.003  1.00  0.00     0.128 A 
HETATM    7  N6  UNL     1     -17.604 -15.211   5.961  1.00  0.00    -0.183 N 
ATOM      8  H6  UNL     1     -17.780 -14.692   6.821  1.00  0.00     0.184 HD
HETATM    9  C9  UNL     1     -17.505 -14.554   4.795  1.00  0.00     0.711 A 
HETATM   10  N7  UNL     1     -17.608 -13.238   4.553  1.00  0.00    -0.138 N 
ATOM     11  H7  UNL     1     -17.783 -12.500   5.235  1.00  0.00     0.189 HD
HETATM   12  C10 UNL     1     -17.434 -13.091   3.230  1.00  0.00     0.356 A 
HETATM   13  O4  UNL     1     -17.464 -11.985   2.634  1.00  0.00    -0.244 OA
HETATM   14  N8  UNL     1     -17.226 -14.284   2.643  1.00  0.00    -0.222 N 
HETATM   15  C11 UNL     1     -17.005 -14.480   1.246  1.00  0.00     0.184 C 
HETATM   16  N9  UNL     1     -17.274 -15.168   3.625  1.00  0.00    -0.039 N 
HETATM   17  C12 UNL     1     -17.134 -16.504   3.619  1.00  0.00     0.313 A 
HETATM   18  O5  UNL     1     -16.919 -17.078   2.536  1.00  0.00    -0.263 OA
HETATM   19  C13 UNL     1     -17.232 -17.195   4.808  1.00  0.00     0.152 A 
ENDROOT
BRANCH   5  20
HETATM   20  N3  UNL     1     -17.709 -17.290   8.206  1.00  0.00    -0.365 N 
ATOM     21  H3  UNL     1     -18.618 -16.972   8.543  1.00  0.00     0.161 HD
BRANCH  20  22
HETATM   22  C3  UNL     1     -16.600 -17.492   9.118  1.00  0.00     0.224 C 
BRANCH  22  23
HETATM   23  C4  UNL     1     -16.290 -16.245   9.886  1.00  0.00     0.235 C 
HETATM   24  O1  UNL     1     -15.126 -16.025  10.254  1.00  0.00    -0.272 OA
HETATM   25  N4  UNL     1     -17.375 -15.371  10.152  1.00  0.00    -0.357 N 
ATOM     26  H4  UNL     1     -18.313 -15.608   9.827  1.00  0.00     0.162 HD
BRANCH  25  27
HETATM   27  C5  UNL     1     -17.154 -14.155  10.877  1.00  0.00     0.166 C 
BRANCH  27  28
HETATM   28  C6  UNL     1     -18.251 -13.164  10.587  1.00  0.00     0.300 C 
BRANCH  28  29
HETATM   29  N5  UNL     1     -19.044 -13.006  11.804  1.00  0.00    -0.064 N 
ATOM     30  H53 UNL     1     -18.881 -13.749  12.482  1.00  0.00     0.275 HD
ATOM     31  H52 UNL     1     -18.732 -12.225  12.381  1.00  0.00     0.275 HD
ATOM     32  H51 UNL     1     -20.024 -12.928  11.530  1.00  0.00     0.275 HD
ENDBRANCH  28  29
BRANCH  28  33
HETATM   33  C7  UNL     1     -19.076 -13.737   9.494  1.00  0.00     0.206 C 
HETATM   34  O2  UNL     1     -20.212 -14.205   9.721  1.00  0.00    -0.646 OA
HETATM   35  O3  UNL     1     -18.567 -13.747   8.211  1.00  0.00    -0.646 OA
ENDBRANCH  28  33
ENDBRANCH  27  28
ENDBRANCH  25  27
ENDBRANCH  22  23
ENDBRANCH  20  22
ENDBRANCH   5  20
TORSDOF 7
ENDMDL
MODEL 4
REMARK VINA RESULT: -8.396690257      4.303      8.735
REMARK  7 active torsions:
REMARK  status: ('A' for Active; 'I' for Inactive)
REMARK    1  A    between atoms: C2_5  and  N3_6 
REMARK    2  A    between atoms: N3_6  and  C3_8 
REMARK    3  A    between atoms: C3_8  and  C4_9 
REMARK       I    between atoms: C4_9  and  N4_11 
REMARK    4  A    between atoms: N4_11  and  C5_13 
REMARK    5  A    between atoms: C5_13  and  C6_14 
REMARK    6  A    between atoms: C6_14  and  N5_15 
REMARK    7  A    between atoms: C6_14  and  C7_19 
ROOT
HETATM    1  C1  UNL     1     -15.598 -13.774  12.032  1.00  0.00     0.178 C 
HETATM    2  N1  UNL     1     -15.762 -14.900  11.175  1.00  0.00    -0.288 N 
HETATM    3  N2  UNL     1     -16.882 -15.105  10.464  1.00  0.00    -0.281 N 
ATOM      4  H2  UNL     1     -17.693 -14.485  10.478  1.00  0.00     0.189 HD
HETATM    5  C2  UNL     1     -16.802 -16.209   9.746  1.00  0.00     0.146 A 
HETATM    6  C8  UNL     1     -15.578 -16.771   9.984  1.00  0.00     0.128 A 
HETATM    7  N6  UNL     1     -14.901 -17.857   9.582  1.00  0.00    -0.183 N 
ATOM      8  H6  UNL     1     -15.329 -18.504   8.919  1.00  0.00     0.184 HD
HETATM    9  C9  UNL     1     -13.665 -18.098  10.046  1.00  0.00     0.711 A 
HETATM   10  N7  UNL     1     -12.839 -19.118   9.765  1.00  0.00    -0.138 N 
ATOM     11  H7  UNL     1     -13.021 -19.901   9.136  1.00  0.00     0.189 HD
HETATM   12  C10 UNL     1     -11.725 -18.900  10.482  1.00  0.00     0.356 A 
HETATM   13  O4  UNL     1     -10.723 -19.657  10.473  1.00  0.00    -0.244 OA
HETATM   14  N8  UNL     1     -11.838 -17.768  11.202  1.00  0.00    -0.222 N 
HETATM   15  C11 UNL     1     -10.832 -17.249  12.071  1.00  0.00     0.184 C 
HETATM   16  N9  UNL     1     -13.038 -17.293  10.917  1.00  0.00    -0.039 N 
HETATM   17  C12 UNL     1     -13.679 -16.193  11.347  1.00  0.00     0.313 A 
HETATM   18  O5  UNL     1     -13.101 -15.443  12.156  1.00  0.00    -0.263 OA
HETATM   19  C13 UNL     1     -14.949 -15.929  10.881  1.00  0.00     0.152 A 
ENDROOT
BRANCH   5  20
HETATM   20  N3  UNL     1     -17.674 -16.723   8.950  1.00  0.00    -0.365 N 
ATOM     21  H3  UNL     1     -18.612 -16.959   9.274  1.00  0.00     0.161 HD
BRANCH  20  22
HETATM   22  C3  UNL     1     -17.275 -16.954   7.575  1.00  0.00     0.224 C 
BRANCH  22  23
HETATM   23  C4  UNL     1     -17.976 -18.142   6.996  1.00  0.00     0.235 C 
HETATM   24  O1  UNL     1     -19.189 -18.301   7.203  1.00  0.00    -0.272 OA
HETATM   25  N4  UNL     1     -17.188 -19.037   6.226  1.00  0.00    -0.357 N 
ATOM     26  H4  UNL     1     -16.193 -18.857   6.094  1.00  0.00     0.162 HD
BRANCH  25  27
HETATM   27  C5  UNL     1     -17.791 -20.194   5.633  1.00  0.00     0.166 C 
BRANCH  27  28
HETATM   28  C6  UNL     1     -17.434 -20.282   4.173  1.00  0.00     0.300 C 
BRANCH  28  29
HETATM   29  N5  UNL     1     -18.654 -20.596   3.432  1.00  0.00    -0.064 N 
ATOM     30  H53 UNL     1     -19.152 -21.400   3.811  1.00  0.00     0.275 HD
ATOM     31  H52 UNL     1     -19.390 -19.903   3.570  1.00  0.00     0.275 HD
ATOM     32  H51 UNL     1     -18.401 -20.714   2.450  1.00  0.00     0.275 HD
ENDBRANCH  28  29
BRANCH  28  33
HETATM   33  C7  UNL     1     -16.440 -21.376   4.034  1.00  0.00     0.206 C 
HETATM   34  O2  UNL     1     -16.034 -21.739   2.909  1.00  0.00    -0.646 OA
HETATM   35  O3  UNL     1     -15.966 -21.993   5.172  1.00  0.00    -0.646 OA
ENDBRANCH  28  33
ENDBRANCH  27  28
ENDBRANCH  25  27
ENDBRANCH  22  23
ENDBRANCH  20  22
ENDBRANCH   5  20
TORSDOF 7
ENDMDL
MODEL 5
REMARK VINA RESULT: -8.374363522      4.486      7.460
REMARK  7 active torsions:
REMARK  status: ('A' for Active; 'I' for Inactive)
REMARK    1  A    between atoms: C2_5  and  N3_6 
REMARK    2  A    between atoms: N3_6  and  C3_8 
REMARK    3  A    between atoms: C3_8  and  C4_9 
REMARK       I    between atoms: C4_9  and  N4_11 
REMARK    4  A    between atoms: N4_11  and  C5_13 
REMARK    5  A    between atoms: C5_13  and  C6_14 
REMARK    6  A    between atoms: C6_14  and  N5_15 
REMARK    7  A    between atoms: C6_14  and  C7_19 
ROOT
HETATM    1  C1  UNL     1     -17.011 -17.502   8.447  1.00  0.00     0.178 C 
HETATM    2  N1  UNL     1     -15.967 -17.289   9.392  1.00  0.00    -0.288 N 
HETATM    3  N2  UNL     1     -14.945 -18.146   9.540  1.00  0.00    -0.281 N 
ATOM      4  H2  UNL     1     -14.832 -19.004   9.000  1.00  0.00     0.189 HD
HETATM    5  C2  UNL     1     -14.105 -17.738  10.473  1.00  0.00     0.146 A 
HETATM    6  C8  UNL     1     -14.583 -16.558  10.974  1.00  0.00     0.128 A 
HETATM    7  N6  UNL     1     -14.213 -15.666  11.904  1.00  0.00    -0.183 N 
ATOM      8  H6  UNL     1     -13.359 -15.816  12.440  1.00  0.00     0.184 HD
HETATM    9  C9  UNL     1     -14.961 -14.575  12.136  1.00  0.00     0.711 A 
HETATM   10  N7  UNL     1     -14.759 -13.581  13.014  1.00  0.00    -0.138 N 
ATOM     11  H7  UNL     1     -13.984 -13.489  13.670  1.00  0.00     0.189 HD
HETATM   12  C10 UNL     1     -15.788 -12.733  12.855  1.00  0.00     0.356 A 
HETATM   13  O4  UNL     1     -15.937 -11.675  13.516  1.00  0.00    -0.244 OA
HETATM   14  N8  UNL     1     -16.625 -13.176  11.898  1.00  0.00    -0.222 N 
HETATM   15  C11 UNL     1     -17.817 -12.510  11.482  1.00  0.00     0.184 C 
HETATM   16  N9  UNL     1     -16.095 -14.309  11.471  1.00  0.00    -0.039 N 
HETATM   17  C12 UNL     1     -16.504 -15.176  10.528  1.00  0.00     0.313 A 
HETATM   18  O5  UNL     1     -17.556 -14.934   9.909  1.00  0.00    -0.263 OA
HETATM   19  C13 UNL     1     -15.748 -16.302  10.278  1.00  0.00     0.152 A 
ENDROOT
BRANCH   5  20
HETATM   20  N3  UNL     1     -13.021 -18.295  10.887  1.00  0.00    -0.365 N 
ATOM     21  H3  UNL     1     -12.854 -18.454  11.881  1.00  0.00     0.161 HD
BRANCH  20  22
HETATM   22  C3  UNL     1     -12.045 -18.690   9.890  1.00  0.00     0.224 C 
BRANCH  22  23
HETATM   23  C4  UNL     1     -10.856 -17.781   9.900  1.00  0.00     0.235 C 
HETATM   24  O1  UNL     1      -9.994 -17.889   9.014  1.00  0.00    -0.272 OA
HETATM   25  N4  UNL     1     -10.788 -16.828  10.949  1.00  0.00    -0.357 N 
ATOM     26  H4  UNL     1     -11.525 -16.790  11.652  1.00  0.00     0.162 HD
BRANCH  25  27
HETATM   27  C5  UNL     1      -9.682 -15.920  11.020  1.00  0.00     0.166 C 
BRANCH  27  28
HETATM   28  C6  UNL     1     -10.069 -14.680  11.783  1.00  0.00     0.300 C 
BRANCH  28  29
HETATM   29  N5  UNL     1     -10.978 -15.079  12.855  1.00  0.00    -0.064 N 
ATOM     30  H53 UNL     1     -11.946 -14.820  12.670  1.00  0.00     0.275 HD
ATOM     31  H52 UNL     1     -11.114 -16.089  12.903  1.00  0.00     0.275 HD
ATOM     32  H51 UNL     1     -10.623 -14.686  13.727  1.00  0.00     0.275 HD
ENDBRANCH  28  29
BRANCH  28  33
HETATM   33  C7  UNL     1     -10.754 -13.777  10.824  1.00  0.00     0.206 C 
HETATM   34  O2  UNL     1     -10.231 -12.701  10.465  1.00  0.00    -0.646 OA
HETATM   35  O3  UNL     1     -11.989 -14.144  10.329  1.00  0.00    -0.646 OA
ENDBRANCH  28  33
ENDBRANCH  27  28
ENDBRANCH  25  27
ENDBRANCH  22  23
ENDBRANCH  20  22
ENDBRANCH   5  20
TORSDOF 7
ENDMDL
