MODEL 1
REMARK VINA RESULT: -8.016539601      0.000      0.000
REMARK  8 active torsions:
REMARK  status: ('A' for Active; 'I' for Inactive)
REMARK    1  A    between atoms: C2_2  and  O1_4 
REMARK    2  A    between atoms: C2_2  and  C4_6 
REMARK    3  A    between atoms: C7_9  and  N1_10 
REMARK    4  A    between atoms: N1_10  and  C8_13 
REMARK    5  A    between atoms: C8_13  and  C9_14 
REMARK    6  A    between atoms: C9_14  and  N2_15 
REMARK    7  A    between atoms: N2_15  and  C10_17 
REMARK    8  A    between atoms: C10_17  and  C11_18 
ROOT
HETATM    1  N1  UNL     1      26.807 -39.335 -54.045  1.00  0.00    -0.044 N 
ATOM      2  H11 UNL     1      27.670 -39.646 -54.490  1.00  0.00     0.280 HD
ATOM      3  H12 UNL     1      26.979 -39.693 -53.106  1.00  0.00     0.280 HD
ENDROOT
BRANCH   1   4
HETATM    4  C7  UNL     1      25.654 -39.949 -54.643  1.00  0.00     0.358 C 
HETATM    5  C6  UNL     1      25.750 -41.432 -54.820  1.00  0.00     0.067 C 
HETATM    6  C5  UNL     1      26.940 -41.728 -55.734  1.00  0.00     0.042 C 
HETATM    7  C4  UNL     1      26.793 -40.874 -56.947  1.00  0.00     0.194 C 
HETATM    8  O3  UNL     1      25.626 -40.157 -56.901  1.00  0.00    -0.230 OA
HETATM    9  O2  UNL     1      25.474 -39.359 -55.897  1.00  0.00    -0.206 OA
BRANCH   7  10
HETATM   10  C2  UNL     1      26.725 -41.769 -58.175  1.00  0.00     0.079 C 
HETATM   11  C1  UNL     1      25.289 -41.846 -58.684  1.00  0.00     0.048 C 
HETATM   12  C3  UNL     1      27.190 -43.142 -57.792  1.00  0.00     0.048 C 
BRANCH  10  13
HETATM   13  O1  UNL     1      27.568 -41.238 -59.123  1.00  0.00    -0.388 OA
ATOM     14  H1  UNL     1      28.420 -41.658 -59.106  1.00  0.00     0.210 HD
ENDBRANCH  10  13
ENDBRANCH   7  10
ENDBRANCH   1   4
BRANCH   1  15
HETATM   15  C8  UNL     1      26.694 -37.894 -54.054  1.00  0.00     0.254 C 
BRANCH  15  16
HETATM   16  C9  UNL     1      26.879 -37.298 -52.697  1.00  0.00     0.141 C 
BRANCH  16  17
HETATM   17  N2  UNL     1      26.378 -35.965 -52.639  1.00  0.00    -0.419 N 
ATOM     18  H2  UNL     1      26.552 -35.355 -51.840  1.00  0.00     0.153 HD
BRANCH  17  19
HETATM   19  C10 UNL     1      25.615 -35.536 -53.772  1.00  0.00     0.118 C 
BRANCH  19  20
HETATM   20  C11 UNL     1      24.611 -34.500 -53.303  1.00  0.00     0.006 C 
HETATM   21  C12 UNL     1      23.286 -34.656 -53.995  1.00  0.00     0.034 C 
HETATM   22  C13 UNL     1      22.475 -33.410 -53.711  1.00  0.00     0.232 C 
HETATM   23  N3  UNL     1      22.380 -33.216 -52.279  1.00  0.00    -0.075 N 
HETATM   24  C14 UNL     1      22.930 -34.299 -51.525  1.00  0.00     0.232 C 
ATOM     25  H32 UNL     1      22.805 -32.331 -52.004  1.00  0.00     0.277 HD
ATOM     26  H31 UNL     1      21.417 -33.033 -52.001  1.00  0.00     0.277 HD
HETATM   27  C15 UNL     1      24.359 -34.622 -51.816  1.00  0.00     0.034 C 
ENDBRANCH  19  20
ENDBRANCH  17  19
ENDBRANCH  16  17
ENDBRANCH  15  16
ENDBRANCH   1  15
TORSDOF 8
ENDMDL
MODEL 2
REMARK VINA RESULT: -7.634321016      0.887      1.141
REMARK  8 active torsions:
REMARK  status: ('A' for Active; 'I' for Inactive)
REMARK    1  A    between atoms: C2_2  and  O1_4 
REMARK    2  A    between atoms: C2_2  and  C4_6 
REMARK    3  A    between atoms: C7_9  and  N1_10 
REMARK    4  A    between atoms: N1_10  and  C8_13 
REMARK    5  A    between atoms: C8_13  and  C9_14 
REMARK    6  A    between atoms: C9_14  and  N2_15 
REMARK    7  A    between atoms: N2_15  and  C10_17 
REMARK    8  A    between atoms: C10_17  and  C11_18 
ROOT
HETATM    1  N1  UNL     1      26.817 -39.307 -53.885  1.00  0.00    -0.044 N 
ATOM      2  H11 UNL     1      27.569 -39.688 -54.459  1.00  0.00     0.280 HD
ATOM      3  H12 UNL     1      27.133 -39.642 -52.974  1.00  0.00     0.280 HD
ENDROOT
BRANCH   1   4
HETATM    4  C7  UNL     1      25.543 -39.867 -54.242  1.00  0.00     0.358 C 
HETATM    5  C6  UNL     1      25.532 -41.354 -54.404  1.00  0.00     0.067 C 
HETATM    6  C5  UNL     1      26.512 -41.720 -55.521  1.00  0.00     0.042 C 
HETATM    7  C4  UNL     1      26.180 -40.873 -56.700  1.00  0.00     0.194 C 
HETATM    8  O3  UNL     1      25.079 -40.096 -56.449  1.00  0.00    -0.230 OA
HETATM    9  O2  UNL     1      25.158 -39.282 -55.450  1.00  0.00    -0.206 OA
BRANCH   7  10
HETATM   10  C2  UNL     1      25.838 -41.775 -57.876  1.00  0.00     0.079 C 
HETATM   11  C1  UNL     1      27.036 -41.885 -58.814  1.00  0.00     0.048 C 
HETATM   12  C3  UNL     1      24.681 -41.174 -58.618  1.00  0.00     0.048 C 
BRANCH  10  13
HETATM   13  O1  UNL     1      25.481 -43.002 -57.369  1.00  0.00    -0.388 OA
ATOM     14  H1  UNL     1      24.908 -42.915 -56.616  1.00  0.00     0.210 HD
ENDBRANCH  10  13
ENDBRANCH   7  10
ENDBRANCH   1   4
BRANCH   1  15
HETATM   15  C8  UNL     1      26.786 -37.863 -53.939  1.00  0.00     0.254 C 
BRANCH  15  16
HETATM   16  C9  UNL     1      26.853 -37.238 -52.585  1.00  0.00     0.141 C 
BRANCH  16  17
HETATM   17  N2  UNL     1      26.377 -35.894 -52.605  1.00  0.00    -0.419 N 
ATOM     18  H2  UNL     1      26.587 -35.233 -51.857  1.00  0.00     0.153 HD
BRANCH  17  19
HETATM   19  C10 UNL     1      25.584 -35.532 -53.741  1.00  0.00     0.118 C 
BRANCH  19  20
HETATM   20  C11 UNL     1      24.576 -34.486 -53.300  1.00  0.00     0.006 C 
HETATM   21  C12 UNL     1      23.262 -34.644 -54.014  1.00  0.00     0.034 C 
HETATM   22  C13 UNL     1      22.453 -33.391 -53.758  1.00  0.00     0.232 C 
HETATM   23  N3  UNL     1      22.333 -33.182 -52.330  1.00  0.00    -0.075 N 
HETATM   24  C14 UNL     1      22.864 -34.259 -51.556  1.00  0.00     0.232 C 
ATOM     25  H32 UNL     1      22.757 -32.295 -52.057  1.00  0.00     0.277 HD
ATOM     26  H31 UNL     1      21.365 -32.992 -52.071  1.00  0.00     0.277 HD
HETATM   27  C15 UNL     1      24.297 -34.592 -51.817  1.00  0.00     0.034 C 
ENDBRANCH  19  20
ENDBRANCH  17  19
ENDBRANCH  16  17
ENDBRANCH  15  16
ENDBRANCH   1  15
TORSDOF 8
ENDMDL
MODEL 3
REMARK VINA RESULT: -7.627501308      1.076      1.103
REMARK  8 active torsions:
REMARK  status: ('A' for Active; 'I' for Inactive)
REMARK    1  A    between atoms: C2_2  and  O1_4 
REMARK    2  A    between atoms: C2_2  and  C4_6 
REMARK    3  A    between atoms: C7_9  and  N1_10 
REMARK    4  A    between atoms: N1_10  and  C8_13 
REMARK    5  A    between atoms: C8_13  and  C9_14 
REMARK    6  A    between atoms: C9_14  and  N2_15 
REMARK    7  A    between atoms: N2_15  and  C10_17 
REMARK    8  A    between atoms: C10_17  and  C11_18 
ROOT
HETATM    1  N1  UNL     1      27.906 -38.023 -55.642  1.00  0.00    -0.044 N 
ATOM      2  H11 UNL     1      28.363 -37.906 -56.546  1.00  0.00     0.280 HD
ATOM      3  H12 UNL     1      28.626 -38.574 -55.175  1.00  0.00     0.280 HD
ENDROOT
BRANCH   1   4
HETATM    4  C7  UNL     1      26.676 -38.756 -55.762  1.00  0.00     0.358 C 
HETATM    5  C6  UNL     1      26.739 -40.175 -55.293  1.00  0.00     0.067 C 
HETATM    6  C5  UNL     1      27.783 -40.911 -56.135  1.00  0.00     0.042 C 
HETATM    7  C4  UNL     1      27.466 -40.648 -57.567  1.00  0.00     0.194 C 
HETATM    8  O3  UNL     1      26.321 -39.903 -57.686  1.00  0.00    -0.230 OA
HETATM    9  O2  UNL     1      26.319 -38.746 -57.113  1.00  0.00    -0.206 OA
BRANCH   7  10
HETATM   10  C2  UNL     1      27.218 -41.974 -58.270  1.00  0.00     0.079 C 
HETATM   11  C1  UNL     1      25.757 -42.382 -58.108  1.00  0.00     0.048 C 
HETATM   12  C3  UNL     1      28.096 -43.017 -57.645  1.00  0.00     0.048 C 
BRANCH  10  13
HETATM   13  O1  UNL     1      27.553 -41.813 -59.593  1.00  0.00    -0.388 OA
ATOM     14  H1  UNL     1      28.467 -41.577 -59.696  1.00  0.00     0.210 HD
ENDBRANCH  10  13
ENDBRANCH   7  10
ENDBRANCH   1   4
BRANCH   1  15
HETATM   15  C8  UNL     1      27.696 -36.754 -54.985  1.00  0.00     0.254 C 
BRANCH  15  16
HETATM   16  C9  UNL     1      27.461 -36.902 -53.517  1.00  0.00     0.141 C 
BRANCH  16  17
HETATM   17  N2  UNL     1      26.472 -35.988 -53.051  1.00  0.00    -0.419 N 
ATOM     18  H2  UNL     1      26.445 -35.665 -52.083  1.00  0.00     0.153 HD
BRANCH  17  19
HETATM   19  C10 UNL     1      25.517 -35.553 -54.025  1.00  0.00     0.118 C 
BRANCH  19  20
HETATM   20  C11 UNL     1      24.609 -34.526 -53.374  1.00  0.00     0.006 C 
HETATM   21  C12 UNL     1      23.215 -34.581 -53.933  1.00  0.00     0.034 C 
HETATM   22  C13 UNL     1      22.489 -33.337 -53.469  1.00  0.00     0.232 C 
HETATM   23  N3  UNL     1      22.549 -33.259 -52.024  1.00  0.00    -0.075 N 
HETATM   24  C14 UNL     1      23.128 -34.417 -51.419  1.00  0.00     0.232 C 
ATOM     25  H32 UNL     1      23.036 -32.413 -51.726  1.00  0.00     0.277 HD
ATOM     26  H31 UNL     1      21.627 -33.068 -51.632  1.00  0.00     0.277 HD
HETATM   27  C15 UNL     1      24.505 -34.762 -51.882  1.00  0.00     0.034 C 
ENDBRANCH  19  20
ENDBRANCH  17  19
ENDBRANCH  16  17
ENDBRANCH  15  16
ENDBRANCH   1  15
TORSDOF 8
ENDMDL
MODEL 4
REMARK VINA RESULT: -7.578550950      0.849      1.001
REMARK  8 active torsions:
REMARK  status: ('A' for Active; 'I' for Inactive)
REMARK    1  A    between atoms: C2_2  and  O1_4 
REMARK    2  A    between atoms: C2_2  and  C4_6 
REMARK    3  A    between atoms: C7_9  and  N1_10 
REMARK    4  A    between atoms: N1_10  and  C8_13 
REMARK    5  A    between atoms: C8_13  and  C9_14 
REMARK    6  A    between atoms: C9_14  and  N2_15 
REMARK    7  A    between atoms: N2_15  and  C10_17 
REMARK    8  A    between atoms: C10_17  and  C11_18 
ROOT
HETATM    1  N1  UNL     1      26.778 -39.352 -54.037  1.00  0.00    -0.044 N 
ATOM      2  H11 UNL     1      27.691 -39.584 -54.427  1.00  0.00     0.280 HD
ATOM      3  H12 UNL     1      26.953 -39.612 -53.066  1.00  0.00     0.280 HD
ENDROOT
BRANCH   1   4
HETATM    4  C7  UNL     1      25.735 -40.152 -54.618  1.00  0.00     0.358 C 
HETATM    5  C6  UNL     1      26.044 -41.613 -54.718  1.00  0.00     0.067 C 
HETATM    6  C5  UNL     1      27.283 -41.780 -55.600  1.00  0.00     0.042 C 
HETATM    7  C4  UNL     1      27.042 -41.015 -56.856  1.00  0.00     0.194 C 
HETATM    8  O3  UNL     1      25.784 -40.470 -56.863  1.00  0.00    -0.230 OA
HETATM    9  O2  UNL     1      25.500 -39.655 -55.902  1.00  0.00    -0.206 OA
BRANCH   7  10
HETATM   10  C2  UNL     1      27.126 -41.969 -58.039  1.00  0.00     0.079 C 
HETATM   11  C1  UNL     1      25.748 -42.549 -58.339  1.00  0.00     0.048 C 
HETATM   12  C3  UNL     1      28.067 -43.083 -57.687  1.00  0.00     0.048 C 
BRANCH  10  13
HETATM   13  O1  UNL     1      27.619 -41.261 -59.110  1.00  0.00    -0.388 OA
ATOM     14  H1  UNL     1      27.222 -40.401 -59.172  1.00  0.00     0.210 HD
ENDBRANCH  10  13
ENDBRANCH   7  10
ENDBRANCH   1   4
BRANCH   1  15
HETATM   15  C8  UNL     1      26.487 -37.942 -54.166  1.00  0.00     0.254 C 
BRANCH  15  16
HETATM   16  C9  UNL     1      27.111 -37.127 -53.081  1.00  0.00     0.141 C 
BRANCH  16  17
HETATM   17  N2  UNL     1      26.344 -35.959 -52.798  1.00  0.00    -0.419 N 
ATOM     18  H2  UNL     1      26.130 -35.265 -53.513  1.00  0.00     0.153 HD
BRANCH  17  19
HETATM   19  C10 UNL     1      25.896 -35.822 -51.445  1.00  0.00     0.118 C 
BRANCH  19  20
HETATM   20  C11 UNL     1      24.840 -34.733 -51.404  1.00  0.00     0.006 C 
HETATM   21  C12 UNL     1      23.921 -34.803 -52.592  1.00  0.00     0.034 C 
HETATM   22  C13 UNL     1      23.129 -33.514 -52.631  1.00  0.00     0.232 C 
HETATM   23  N3  UNL     1      22.451 -33.330 -51.365  1.00  0.00    -0.075 N 
HETATM   24  C14 UNL     1      22.580 -34.452 -50.488  1.00  0.00     0.232 C 
ATOM     25  H32 UNL     1      22.764 -32.475 -50.907  1.00  0.00     0.277 HD
ATOM     26  H31 UNL     1      21.470 -33.094 -51.509  1.00  0.00     0.277 HD
HETATM   27  C15 UNL     1      23.981 -34.856 -50.164  1.00  0.00     0.034 C 
ENDBRANCH  19  20
ENDBRANCH  17  19
ENDBRANCH  16  17
ENDBRANCH  15  16
ENDBRANCH   1  15
TORSDOF 8
ENDMDL
MODEL 5
REMARK VINA RESULT: -7.431648169      0.335      1.104
REMARK  8 active torsions:
REMARK  status: ('A' for Active; 'I' for Inactive)
REMARK    1  A    between atoms: C2_2  and  O1_4 
REMARK    2  A    between atoms: C2_2  and  C4_6 
REMARK    3  A    between atoms: C7_9  and  N1_10 
REMARK    4  A    between atoms: N1_10  and  C8_13 
REMARK    5  A    between atoms: C8_13  and  C9_14 
REMARK    6  A    between atoms: C9_14  and  N2_15 
REMARK    7  A    between atoms: N2_15  and  C10_17 
REMARK    8  A    between atoms: C10_17  and  C11_18 
ROOT
HETATM    1  N1  UNL     1      26.786 -39.447 -53.970  1.00  0.00    -0.044 N 
ATOM      2  H11 UNL     1      27.648 -39.832 -54.354  1.00  0.00     0.280 HD
ATOM      3  H12 UNL     1      26.893 -39.759 -53.004  1.00  0.00     0.280 HD
ENDROOT
BRANCH   1   4
HETATM    4  C7  UNL     1      25.626 -40.028 -54.588  1.00  0.00     0.358 C 
HETATM    5  C6  UNL     1      25.708 -41.505 -54.817  1.00  0.00     0.067 C 
HETATM    6  C5  UNL     1      26.894 -41.779 -55.742  1.00  0.00     0.042 C 
HETATM    7  C4  UNL     1      26.755 -40.882 -56.924  1.00  0.00     0.194 C 
HETATM    8  O3  UNL     1      25.595 -40.156 -56.851  1.00  0.00    -0.230 OA
HETATM    9  O2  UNL     1      25.451 -39.393 -55.820  1.00  0.00    -0.206 OA
BRANCH   7  10
HETATM   10  C2  UNL     1      26.678 -41.732 -58.183  1.00  0.00     0.079 C 
HETATM   11  C1  UNL     1      25.263 -41.694 -58.750  1.00  0.00     0.048 C 
HETATM   12  C3  UNL     1      27.032 -43.146 -57.827  1.00  0.00     0.048 C 
BRANCH  10  13
HETATM   13  O1  UNL     1      27.594 -41.233 -59.079  1.00  0.00    -0.388 OA
ATOM     14  H1  UNL     1      27.250 -41.231 -59.964  1.00  0.00     0.210 HD
ENDBRANCH  10  13
ENDBRANCH   7  10
ENDBRANCH   1   4
BRANCH   1  15
HETATM   15  C8  UNL     1      26.759 -38.005 -54.063  1.00  0.00     0.254 C 
BRANCH  15  16
HETATM   16  C9  UNL     1      26.813 -37.344 -52.725  1.00  0.00     0.141 C 
BRANCH  16  17
HETATM   17  N2  UNL     1      26.625 -35.935 -52.830  1.00  0.00    -0.419 N 
ATOM     18  H2  UNL     1      27.118 -35.276 -52.228  1.00  0.00     0.153 HD
BRANCH  17  19
HETATM   19  C10 UNL     1      25.699 -35.503 -53.834  1.00  0.00     0.118 C 
BRANCH  19  20
HETATM   20  C11 UNL     1      24.377 -35.191 -53.156  1.00  0.00     0.006 C 
HETATM   21  C12 UNL     1      24.577 -34.472 -51.851  1.00  0.00     0.034 C 
HETATM   22  C13 UNL     1      23.256 -34.495 -51.112  1.00  0.00     0.232 C 
HETATM   23  N3  UNL     1      22.227 -33.924 -51.955  1.00  0.00    -0.075 N 
HETATM   24  C14 UNL     1      22.736 -33.366 -53.168  1.00  0.00     0.232 C 
ATOM     25  H32 UNL     1      21.496 -34.608 -52.149  1.00  0.00     0.277 HD
ATOM     26  H31 UNL     1      21.678 -33.235 -51.441  1.00  0.00     0.277 HD
HETATM   27  C15 UNL     1      23.515 -34.305 -54.029  1.00  0.00     0.034 C 
ENDBRANCH  19  20
ENDBRANCH  17  19
ENDBRANCH  16  17
ENDBRANCH  15  16
ENDBRANCH   1  15
TORSDOF 8
ENDMDL
