MODEL 1
REMARK VINA RESULT: -6.419214583      0.000      0.000
REMARK  3 active torsions:
REMARK  status: ('A' for Active; 'I' for Inactive)
REMARK    1  A    between atoms: C3_4  and  O1_5 
REMARK    2  A    between atoms: C6_10  and  N2_11 
REMARK    3  A    between atoms: N6_24  and  O5_25 
ROOT
HETATM    1  N1  UNL     1      22.054 -12.517  -0.061  1.00  0.00    -0.191 NA
HETATM    2  C1  UNL     1      21.277 -13.245  -0.550  1.00  0.00     0.105 C 
HETATM    3  C2  UNL     1      20.343 -14.137  -1.113  1.00  0.00     0.119 A 
HETATM    4  C3  UNL     1      20.806 -15.094  -2.012  1.00  0.00     0.109 A 
HETATM    5  C4  UNL     1      19.934 -15.975  -2.585  1.00  0.00     0.076 A 
HETATM    6  S1  UNL     1      20.403 -17.181  -3.710  1.00  0.00    -0.062 SA
HETATM    7  C5  UNL     1      19.065 -18.128  -4.255  1.00  0.00     0.138 A 
HETATM    8  C6  UNL     1      18.905 -19.176  -5.137  1.00  0.00     0.183 A 
HETATM    9  C7  UNL     1      17.561 -19.479  -5.138  1.00  0.00     0.150 A 
HETATM   10  N3  UNL     1      17.045 -20.423  -5.848  1.00  0.00    -0.382 N 
ATOM     11  H31 UNL     1      16.050 -20.647  -5.849  1.00  0.00     0.157 HD
ATOM     12  H32 UNL     1      17.486 -21.073  -6.500  1.00  0.00     0.157 HD
HETATM   13  N4  UNL     1      16.992 -18.639  -4.296  1.00  0.00    -0.273 N 
ATOM     14  H4  UNL     1      15.993 -18.628  -4.090  1.00  0.00     0.189 HD
HETATM   15  N5  UNL     1      17.868 -17.814  -3.749  1.00  0.00    -0.207 N 
HETATM   16  C8  UNL     1      17.656 -16.831  -2.864  1.00  0.00     0.298 A 
HETATM   17  O4  UNL     1      16.440 -16.659  -2.474  1.00  0.00    -0.264 OA
HETATM   18  C9  UNL     1      18.580 -15.989  -2.328  1.00  0.00     0.153 A 
HETATM   19  N6  UNL     1      18.167 -15.029  -1.436  1.00  0.00    -0.206 N 
HETATM   20  C10 UNL     1      19.001 -14.160  -0.869  1.00  0.00     0.166 A 
HETATM   21  C11 UNL     1      18.512 -13.156   0.069  1.00  0.00     0.122 C 
HETATM   22  N7  UNL     1      18.104 -12.370   0.810  1.00  0.00    -0.190 NA
ENDROOT
BRANCH   4  23
HETATM   23  O1  UNL     1      22.125 -15.167  -2.333  1.00  0.00    -0.358 OA
ATOM     24  H1  UNL     1      22.416 -15.663  -3.089  1.00  0.00     0.217 HD
ENDBRANCH   4  23
BRANCH  19  25
HETATM   25  O5  UNL     1      16.834 -14.917  -1.077  1.00  0.00    -0.281 OA
ATOM     26  H5  UNL     1      16.474 -14.086  -0.792  1.00  0.00     0.245 HD
ENDBRANCH  19  25
BRANCH   8  27
HETATM   27  N2  UNL     1      19.981 -19.724  -5.864  1.00  0.00    -0.109 N 
HETATM   28  O2  UNL     1      20.827 -18.974  -6.381  1.00  0.00    -0.532 OA
HETATM   29  O3  UNL     1      20.155 -21.100  -6.031  1.00  0.00    -0.532 OA
ENDBRANCH   8  27
TORSDOF 3
ENDMDL
MODEL 2
REMARK VINA RESULT: -5.962189816      1.871      6.717
REMARK  3 active torsions:
REMARK  status: ('A' for Active; 'I' for Inactive)
REMARK    1  A    between atoms: C3_4  and  O1_5 
REMARK    2  A    between atoms: C6_10  and  N2_11 
REMARK    3  A    between atoms: N6_24  and  O5_25 
ROOT
HETATM    1  N1  UNL     1      21.347 -19.023  -5.978  1.00  0.00    -0.191 NA
HETATM    2  C1  UNL     1      20.752 -18.382  -5.199  1.00  0.00     0.105 C 
HETATM    3  C2  UNL     1      20.023 -17.596  -4.284  1.00  0.00     0.119 A 
HETATM    4  C3  UNL     1      20.687 -16.559  -3.633  1.00  0.00     0.109 A 
HETATM    5  C4  UNL     1      20.021 -15.775  -2.735  1.00  0.00     0.076 A 
HETATM    6  S1  UNL     1      20.750 -14.483  -1.876  1.00  0.00    -0.062 SA
HETATM    7  C5  UNL     1      19.642 -13.693  -0.810  1.00  0.00     0.138 A 
HETATM    8  C6  UNL     1      19.724 -12.645   0.082  1.00  0.00     0.183 A 
HETATM    9  C7  UNL     1      18.470 -12.513   0.638  1.00  0.00     0.150 A 
HETATM   10  N3  UNL     1      18.174 -11.618   1.517  1.00  0.00    -0.382 N 
ATOM     11  H31 UNL     1      17.246 -11.519   1.929  1.00  0.00     0.157 HD
ATOM     12  H32 UNL     1      18.755 -10.897   1.945  1.00  0.00     0.157 HD
HETATM   13  N4  UNL     1      17.719 -13.444   0.084  1.00  0.00    -0.273 N 
ATOM     14  H4  UNL     1      16.733 -13.587   0.305  1.00  0.00     0.189 HD
HETATM   15  N5  UNL     1      18.393 -14.171  -0.790  1.00  0.00    -0.207 N 
HETATM   16  C8  UNL     1      17.965 -15.202  -1.531  1.00  0.00     0.298 A 
HETATM   17  O4  UNL     1      16.729 -15.537  -1.394  1.00  0.00    -0.264 OA
HETATM   18  C9  UNL     1      18.689 -15.938  -2.416  1.00  0.00     0.153 A 
HETATM   19  N6  UNL     1      18.074 -16.972  -3.081  1.00  0.00    -0.206 N 
HETATM   20  C10 UNL     1      18.708 -17.748  -3.959  1.00  0.00     0.166 A 
HETATM   21  C11 UNL     1      18.010 -18.835  -4.635  1.00  0.00     0.122 C 
HETATM   22  N7  UNL     1      17.439 -19.690  -5.161  1.00  0.00    -0.190 NA
ENDROOT
BRANCH   4  23
HETATM   23  O1  UNL     1      22.001 -16.311  -3.878  1.00  0.00    -0.358 OA
ATOM     24  H1  UNL     1      22.680 -16.823  -3.456  1.00  0.00     0.217 HD
ENDBRANCH   4  23
BRANCH  19  25
HETATM   25  O5  UNL     1      16.737 -17.260  -2.867  1.00  0.00    -0.281 OA
ATOM     26  H5  UNL     1      16.346 -18.051  -3.220  1.00  0.00     0.245 HD
ENDBRANCH  19  25
BRANCH   8  27
HETATM   27  N2  UNL     1      20.923 -11.944   0.317  1.00  0.00    -0.109 N 
HETATM   28  O2  UNL     1      21.798 -11.897  -0.566  1.00  0.00    -0.532 OA
HETATM   29  O3  UNL     1      21.182 -11.275   1.515  1.00  0.00    -0.532 OA
ENDBRANCH   8  27
TORSDOF 3
ENDMDL
MODEL 3
REMARK VINA RESULT: -5.913653989      1.629      1.813
REMARK  3 active torsions:
REMARK  status: ('A' for Active; 'I' for Inactive)
REMARK    1  A    between atoms: C3_4  and  O1_5 
REMARK    2  A    between atoms: C6_10  and  N2_11 
REMARK    3  A    between atoms: N6_24  and  O5_25 
ROOT
HETATM    1  N1  UNL     1      21.760 -14.651   0.698  1.00  0.00    -0.191 NA
HETATM    2  C1  UNL     1      21.053 -15.213  -0.047  1.00  0.00     0.105 C 
HETATM    3  C2  UNL     1      20.188 -15.902  -0.921  1.00  0.00     0.119 A 
HETATM    4  C3  UNL     1      20.661 -17.055  -1.541  1.00  0.00     0.109 A 
HETATM    5  C4  UNL     1      19.858 -17.751  -2.399  1.00  0.00     0.076 A 
HETATM    6  S1  UNL     1      20.350 -19.174  -3.219  1.00  0.00    -0.062 SA
HETATM    7  C5  UNL     1      19.107 -19.810  -4.238  1.00  0.00     0.138 A 
HETATM    8  C6  UNL     1      18.999 -20.888  -5.090  1.00  0.00     0.183 A 
HETATM    9  C7  UNL     1      17.730 -20.834  -5.624  1.00  0.00     0.150 A 
HETATM   10  N3  UNL     1      17.274 -21.699  -6.463  1.00  0.00    -0.382 N 
ATOM     11  H31 UNL     1      16.335 -21.658  -6.859  1.00  0.00     0.157 HD
ATOM     12  H32 UNL     1      17.721 -22.519  -6.871  1.00  0.00     0.157 HD
HETATM   13  N4  UNL     1      17.152 -19.773  -5.096  1.00  0.00    -0.273 N 
ATOM     14  H4  UNL     1      16.199 -19.478  -5.308  1.00  0.00     0.189 HD
HETATM   15  N5  UNL     1      17.952 -19.135  -4.259  1.00  0.00    -0.207 N 
HETATM   16  C8  UNL     1      17.713 -18.023  -3.552  1.00  0.00     0.298 A 
HETATM   17  O4  UNL     1      16.546 -17.495  -3.684  1.00  0.00    -0.264 OA
HETATM   18  C9  UNL     1      18.565 -17.384  -2.706  1.00  0.00     0.153 A 
HETATM   19  N6  UNL     1      18.140 -16.241  -2.072  1.00  0.00    -0.206 N 
HETATM   20  C10 UNL     1      18.909 -15.548  -1.234  1.00  0.00     0.166 A 
HETATM   21  C11 UNL     1      18.412 -14.338  -0.590  1.00  0.00     0.122 C 
HETATM   22  N7  UNL     1      17.998 -13.384  -0.089  1.00  0.00    -0.190 NA
ENDROOT
BRANCH   4  23
HETATM   23  O1  UNL     1      21.922 -17.506  -1.305  1.00  0.00    -0.358 OA
ATOM     24  H1  UNL     1      22.285 -18.225  -1.809  1.00  0.00     0.217 HD
ENDBRANCH   4  23
BRANCH  19  25
HETATM   25  O5  UNL     1      16.864 -15.745  -2.279  1.00  0.00    -0.281 OA
ATOM     26  H5  UNL     1      16.294 -16.124  -2.938  1.00  0.00     0.245 HD
ENDBRANCH  19  25
BRANCH   8  27
HETATM   27  N2  UNL     1      20.063 -21.785  -5.315  1.00  0.00    -0.109 N 
HETATM   28  O2  UNL     1      20.575 -21.869  -6.445  1.00  0.00    -0.532 OA
HETATM   29  O3  UNL     1      20.591 -22.596  -4.308  1.00  0.00    -0.532 OA
ENDBRANCH   8  27
TORSDOF 3
ENDMDL
MODEL 4
REMARK VINA RESULT: -5.672792653      8.791     11.787
REMARK  3 active torsions:
REMARK  status: ('A' for Active; 'I' for Inactive)
REMARK    1  A    between atoms: C3_4  and  O1_5 
REMARK    2  A    between atoms: C6_10  and  N2_11 
REMARK    3  A    between atoms: N6_24  and  O5_25 
ROOT
HETATM    1  N1  UNL     1       6.252 -23.612  -0.628  1.00  0.00    -0.191 NA
HETATM    2  C1  UNL     1       7.328 -23.242  -0.352  1.00  0.00     0.105 C 
HETATM    3  C2  UNL     1       8.616 -22.796   0.009  1.00  0.00     0.119 A 
HETATM    4  C3  UNL     1       8.926 -21.453  -0.190  1.00  0.00     0.109 A 
HETATM    5  C4  UNL     1      10.164 -20.979   0.141  1.00  0.00     0.076 A 
HETATM    6  S1  UNL     1      10.646 -19.348  -0.074  1.00  0.00    -0.062 SA
HETATM    7  C5  UNL     1      12.274 -19.071   0.434  1.00  0.00     0.138 A 
HETATM    8  C6  UNL     1      13.117 -17.980   0.460  1.00  0.00     0.183 A 
HETATM    9  C7  UNL     1      14.312 -18.427   0.980  1.00  0.00     0.150 A 
HETATM   10  N3  UNL     1      15.338 -17.667   1.159  1.00  0.00    -0.382 N 
ATOM     11  H31 UNL     1      16.222 -17.998   1.544  1.00  0.00     0.157 HD
ATOM     12  H32 UNL     1      15.465 -16.675   0.962  1.00  0.00     0.157 HD
HETATM   13  N4  UNL     1      14.147 -19.710   1.235  1.00  0.00    -0.273 N 
ATOM     14  H4  UNL     1      14.872 -20.310   1.631  1.00  0.00     0.189 HD
HETATM   15  N5  UNL     1      12.934 -20.129   0.918  1.00  0.00    -0.207 N 
HETATM   16  C8  UNL     1      12.416 -21.359   1.027  1.00  0.00     0.298 A 
HETATM   17  O4  UNL     1      13.186 -22.268   1.517  1.00  0.00    -0.264 OA
HETATM   18  C9  UNL     1      11.164 -21.760   0.680  1.00  0.00     0.153 A 
HETATM   19  N6  UNL     1      10.814 -23.077   0.859  1.00  0.00    -0.206 N 
HETATM   20  C10 UNL     1       9.614 -23.558   0.541  1.00  0.00     0.166 A 
HETATM   21  C11 UNL     1       9.294 -24.966   0.746  1.00  0.00     0.122 C 
HETATM   22  N7  UNL     1       9.059 -26.083   0.918  1.00  0.00    -0.190 NA
ENDROOT
BRANCH   4  23
HETATM   23  O1  UNL     1       8.010 -20.596  -0.714  1.00  0.00    -0.358 OA
ATOM     24  H1  UNL     1       7.945 -20.466  -1.652  1.00  0.00     0.217 HD
ENDBRANCH   4  23
BRANCH  19  25
HETATM   25  O5  UNL     1      11.713 -23.986   1.391  1.00  0.00    -0.281 OA
ATOM     26  H5  UNL     1      11.633 -24.915   1.208  1.00  0.00     0.245 HD
ENDBRANCH  19  25
BRANCH   8  27
HETATM   27  N2  UNL     1      12.728 -16.712  -0.015  1.00  0.00    -0.109 N 
HETATM   28  O2  UNL     1      13.444 -16.108  -0.833  1.00  0.00    -0.532 OA
HETATM   29  O3  UNL     1      11.546 -16.086   0.389  1.00  0.00    -0.532 OA
ENDBRANCH   8  27
TORSDOF 3
ENDMDL
MODEL 5
REMARK VINA RESULT: -5.552437991      1.822      6.610
REMARK  3 active torsions:
REMARK  status: ('A' for Active; 'I' for Inactive)
REMARK    1  A    between atoms: C3_4  and  O1_5 
REMARK    2  A    between atoms: C6_10  and  N2_11 
REMARK    3  A    between atoms: N6_24  and  O5_25 
ROOT
HETATM    1  N1  UNL     1      21.467 -20.739  -5.283  1.00  0.00    -0.191 NA
HETATM    2  C1  UNL     1      20.830 -19.945  -4.703  1.00  0.00     0.105 C 
HETATM    3  C2  UNL     1      20.063 -18.973  -4.030  1.00  0.00     0.119 A 
HETATM    4  C3  UNL     1      20.720 -18.092  -3.176  1.00  0.00     0.109 A 
HETATM    5  C4  UNL     1      20.015 -17.137  -2.500  1.00  0.00     0.076 A 
HETATM    6  S1  UNL     1      20.729 -16.014  -1.419  1.00  0.00    -0.062 SA
HETATM    7  C5  UNL     1      19.566 -14.945  -0.718  1.00  0.00     0.138 A 
HETATM    8  C6  UNL     1      19.616 -13.907   0.188  1.00  0.00     0.183 A 
HETATM    9  C7  UNL     1      18.320 -13.465   0.341  1.00  0.00     0.150 A 
HETATM   10  N3  UNL     1      17.988 -12.489   1.114  1.00  0.00    -0.382 N 
ATOM     11  H31 UNL     1      17.029 -12.161   1.227  1.00  0.00     0.157 HD
ATOM     12  H32 UNL     1      18.564 -11.905   1.721  1.00  0.00     0.157 HD
HETATM   13  N4  UNL     1      17.577 -14.220  -0.445  1.00  0.00    -0.273 N 
ATOM     14  H4  UNL     1      16.566 -14.121  -0.539  1.00  0.00     0.189 HD
HETATM   15  N5  UNL     1      18.295 -15.119  -1.094  1.00  0.00    -0.207 N 
HETATM   16  C8  UNL     1      17.885 -16.054  -1.962  1.00  0.00     0.298 A 
HETATM   17  O4  UNL     1      16.623 -16.087  -2.219  1.00  0.00    -0.264 OA
HETATM   18  C9  UNL     1      18.650 -16.974  -2.606  1.00  0.00     0.153 A 
HETATM   19  N6  UNL     1      18.043 -17.865  -3.459  1.00  0.00    -0.206 N 
HETATM   20  C10 UNL     1      18.713 -18.803  -4.125  1.00  0.00     0.166 A 
HETATM   21  C11 UNL     1      18.020 -19.727  -5.015  1.00  0.00     0.122 C 
HETATM   22  N7  UNL     1      17.453 -20.448  -5.717  1.00  0.00    -0.190 NA
ENDROOT
BRANCH   4  23
HETATM   23  O1  UNL     1      22.067 -18.165  -3.001  1.00  0.00    -0.358 OA
ATOM     24  H1  UNL     1      22.646 -17.532  -3.408  1.00  0.00     0.217 HD
ENDBRANCH   4  23
BRANCH  19  25
HETATM   25  O5  UNL     1      16.675 -17.827  -3.671  1.00  0.00    -0.281 OA
ATOM     26  H5  UNL     1      16.315 -17.900  -4.548  1.00  0.00     0.245 HD
ENDBRANCH  19  25
BRANCH   8  27
HETATM   27  N2  UNL     1      20.816 -13.493   0.800  1.00  0.00    -0.109 N 
HETATM   28  O2  UNL     1      21.177 -12.305   0.718  1.00  0.00    -0.532 OA
HETATM   29  O3  UNL     1      21.637 -14.366   1.517  1.00  0.00    -0.532 OA
ENDBRANCH   8  27
TORSDOF 3
ENDMDL
