MODEL 1
REMARK VINA RESULT: -5.720923732      0.000      0.000
REMARK  0 active torsions:
REMARK  status: ('A' for Active; 'I' for Inactive)
ROOT
HETATM    1  N1  UNL     1      20.990 -18.620  -5.994  1.00  0.00    -0.062 NA
HETATM    2  C1  UNL     1      19.677 -18.786  -5.390  1.00  0.00     0.209 C 
HETATM    3  N2  UNL     1      18.862 -19.580  -5.923  1.00  0.00    -0.338 N 
ATOM      4  H2  UNL     1      19.241 -20.032  -6.755  1.00  0.00     0.168 HD
HETATM    5  C2  UNL     1      17.548 -19.988  -5.637  1.00  0.00     0.107 C 
HETATM    6  C3  UNL     1      17.288 -21.256  -6.390  1.00  0.00     0.100 C 
HETATM    7  N3  UNL     1      17.250 -22.405  -5.866  1.00  0.00    -0.396 N 
ATOM      8  H3  UNL     1      17.064 -23.201  -6.475  1.00  0.00     0.158 HD
HETATM    9  C4  UNL     1      17.452 -22.662  -4.468  1.00  0.00     0.146 C 
HETATM   10  C5  UNL     1      17.884 -24.098  -4.305  1.00  0.00     0.251 C 
HETATM   11  N4  UNL     1      18.681 -24.282  -3.096  1.00  0.00    -0.072 N 
ATOM     12  H41 UNL     1      19.636 -23.951  -3.232  1.00  0.00     0.277 HD
ATOM     13  H42 UNL     1      18.872 -25.271  -2.929  1.00  0.00     0.277 HD
HETATM   14  C6  UNL     1      18.079 -23.669  -1.941  1.00  0.00     0.259 C 
HETATM   15  C7  UNL     1      19.011 -23.871  -0.772  1.00  0.00     0.259 C 
HETATM   16  N5  UNL     1      19.726 -22.656  -0.525  1.00  0.00    -0.072 N 
ATOM     17  H51 UNL     1      19.622 -22.013  -1.309  1.00  0.00     0.277 HD
ATOM     18  H52 UNL     1      20.732 -22.818  -0.567  1.00  0.00     0.277 HD
HETATM   19  C8  UNL     1      19.372 -22.011   0.706  1.00  0.00     0.258 C 
HETATM   20  C9  UNL     1      18.846 -20.627   0.427  1.00  0.00     0.195 C 
HETATM   21  O1  UNL     1      19.878 -19.798   0.037  1.00  0.00    -0.384 OA
HETATM   22  C10 UNL     1      19.415 -18.796  -0.833  1.00  0.00     0.214 C 
HETATM   23  C11 UNL     1      19.320 -19.336  -2.245  1.00  0.00     0.114 C 
HETATM   24  N6  UNL     1      18.780 -18.375  -3.095  1.00  0.00    -0.278 N 
HETATM   25  C12 UNL     1      17.597 -17.700  -2.757  1.00  0.00     0.114 C 
HETATM   26  C13 UNL     1      17.873 -16.307  -2.228  1.00  0.00     0.214 C 
HETATM   27  O2  UNL     1      18.375 -15.519  -3.255  1.00  0.00    -0.384 OA
HETATM   28  C14 UNL     1      19.749 -15.726  -3.318  1.00  0.00     0.190 C 
HETATM   29  C15 UNL     1      20.097 -16.698  -4.420  1.00  0.00     0.178 C 
HETATM   30  N7  UNL     1      19.455 -18.010  -4.224  1.00  0.00    -0.257 N 
ENDROOT
TORSDOF 0
ENDMDL
MODEL 2
REMARK VINA RESULT: -5.514305988     14.576     16.735
REMARK  0 active torsions:
REMARK  status: ('A' for Active; 'I' for Inactive)
ROOT
HETATM    1  N1  UNL     1       7.844 -24.497 -10.203  1.00  0.00    -0.062 NA
HETATM    2  C1  UNL     1       6.519 -23.939 -10.422  1.00  0.00     0.209 C 
HETATM    3  N2  UNL     1       5.787 -23.710  -9.427  1.00  0.00    -0.338 N 
ATOM      4  H2  UNL     1       6.236 -23.956  -8.545  1.00  0.00     0.168 HD
HETATM    5  C2  UNL     1       4.492 -23.193  -9.249  1.00  0.00     0.107 C 
HETATM    6  C3  UNL     1       4.358 -22.778  -7.817  1.00  0.00     0.100 C 
HETATM    7  N3  UNL     1       4.375 -21.581  -7.413  1.00  0.00    -0.396 N 
ATOM      8  H3  UNL     1       4.274 -21.414  -6.413  1.00  0.00     0.158 HD
HETATM    9  C4  UNL     1       4.527 -20.441  -8.273  1.00  0.00     0.146 C 
HETATM   10  C5  UNL     1       5.050 -19.290  -7.450  1.00  0.00     0.251 C 
HETATM   11  N4  UNL     1       5.799 -18.343  -8.270  1.00  0.00    -0.072 N 
ATOM     12  H41 UNL     1       6.734 -18.695  -8.475  1.00  0.00     0.277 HD
ATOM     13  H42 UNL     1       6.050 -17.512  -7.735  1.00  0.00     0.277 HD
HETATM   14  C6  UNL     1       5.102 -17.990  -9.479  1.00  0.00     0.259 C 
HETATM   15  C7  UNL     1       5.988 -17.060 -10.269  1.00  0.00     0.259 C 
HETATM   16  N5  UNL     1       6.605 -17.790 -11.335  1.00  0.00    -0.072 N 
ATOM     17  H51 UNL     1       6.493 -18.794 -11.193  1.00  0.00     0.277 HD
ATOM     18  H52 UNL     1       7.621 -17.720 -11.276  1.00  0.00     0.277 HD
HETATM   19  C8  UNL     1       6.149 -17.413 -12.641  1.00  0.00     0.258 C 
HETATM   20  C9  UNL     1       5.541 -18.604 -13.337  1.00  0.00     0.195 C 
HETATM   21  O1  UNL     1       6.531 -19.494 -13.702  1.00  0.00    -0.384 OA
HETATM   22  C10 UNL     1       6.041 -20.811 -13.712  1.00  0.00     0.214 C 
HETATM   23  C11 UNL     1       6.052 -21.382 -12.308  1.00  0.00     0.114 C 
HETATM   24  N6  UNL     1       5.487 -22.654 -12.299  1.00  0.00    -0.278 N 
HETATM   25  C12 UNL     1       4.246 -22.894 -12.907  1.00  0.00     0.114 C 
HETATM   26  C13 UNL     1       4.399 -23.553 -14.263  1.00  0.00     0.214 C 
HETATM   27  O2  UNL     1       4.892 -24.839 -14.093  1.00  0.00    -0.384 OA
HETATM   28  C14 UNL     1       6.279 -24.756 -14.019  1.00  0.00     0.190 C 
HETATM   29  C15 UNL     1       6.746 -24.807 -12.584  1.00  0.00     0.178 C 
HETATM   30  N7  UNL     1       6.188 -23.704 -11.781  1.00  0.00    -0.257 N 
ENDROOT
TORSDOF 0
ENDMDL
MODEL 3
REMARK VINA RESULT: -5.301216885      3.853      6.414
REMARK  0 active torsions:
REMARK  status: ('A' for Active; 'I' for Inactive)
ROOT
HETATM    1  N1  UNL     1      14.385 -16.309  -3.181  1.00  0.00    -0.062 NA
HETATM    2  C1  UNL     1      15.422 -17.162  -2.621  1.00  0.00     0.209 C 
HETATM    3  N2  UNL     1      16.237 -17.716  -3.401  1.00  0.00    -0.338 N 
ATOM      4  H2  UNL     1      16.061 -17.486  -4.379  1.00  0.00     0.168 HD
HETATM    5  C2  UNL     1      17.334 -18.578  -3.236  1.00  0.00     0.107 C 
HETATM    6  C3  UNL     1      18.140 -18.540  -4.498  1.00  0.00     0.100 C 
HETATM    7  N3  UNL     1      19.242 -17.937  -4.626  1.00  0.00    -0.396 N 
ATOM      8  H3  UNL     1      19.706 -17.978  -5.533  1.00  0.00     0.158 HD
HETATM    9  C4  UNL     1      19.884 -17.197  -3.576  1.00  0.00     0.146 C 
HETATM   10  C5  UNL     1      20.823 -16.198  -4.204  1.00  0.00     0.251 C 
HETATM   11  N4  UNL     1      21.031 -15.042  -3.336  1.00  0.00    -0.072 N 
ATOM     12  H41 UNL     1      20.235 -14.405  -3.376  1.00  0.00     0.277 HD
ATOM     13  H42 UNL     1      21.753 -14.426  -3.710  1.00  0.00     0.277 HD
HETATM   14  C6  UNL     1      21.324 -15.418  -1.978  1.00  0.00     0.259 C 
HETATM   15  C7  UNL     1      21.461 -14.154  -1.167  1.00  0.00     0.259 C 
HETATM   16  N5  UNL     1      20.263 -13.949  -0.409  1.00  0.00    -0.072 N 
ATOM     17  H51 UNL     1      19.518 -14.558  -0.747  1.00  0.00     0.277 HD
ATOM     18  H52 UNL     1      19.855 -13.040  -0.624  1.00  0.00     0.277 HD
HETATM   19  C8  UNL     1      20.435 -14.102   1.006  1.00  0.00     0.258 C 
HETATM   20  C9  UNL     1      19.538 -15.200   1.517  1.00  0.00     0.195 C 
HETATM   21  O1  UNL     1      18.223 -14.782   1.503  1.00  0.00    -0.384 OA
HETATM   22  C10 UNL     1      17.354 -15.868   1.307  1.00  0.00     0.214 C 
HETATM   23  C11 UNL     1      17.260 -16.201  -0.168  1.00  0.00     0.114 C 
HETATM   24  N6  UNL     1      16.469 -17.331  -0.359  1.00  0.00    -0.278 N 
HETATM   25  C12 UNL     1      16.692 -18.499   0.385  1.00  0.00     0.114 C 
HETATM   26  C13 UNL     1      15.695 -18.647   1.516  1.00  0.00     0.214 C 
HETATM   27  O2  UNL     1      14.433 -18.877   0.986  1.00  0.00    -0.384 OA
HETATM   28  C14 UNL     1      13.863 -17.642   0.696  1.00  0.00     0.190 C 
HETATM   29  C15 UNL     1      13.993 -17.321  -0.774  1.00  0.00     0.178 C 
HETATM   30  N7  UNL     1      15.401 -17.276  -1.207  1.00  0.00    -0.257 N 
ENDROOT
TORSDOF 0
ENDMDL
MODEL 4
REMARK VINA RESULT: -5.293662464      2.458      5.103
REMARK  0 active torsions:
REMARK  status: ('A' for Active; 'I' for Inactive)
ROOT
HETATM    1  N1  UNL     1      15.162 -17.566  -0.505  1.00  0.00    -0.062 NA
HETATM    2  C1  UNL     1      16.531 -18.031  -0.343  1.00  0.00     0.209 C 
HETATM    3  N2  UNL     1      16.734 -19.255  -0.146  1.00  0.00    -0.338 N 
ATOM      4  H2  UNL     1      15.870 -19.798  -0.123  1.00  0.00     0.168 HD
HETATM    5  C2  UNL     1      17.876 -20.049   0.051  1.00  0.00     0.107 C 
HETATM    6  C3  UNL     1      17.490 -21.476  -0.193  1.00  0.00     0.100 C 
HETATM    7  N3  UNL     1      17.796 -22.133  -1.228  1.00  0.00    -0.396 N 
ATOM      8  H3  UNL     1      17.480 -23.101  -1.288  1.00  0.00     0.158 HD
HETATM    9  C4  UNL     1      18.560 -21.607  -2.323  1.00  0.00     0.146 C 
HETATM   10  C5  UNL     1      18.258 -22.427  -3.552  1.00  0.00     0.251 C 
HETATM   11  N4  UNL     1      18.458 -21.653  -4.774  1.00  0.00    -0.072 N 
ATOM     12  H41 UNL     1      17.678 -21.017  -4.937  1.00  0.00     0.277 HD
ATOM     13  H42 UNL     1      18.365 -22.242  -5.602  1.00  0.00     0.277 HD
HETATM   14  C6  UNL     1      19.711 -20.946  -4.779  1.00  0.00     0.259 C 
HETATM   15  C7  UNL     1      19.784 -20.141  -6.052  1.00  0.00     0.259 C 
HETATM   16  N5  UNL     1      19.491 -18.770  -5.760  1.00  0.00    -0.072 N 
ATOM     17  H51 UNL     1      19.087 -18.682  -4.828  1.00  0.00     0.277 HD
ATOM     18  H52 UNL     1      18.704 -18.445  -6.321  1.00  0.00     0.277 HD
HETATM   19  C8  UNL     1      20.613 -17.890  -5.908  1.00  0.00     0.258 C 
HETATM   20  C9  UNL     1      20.905 -17.205  -4.597  1.00  0.00     0.195 C 
HETATM   21  O1  UNL     1      19.929 -16.268  -4.325  1.00  0.00    -0.384 OA
HETATM   22  C10 UNL     1      19.756 -16.111  -2.940  1.00  0.00     0.214 C 
HETATM   23  C11 UNL     1      18.854 -17.202  -2.400  1.00  0.00     0.114 C 
HETATM   24  N6  UNL     1      18.750 -17.103  -1.016  1.00  0.00    -0.278 N 
HETATM   25  C12 UNL     1      19.897 -16.987  -0.215  1.00  0.00     0.114 C 
HETATM   26  C13 UNL     1      20.129 -15.559   0.234  1.00  0.00     0.214 C 
HETATM   27  O2  UNL     1      19.122 -15.187   1.113  1.00  0.00    -0.384 OA
HETATM   28  C14 UNL     1      18.045 -14.733   0.359  1.00  0.00     0.190 C 
HETATM   29  C15 UNL     1      16.993 -15.807   0.223  1.00  0.00     0.178 C 
HETATM   30  N7  UNL     1      17.520 -17.018  -0.431  1.00  0.00    -0.257 N 
ENDROOT
TORSDOF 0
ENDMDL
MODEL 5
REMARK VINA RESULT: -5.221261702      2.417      4.987
REMARK  0 active torsions:
REMARK  status: ('A' for Active; 'I' for Inactive)
ROOT
HETATM    1  N1  UNL     1      15.058 -17.309   0.198  1.00  0.00    -0.062 NA
HETATM    2  C1  UNL     1      16.396 -17.883   0.184  1.00  0.00     0.209 C 
HETATM    3  N2  UNL     1      16.603 -18.947   0.818  1.00  0.00    -0.338 N 
ATOM      4  H2  UNL     1      15.767 -19.294   1.287  1.00  0.00     0.168 HD
HETATM    5  C2  UNL     1      17.723 -19.769   1.030  1.00  0.00     0.107 C 
HETATM    6  C3  UNL     1      17.230 -21.097   1.517  1.00  0.00     0.100 C 
HETATM    7  N3  UNL     1      17.189 -22.147   0.815  1.00  0.00    -0.396 N 
ATOM      8  H3  UNL     1      16.834 -22.998   1.250  1.00  0.00     0.158 HD
HETATM    9  C4  UNL     1      17.609 -22.219  -0.556  1.00  0.00     0.146 C 
HETATM   10  C5  UNL     1      16.925 -23.397  -1.203  1.00  0.00     0.251 C 
HETATM   11  N4  UNL     1      16.779 -23.205  -2.643  1.00  0.00    -0.072 N 
ATOM     12  H41 UNL     1      16.009 -22.570  -2.852  1.00  0.00     0.277 HD
ATOM     13  H42 UNL     1      16.422 -24.049  -3.092  1.00  0.00     0.277 HD
HETATM   14  C6  UNL     1      17.999 -22.764  -3.266  1.00  0.00     0.259 C 
HETATM   15  C7  UNL     1      17.717 -22.544  -4.731  1.00  0.00     0.259 C 
HETATM   16  N5  UNL     1      17.575 -21.141  -4.978  1.00  0.00    -0.072 N 
ATOM     17  H51 UNL     1      17.470 -20.632  -4.101  1.00  0.00     0.277 HD
ATOM     18  H52 UNL     1      16.668 -20.942  -5.402  1.00  0.00     0.277 HD
HETATM   19  C8  UNL     1      18.632 -20.577  -5.765  1.00  0.00     0.258 C 
HETATM   20  C9  UNL     1      19.327 -19.489  -4.988  1.00  0.00     0.195 C 
HETATM   21  O1  UNL     1      18.511 -18.380  -4.895  1.00  0.00    -0.384 OA
HETATM   22  C10 UNL     1      18.766 -17.667  -3.711  1.00  0.00     0.214 C 
HETATM   23  C11 UNL     1      18.027 -18.303  -2.551  1.00  0.00     0.114 C 
HETATM   24  N6  UNL     1      18.345 -17.654  -1.361  1.00  0.00    -0.278 N 
HETATM   25  C12 UNL     1      19.681 -17.415  -1.008  1.00  0.00     0.114 C 
HETATM   26  C13 UNL     1      20.090 -15.981  -1.277  1.00  0.00     0.214 C 
HETATM   27  O2  UNL     1      19.405 -15.141  -0.410  1.00  0.00    -0.384 OA
HETATM   28  C14 UNL     1      18.169 -14.856  -0.981  1.00  0.00     0.190 C 
HETATM   29  C15 UNL     1      17.086 -15.718  -0.378  1.00  0.00     0.178 C 
HETATM   30  N7  UNL     1      17.349 -17.155  -0.573  1.00  0.00    -0.257 N 
ENDROOT
TORSDOF 0
ENDMDL
