MODEL 1
REMARK VINA RESULT: -5.191118296      0.000      0.000
REMARK  5 active torsions:
REMARK  status: ('A' for Active; 'I' for Inactive)
REMARK    1  A    between atoms: C2_2  and  O2_4 
REMARK    2  A    between atoms: O2_4  and  C3_5 
REMARK    3  A    between atoms: C12_15  and  C13_16 
REMARK    4  A    between atoms: N1_17  and  O4_19 
REMARK    5  A    between atoms: C15_22  and  O5_23 
ROOT
HETATM    1  C3  UNL     1     -20.040  -9.058  21.312  1.00  0.00     0.120 C 
HETATM    2  C4  UNL     1     -20.739 -10.127  20.559  1.00  0.00     0.049 C 
HETATM    3  C5  UNL     1     -20.243 -10.403  19.193  1.00  0.00     0.042 C 
HETATM    4  C6  UNL     1     -20.074  -9.214  18.308  1.00  0.00     0.066 C 
HETATM    5  C7  UNL     1     -21.244  -8.948  17.368  1.00  0.00     0.064 C 
HETATM    6  C8  UNL     1     -20.169  -8.881  16.287  1.00  0.00     0.171 C 
HETATM    7  O3  UNL     1     -19.338  -9.583  17.180  1.00  0.00    -0.380 OA
HETATM    8  C9  UNL     1     -19.483  -8.014  18.952  1.00  0.00     0.075 C 
HETATM    9  C10 UNL     1     -19.362  -8.064  20.404  1.00  0.00    -0.043 C 
HETATM   10  C11 UNL     1     -18.597  -7.176  21.029  1.00  0.00    -0.011 C 
HETATM   11  C12 UNL     1     -18.441  -7.188  22.524  1.00  0.00     0.051 C 
HETATM   12  C14 UNL     1     -18.349  -8.587  23.077  1.00  0.00     0.049 C 
HETATM   13  C15 UNL     1     -18.870  -9.626  22.129  1.00  0.00     0.158 C 
ENDROOT
BRANCH  11  14
HETATM   14  C13 UNL     1     -17.144  -6.522  22.802  1.00  0.00     0.095 C 
HETATM   15  N1  UNL     1     -16.173  -6.572  21.957  1.00  0.00    -0.284 N 
ATOM     16  H1  UNL     1     -16.311  -7.082  21.086  1.00  0.00     0.192 HD
BRANCH  15  17
HETATM   17  O4  UNL     1     -14.968  -5.973  22.178  1.00  0.00    -0.291 OA
ATOM     18  H4  UNL     1     -14.200  -6.450  22.470  1.00  0.00     0.244 HD
ENDBRANCH  15  17
ENDBRANCH  11  14
BRANCH  13  19
HETATM   19  O5  UNL     1     -17.855  -9.866  21.190  1.00  0.00    -0.392 OA
ATOM     20  H5  UNL     1     -17.259  -9.131  21.278  1.00  0.00     0.210 HD
ENDBRANCH  13  19
BRANCH   1  21
HETATM   21  O2  UNL     1     -20.859  -8.284  22.129  1.00  0.00    -0.303 OA
BRANCH  21  22
HETATM   22  C2  UNL     1     -22.158  -8.051  21.807  1.00  0.00     0.256 C 
HETATM   23  C1  UNL     1     -22.614  -7.026  20.813  1.00  0.00     0.126 C 
HETATM   24  O1  UNL     1     -23.035  -8.724  22.367  1.00  0.00    -0.266 OA
ENDBRANCH  21  22
ENDBRANCH   1  21
TORSDOF 5
ENDMDL
MODEL 2
REMARK VINA RESULT: -5.175811732      1.823      3.469
REMARK  5 active torsions:
REMARK  status: ('A' for Active; 'I' for Inactive)
REMARK    1  A    between atoms: C2_2  and  O2_4 
REMARK    2  A    between atoms: O2_4  and  C3_5 
REMARK    3  A    between atoms: C12_15  and  C13_16 
REMARK    4  A    between atoms: N1_17  and  O4_19 
REMARK    5  A    between atoms: C15_22  and  O5_23 
ROOT
HETATM    1  C3  UNL     1     -20.490  -9.024  19.747  1.00  0.00     0.120 C 
HETATM    2  C4  UNL     1     -21.458 -10.120  19.503  1.00  0.00     0.049 C 
HETATM    3  C5  UNL     1     -21.173 -11.411  20.165  1.00  0.00     0.042 C 
HETATM    4  C6  UNL     1     -19.788 -11.939  19.997  1.00  0.00     0.066 C 
HETATM    5  C7  UNL     1     -19.626 -12.964  18.880  1.00  0.00     0.064 C 
HETATM    6  C8  UNL     1     -18.938 -13.804  19.950  1.00  0.00     0.171 C 
HETATM    7  O3  UNL     1     -19.583 -12.986  20.897  1.00  0.00    -0.380 OA
HETATM    8  C9  UNL     1     -18.701 -10.932  20.105  1.00  0.00     0.075 C 
HETATM    9  C10 UNL     1     -19.124  -9.538  20.125  1.00  0.00    -0.043 C 
HETATM   10  C11 UNL     1     -18.265  -8.598  20.501  1.00  0.00    -0.011 C 
HETATM   11  C12 UNL     1     -18.654  -7.146  20.538  1.00  0.00     0.051 C 
HETATM   12  C14 UNL     1     -20.059  -6.945  21.047  1.00  0.00     0.049 C 
HETATM   13  C15 UNL     1     -20.891  -8.191  20.974  1.00  0.00     0.158 C 
ENDROOT
BRANCH  11  14
HETATM   14  C13 UNL     1     -17.739  -6.505  21.515  1.00  0.00     0.095 C 
HETATM   15  N1  UNL     1     -16.463  -6.656  21.433  1.00  0.00    -0.284 N 
ATOM     16  H1  UNL     1     -16.087  -7.230  20.679  1.00  0.00     0.192 HD
BRANCH  15  17
HETATM   17  O4  UNL     1     -15.592  -6.083  22.312  1.00  0.00    -0.291 OA
ATOM     18  H4  UNL     1     -14.909  -6.573  22.756  1.00  0.00     0.244 HD
ENDBRANCH  15  17
ENDBRANCH  11  14
BRANCH  13  19
HETATM   19  O5  UNL     1     -20.540  -8.980  22.080  1.00  0.00    -0.392 OA
ATOM     20  H5  UNL     1     -19.889  -8.471  22.549  1.00  0.00     0.210 HD
ENDBRANCH  13  19
BRANCH   1  21
HETATM   21  O2  UNL     1     -20.262  -8.188  18.658  1.00  0.00    -0.303 OA
BRANCH  21  22
HETATM   22  C2  UNL     1     -20.484  -8.611  17.387  1.00  0.00     0.256 C 
HETATM   23  C1  UNL     1     -19.578  -9.534  16.630  1.00  0.00     0.126 C 
HETATM   24  O1  UNL     1     -21.501  -8.213  16.801  1.00  0.00    -0.266 OA
ENDBRANCH  21  22
ENDBRANCH   1  21
TORSDOF 5
ENDMDL
MODEL 3
REMARK VINA RESULT: -5.174972657      2.620      5.661
REMARK  5 active torsions:
REMARK  status: ('A' for Active; 'I' for Inactive)
REMARK    1  A    between atoms: C2_2  and  O2_4 
REMARK    2  A    between atoms: O2_4  and  C3_5 
REMARK    3  A    between atoms: C12_15  and  C13_16 
REMARK    4  A    between atoms: N1_17  and  O4_19 
REMARK    5  A    between atoms: C15_22  and  O5_23 
ROOT
HETATM    1  C3  UNL     1     -17.703  -7.350  22.451  1.00  0.00     0.120 C 
HETATM    2  C4  UNL     1     -16.675  -6.623  23.233  1.00  0.00     0.049 C 
HETATM    3  C5  UNL     1     -15.320  -7.214  23.250  1.00  0.00     0.042 C 
HETATM    4  C6  UNL     1     -15.244  -8.666  23.580  1.00  0.00     0.066 C 
HETATM    5  C7  UNL     1     -14.931  -8.973  25.040  1.00  0.00     0.064 C 
HETATM    6  C8  UNL     1     -13.854  -9.887  24.464  1.00  0.00     0.171 C 
HETATM    7  O3  UNL     1     -13.967  -9.141  23.275  1.00  0.00    -0.380 OA
HETATM    8  C9  UNL     1     -16.286  -9.520  22.955  1.00  0.00     0.075 C 
HETATM    9  C10 UNL     1     -17.378  -8.814  22.296  1.00  0.00    -0.043 C 
HETATM   10  C11 UNL     1     -18.188  -9.477  21.478  1.00  0.00    -0.011 C 
HETATM   11  C12 UNL     1     -19.328  -8.793  20.776  1.00  0.00     0.051 C 
HETATM   12  C14 UNL     1     -18.958  -7.410  20.302  1.00  0.00     0.049 C 
HETATM   13  C15 UNL     1     -17.750  -6.858  20.997  1.00  0.00     0.158 C 
ENDROOT
BRANCH  11  14
HETATM   14  C13 UNL     1     -19.609  -9.608  19.569  1.00  0.00     0.095 C 
HETATM   15  N1  UNL     1     -19.192  -9.246  18.405  1.00  0.00    -0.284 N 
ATOM     16  H1  UNL     1     -18.659  -8.380  18.327  1.00  0.00     0.192 HD
BRANCH  15  17
HETATM   17  O4  UNL     1     -19.431  -9.969  17.274  1.00  0.00    -0.291 OA
ATOM     18  H4  UNL     1     -19.092 -10.846  17.140  1.00  0.00     0.244 HD
ENDBRANCH  15  17
ENDBRANCH  11  14
BRANCH  13  19
HETATM   19  O5  UNL     1     -16.627  -7.433  20.382  1.00  0.00    -0.392 OA
ATOM     20  H5  UNL     1     -16.765  -7.307  19.451  1.00  0.00     0.210 HD
ENDBRANCH  13  19
BRANCH   1  21
HETATM   21  O2  UNL     1     -18.982  -7.331  23.001  1.00  0.00    -0.303 OA
BRANCH  21  22
HETATM   22  C2  UNL     1     -19.440  -6.248  23.681  1.00  0.00     0.256 C 
HETATM   23  C1  UNL     1     -20.144  -5.086  23.050  1.00  0.00     0.126 C 
HETATM   24  O1  UNL     1     -19.268  -6.206  24.907  1.00  0.00    -0.266 OA
ENDBRANCH  21  22
ENDBRANCH   1  21
TORSDOF 5
ENDMDL
MODEL 4
REMARK VINA RESULT: -5.155544406      2.096      3.147
REMARK  5 active torsions:
REMARK  status: ('A' for Active; 'I' for Inactive)
REMARK    1  A    between atoms: C2_2  and  O2_4 
REMARK    2  A    between atoms: O2_4  and  C3_5 
REMARK    3  A    between atoms: C12_15  and  C13_16 
REMARK    4  A    between atoms: N1_17  and  O4_19 
REMARK    5  A    between atoms: C15_22  and  O5_23 
ROOT
HETATM    1  C3  UNL     1     -19.566  -9.627  22.074  1.00  0.00     0.120 C 
HETATM    2  C4  UNL     1     -20.731 -10.140  21.313  1.00  0.00     0.049 C 
HETATM    3  C5  UNL     1     -21.460  -9.157  20.483  1.00  0.00     0.042 C 
HETATM    4  C6  UNL     1     -21.845  -7.886  21.163  1.00  0.00     0.066 C 
HETATM    5  C7  UNL     1     -23.272  -7.854  21.696  1.00  0.00     0.064 C 
HETATM    6  C8  UNL     1     -23.364  -6.526  20.953  1.00  0.00     0.171 C 
HETATM    7  O3  UNL     1     -22.253  -6.957  20.204  1.00  0.00    -0.380 OA
HETATM    8  C9  UNL     1     -20.813  -7.300  22.057  1.00  0.00     0.075 C 
HETATM    9  C10 UNL     1     -19.661  -8.147  22.342  1.00  0.00    -0.043 C 
HETATM   10  C11 UNL     1     -18.574  -7.613  22.886  1.00  0.00    -0.011 C 
HETATM   11  C12 UNL     1     -17.362  -8.445  23.198  1.00  0.00     0.051 C 
HETATM   12  C14 UNL     1     -17.083  -9.470  22.128  1.00  0.00     0.049 C 
HETATM   13  C15 UNL     1     -18.272  -9.742  21.256  1.00  0.00     0.158 C 
ENDROOT
BRANCH  11  14
HETATM   14  C13 UNL     1     -16.215  -7.502  23.210  1.00  0.00     0.095 C 
HETATM   15  N1  UNL     1     -15.942  -6.769  22.187  1.00  0.00    -0.284 N 
ATOM     16  H1  UNL     1     -16.533  -6.847  21.360  1.00  0.00     0.192 HD
BRANCH  15  17
HETATM   17  O4  UNL     1     -14.897  -5.893  22.161  1.00  0.00    -0.291 OA
ATOM     18  H4  UNL     1     -14.955  -5.032  21.763  1.00  0.00     0.244 HD
ENDBRANCH  15  17
ENDBRANCH  11  14
BRANCH  13  19
HETATM   19  O5  UNL     1     -18.339  -8.698  20.321  1.00  0.00    -0.392 OA
ATOM     20  H5  UNL     1     -18.751  -9.080  19.554  1.00  0.00     0.210 HD
ENDBRANCH  13  19
BRANCH   1  21
HETATM   21  O2  UNL     1     -19.387 -10.200  23.330  1.00  0.00    -0.303 OA
BRANCH  21  22
HETATM   22  C2  UNL     1     -20.382 -10.903  23.931  1.00  0.00     0.256 C 
HETATM   23  C1  UNL     1     -21.530 -10.286  24.670  1.00  0.00     0.126 C 
HETATM   24  O1  UNL     1     -20.348 -12.141  23.873  1.00  0.00    -0.266 OA
ENDBRANCH  21  22
ENDBRANCH   1  21
TORSDOF 5
ENDMDL
MODEL 5
REMARK VINA RESULT: -5.004341750      3.070      4.629
REMARK  5 active torsions:
REMARK  status: ('A' for Active; 'I' for Inactive)
REMARK    1  A    between atoms: C2_2  and  O2_4 
REMARK    2  A    between atoms: O2_4  and  C3_5 
REMARK    3  A    between atoms: C12_15  and  C13_16 
REMARK    4  A    between atoms: N1_17  and  O4_19 
REMARK    5  A    between atoms: C15_22  and  O5_23 
ROOT
HETATM    1  C3  UNL     1     -17.652  -9.356  22.383  1.00  0.00     0.120 C 
HETATM    2  C4  UNL     1     -17.322 -10.566  21.592  1.00  0.00     0.049 C 
HETATM    3  C5  UNL     1     -18.421 -11.153  20.796  1.00  0.00     0.042 C 
HETATM    4  C6  UNL     1     -19.703 -11.383  21.523  1.00  0.00     0.066 C 
HETATM    5  C7  UNL     1     -19.896 -12.801  22.045  1.00  0.00     0.064 C 
HETATM    6  C8  UNL     1     -21.253 -12.714  21.354  1.00  0.00     0.171 C 
HETATM    7  O3  UNL     1     -20.712 -11.656  20.599  1.00  0.00    -0.380 OA
HETATM    8  C9  UNL     1     -20.117 -10.297  22.448  1.00  0.00     0.075 C 
HETATM    9  C10 UNL     1     -19.121  -9.266  22.708  1.00  0.00    -0.043 C 
HETATM   10  C11 UNL     1     -19.491  -8.127  23.283  1.00  0.00    -0.011 C 
HETATM   11  C12 UNL     1     -18.500  -7.034  23.571  1.00  0.00     0.051 C 
HETATM   12  C14 UNL     1     -17.490  -6.873  22.464  1.00  0.00     0.049 C 
HETATM   13  C15 UNL     1     -17.405  -8.076  21.571  1.00  0.00     0.158 C 
ENDROOT
BRANCH  11  14
HETATM   14  C13 UNL     1     -19.287  -5.777  23.631  1.00  0.00     0.095 C 
HETATM   15  N1  UNL     1     -19.413  -5.018  22.598  1.00  0.00    -0.284 N 
ATOM     16  H1  UNL     1     -18.957  -5.298  21.729  1.00  0.00     0.192 HD
BRANCH  15  17
HETATM   17  O4  UNL     1     -20.127  -3.857  22.614  1.00  0.00    -0.291 OA
ATOM     18  H4  UNL     1     -19.719  -2.999  22.601  1.00  0.00     0.244 HD
ENDBRANCH  15  17
ENDBRANCH  11  14
BRANCH  13  19
HETATM   19  O5  UNL     1     -18.484  -7.997  20.678  1.00  0.00    -0.392 OA
ATOM     20  H5  UNL     1     -18.087  -7.904  19.820  1.00  0.00     0.210 HD
ENDBRANCH  13  19
BRANCH   1  21
HETATM   21  O2  UNL     1     -17.013  -9.268  23.616  1.00  0.00    -0.303 OA
BRANCH  21  22
HETATM   22  C2  UNL     1     -15.829  -9.893  23.842  1.00  0.00     0.256 C 
HETATM   23  C1  UNL     1     -15.688 -11.228  24.508  1.00  0.00     0.126 C 
HETATM   24  O1  UNL     1     -14.786  -9.331  23.478  1.00  0.00    -0.266 OA
ENDBRANCH  21  22
ENDBRANCH   1  21
TORSDOF 5
ENDMDL
