MODEL 1
REMARK VINA RESULT: -6.560730742      0.000      0.000
REMARK  10 active torsions:
REMARK  status: ('A' for Active; 'I' for Inactive)
REMARK    1  A    between atoms: O1_2  and  C2_3 
REMARK    2  A    between atoms: C2_3  and  C3_5 
REMARK    3  A    between atoms: C3_5  and  C4_7 
REMARK    4  A    between atoms: C4_7  and  N1_8 
REMARK    5  A    between atoms: N1_8  and  C5_11 
REMARK    6  A    between atoms: N4_19  and  C9_20 
REMARK    7  A    between atoms: C12_25  and  N6_26 
REMARK    8  A    between atoms: C14_33  and  N8_34 
REMARK       I    between atoms: N8_34  and  C15_36 
REMARK    9  A    between atoms: C15_36  and  C16_38 
REMARK   10  A    between atoms: C16_38  and  N9_39 
ROOT
HETATM    1  C16 UNL     1       3.295  -7.381   7.410  1.00  0.00     0.428 C 
HETATM    2  F1  UNL     1       4.565  -7.191   7.980  1.00  0.00    -0.185 F 
HETATM    3  C17 UNL     1       2.353  -6.568   8.160  1.00  0.00     0.144 C 
HETATM    4  N10 UNL     1       1.603  -5.898   8.747  1.00  0.00    -0.191 NA
ENDROOT
BRANCH   1   5
HETATM    5  C15 UNL     1       3.354  -6.928   6.000  1.00  0.00     0.302 C 
HETATM    6  N8  UNL     1       4.561  -6.470   5.414  1.00  0.00    -0.345 N 
ATOM      7  H8  UNL     1       5.405  -6.452   5.986  1.00  0.00     0.163 HD
HETATM    8  O5  UNL     1       2.268  -6.969   5.336  1.00  0.00    -0.266 OA
BRANCH   6   9
HETATM    9  C14 UNL     1       4.648  -6.026   4.032  1.00  0.00     0.150 C 
HETATM   10  C7  UNL     1       4.804  -7.203   3.155  1.00  0.00     0.079 A 
HETATM   11  C6  UNL     1       5.439  -7.082   1.957  1.00  0.00     0.136 A 
HETATM   12  N3  UNL     1       4.411  -8.512   3.270  1.00  0.00    -0.350 N 
HETATM   13  N2  UNL     1       5.960  -5.787   1.610  1.00  0.00    -0.346 N 
HETATM   14  N4  UNL     1       5.446  -8.290   1.326  1.00  0.00    -0.285 N 
HETATM   15  C5  UNL     1       6.431  -4.874   2.627  1.00  0.00     0.296 C 
ATOM     16  H2  UNL     1       5.998  -5.508   0.629  1.00  0.00     0.163 HD
HETATM   17  C18 UNL     1       5.623  -4.930   3.880  1.00  0.00     0.025 C 
HETATM   18  C19 UNL     1       4.813  -3.617   3.970  1.00  0.00     0.021 C 
HETATM   19  C20 UNL     1       6.486  -4.892   5.149  1.00  0.00     0.021 C 
HETATM   20  C8  UNL     1       4.812  -9.137   2.152  1.00  0.00     0.191 A 
ATOM     21  H3  UNL     1       3.910  -8.930   4.054  1.00  0.00     0.166 HD
BRANCH  15  22
HETATM   22  N1  UNL     1       7.842  -5.108   2.843  1.00  0.00    -0.046 N 
ATOM     23  H12 UNL     1       7.978  -5.803   3.576  1.00  0.00     0.280 HD
ATOM     24  H11 UNL     1       8.273  -4.297   3.289  1.00  0.00     0.280 HD
BRANCH  22  25
HETATM   25  C4  UNL     1       8.570  -5.476   1.660  1.00  0.00     0.324 C 
BRANCH  25  26
HETATM   26  C3  UNL     1      10.011  -5.146   1.699  1.00  0.00     0.249 C 
HETATM   27  O3  UNL     1      10.878  -5.993   2.008  1.00  0.00    -0.285 OA
BRANCH  26  28
HETATM   28  C2  UNL     1      10.498  -3.802   1.374  1.00  0.00     0.330 C 
HETATM   29  O2  UNL     1       9.858  -2.774   1.753  1.00  0.00    -0.256 OA
BRANCH  28  30
HETATM   30  O1  UNL     1      11.656  -3.588   0.650  1.00  0.00    -0.320 OA
HETATM   31  C1  UNL     1      12.860  -3.177   1.248  1.00  0.00     0.213 C 
ENDBRANCH  28  30
ENDBRANCH  26  28
ENDBRANCH  25  26
ENDBRANCH  22  25
ENDBRANCH  15  22
BRANCH  14  32
HETATM   32  C9  UNL     1       6.010  -8.514   0.067  1.00  0.00     0.133 A 
HETATM   33  C10 UNL     1       5.169  -8.449  -1.033  1.00  0.00     0.055 A 
HETATM   34  C11 UNL     1       3.719  -8.157  -0.922  1.00  0.00     0.071 C 
HETATM   35  N5  UNL     1       5.734  -8.670  -2.232  1.00  0.00    -0.194 N 
HETATM   36  C12 UNL     1       7.042  -8.941  -2.387  1.00  0.00     0.679 A 
ATOM     37  H5  UNL     1       5.143  -8.630  -3.062  1.00  0.00     0.184 HD
HETATM   38  N7  UNL     1       7.829  -8.997  -1.296  1.00  0.00    -0.154 N 
HETATM   39  C13 UNL     1       7.355  -8.792  -0.057  1.00  0.00     0.288 A 
ATOM     40  H7  UNL     1       8.821  -9.202  -1.415  1.00  0.00     0.187 HD
HETATM   41  O4  UNL     1       8.128  -8.854   0.958  1.00  0.00    -0.265 OA
BRANCH  36  42
HETATM   42  N6  UNL     1       7.545  -9.150  -3.561  1.00  0.00    -0.234 N 
ATOM     43  H62 UNL     1       7.093  -9.802  -4.202  1.00  0.00     0.174 HD
ATOM     44  H61 UNL     1       8.392  -8.670  -3.862  1.00  0.00     0.174 HD
ENDBRANCH  36  42
ENDBRANCH  14  32
ENDBRANCH   6   9
ENDBRANCH   1   5
BRANCH   1  45
HETATM   45  N9  UNL     1       2.951  -8.769   7.455  1.00  0.00    -0.020 N 
ATOM     46  H93 UNL     1       2.033  -8.951   7.050  1.00  0.00     0.280 HD
ATOM     47  H92 UNL     1       3.510  -9.325   6.808  1.00  0.00     0.280 HD
ATOM     48  H91 UNL     1       3.023  -9.109   8.414  1.00  0.00     0.280 HD
ENDBRANCH   1  45
TORSDOF 10
ENDMDL
MODEL 2
REMARK VINA RESULT: -6.461025187      1.123      1.648
REMARK  10 active torsions:
REMARK  status: ('A' for Active; 'I' for Inactive)
REMARK    1  A    between atoms: O1_2  and  C2_3 
REMARK    2  A    between atoms: C2_3  and  C3_5 
REMARK    3  A    between atoms: C3_5  and  C4_7 
REMARK    4  A    between atoms: C4_7  and  N1_8 
REMARK    5  A    between atoms: N1_8  and  C5_11 
REMARK    6  A    between atoms: N4_19  and  C9_20 
REMARK    7  A    between atoms: C12_25  and  N6_26 
REMARK    8  A    between atoms: C14_33  and  N8_34 
REMARK       I    between atoms: N8_34  and  C15_36 
REMARK    9  A    between atoms: C15_36  and  C16_38 
REMARK   10  A    between atoms: C16_38  and  N9_39 
ROOT
HETATM    1  C16 UNL     1       3.057  -7.401   7.194  1.00  0.00     0.428 C 
HETATM    2  F1  UNL     1       3.036  -8.805   7.184  1.00  0.00    -0.185 F 
HETATM    3  C17 UNL     1       4.229  -6.986   7.947  1.00  0.00     0.144 C 
HETATM    4  N10 UNL     1       5.181  -6.655   8.530  1.00  0.00    -0.191 NA
ENDROOT
BRANCH   1   5
HETATM    5  C15 UNL     1       3.157  -6.934   5.791  1.00  0.00     0.302 C 
HETATM    6  N8  UNL     1       4.380  -6.468   5.246  1.00  0.00    -0.345 N 
ATOM      7  H8  UNL     1       5.206  -6.453   5.843  1.00  0.00     0.163 HD
HETATM    8  O5  UNL     1       2.091  -6.971   5.094  1.00  0.00    -0.266 OA
BRANCH   6   9
HETATM    9  C14 UNL     1       4.507  -6.011   3.871  1.00  0.00     0.150 C 
HETATM   10  C7  UNL     1       4.642  -7.181   2.983  1.00  0.00     0.079 A 
HETATM   11  C6  UNL     1       5.304  -7.066   1.798  1.00  0.00     0.136 A 
HETATM   12  N3  UNL     1       4.205  -8.478   3.074  1.00  0.00    -0.350 N 
HETATM   13  N2  UNL     1       5.873  -5.784   1.477  1.00  0.00    -0.346 N 
HETATM   14  N4  UNL     1       5.283  -8.266   1.153  1.00  0.00    -0.285 N 
HETATM   15  C5  UNL     1       6.353  -4.900   2.515  1.00  0.00     0.296 C 
ATOM     16  H2  UNL     1       5.938  -5.495   0.501  1.00  0.00     0.163 HD
HETATM   17  C18 UNL     1       5.520  -4.944   3.752  1.00  0.00     0.025 C 
HETATM   18  C19 UNL     1       4.751  -3.607   3.843  1.00  0.00     0.021 C 
HETATM   19  C20 UNL     1       6.359  -4.949   5.037  1.00  0.00     0.021 C 
HETATM   20  C8  UNL     1       4.607  -9.102   1.956  1.00  0.00     0.191 A 
ATOM     21  H3  UNL     1       3.676  -8.889   3.843  1.00  0.00     0.166 HD
BRANCH  15  22
HETATM   22  N1  UNL     1       7.751  -5.181   2.754  1.00  0.00    -0.046 N 
ATOM     23  H12 UNL     1       7.850  -5.920   3.450  1.00  0.00     0.280 HD
ATOM     24  H11 UNL     1       8.189  -4.408   3.257  1.00  0.00     0.280 HD
BRANCH  22  25
HETATM   25  C4  UNL     1       8.502  -5.501   1.572  1.00  0.00     0.324 C 
BRANCH  25  26
HETATM   26  C3  UNL     1       9.944  -5.182   1.655  1.00  0.00     0.249 C 
HETATM   27  O3  UNL     1      10.796  -6.039   1.977  1.00  0.00    -0.285 OA
BRANCH  26  28
HETATM   28  C2  UNL     1      10.449  -3.836   1.363  1.00  0.00     0.330 C 
HETATM   29  O2  UNL     1       9.849  -2.811   1.807  1.00  0.00    -0.256 OA
BRANCH  28  30
HETATM   30  O1  UNL     1      11.581  -3.620   0.601  1.00  0.00    -0.320 OA
HETATM   31  C1  UNL     1      12.811  -3.235   1.162  1.00  0.00     0.213 C 
ENDBRANCH  28  30
ENDBRANCH  26  28
ENDBRANCH  25  26
ENDBRANCH  22  25
ENDBRANCH  15  22
BRANCH  14  32
HETATM   32  C9  UNL     1       5.864  -8.494  -0.098  1.00  0.00     0.133 A 
HETATM   33  C10 UNL     1       7.209  -8.830  -0.128  1.00  0.00     0.055 A 
HETATM   34  C11 UNL     1       8.037  -8.950   1.097  1.00  0.00     0.071 C 
HETATM   35  N5  UNL     1       7.745  -9.042  -1.342  1.00  0.00    -0.194 N 
HETATM   36  C12 UNL     1       7.040  -8.942  -2.483  1.00  0.00     0.679 A 
ATOM     37  H5  UNL     1       8.733  -9.290  -1.401  1.00  0.00     0.184 HD
HETATM   38  N7  UNL     1       5.735  -8.614  -2.415  1.00  0.00    -0.154 N 
HETATM   39  C13 UNL     1       5.113  -8.382  -1.248  1.00  0.00     0.288 A 
ATOM     40  H7  UNL     1       5.202  -8.540  -3.281  1.00  0.00     0.187 HD
HETATM   41  O4  UNL     1       3.875  -8.070  -1.219  1.00  0.00    -0.265 OA
BRANCH  36  42
HETATM   42  N6  UNL     1       7.596  -9.153  -3.632  1.00  0.00    -0.234 N 
ATOM     43  H62 UNL     1       7.979  -8.373  -4.165  1.00  0.00     0.174 HD
ATOM     44  H61 UNL     1       7.663 -10.094  -4.018  1.00  0.00     0.174 HD
ENDBRANCH  36  42
ENDBRANCH  14  32
ENDBRANCH   6   9
ENDBRANCH   1   5
BRANCH   1  45
HETATM   45  N9  UNL     1       1.849  -6.907   7.780  1.00  0.00    -0.020 N 
ATOM     46  H93 UNL     1       1.116  -7.616   7.805  1.00  0.00     0.280 HD
ATOM     47  H92 UNL     1       1.942  -6.758   8.785  1.00  0.00     0.280 HD
ATOM     48  H91 UNL     1       1.551  -6.062   7.293  1.00  0.00     0.280 HD
ENDBRANCH   1  45
TORSDOF 10
ENDMDL
MODEL 3
REMARK VINA RESULT: -6.234971430      2.992      6.184
REMARK  10 active torsions:
REMARK  status: ('A' for Active; 'I' for Inactive)
REMARK    1  A    between atoms: O1_2  and  C2_3 
REMARK    2  A    between atoms: C2_3  and  C3_5 
REMARK    3  A    between atoms: C3_5  and  C4_7 
REMARK    4  A    between atoms: C4_7  and  N1_8 
REMARK    5  A    between atoms: N1_8  and  C5_11 
REMARK    6  A    between atoms: N4_19  and  C9_20 
REMARK    7  A    between atoms: C12_25  and  N6_26 
REMARK    8  A    between atoms: C14_33  and  N8_34 
REMARK       I    between atoms: N8_34  and  C15_36 
REMARK    9  A    between atoms: C15_36  and  C16_38 
REMARK   10  A    between atoms: C16_38  and  N9_39 
ROOT
HETATM    1  C16 UNL     1       2.293  -8.897   0.165  1.00  0.00     0.428 C 
HETATM    2  F1  UNL     1       1.606 -10.114   0.316  1.00  0.00    -0.185 F 
HETATM    3  C17 UNL     1       1.372  -7.829   0.518  1.00  0.00     0.144 C 
HETATM    4  N10 UNL     1       0.641  -6.975   0.822  1.00  0.00    -0.191 NA
ENDROOT
BRANCH   1   5
HETATM    5  C15 UNL     1       3.448  -8.906   1.094  1.00  0.00     0.302 C 
HETATM    6  N8  UNL     1       4.359  -7.822   1.160  1.00  0.00    -0.345 N 
ATOM      7  H8  UNL     1       4.210  -7.021   0.546  1.00  0.00     0.163 HD
HETATM    8  O5  UNL     1       3.584  -9.934   1.834  1.00  0.00    -0.266 OA
BRANCH   6   9
HETATM    9  C14 UNL     1       5.496  -7.801   2.067  1.00  0.00     0.150 C 
HETATM   10  C7  UNL     1       5.230  -6.840   3.155  1.00  0.00     0.079 A 
HETATM   11  C6  UNL     1       6.265  -6.224   3.789  1.00  0.00     0.136 A 
HETATM   12  N3  UNL     1       4.074  -6.388   3.739  1.00  0.00    -0.350 N 
HETATM   13  N2  UNL     1       7.597  -6.531   3.339  1.00  0.00    -0.346 N 
HETATM   14  N4  UNL     1       5.774  -5.401   4.757  1.00  0.00    -0.285 N 
HETATM   15  C5  UNL     1       7.860  -6.863   1.957  1.00  0.00     0.296 C 
ATOM     16  H2  UNL     1       8.368  -6.514   4.006  1.00  0.00     0.163 HD
HETATM   17  C18 UNL     1       6.766  -7.663   1.331  1.00  0.00     0.025 C 
HETATM   18  C19 UNL     1       7.302  -9.097   1.120  1.00  0.00     0.021 C 
HETATM   19  C20 UNL     1       6.434  -7.205  -0.096  1.00  0.00     0.021 C 
HETATM   20  C8  UNL     1       4.439  -5.524   4.700  1.00  0.00     0.191 A 
ATOM     21  H3  UNL     1       3.122  -6.656   3.492  1.00  0.00     0.166 HD
BRANCH  15  22
HETATM   22  N1  UNL     1       8.165  -5.647   1.237  1.00  0.00    -0.046 N 
ATOM     23  H12 UNL     1       7.307  -5.185   0.940  1.00  0.00     0.280 HD
ATOM     24  H11 UNL     1       8.571  -5.865   0.326  1.00  0.00     0.280 HD
BRANCH  22  25
HETATM   25  C4  UNL     1       9.007  -4.729   1.955  1.00  0.00     0.324 C 
BRANCH  25  26
HETATM   26  C3  UNL     1      10.440  -4.799   1.593  1.00  0.00     0.249 C 
HETATM   27  O3  UNL     1      11.240  -5.550   2.192  1.00  0.00    -0.285 OA
BRANCH  26  28
HETATM   28  C2  UNL     1      10.996  -3.986   0.506  1.00  0.00     0.330 C 
HETATM   29  O2  UNL     1      10.261  -3.603  -0.455  1.00  0.00    -0.256 OA
BRANCH  28  30
HETATM   30  O1  UNL     1      12.323  -3.603   0.472  1.00  0.00    -0.320 OA
HETATM   31  C1  UNL     1      12.928  -2.871   1.509  1.00  0.00     0.213 C 
ENDBRANCH  28  30
ENDBRANCH  26  28
ENDBRANCH  25  26
ENDBRANCH  22  25
ENDBRANCH  15  22
BRANCH  14  32
HETATM   32  C9  UNL     1       6.570  -4.625   5.605  1.00  0.00     0.133 A 
HETATM   33  C10 UNL     1       6.940  -3.364   5.161  1.00  0.00     0.055 A 
HETATM   34  C11 UNL     1       6.530  -2.823   3.842  1.00  0.00     0.071 C 
HETATM   35  N5  UNL     1       7.706  -2.639   5.993  1.00  0.00    -0.194 N 
HETATM   36  C12 UNL     1       8.107  -3.084   7.197  1.00  0.00     0.679 A 
ATOM     37  H5  UNL     1       7.997  -1.707   5.697  1.00  0.00     0.184 HD
HETATM   38  N7  UNL     1       7.729  -4.314   7.595  1.00  0.00    -0.154 N 
HETATM   39  C13 UNL     1       6.966  -5.112   6.832  1.00  0.00     0.288 A 
ATOM     40  H7  UNL     1       8.033  -4.650   8.509  1.00  0.00     0.187 HD
HETATM   41  O4  UNL     1       6.626  -6.274   7.238  1.00  0.00    -0.265 OA
BRANCH  36  42
HETATM   42  N6  UNL     1       8.847  -2.352   7.966  1.00  0.00    -0.234 N 
ATOM     43  H62 UNL     1       8.913  -1.347   7.806  1.00  0.00     0.174 HD
ATOM     44  H61 UNL     1       9.370  -2.764   8.738  1.00  0.00     0.174 HD
ENDBRANCH  36  42
ENDBRANCH  14  32
ENDBRANCH   6   9
ENDBRANCH   1   5
BRANCH   1  45
HETATM   45  N9  UNL     1       2.759  -8.773  -1.181  1.00  0.00    -0.020 N 
ATOM     46  H93 UNL     1       2.149  -8.182  -1.746  1.00  0.00     0.280 HD
ATOM     47  H92 UNL     1       3.608  -8.212  -1.244  1.00  0.00     0.280 HD
ATOM     48  H91 UNL     1       2.881  -9.701  -1.589  1.00  0.00     0.280 HD
ENDBRANCH   1  45
TORSDOF 10
ENDMDL
MODEL 4
REMARK VINA RESULT: -6.226613813      3.081      6.437
REMARK  10 active torsions:
REMARK  status: ('A' for Active; 'I' for Inactive)
REMARK    1  A    between atoms: O1_2  and  C2_3 
REMARK    2  A    between atoms: C2_3  and  C3_5 
REMARK    3  A    between atoms: C3_5  and  C4_7 
REMARK    4  A    between atoms: C4_7  and  N1_8 
REMARK    5  A    between atoms: N1_8  and  C5_11 
REMARK    6  A    between atoms: N4_19  and  C9_20 
REMARK    7  A    between atoms: C12_25  and  N6_26 
REMARK    8  A    between atoms: C14_33  and  N8_34 
REMARK       I    between atoms: N8_34  and  C15_36 
REMARK    9  A    between atoms: C15_36  and  C16_38 
REMARK   10  A    between atoms: C16_38  and  N9_39 
ROOT
HETATM    1  C16 UNL     1       2.566  -8.614   0.303  1.00  0.00     0.428 C 
HETATM    2  F1  UNL     1       1.984  -9.890   0.360  1.00  0.00    -0.185 F 
HETATM    3  C17 UNL     1       1.545  -7.650   0.677  1.00  0.00     0.144 C 
HETATM    4  N10 UNL     1       0.733  -6.880   0.999  1.00  0.00    -0.191 NA
ENDROOT
BRANCH   1   5
HETATM    5  C15 UNL     1       3.686  -8.577   1.273  1.00  0.00     0.302 C 
HETATM    6  N8  UNL     1       4.641  -7.529   1.270  1.00  0.00    -0.345 N 
ATOM      7  H8  UNL     1       4.549  -6.787   0.576  1.00  0.00     0.163 HD
HETATM    8  O5  UNL     1       3.751  -9.532   2.113  1.00  0.00    -0.266 OA
BRANCH   6   9
HETATM    9  C14 UNL     1       5.744  -7.465   2.215  1.00  0.00     0.150 C 
HETATM   10  C7  UNL     1       5.464  -6.417   3.216  1.00  0.00     0.079 A 
HETATM   11  C6  UNL     1       6.492  -5.778   3.841  1.00  0.00     0.136 A 
HETATM   12  N3  UNL     1       4.301  -5.895   3.720  1.00  0.00    -0.350 N 
HETATM   13  N2  UNL     1       7.830  -6.149   3.466  1.00  0.00    -0.346 N 
HETATM   14  N4  UNL     1       5.987  -4.872   4.724  1.00  0.00    -0.285 N 
HETATM   15  C5  UNL     1       8.135  -6.593   2.124  1.00  0.00     0.296 C 
ATOM     16  H2  UNL     1       8.577  -6.098   4.159  1.00  0.00     0.163 HD
HETATM   17  C18 UNL     1       7.044  -7.413   1.519  1.00  0.00     0.025 C 
HETATM   18  C19 UNL     1       7.549  -8.871   1.439  1.00  0.00     0.021 C 
HETATM   19  C20 UNL     1       6.775  -7.058   0.050  1.00  0.00     0.021 C 
HETATM   20  C8  UNL     1       4.653  -4.969   4.626  1.00  0.00     0.191 A 
ATOM     21  H3  UNL     1       3.351  -6.159   3.458  1.00  0.00     0.166 HD
BRANCH  15  22
HETATM   22  N1  UNL     1       8.497  -5.443   1.326  1.00  0.00    -0.046 N 
ATOM     23  H12 UNL     1       7.827  -4.687   1.468  1.00  0.00     0.280 HD
ATOM     24  H11 UNL     1       8.340  -5.632   0.336  1.00  0.00     0.280 HD
BRANCH  22  25
HETATM   25  C4  UNL     1       9.838  -4.972   1.540  1.00  0.00     0.324 C 
BRANCH  25  26
HETATM   26  C3  UNL     1       9.931  -3.703   2.295  1.00  0.00     0.249 C 
HETATM   27  O3  UNL     1       9.691  -2.597   1.765  1.00  0.00    -0.285 OA
BRANCH  26  28
HETATM   28  C2  UNL     1      10.311  -3.681   3.711  1.00  0.00     0.330 C 
HETATM   29  O2  UNL     1      10.273  -4.742   4.407  1.00  0.00    -0.256 OA
BRANCH  28  30
HETATM   30  O1  UNL     1      10.719  -2.526   4.350  1.00  0.00    -0.320 OA
HETATM   31  C1  UNL     1      11.683  -2.526   5.373  1.00  0.00     0.213 C 
ENDBRANCH  28  30
ENDBRANCH  26  28
ENDBRANCH  25  26
ENDBRANCH  22  25
ENDBRANCH  15  22
BRANCH  14  32
HETATM   32  C9  UNL     1       6.772  -4.052   5.540  1.00  0.00     0.133 A 
HETATM   33  C10 UNL     1       7.079  -4.517   6.810  1.00  0.00     0.055 A 
HETATM   34  C11 UNL     1       6.610  -5.828   7.322  1.00  0.00     0.071 C 
HETATM   35  N5  UNL     1       7.833  -3.710   7.576  1.00  0.00    -0.194 N 
HETATM   36  C12 UNL     1       8.280  -2.512   7.160  1.00  0.00     0.679 A 
ATOM     37  H5  UNL     1       8.077  -4.022   8.516  1.00  0.00     0.184 HD
HETATM   38  N7  UNL     1       7.963  -2.093   5.921  1.00  0.00    -0.154 N 
HETATM   39  C13 UNL     1       7.213  -2.828   5.084  1.00  0.00     0.288 A 
ATOM     40  H7  UNL     1       8.304  -1.184   5.607  1.00  0.00     0.187 HD
HETATM   41  O4  UNL     1       6.928  -2.400   3.916  1.00  0.00    -0.265 OA
BRANCH  36  42
HETATM   42  N6  UNL     1       9.002  -1.766   7.932  1.00  0.00    -0.234 N 
ATOM     43  H62 UNL     1       8.910  -1.838   8.946  1.00  0.00     0.174 HD
ATOM     44  H61 UNL     1       9.671  -1.101   7.545  1.00  0.00     0.174 HD
ENDBRANCH  36  42
ENDBRANCH  14  32
ENDBRANCH   6   9
ENDBRANCH   1   5
BRANCH   1  45
HETATM   45  N9  UNL     1       3.065  -8.373  -1.017  1.00  0.00    -0.020 N 
ATOM     46  H93 UNL     1       4.011  -8.732  -1.142  1.00  0.00     0.280 HD
ATOM     47  H92 UNL     1       2.596  -8.949  -1.716  1.00  0.00     0.280 HD
ATOM     48  H91 UNL     1       3.000  -7.378  -1.232  1.00  0.00     0.280 HD
ENDBRANCH   1  45
TORSDOF 10
ENDMDL
MODEL 5
REMARK VINA RESULT: -6.220189474      3.068      6.357
REMARK  10 active torsions:
REMARK  status: ('A' for Active; 'I' for Inactive)
REMARK    1  A    between atoms: O1_2  and  C2_3 
REMARK    2  A    between atoms: C2_3  and  C3_5 
REMARK    3  A    between atoms: C3_5  and  C4_7 
REMARK    4  A    between atoms: C4_7  and  N1_8 
REMARK    5  A    between atoms: N1_8  and  C5_11 
REMARK    6  A    between atoms: N4_19  and  C9_20 
REMARK    7  A    between atoms: C12_25  and  N6_26 
REMARK    8  A    between atoms: C14_33  and  N8_34 
REMARK       I    between atoms: N8_34  and  C15_36 
REMARK    9  A    between atoms: C15_36  and  C16_38 
REMARK   10  A    between atoms: C16_38  and  N9_39 
ROOT
HETATM    1  C16 UNL     1       2.393  -8.865   0.175  1.00  0.00     0.428 C 
HETATM    2  F1  UNL     1       1.718 -10.090   0.311  1.00  0.00    -0.185 F 
HETATM    3  C17 UNL     1       1.460  -7.810   0.533  1.00  0.00     0.144 C 
HETATM    4  N10 UNL     1       0.719  -6.967   0.842  1.00  0.00    -0.191 NA
ENDROOT
BRANCH   1   5
HETATM    5  C15 UNL     1       3.544  -8.870   1.108  1.00  0.00     0.302 C 
HETATM    6  N8  UNL     1       4.410  -7.754   1.230  1.00  0.00    -0.345 N 
ATOM      7  H8  UNL     1       4.231  -6.933   0.653  1.00  0.00     0.163 HD
HETATM    8  O5  UNL     1       3.719  -9.926   1.800  1.00  0.00    -0.266 OA
BRANCH   6   9
HETATM    9  C14 UNL     1       5.542  -7.731   2.142  1.00  0.00     0.150 C 
HETATM   10  C7  UNL     1       5.259  -6.784   3.239  1.00  0.00     0.079 A 
HETATM   11  C6  UNL     1       6.284  -6.163   3.885  1.00  0.00     0.136 A 
HETATM   12  N3  UNL     1       4.096  -6.351   3.823  1.00  0.00    -0.350 N 
HETATM   13  N2  UNL     1       7.621  -6.450   3.439  1.00  0.00    -0.346 N 
HETATM   14  N4  UNL     1       5.778  -5.356   4.859  1.00  0.00    -0.285 N 
HETATM   15  C5  UNL     1       7.896  -6.764   2.055  1.00  0.00     0.296 C 
ATOM     16  H2  UNL     1       8.389  -6.431   4.111  1.00  0.00     0.163 HD
HETATM   17  C18 UNL     1       6.815  -7.570   1.414  1.00  0.00     0.025 C 
HETATM   18  C19 UNL     1       7.368  -8.995   1.192  1.00  0.00     0.021 C 
HETATM   19  C20 UNL     1       6.484  -7.100  -0.009  1.00  0.00     0.021 C 
HETATM   20  C8  UNL     1       4.445  -5.494   4.794  1.00  0.00     0.191 A 
ATOM     21  H3  UNL     1       3.148  -6.628   3.568  1.00  0.00     0.166 HD
BRANCH  15  22
HETATM   22  N1  UNL     1       8.190  -5.537   1.350  1.00  0.00    -0.046 N 
ATOM     23  H12 UNL     1       7.546  -4.800   1.634  1.00  0.00     0.280 HD
ATOM     24  H11 UNL     1       7.935  -5.622   0.365  1.00  0.00     0.280 HD
BRANCH  22  25
HETATM   25  C4  UNL     1       9.551  -5.091   1.479  1.00  0.00     0.324 C 
BRANCH  25  26
HETATM   26  C3  UNL     1       9.723  -3.872   2.298  1.00  0.00     0.249 C 
HETATM   27  O3  UNL     1       9.586  -2.725   1.819  1.00  0.00    -0.285 OA
BRANCH  26  28
HETATM   28  C2  UNL     1      10.063  -3.948   3.723  1.00  0.00     0.330 C 
HETATM   29  O2  UNL     1      10.146  -5.071   4.308  1.00  0.00    -0.256 OA
BRANCH  28  30
HETATM   30  O1  UNL     1      10.305  -2.823   4.488  1.00  0.00    -0.320 OA
HETATM   31  C1  UNL     1      11.382  -2.733   5.386  1.00  0.00     0.213 C 
ENDBRANCH  28  30
ENDBRANCH  26  28
ENDBRANCH  25  26
ENDBRANCH  22  25
ENDBRANCH  15  22
BRANCH  14  32
HETATM   32  C9  UNL     1       6.561  -4.580   5.720  1.00  0.00     0.133 A 
HETATM   33  C10 UNL     1       6.951  -3.326   5.276  1.00  0.00     0.055 A 
HETATM   34  C11 UNL     1       6.575  -2.791   3.944  1.00  0.00     0.071 C 
HETATM   35  N5  UNL     1       7.704  -2.600   6.119  1.00  0.00    -0.194 N 
HETATM   36  C12 UNL     1       8.073  -3.040   7.335  1.00  0.00     0.679 A 
ATOM     37  H5  UNL     1       8.008  -1.672   5.824  1.00  0.00     0.184 HD
HETATM   38  N7  UNL     1       7.677  -4.263   7.734  1.00  0.00    -0.154 N 
HETATM   39  C13 UNL     1       6.925  -5.061   6.959  1.00  0.00     0.288 A 
ATOM     40  H7  UNL     1       7.957  -4.595   8.656  1.00  0.00     0.187 HD
HETATM   41  O4  UNL     1       6.567  -6.218   7.366  1.00  0.00    -0.265 OA
BRANCH  36  42
HETATM   42  N6  UNL     1       8.801  -2.308   8.116  1.00  0.00    -0.234 N 
ATOM     43  H62 UNL     1       9.570  -1.759   7.732  1.00  0.00     0.174 HD
ATOM     44  H61 UNL     1       8.619  -2.266   9.118  1.00  0.00     0.174 HD
ENDBRANCH  36  42
ENDBRANCH  14  32
ENDBRANCH   6   9
ENDBRANCH   1   5
BRANCH   1  45
HETATM   45  N9  UNL     1       2.863  -8.723  -1.169  1.00  0.00    -0.020 N 
ATOM     46  H93 UNL     1       2.705  -7.785  -1.535  1.00  0.00     0.280 HD
ATOM     47  H92 UNL     1       3.882  -8.732  -1.222  1.00  0.00     0.280 HD
ATOM     48  H91 UNL     1       2.441  -9.442  -1.758  1.00  0.00     0.280 HD
ENDBRANCH   1  45
TORSDOF 10
ENDMDL
