MODEL 1
REMARK VINA RESULT: -8.454216660      0.000      0.000
REMARK  12 active torsions:
REMARK  status: ('A' for Active; 'I' for Inactive)
REMARK    1  A    between atoms: C2_2  and  C3_4 
REMARK    2  A    between atoms: C3_4  and  N1_5 
REMARK    3  A    between atoms: C3_4  and  C13_31 
REMARK       I    between atoms: N1_5  and  C4_7 
REMARK    4  A    between atoms: C4_7  and  C5_9 
REMARK    5  A    between atoms: C5_9  and  C6_10 
REMARK    6  A    between atoms: C5_9  and  N4_19 
REMARK    7  A    between atoms: C6_10  and  C7_11 
REMARK       I    between atoms: C7_11  and  N2_13 
REMARK    8  A    between atoms: N2_13  and  C8_15 
REMARK    9  A    between atoms: C8_15  and  C9_16 
REMARK   10  A    between atoms: N4_19  and  S1_21 
REMARK   11  A    between atoms: S1_21  and  N5_24 
REMARK       I    between atoms: C13_31  and  N7_33 
REMARK   12  A    between atoms: N7_33  and  N8_35 
ROOT
HETATM    1  C5  UNL     1      13.620 -13.388 -20.661  1.00  0.00     0.195 C 
ENDROOT
BRANCH   1   2
HETATM    2  C4  UNL     1      14.723 -13.714 -21.686  1.00  0.00     0.242 C 
HETATM    3  N1  UNL     1      14.389 -13.835 -23.030  1.00  0.00    -0.340 N 
ATOM      4  H1  UNL     1      13.402 -13.664 -23.222  1.00  0.00     0.163 HD
HETATM    5  O2  UNL     1      15.877 -13.860 -21.281  1.00  0.00    -0.271 OA
BRANCH   3   6
HETATM    6  C3  UNL     1      15.144 -14.147 -24.187  1.00  0.00     0.248 C 
BRANCH   6   7
HETATM    7  C2  UNL     1      14.844 -13.485 -25.450  1.00  0.00     0.154 C 
HETATM    8  C1  UNL     1      15.060 -11.989 -25.615  1.00  0.00     0.093 C 
HETATM    9  O1  UNL     1      14.419 -14.051 -26.415  1.00  0.00    -0.296 OA
ENDBRANCH   6   7
BRANCH   6  10
HETATM   10  C13 UNL     1      15.161 -15.644 -24.316  1.00  0.00     0.265 C 
HETATM   11  O8  UNL     1      16.176 -16.247 -23.953  1.00  0.00    -0.269 OA
HETATM   12  N7  UNL     1      14.048 -16.348 -24.841  1.00  0.00    -0.275 N 
ATOM     13  H7  UNL     1      13.219 -15.833 -25.138  1.00  0.00     0.189 HD
BRANCH  12  14
HETATM   14  N8  UNL     1      14.073 -17.735 -24.955  1.00  0.00    -0.343 N 
ATOM     15  H82 UNL     1      14.964 -18.193 -25.146  1.00  0.00     0.176 HD
ATOM     16  H81 UNL     1      13.220 -18.282 -24.851  1.00  0.00     0.176 HD
ENDBRANCH  12  14
ENDBRANCH   6  10
ENDBRANCH   3   6
ENDBRANCH   1   2
BRANCH   1  17
HETATM   17  C6  UNL     1      14.167 -12.735 -19.444  1.00  0.00     0.138 C 
BRANCH  17  18
HETATM   18  C7  UNL     1      13.272 -11.661 -18.924  1.00  0.00     0.220 C 
HETATM   19  O3  UNL     1      12.417 -11.184 -19.709  1.00  0.00    -0.274 OA
HETATM   20  N2  UNL     1      13.323 -11.151 -17.609  1.00  0.00    -0.353 N 
ATOM     21  H2  UNL     1      14.009 -11.520 -16.950  1.00  0.00     0.162 HD
BRANCH  20  22
HETATM   22  C8  UNL     1      12.417 -10.115 -17.190  1.00  0.00     0.222 C 
BRANCH  22  23
HETATM   23  C9  UNL     1      13.097  -8.806 -16.971  1.00  0.00     0.248 C 
HETATM   24  N3  UNL     1      13.209  -7.937 -18.079  1.00  0.00    -0.061 NA
HETATM   25  O4  UNL     1      13.555  -8.480 -15.853  1.00  0.00    -0.275 OA
ENDBRANCH  22  23
ENDBRANCH  20  22
ENDBRANCH  17  18
ENDBRANCH   1  17
BRANCH   1  26
HETATM   26  N4  UNL     1      12.710 -14.427 -20.524  1.00  0.00    -0.288 N 
ATOM     27  H4  UNL     1      13.083 -15.351 -20.304  1.00  0.00     0.174 HD
BRANCH  26  28
HETATM   28  S1  UNL     1      11.076 -14.290 -20.687  1.00  0.00     0.325 S 
HETATM   29  O5  UNL     1      10.304 -14.172 -19.385  1.00  0.00    -0.182 OA
HETATM   30  O6  UNL     1      10.591 -13.141 -21.528  1.00  0.00    -0.182 OA
BRANCH  28  31
HETATM   31  N5  UNL     1      10.467 -15.727 -21.436  1.00  0.00    -0.209 N 
HETATM   32  C10 UNL     1       9.124 -16.274 -21.443  1.00  0.00     0.167 C 
HETATM   33  C11 UNL     1       9.331 -17.773 -21.679  1.00  0.00     0.145 C 
HETATM   34  N6  UNL     1      10.510 -17.802 -22.531  1.00  0.00    -0.341 N 
HETATM   35  C12 UNL     1      11.246 -16.641 -22.198  1.00  0.00     0.333 C 
ATOM     36  H6  UNL     1      10.754 -18.511 -23.223  1.00  0.00     0.164 HD
HETATM   37  O7  UNL     1      12.445 -16.471 -22.550  1.00  0.00    -0.246 OA
ENDBRANCH  28  31
ENDBRANCH  26  28
ENDBRANCH   1  26
TORSDOF 12
ENDMDL
MODEL 2
REMARK VINA RESULT: -8.191278956      2.025      5.231
REMARK  12 active torsions:
REMARK  status: ('A' for Active; 'I' for Inactive)
REMARK    1  A    between atoms: C2_2  and  C3_4 
REMARK    2  A    between atoms: C3_4  and  N1_5 
REMARK    3  A    between atoms: C3_4  and  C13_31 
REMARK       I    between atoms: N1_5  and  C4_7 
REMARK    4  A    between atoms: C4_7  and  C5_9 
REMARK    5  A    between atoms: C5_9  and  C6_10 
REMARK    6  A    between atoms: C5_9  and  N4_19 
REMARK    7  A    between atoms: C6_10  and  C7_11 
REMARK       I    between atoms: C7_11  and  N2_13 
REMARK    8  A    between atoms: N2_13  and  C8_15 
REMARK    9  A    between atoms: C8_15  and  C9_16 
REMARK   10  A    between atoms: N4_19  and  S1_21 
REMARK   11  A    between atoms: S1_21  and  N5_24 
REMARK       I    between atoms: C13_31  and  N7_33 
REMARK   12  A    between atoms: N7_33  and  N8_35 
ROOT
HETATM    1  C5  UNL     1      14.209 -13.758 -21.176  1.00  0.00     0.195 C 
ENDROOT
BRANCH   1   2
HETATM    2  C4  UNL     1      12.704 -13.606 -21.469  1.00  0.00     0.242 C 
HETATM    3  N1  UNL     1      11.873 -14.715 -21.356  1.00  0.00    -0.340 N 
ATOM      4  H1  UNL     1      12.359 -15.559 -21.053  1.00  0.00     0.163 HD
HETATM    5  O2  UNL     1      12.278 -12.497 -21.797  1.00  0.00    -0.271 OA
BRANCH   3   6
HETATM    6  C3  UNL     1      10.488 -14.909 -21.579  1.00  0.00     0.248 C 
BRANCH   6   7
HETATM    7  C2  UNL     1       9.537 -14.652 -20.505  1.00  0.00     0.154 C 
HETATM    8  C1  UNL     1       9.894 -14.961 -19.059  1.00  0.00     0.093 C 
HETATM    9  O1  UNL     1       8.445 -14.196 -20.677  1.00  0.00    -0.296 OA
ENDBRANCH   6   7
BRANCH   6  10
HETATM   10  C13 UNL     1      10.320 -16.277 -22.176  1.00  0.00     0.265 C 
HETATM   11  O8  UNL     1       9.205 -16.804 -22.121  1.00  0.00    -0.269 OA
HETATM   12  N7  UNL     1      11.410 -16.950 -22.785  1.00  0.00    -0.275 N 
ATOM     13  H7  UNL     1      12.325 -16.500 -22.820  1.00  0.00     0.189 HD
BRANCH  12  14
HETATM   14  N8  UNL     1      11.246 -18.216 -23.337  1.00  0.00    -0.343 N 
ATOM     15  H82 UNL     1      10.795 -18.298 -24.248  1.00  0.00     0.176 HD
ATOM     16  H81 UNL     1      11.568 -19.047 -22.841  1.00  0.00     0.176 HD
ENDBRANCH  12  14
ENDBRANCH   6  10
ENDBRANCH   3   6
ENDBRANCH   1   2
BRANCH   1  17
HETATM   17  C6  UNL     1      14.618 -13.007 -19.961  1.00  0.00     0.138 C 
BRANCH  17  18
HETATM   18  C7  UNL     1      13.464 -12.350 -19.283  1.00  0.00     0.220 C 
HETATM   19  O3  UNL     1      12.647 -13.086 -18.677  1.00  0.00    -0.274 OA
HETATM   20  N2  UNL     1      13.233 -10.958 -19.275  1.00  0.00    -0.353 N 
ATOM     21  H2  UNL     1      13.882 -10.336 -19.759  1.00  0.00     0.162 HD
BRANCH  20  22
HETATM   22  C8  UNL     1      12.094 -10.408 -18.590  1.00  0.00     0.222 C 
BRANCH  22  23
HETATM   23  C9  UNL     1      12.475  -9.484 -17.484  1.00  0.00     0.248 C 
HETATM   24  N3  UNL     1      13.168  -8.303 -17.831  1.00  0.00    -0.061 NA
HETATM   25  O4  UNL     1      12.198  -9.736 -16.290  1.00  0.00    -0.275 OA
ENDBRANCH  22  23
ENDBRANCH  20  22
ENDBRANCH  17  18
ENDBRANCH   1  17
BRANCH   1  26
HETATM   26  N4  UNL     1      14.978 -13.660 -22.327  1.00  0.00    -0.288 N 
ATOM     27  H4  UNL     1      15.620 -12.870 -22.396  1.00  0.00     0.174 HD
BRANCH  26  28
HETATM   28  S1  UNL     1      14.938 -14.715 -23.593  1.00  0.00     0.325 S 
HETATM   29  O5  UNL     1      16.135 -15.643 -23.698  1.00  0.00    -0.182 OA
HETATM   30  O6  UNL     1      13.741 -15.622 -23.657  1.00  0.00    -0.182 OA
BRANCH  28  31
HETATM   31  N5  UNL     1      14.942 -13.815 -25.071  1.00  0.00    -0.209 N 
HETATM   32  C10 UNL     1      15.057 -14.278 -26.441  1.00  0.00     0.167 C 
HETATM   33  C11 UNL     1      15.625 -13.073 -27.197  1.00  0.00     0.145 C 
HETATM   34  N6  UNL     1      15.041 -11.945 -26.486  1.00  0.00    -0.341 N 
HETATM   35  C12 UNL     1      14.832 -12.400 -25.163  1.00  0.00     0.333 C 
ATOM     36  H6  UNL     1      14.827 -11.022 -26.863  1.00  0.00     0.164 HD
HETATM   37  O7  UNL     1      14.580 -11.618 -24.206  1.00  0.00    -0.246 OA
ENDBRANCH  28  31
ENDBRANCH  26  28
ENDBRANCH   1  26
TORSDOF 12
ENDMDL
MODEL 3
REMARK VINA RESULT: -8.046003213      1.509      2.182
REMARK  12 active torsions:
REMARK  status: ('A' for Active; 'I' for Inactive)
REMARK    1  A    between atoms: C2_2  and  C3_4 
REMARK    2  A    between atoms: C3_4  and  N1_5 
REMARK    3  A    between atoms: C3_4  and  C13_31 
REMARK       I    between atoms: N1_5  and  C4_7 
REMARK    4  A    between atoms: C4_7  and  C5_9 
REMARK    5  A    between atoms: C5_9  and  C6_10 
REMARK    6  A    between atoms: C5_9  and  N4_19 
REMARK    7  A    between atoms: C6_10  and  C7_11 
REMARK       I    between atoms: C7_11  and  N2_13 
REMARK    8  A    between atoms: N2_13  and  C8_15 
REMARK    9  A    between atoms: C8_15  and  C9_16 
REMARK   10  A    between atoms: N4_19  and  S1_21 
REMARK   11  A    between atoms: S1_21  and  N5_24 
REMARK       I    between atoms: C13_31  and  N7_33 
REMARK   12  A    between atoms: N7_33  and  N8_35 
ROOT
HETATM    1  C5  UNL     1      13.544 -13.295 -20.890  1.00  0.00     0.195 C 
ENDROOT
BRANCH   1   2
HETATM    2  C4  UNL     1      14.401 -13.430 -22.163  1.00  0.00     0.242 C 
HETATM    3  N1  UNL     1      13.776 -13.680 -23.380  1.00  0.00    -0.340 N 
ATOM      4  H1  UNL     1      12.760 -13.727 -23.314  1.00  0.00     0.163 HD
HETATM    5  O2  UNL     1      15.623 -13.314 -22.065  1.00  0.00    -0.271 OA
BRANCH   3   6
HETATM    6  C3  UNL     1      14.268 -13.881 -24.693  1.00  0.00     0.248 C 
BRANCH   6   7
HETATM    7  C2  UNL     1      15.271 -14.908 -24.942  1.00  0.00     0.154 C 
HETATM    8  C1  UNL     1      15.621 -15.930 -23.873  1.00  0.00     0.093 C 
HETATM    9  O1  UNL     1      15.872 -15.016 -25.972  1.00  0.00    -0.296 OA
ENDBRANCH   6   7
BRANCH   6  10
HETATM   10  C13 UNL     1      14.679 -12.538 -25.225  1.00  0.00     0.265 C 
HETATM   11  O8  UNL     1      14.641 -11.571 -24.458  1.00  0.00    -0.269 OA
HETATM   12  N7  UNL     1      15.097 -12.378 -26.571  1.00  0.00    -0.275 N 
ATOM     13  H7  UNL     1      15.120 -13.187 -27.192  1.00  0.00     0.189 HD
BRANCH  12  14
HETATM   14  N8  UNL     1      15.477 -11.130 -27.054  1.00  0.00    -0.343 N 
ATOM     15  H82 UNL     1      16.178 -11.085 -27.793  1.00  0.00     0.176 HD
ATOM     16  H81 UNL     1      15.063 -10.277 -26.679  1.00  0.00     0.176 HD
ENDBRANCH  12  14
ENDBRANCH   6  10
ENDBRANCH   3   6
ENDBRANCH   1   2
BRANCH   1  17
HETATM   17  C6  UNL     1      14.334 -12.785 -19.740  1.00  0.00     0.138 C 
BRANCH  17  18
HETATM   18  C7  UNL     1      13.554 -11.841 -18.887  1.00  0.00     0.220 C 
HETATM   19  O3  UNL     1      12.415 -12.206 -18.506  1.00  0.00    -0.274 OA
HETATM   20  N2  UNL     1      14.015 -10.572 -18.478  1.00  0.00    -0.353 N 
ATOM     21  H2  UNL     1      14.937 -10.250 -18.773  1.00  0.00     0.162 HD
BRANCH  20  22
HETATM   22  C8  UNL     1      13.196  -9.727 -17.650  1.00  0.00     0.222 C 
BRANCH  22  23
HETATM   23  C9  UNL     1      13.982  -8.678 -16.939  1.00  0.00     0.248 C 
HETATM   24  N3  UNL     1      15.096  -8.130 -17.613  1.00  0.00    -0.061 NA
HETATM   25  O4  UNL     1      13.674  -8.291 -15.790  1.00  0.00    -0.275 OA
ENDBRANCH  22  23
ENDBRANCH  20  22
ENDBRANCH  17  18
ENDBRANCH   1  17
BRANCH   1  26
HETATM   26  N4  UNL     1      12.703 -14.383 -20.707  1.00  0.00    -0.288 N 
ATOM     27  H4  UNL     1      13.139 -15.285 -20.516  1.00  0.00     0.174 HD
BRANCH  26  28
HETATM   28  S1  UNL     1      11.057 -14.337 -20.774  1.00  0.00     0.325 S 
HETATM   29  O5  UNL     1      10.356 -14.297 -19.427  1.00  0.00    -0.182 OA
HETATM   30  O6  UNL     1      10.460 -13.198 -21.552  1.00  0.00    -0.182 OA
BRANCH  28  31
HETATM   31  N5  UNL     1      10.487 -15.788 -21.528  1.00  0.00    -0.209 N 
HETATM   32  C10 UNL     1       9.165 -16.383 -21.518  1.00  0.00     0.167 C 
HETATM   33  C11 UNL     1       9.422 -17.871 -21.773  1.00  0.00     0.145 C 
HETATM   34  N6  UNL     1      10.587 -17.849 -22.644  1.00  0.00    -0.341 N 
HETATM   35  C12 UNL     1      11.286 -16.665 -22.311  1.00  0.00     0.333 C 
ATOM     36  H6  UNL     1      10.845 -18.542 -23.348  1.00  0.00     0.164 HD
HETATM   37  O7  UNL     1      12.472 -16.449 -22.681  1.00  0.00    -0.246 OA
ENDBRANCH  28  31
ENDBRANCH  26  28
ENDBRANCH   1  26
TORSDOF 12
ENDMDL
MODEL 4
REMARK VINA RESULT: -7.935836670      2.821      7.996
REMARK  12 active torsions:
REMARK  status: ('A' for Active; 'I' for Inactive)
REMARK    1  A    between atoms: C2_2  and  C3_4 
REMARK    2  A    between atoms: C3_4  and  N1_5 
REMARK    3  A    between atoms: C3_4  and  C13_31 
REMARK       I    between atoms: N1_5  and  C4_7 
REMARK    4  A    between atoms: C4_7  and  C5_9 
REMARK    5  A    between atoms: C5_9  and  C6_10 
REMARK    6  A    between atoms: C5_9  and  N4_19 
REMARK    7  A    between atoms: C6_10  and  C7_11 
REMARK       I    between atoms: C7_11  and  N2_13 
REMARK    8  A    between atoms: N2_13  and  C8_15 
REMARK    9  A    between atoms: C8_15  and  C9_16 
REMARK   10  A    between atoms: N4_19  and  S1_21 
REMARK   11  A    between atoms: S1_21  and  N5_24 
REMARK       I    between atoms: C13_31  and  N7_33 
REMARK   12  A    between atoms: N7_33  and  N8_35 
ROOT
HETATM    1  C5  UNL     1      13.099 -16.957 -23.055  1.00  0.00     0.195 C 
ENDROOT
BRANCH   1   2
HETATM    2  C4  UNL     1      11.833 -16.433 -22.350  1.00  0.00     0.242 C 
HETATM    3  N1  UNL     1      11.938 -15.364 -21.467  1.00  0.00    -0.340 N 
ATOM      4  H1  UNL     1      12.886 -14.996 -21.385  1.00  0.00     0.163 HD
HETATM    5  O2  UNL     1      10.757 -16.982 -22.590  1.00  0.00    -0.271 OA
BRANCH   3   6
HETATM    6  C3  UNL     1      10.995 -14.684 -20.658  1.00  0.00     0.248 C 
BRANCH   6   7
HETATM    7  C2  UNL     1       9.817 -14.082 -21.269  1.00  0.00     0.154 C 
HETATM    8  C1  UNL     1       8.425 -14.606 -20.959  1.00  0.00     0.093 C 
HETATM    9  O1  UNL     1       9.860 -13.162 -22.033  1.00  0.00    -0.296 OA
ENDBRANCH   6   7
BRANCH   6  10
HETATM   10  C13 UNL     1      11.759 -13.712 -19.805  1.00  0.00     0.265 C 
HETATM   11  O8  UNL     1      12.244 -14.123 -18.747  1.00  0.00    -0.269 OA
HETATM   12  N7  UNL     1      11.918 -12.359 -20.198  1.00  0.00    -0.275 N 
ATOM     13  H7  UNL     1      11.508 -12.036 -21.075  1.00  0.00     0.189 HD
BRANCH  12  14
HETATM   14  N8  UNL     1      12.628 -11.466 -19.402  1.00  0.00    -0.343 N 
ATOM     15  H82 UNL     1      12.195 -11.124 -18.544  1.00  0.00     0.176 HD
ATOM     16  H81 UNL     1      13.563 -11.158 -19.669  1.00  0.00     0.176 HD
ENDBRANCH  12  14
ENDBRANCH   6  10
ENDBRANCH   3   6
ENDBRANCH   1   2
BRANCH   1  17
HETATM   17  C6  UNL     1      12.856 -18.248 -23.748  1.00  0.00     0.138 C 
BRANCH  17  18
HETATM   18  C7  UNL     1      13.976 -18.625 -24.658  1.00  0.00     0.220 C 
HETATM   19  O3  UNL     1      14.933 -19.273 -24.167  1.00  0.00    -0.274 OA
HETATM   20  N2  UNL     1      14.027 -18.306 -26.031  1.00  0.00    -0.353 N 
ATOM     21  H2  UNL     1      13.263 -17.781 -26.457  1.00  0.00     0.162 HD
BRANCH  20  22
HETATM   22  C8  UNL     1      15.147 -18.715 -26.837  1.00  0.00     0.222 C 
BRANCH  22  23
HETATM   23  C9  UNL     1      16.160 -17.634 -27.009  1.00  0.00     0.248 C 
HETATM   24  N3  UNL     1      15.754 -16.464 -27.689  1.00  0.00    -0.061 NA
HETATM   25  O4  UNL     1      17.327 -17.749 -26.573  1.00  0.00    -0.275 OA
ENDBRANCH  22  23
ENDBRANCH  20  22
ENDBRANCH  17  18
ENDBRANCH   1  17
BRANCH   1  26
HETATM   26  N4  UNL     1      14.233 -16.810 -22.269  1.00  0.00    -0.288 N 
ATOM     27  H4  UNL     1      14.280 -17.354 -21.407  1.00  0.00     0.174 HD
BRANCH  26  28
HETATM   28  S1  UNL     1      15.512 -15.829 -22.614  1.00  0.00     0.325 S 
HETATM   29  O5  UNL     1      16.197 -15.211 -21.409  1.00  0.00    -0.182 OA
HETATM   30  O6  UNL     1      16.625 -16.452 -23.412  1.00  0.00    -0.182 OA
BRANCH  28  31
HETATM   31  N5  UNL     1      14.948 -14.483 -23.544  1.00  0.00    -0.209 N 
HETATM   32  C10 UNL     1      14.878 -14.309 -24.982  1.00  0.00     0.167 C 
HETATM   33  C11 UNL     1      14.921 -12.791 -25.179  1.00  0.00     0.145 C 
HETATM   34  N6  UNL     1      14.227 -12.296 -24.000  1.00  0.00    -0.341 N 
HETATM   35  C12 UNL     1      14.445 -13.270 -22.997  1.00  0.00     0.333 C 
ATOM     36  H6  UNL     1      13.696 -11.429 -23.914  1.00  0.00     0.164 HD
HETATM   37  O7  UNL     1      14.209 -13.055 -21.777  1.00  0.00    -0.246 OA
ENDBRANCH  28  31
ENDBRANCH  26  28
ENDBRANCH   1  26
TORSDOF 12
ENDMDL
MODEL 5
REMARK VINA RESULT: -7.935747249      4.277      7.106
REMARK  12 active torsions:
REMARK  status: ('A' for Active; 'I' for Inactive)
REMARK    1  A    between atoms: C2_2  and  C3_4 
REMARK    2  A    between atoms: C3_4  and  N1_5 
REMARK    3  A    between atoms: C3_4  and  C13_31 
REMARK       I    between atoms: N1_5  and  C4_7 
REMARK    4  A    between atoms: C4_7  and  C5_9 
REMARK    5  A    between atoms: C5_9  and  C6_10 
REMARK    6  A    between atoms: C5_9  and  N4_19 
REMARK    7  A    between atoms: C6_10  and  C7_11 
REMARK       I    between atoms: C7_11  and  N2_13 
REMARK    8  A    between atoms: N2_13  and  C8_15 
REMARK    9  A    between atoms: C8_15  and  C9_16 
REMARK   10  A    between atoms: N4_19  and  S1_21 
REMARK   11  A    between atoms: S1_21  and  N5_24 
REMARK       I    between atoms: C13_31  and  N7_33 
REMARK   12  A    between atoms: N7_33  and  N8_35 
ROOT
HETATM    1  C5  UNL     1      13.296 -17.072 -22.880  1.00  0.00     0.195 C 
ENDROOT
BRANCH   1   2
HETATM    2  C4  UNL     1      11.977 -16.444 -22.390  1.00  0.00     0.242 C 
HETATM    3  N1  UNL     1      10.865 -17.258 -22.200  1.00  0.00    -0.340 N 
ATOM      4  H1  UNL     1      11.045 -18.243 -22.388  1.00  0.00     0.163 HD
HETATM    5  O2  UNL     1      11.945 -15.230 -22.181  1.00  0.00    -0.271 OA
BRANCH   3   6
HETATM    6  C3  UNL     1       9.533 -16.992 -21.797  1.00  0.00     0.248 C 
BRANCH   6   7
HETATM    7  C2  UNL     1       9.271 -15.987 -20.775  1.00  0.00     0.154 C 
HETATM    8  C1  UNL     1       8.675 -14.638 -21.146  1.00  0.00     0.093 C 
HETATM    9  O1  UNL     1       9.500 -16.144 -19.611  1.00  0.00    -0.296 OA
ENDBRANCH   6   7
BRANCH   6  10
HETATM   10  C13 UNL     1       8.894 -18.313 -21.476  1.00  0.00     0.265 C 
HETATM   11  O8  UNL     1       8.371 -18.946 -22.398  1.00  0.00    -0.269 OA
HETATM   12  N7  UNL     1       8.886 -18.823 -20.153  1.00  0.00    -0.275 N 
ATOM     13  H7  UNL     1       9.320 -18.285 -19.402  1.00  0.00     0.189 HD
BRANCH  12  14
HETATM   14  N8  UNL     1       8.292 -20.048 -19.866  1.00  0.00    -0.343 N 
ATOM     15  H82 UNL     1       7.522 -20.367 -20.452  1.00  0.00     0.176 HD
ATOM     16  H81 UNL     1       8.620 -20.616 -19.085  1.00  0.00     0.176 HD
ENDBRANCH  12  14
ENDBRANCH   6  10
ENDBRANCH   3   6
ENDBRANCH   1   2
BRANCH   1  17
HETATM   17  C6  UNL     1      14.457 -16.174 -22.653  1.00  0.00     0.138 C 
BRANCH  17  18
HETATM   18  C7  UNL     1      14.818 -15.391 -23.870  1.00  0.00     0.220 C 
HETATM   19  O3  UNL     1      15.844 -15.739 -24.504  1.00  0.00    -0.274 OA
HETATM   20  N2  UNL     1      14.081 -14.290 -24.355  1.00  0.00    -0.353 N 
ATOM     21  H2  UNL     1      13.242 -13.985 -23.859  1.00  0.00     0.162 HD
BRANCH  20  22
HETATM   22  C8  UNL     1      14.500 -13.594 -25.542  1.00  0.00     0.222 C 
BRANCH  22  23
HETATM   23  C9  UNL     1      14.821 -12.160 -25.288  1.00  0.00     0.248 C 
HETATM   24  N3  UNL     1      15.209 -11.373 -26.395  1.00  0.00    -0.061 NA
HETATM   25  O4  UNL     1      14.751 -11.663 -24.142  1.00  0.00    -0.275 OA
ENDBRANCH  22  23
ENDBRANCH  20  22
ENDBRANCH  17  18
ENDBRANCH   1  17
BRANCH   1  26
HETATM   26  N4  UNL     1      13.151 -17.698 -24.110  1.00  0.00    -0.288 N 
ATOM     27  H4  UNL     1      12.394 -17.377 -24.713  1.00  0.00     0.174 HD
BRANCH  26  28
HETATM   28  S1  UNL     1      14.104 -18.918 -24.675  1.00  0.00     0.325 S 
HETATM   29  O5  UNL     1      15.078 -18.523 -25.771  1.00  0.00    -0.182 OA
HETATM   30  O6  UNL     1      14.946 -19.627 -23.650  1.00  0.00    -0.182 OA
BRANCH  28  31
HETATM   31  N5  UNL     1      13.096 -20.129 -25.392  1.00  0.00    -0.209 N 
HETATM   32  C10 UNL     1      13.314 -20.940 -26.574  1.00  0.00     0.167 C 
HETATM   33  C11 UNL     1      11.903 -21.308 -27.042  1.00  0.00     0.145 C 
HETATM   34  N6  UNL     1      11.166 -21.404 -25.792  1.00  0.00    -0.341 N 
HETATM   35  C12 UNL     1      11.822 -20.523 -24.898  1.00  0.00     0.333 C 
ATOM     36  H6  UNL     1      10.349 -21.983 -25.599  1.00  0.00     0.164 HD
HETATM   37  O7  UNL     1      11.309 -20.156 -23.807  1.00  0.00    -0.246 OA
ENDBRANCH  28  31
ENDBRANCH  26  28
ENDBRANCH   1  26
TORSDOF 12
ENDMDL
