MODEL 1
REMARK VINA RESULT: -5.039733523      0.000      0.000
REMARK  3 active torsions:
REMARK  status: ('A' for Active; 'I' for Inactive)
REMARK    1  A    between atoms: C3_3  and  C4_4 
REMARK    2  A    between atoms: C3_3  and  C6_7 
REMARK    3  A    between atoms: C4_4  and  O1_5 
ROOT
HETATM    1  C1  UNL     1     -31.268  45.685 -26.063  1.00  0.00     0.012 C 
HETATM    2  C2  UNL     1     -30.324  46.269 -25.593  1.00  0.00    -0.106 C 
HETATM    3  C3  UNL     1     -29.166  47.013 -25.020  1.00  0.00     0.146 C 
ENDROOT
BRANCH   3   4
HETATM    4  C4  UNL     1     -27.936  46.333 -25.557  1.00  0.00     0.188 C 
BRANCH   4   5
HETATM    5  O1  UNL     1     -26.828  47.153 -25.646  1.00  0.00    -0.395 OA
HETATM    6  C5  UNL     1     -27.163  48.476 -25.910  1.00  0.00     0.201 C 
ENDBRANCH   4   5
ENDBRANCH   3   4
BRANCH   3   7
HETATM    7  C6  UNL     1     -29.246  46.754 -23.507  1.00  0.00     0.400 C 
HETATM    8  N1  UNL     1     -29.694  47.991 -22.903  1.00  0.00    -0.043 N 
HETATM    9  C7  UNL     1     -28.478  48.635 -22.485  1.00  0.00     0.262 C 
ATOM     10  H12 UNL     1     -30.286  48.563 -23.507  1.00  0.00     0.279 HD
ATOM     11  H11 UNL     1     -30.382  47.870 -22.159  1.00  0.00     0.279 HD
HETATM   12  C8  UNL     1     -27.660  47.453 -21.982  1.00  0.00     0.262 C 
HETATM   13  N2  UNL     1     -28.005  46.381 -22.925  1.00  0.00    -0.043 N 
ATOM     14  H22 UNL     1     -28.018  45.454 -22.500  1.00  0.00     0.279 HD
ATOM     15  H21 UNL     1     -27.275  46.193 -23.611  1.00  0.00     0.279 HD
ENDBRANCH   3   7
TORSDOF 3
ENDMDL
MODEL 2
REMARK VINA RESULT: -4.967585713      1.006      1.312
REMARK  3 active torsions:
REMARK  status: ('A' for Active; 'I' for Inactive)
REMARK    1  A    between atoms: C3_3  and  C4_4 
REMARK    2  A    between atoms: C3_3  and  C6_7 
REMARK    3  A    between atoms: C4_4  and  O1_5 
ROOT
HETATM    1  C1  UNL     1     -31.165  45.685 -26.021  1.00  0.00     0.012 C 
HETATM    2  C2  UNL     1     -30.289  46.413 -25.625  1.00  0.00    -0.106 C 
HETATM    3  C3  UNL     1     -29.224  47.330 -25.129  1.00  0.00     0.146 C 
ENDROOT
BRANCH   3   4
HETATM    4  C4  UNL     1     -28.143  47.306 -26.177  1.00  0.00     0.188 C 
BRANCH   4   5
HETATM    5  O1  UNL     1     -27.348  46.177 -26.146  1.00  0.00    -0.395 OA
HETATM    6  C5  UNL     1     -27.561  45.343 -27.237  1.00  0.00     0.201 C 
ENDBRANCH   4   5
ENDBRANCH   3   4
BRANCH   3   7
HETATM    7  C6  UNL     1     -28.686  46.654 -23.858  1.00  0.00     0.400 C 
HETATM    8  N1  UNL     1     -29.692  46.846 -22.835  1.00  0.00    -0.043 N 
HETATM    9  C7  UNL     1     -29.242  48.008 -22.117  1.00  0.00     0.262 C 
ATOM     10  H12 UNL     1     -30.645  46.917 -23.192  1.00  0.00     0.279 HD
ATOM     11  H11 UNL     1     -29.855  46.028 -22.247  1.00  0.00     0.279 HD
HETATM   12  C8  UNL     1     -27.736  47.786 -22.085  1.00  0.00     0.262 C 
HETATM   13  N2  UNL     1     -27.455  47.195 -23.400  1.00  0.00    -0.043 N 
ATOM     14  H22 UNL     1     -26.693  46.518 -23.387  1.00  0.00     0.279 HD
ATOM     15  H21 UNL     1     -27.030  47.849 -24.057  1.00  0.00     0.279 HD
ENDBRANCH   3   7
TORSDOF 3
ENDMDL
MODEL 3
REMARK VINA RESULT: -4.630920084      1.542      2.814
REMARK  3 active torsions:
REMARK  status: ('A' for Active; 'I' for Inactive)
REMARK    1  A    between atoms: C3_3  and  C4_4 
REMARK    2  A    between atoms: C3_3  and  C6_7 
REMARK    3  A    between atoms: C4_4  and  O1_5 
ROOT
HETATM    1  C1  UNL     1     -27.758  47.968 -26.431  1.00  0.00     0.012 C 
HETATM    2  C2  UNL     1     -28.332  47.458 -25.502  1.00  0.00    -0.106 C 
HETATM    3  C3  UNL     1     -29.022  46.813 -24.349  1.00  0.00     0.146 C 
ENDROOT
BRANCH   3   4
HETATM    4  C4  UNL     1     -30.390  46.436 -24.849  1.00  0.00     0.188 C 
BRANCH   4   5
HETATM    5  O1  UNL     1     -30.482  46.327 -26.223  1.00  0.00    -0.395 OA
HETATM    6  C5  UNL     1     -31.318  45.291 -26.622  1.00  0.00     0.201 C 
ENDBRANCH   4   5
ENDBRANCH   3   4
BRANCH   3   7
HETATM    7  C6  UNL     1     -29.175  47.934 -23.308  1.00  0.00     0.400 C 
HETATM    8  N1  UNL     1     -27.838  48.408 -23.017  1.00  0.00    -0.043 N 
HETATM    9  C7  UNL     1     -27.464  47.686 -21.831  1.00  0.00     0.262 C 
ATOM     10  H12 UNL     1     -27.181  48.312 -23.792  1.00  0.00     0.279 HD
ATOM     11  H11 UNL     1     -27.762  49.422 -22.933  1.00  0.00     0.279 HD
HETATM   12  C8  UNL     1     -28.771  47.677 -21.050  1.00  0.00     0.262 C 
HETATM   13  N2  UNL     1     -29.786  47.510 -22.098  1.00  0.00    -0.043 N 
ATOM     14  H22 UNL     1     -30.663  47.991 -21.895  1.00  0.00     0.279 HD
ATOM     15  H21 UNL     1     -30.171  46.567 -22.146  1.00  0.00     0.279 HD
ENDBRANCH   3   7
TORSDOF 3
ENDMDL
MODEL 4
REMARK VINA RESULT: -4.004124384      1.982      3.704
REMARK  3 active torsions:
REMARK  status: ('A' for Active; 'I' for Inactive)
REMARK    1  A    between atoms: C3_3  and  C4_4 
REMARK    2  A    between atoms: C3_3  and  C6_7 
REMARK    3  A    between atoms: C4_4  and  O1_5 
ROOT
HETATM    1  C1  UNL     1     -29.323  47.515 -21.308  1.00  0.00     0.012 C 
HETATM    2  C2  UNL     1     -29.350  47.550 -22.513  1.00  0.00    -0.106 C 
HETATM    3  C3  UNL     1     -29.386  47.619 -24.001  1.00  0.00     0.146 C 
ENDROOT
BRANCH   3   4
HETATM    4  C4  UNL     1     -30.350  46.548 -24.437  1.00  0.00     0.188 C 
BRANCH   4   5
HETATM    5  O1  UNL     1     -30.777  46.668 -25.745  1.00  0.00    -0.395 OA
HETATM    6  C5  UNL     1     -31.302  45.482 -26.246  1.00  0.00     0.201 C 
ENDBRANCH   4   5
ENDBRANCH   3   4
BRANCH   3   7
HETATM    7  C6  UNL     1     -27.972  47.213 -24.446  1.00  0.00     0.400 C 
HETATM    8  N1  UNL     1     -27.438  48.336 -25.187  1.00  0.00    -0.043 N 
HETATM    9  C7  UNL     1     -27.704  48.004 -26.562  1.00  0.00     0.262 C 
ATOM     10  H12 UNL     1     -27.803  49.243 -24.897  1.00  0.00     0.279 HD
ATOM     11  H11 UNL     1     -26.459  48.543 -24.989  1.00  0.00     0.279 HD
HETATM   12  C8  UNL     1     -27.430  46.506 -26.576  1.00  0.00     0.262 C 
HETATM   13  N2  UNL     1     -27.942  46.059 -25.273  1.00  0.00    -0.043 N 
ATOM     14  H22 UNL     1     -27.413  45.285 -24.872  1.00  0.00     0.279 HD
ATOM     15  H21 UNL     1     -28.839  45.579 -25.332  1.00  0.00     0.279 HD
ENDBRANCH   3   7
TORSDOF 3
ENDMDL
MODEL 5
REMARK VINA RESULT: -3.801616098      1.542      2.861
REMARK  3 active torsions:
REMARK  status: ('A' for Active; 'I' for Inactive)
REMARK    1  A    between atoms: C3_3  and  C4_4 
REMARK    2  A    between atoms: C3_3  and  C6_7 
REMARK    3  A    between atoms: C4_4  and  O1_5 
ROOT
HETATM    1  C1  UNL     1     -27.269  48.312 -26.113  1.00  0.00     0.012 C 
HETATM    2  C2  UNL     1     -27.737  47.535 -25.319  1.00  0.00    -0.106 C 
HETATM    3  C3  UNL     1     -28.301  46.557 -24.346  1.00  0.00     0.146 C 
ENDROOT
BRANCH   3   4
HETATM    4  C4  UNL     1     -29.796  46.709 -24.431  1.00  0.00     0.188 C 
BRANCH   4   5
HETATM    5  O1  UNL     1     -30.285  46.795 -25.720  1.00  0.00    -0.395 OA
HETATM    6  C5  UNL     1     -31.033  45.680 -26.081  1.00  0.00     0.201 C 
ENDBRANCH   4   5
ENDBRANCH   3   4
BRANCH   3   7
HETATM    7  C6  UNL     1     -27.836  47.061 -22.970  1.00  0.00     0.400 C 
HETATM    8  N1  UNL     1     -28.714  46.453 -21.992  1.00  0.00    -0.043 N 
HETATM    9  C7  UNL     1     -29.717  47.456 -21.753  1.00  0.00     0.262 C 
ATOM     10  H12 UNL     1     -29.086  45.545 -22.270  1.00  0.00     0.279 HD
ATOM     11  H11 UNL     1     -28.240  46.125 -21.150  1.00  0.00     0.279 HD
HETATM   12  C8  UNL     1     -28.887  48.733 -21.774  1.00  0.00     0.262 C 
HETATM   13  N2  UNL     1     -27.899  48.473 -22.829  1.00  0.00    -0.043 N 
ATOM     14  H22 UNL     1     -26.991  48.905 -22.651  1.00  0.00     0.279 HD
ATOM     15  H21 UNL     1     -28.098  48.960 -23.702  1.00  0.00     0.279 HD
ENDBRANCH   3   7
TORSDOF 3
ENDMDL
