MODEL 1
REMARK VINA RESULT: -6.257649978      0.000      0.000
REMARK  15 active torsions:
REMARK  status: ('A' for Active; 'I' for Inactive)
REMARK    1  A    between atoms: N1_2  and  C3_4 
REMARK    2  A    between atoms: C3_4  and  C4_5 
REMARK    3  A    between atoms: C4_5  and  N2_6 
REMARK    4  A    between atoms: N2_6  and  C5_8 
REMARK    5  A    between atoms: C6_11  and  N4_12 
REMARK    6  A    between atoms: C7_17  and  C8_18 
REMARK    7  A    between atoms: C8_18  and  C9_23 
REMARK    8  A    between atoms: N6_19  and  O1_21 
REMARK    9  A    between atoms: C9_23  and  O2_24 
REMARK   10  A    between atoms: C9_23  and  C10_26 
REMARK   11  A    between atoms: C10_26  and  N7_27 
REMARK   12  A    between atoms: C11_31  and  C12_32 
REMARK   13  A    between atoms: C13_37  and  C14_38 
REMARK       I    between atoms: C14_38  and  N10_40 
REMARK   14  A    between atoms: N10_40  and  N11_42 
REMARK   15  A    between atoms: C17_49  and  N14_50 
ROOT
HETATM    1  C5  UNL     1      10.037   7.981 -31.552  1.00  0.00     0.132 A 
HETATM    2  N3  UNL     1      11.303   8.106 -31.207  1.00  0.00    -0.176 N 
ATOM      3  H3  UNL     1      11.639   7.577 -30.402  1.00  0.00     0.186 HD
HETATM    4  C6  UNL     1      12.165   8.889 -31.856  1.00  0.00     0.678 A 
HETATM    5  N5  UNL     1      11.713   9.575 -32.908  1.00  0.00    -0.189 N 
ATOM      6  H5  UNL     1      12.370  10.174 -33.409  1.00  0.00     0.184 HD
HETATM    7  C7  UNL     1      10.392   9.521 -33.363  1.00  0.00     0.092 A 
HETATM    8  C11 UNL     1       9.552   8.718 -32.679  1.00  0.00     0.068 A 
ENDROOT
BRANCH   8   9
HETATM    9  C12 UNL     1       8.177   8.452 -33.029  1.00  0.00     0.092 C 
HETATM   10  N8  UNL     1       7.246   9.376 -32.667  1.00  0.00    -0.297 N 
HETATM   11  N9  UNL     1       5.933   9.225 -32.649  1.00  0.00    -0.293 N 
ATOM     12  H8  UNL     1       7.602  10.288 -32.379  1.00  0.00     0.187 HD
HETATM   13  C13 UNL     1       5.118   8.401 -33.327  1.00  0.00     0.144 C 
ATOM     14  H9  UNL     1       5.451   9.848 -32.001  1.00  0.00     0.187 HD
HETATM   15  C15 UNL     1       5.493   7.159 -33.846  1.00  0.00     0.106 C 
HETATM   16  N12 UNL     1       4.439   6.232 -34.056  1.00  0.00    -0.098 NA
HETATM   17  C16 UNL     1       6.748   6.712 -34.181  1.00  0.00     0.101 C 
HETATM   18  N13 UNL     1       6.851   5.546 -35.000  1.00  0.00    -0.098 NA
HETATM   19  C17 UNL     1       7.939   7.321 -33.777  1.00  0.00     0.081 C 
BRANCH  13  20
HETATM   20  C14 UNL     1       3.738   8.787 -33.562  1.00  0.00     0.289 C 
HETATM   21  O3  UNL     1       3.457   9.551 -34.514  1.00  0.00    -0.264 OA
HETATM   22  N10 UNL     1       2.693   8.316 -32.731  1.00  0.00    -0.271 N 
ATOM     23  H10 UNL     1       2.929   7.695 -31.957  1.00  0.00     0.189 HD
BRANCH  22  24
HETATM   24  N11 UNL     1       1.359   8.663 -32.924  1.00  0.00    -0.342 N 
ATOM     25 2H11 UNL     1       0.971   8.542 -33.859  1.00  0.00     0.176 HD
ATOM     26 1H11 UNL     1       0.767   9.028 -32.176  1.00  0.00     0.176 HD
ENDBRANCH  22  24
ENDBRANCH  13  20
BRANCH  19  27
HETATM   27  N14 UNL     1       8.967   6.649 -34.215  1.00  0.00    -0.396 N 
ATOM     28 2H14 UNL     1       9.014   5.734 -33.765  1.00  0.00     0.156 HD
ATOM     29 1H14 UNL     1       9.567   7.092 -34.911  1.00  0.00     0.156 HD
ENDBRANCH  19  27
ENDBRANCH   8   9
BRANCH   1  30
HETATM   30  N2  UNL     1       9.189   7.219 -30.954  1.00  0.00    -0.373 N 
ATOM     31  H2  UNL     1       8.232   7.563 -30.873  1.00  0.00     0.161 HD
BRANCH  30  32
HETATM   32  C4  UNL     1       9.469   5.938 -30.395  1.00  0.00     0.151 C 
BRANCH  32  33
HETATM   33  C3  UNL     1       9.101   4.821 -31.325  1.00  0.00     0.290 C 
BRANCH  33  34
HETATM   34  N1  UNL     1       8.018   4.006 -30.812  1.00  0.00     0.081 N 
HETATM   35  C1  UNL     1       6.795   4.183 -31.559  1.00  0.00     0.309 C 
HETATM   36  C2  UNL     1       7.825   4.192 -29.393  1.00  0.00     0.309 C 
ENDBRANCH  33  34
ENDBRANCH  32  33
ENDBRANCH  30  32
ENDBRANCH   1  30
BRANCH   7  37
HETATM   37  C8  UNL     1      10.035  10.386 -34.458  1.00  0.00     0.090 C 
HETATM   38  N6  UNL     1       9.716  11.587 -34.215  1.00  0.00    -0.269 N 
ATOM     39  H6  UNL     1       9.498  12.024 -35.111  1.00  0.00     0.194 HD
BRANCH  38  40
HETATM   40  O1  UNL     1       9.555  12.469 -33.330  1.00  0.00    -0.290 OA
ATOM     41  H1  UNL     1       9.140  13.293 -33.103  1.00  0.00     0.244 HD
ENDBRANCH  38  40
BRANCH  37  42
HETATM   42  C9  UNL     1       9.856  10.057 -35.899  1.00  0.00     0.197 C 
BRANCH  42  43
HETATM   43  O2  UNL     1      10.047   8.673 -36.109  1.00  0.00    -0.388 OA
ATOM     44  H2  UNL     1      10.669   8.533 -36.815  1.00  0.00     0.210 HD
ENDBRANCH  42  43
BRANCH  42  45
HETATM   45  C10 UNL     1       8.336  10.198 -36.236  1.00  0.00     0.267 C 
BRANCH  45  46
HETATM   46  N7  UNL     1       7.900   9.041 -36.975  1.00  0.00    -0.077 N 
ATOM     47  H73 UNL     1       8.657   8.378 -37.136  1.00  0.00     0.274 HD
ATOM     48  H72 UNL     1       7.292   8.437 -36.422  1.00  0.00     0.274 HD
ATOM     49  H71 UNL     1       7.458   9.340 -37.845  1.00  0.00     0.274 HD
ENDBRANCH  45  46
ENDBRANCH  42  45
ENDBRANCH  37  42
ENDBRANCH   7  37
BRANCH   4  50
HETATM   50  N4  UNL     1      13.403   8.990 -31.491  1.00  0.00    -0.234 N 
ATOM     51  H42 UNL     1      13.648   9.471 -30.625  1.00  0.00     0.174 HD
ATOM     52  H41 UNL     1      14.162   8.597 -32.049  1.00  0.00     0.174 HD
ENDBRANCH   4  50
TORSDOF 15
ENDMDL
MODEL 2
REMARK VINA RESULT: -6.239695364      2.654      7.846
REMARK  15 active torsions:
REMARK  status: ('A' for Active; 'I' for Inactive)
REMARK    1  A    between atoms: N1_2  and  C3_4 
REMARK    2  A    between atoms: C3_4  and  C4_5 
REMARK    3  A    between atoms: C4_5  and  N2_6 
REMARK    4  A    between atoms: N2_6  and  C5_8 
REMARK    5  A    between atoms: C6_11  and  N4_12 
REMARK    6  A    between atoms: C7_17  and  C8_18 
REMARK    7  A    between atoms: C8_18  and  C9_23 
REMARK    8  A    between atoms: N6_19  and  O1_21 
REMARK    9  A    between atoms: C9_23  and  O2_24 
REMARK   10  A    between atoms: C9_23  and  C10_26 
REMARK   11  A    between atoms: C10_26  and  N7_27 
REMARK   12  A    between atoms: C11_31  and  C12_32 
REMARK   13  A    between atoms: C13_37  and  C14_38 
REMARK       I    between atoms: C14_38  and  N10_40 
REMARK   14  A    between atoms: N10_40  and  N11_42 
REMARK   15  A    between atoms: C17_49  and  N14_50 
ROOT
HETATM    1  C5  UNL     1       8.784  10.333 -33.544  1.00  0.00     0.132 A 
HETATM    2  N3  UNL     1       7.582  10.512 -34.055  1.00  0.00    -0.176 N 
ATOM      3  H3  UNL     1       7.311  11.454 -34.336  1.00  0.00     0.186 HD
HETATM    4  C6  UNL     1       6.702   9.523 -34.222  1.00  0.00     0.678 A 
HETATM    5  N5  UNL     1       7.069   8.295 -33.851  1.00  0.00    -0.189 N 
ATOM      6  H5  UNL     1       6.400   7.535 -33.978  1.00  0.00     0.184 HD
HETATM    7  C7  UNL     1       8.316   7.988 -33.298  1.00  0.00     0.092 A 
HETATM    8  C11 UNL     1       9.176   9.016 -33.146  1.00  0.00     0.068 A 
ENDROOT
BRANCH   8   9
HETATM    9  C12 UNL     1      10.537   8.907 -32.676  1.00  0.00     0.092 C 
HETATM   10  N8  UNL     1      10.767   9.136 -31.356  1.00  0.00    -0.297 N 
HETATM   11  N9  UNL     1      11.934   9.345 -30.771  1.00  0.00    -0.293 N 
ATOM     12  H8  UNL     1       9.948   9.148 -30.748  1.00  0.00     0.187 HD
HETATM   13  C13 UNL     1      13.183   8.992 -31.114  1.00  0.00     0.144 C 
ATOM     14  H9  UNL     1      11.875   9.872 -29.899  1.00  0.00     0.187 HD
HETATM   15  C15 UNL     1      13.612   8.755 -32.423  1.00  0.00     0.106 C 
HETATM   16  N12 UNL     1      15.004   8.904 -32.655  1.00  0.00    -0.098 NA
HETATM   17  C16 UNL     1      12.866   8.394 -33.519  1.00  0.00     0.101 C 
HETATM   18  N13 UNL     1      13.553   7.881 -34.662  1.00  0.00    -0.098 NA
HETATM   19  C17 UNL     1      11.475   8.494 -33.596  1.00  0.00     0.081 C 
BRANCH  13  20
HETATM   20  C14 UNL     1      14.195   8.833 -30.086  1.00  0.00     0.289 C 
HETATM   21  O3  UNL     1      14.210   7.798 -29.379  1.00  0.00    -0.264 OA
HETATM   22  N10 UNL     1      15.174   9.830 -29.859  1.00  0.00    -0.271 N 
ATOM     23  H10 UNL     1      15.155  10.670 -30.437  1.00  0.00     0.189 HD
BRANCH  22  24
HETATM   24  N11 UNL     1      16.160   9.715 -28.883  1.00  0.00    -0.342 N 
ATOM     25 2H11 UNL     1      15.980  10.150 -27.978  1.00  0.00     0.176 HD
ATOM     26 1H11 UNL     1      17.039   9.221 -29.039  1.00  0.00     0.176 HD
ENDBRANCH  22  24
ENDBRANCH  13  20
BRANCH  19  27
HETATM   27  N14 UNL     1      11.054   8.117 -34.772  1.00  0.00    -0.396 N 
ATOM     28 2H14 UNL     1      10.348   7.386 -34.682  1.00  0.00     0.156 HD
ATOM     29 1H14 UNL     1      11.458   8.568 -35.593  1.00  0.00     0.156 HD
ENDBRANCH  19  27
ENDBRANCH   8   9
BRANCH   1  30
HETATM   30  N2  UNL     1       9.657  11.266 -33.390  1.00  0.00    -0.373 N 
ATOM     31  H2  UNL     1      10.010  11.420 -32.445  1.00  0.00     0.161 HD
BRANCH  30  32
HETATM   32  C4  UNL     1      10.175  12.103 -34.421  1.00  0.00     0.151 C 
BRANCH  32  33
HETATM   33  C3  UNL     1       9.903  11.552 -35.789  1.00  0.00     0.290 C 
BRANCH  33  34
HETATM   34  N1  UNL     1       9.409  12.562 -36.704  1.00  0.00     0.081 N 
HETATM   35  C1  UNL     1       9.606  13.901 -36.203  1.00  0.00     0.309 C 
HETATM   36  C2  UNL     1       8.041  12.318 -37.095  1.00  0.00     0.309 C 
ENDBRANCH  33  34
ENDBRANCH  32  33
ENDBRANCH  30  32
ENDBRANCH   1  30
BRANCH   7  37
HETATM   37  C8  UNL     1       8.532   6.632 -32.867  1.00  0.00     0.090 C 
HETATM   38  N6  UNL     1       7.913   5.693 -33.452  1.00  0.00    -0.269 N 
ATOM     39  H6  UNL     1       8.199   4.824 -33.002  1.00  0.00     0.194 HD
BRANCH  38  40
HETATM   40  O1  UNL     1       7.092   5.385 -34.355  1.00  0.00    -0.290 OA
ATOM     41  H1  UNL     1       6.179   5.359 -34.617  1.00  0.00     0.244 HD
ENDBRANCH  38  40
BRANCH  37  42
HETATM   42  C9  UNL     1       9.319   6.124 -31.710  1.00  0.00     0.197 C 
BRANCH  42  43
HETATM   43  O2  UNL     1       8.979   6.840 -30.540  1.00  0.00    -0.388 OA
ATOM     44  H2  UNL     1       9.454   6.490 -29.794  1.00  0.00     0.210 HD
ENDBRANCH  42  43
BRANCH  42  45
HETATM   45  C10 UNL     1       8.779   4.702 -31.351  1.00  0.00     0.267 C 
BRANCH  45  46
HETATM   46  N7  UNL     1       9.079   4.408 -29.974  1.00  0.00    -0.077 N 
ATOM     47  H73 UNL     1      10.039   4.088 -29.848  1.00  0.00     0.274 HD
ATOM     48  H72 UNL     1       9.129   5.251 -29.401  1.00  0.00     0.274 HD
ATOM     49  H71 UNL     1       8.400   3.736 -29.613  1.00  0.00     0.274 HD
ENDBRANCH  45  46
ENDBRANCH  42  45
ENDBRANCH  37  42
ENDBRANCH   7  37
BRANCH   4  50
HETATM   50  N4  UNL     1       5.528   9.733 -34.726  1.00  0.00    -0.234 N 
ATOM     51  H42 UNL     1       4.689   9.533 -34.181  1.00  0.00     0.174 HD
ATOM     52  H41 UNL     1       5.407  10.099 -35.670  1.00  0.00     0.174 HD
ENDBRANCH   4  50
TORSDOF 15
ENDMDL
MODEL 3
REMARK VINA RESULT: -6.220114114      2.861      6.515
REMARK  15 active torsions:
REMARK  status: ('A' for Active; 'I' for Inactive)
REMARK    1  A    between atoms: N1_2  and  C3_4 
REMARK    2  A    between atoms: C3_4  and  C4_5 
REMARK    3  A    between atoms: C4_5  and  N2_6 
REMARK    4  A    between atoms: N2_6  and  C5_8 
REMARK    5  A    between atoms: C6_11  and  N4_12 
REMARK    6  A    between atoms: C7_17  and  C8_18 
REMARK    7  A    between atoms: C8_18  and  C9_23 
REMARK    8  A    between atoms: N6_19  and  O1_21 
REMARK    9  A    between atoms: C9_23  and  O2_24 
REMARK   10  A    between atoms: C9_23  and  C10_26 
REMARK   11  A    between atoms: C10_26  and  N7_27 
REMARK   12  A    between atoms: C11_31  and  C12_32 
REMARK   13  A    between atoms: C13_37  and  C14_38 
REMARK       I    between atoms: C14_38  and  N10_40 
REMARK   14  A    between atoms: N10_40  and  N11_42 
REMARK   15  A    between atoms: C17_49  and  N14_50 
ROOT
HETATM    1  C5  UNL     1      12.044   9.341 -31.796  1.00  0.00     0.132 A 
HETATM    2  N3  UNL     1      12.134   9.276 -30.482  1.00  0.00    -0.176 N 
ATOM      3  H3  UNL     1      12.900   9.771 -30.024  1.00  0.00     0.186 HD
HETATM    4  C6  UNL     1      11.276   8.595 -29.722  1.00  0.00     0.678 A 
HETATM    5  N5  UNL     1      10.278   7.952 -30.332  1.00  0.00    -0.189 N 
ATOM      6  H5  UNL     1       9.617   7.431 -29.755  1.00  0.00     0.184 HD
HETATM    7  C7  UNL     1      10.085   7.951 -31.717  1.00  0.00     0.092 A 
HETATM    8  C11 UNL     1      10.975   8.652 -32.450  1.00  0.00     0.068 A 
ENDROOT
BRANCH   8   9
HETATM    9  C12 UNL     1      10.911   8.851 -33.878  1.00  0.00     0.092 C 
HETATM   10  N8  UNL     1      11.553   7.949 -34.668  1.00  0.00    -0.297 N 
HETATM   11  N9  UNL     1      11.845   8.073 -35.952  1.00  0.00    -0.293 N 
ATOM     12  H8  UNL     1      11.843   7.079 -34.220  1.00  0.00     0.187 HD
HETATM   13  C13 UNL     1      11.287   8.805 -36.929  1.00  0.00     0.144 C 
ATOM     14  H9  UNL     1      12.639   7.508 -36.255  1.00  0.00     0.187 HD
HETATM   15  C15 UNL     1      10.583   9.996 -36.729  1.00  0.00     0.106 C 
HETATM   16  N12 UNL     1      10.522  10.874 -37.842  1.00  0.00    -0.098 NA
HETATM   17  C16 UNL     1       9.940  10.433 -35.596  1.00  0.00     0.101 C 
HETATM   18  N13 UNL     1       9.012  11.511 -35.722  1.00  0.00    -0.098 NA
HETATM   19  C17 UNL     1      10.130   9.894 -34.321  1.00  0.00     0.081 C 
BRANCH  13  20
HETATM   20  C14 UNL     1      11.398   8.369 -38.309  1.00  0.00     0.289 C 
HETATM   21  O3  UNL     1      10.551   7.576 -38.782  1.00  0.00    -0.264 OA
HETATM   22  N10 UNL     1      12.451   8.820 -39.139  1.00  0.00    -0.271 N 
ATOM     23  H10 UNL     1      13.138   9.464 -38.747  1.00  0.00     0.189 HD
BRANCH  22  24
HETATM   24  N11 UNL     1      12.592   8.424 -40.466  1.00  0.00    -0.342 N 
ATOM     25 2H11 UNL     1      13.453   7.942 -40.725  1.00  0.00     0.176 HD
ATOM     26 1H11 UNL     1      11.878   8.596 -41.175  1.00  0.00     0.176 HD
ENDBRANCH  22  24
ENDBRANCH  13  20
BRANCH  19  27
HETATM   27  N14 UNL     1       9.415  10.540 -33.441  1.00  0.00    -0.396 N 
ATOM     28 2H14 UNL     1       9.821  11.457 -33.255  1.00  0.00     0.156 HD
ATOM     29 1H14 UNL     1       8.587  10.078 -33.065  1.00  0.00     0.156 HD
ENDBRANCH  19  27
ENDBRANCH   8   9
BRANCH   1  30
HETATM   30  N2  UNL     1      12.848  10.006 -32.550  1.00  0.00    -0.373 N 
ATOM     31  H2  UNL     1      12.429  10.661 -33.211  1.00  0.00     0.161 HD
BRANCH  30  32
HETATM   32  C4  UNL     1      14.270   9.910 -32.543  1.00  0.00     0.151 C 
BRANCH  32  33
HETATM   33  C3  UNL     1      14.742   8.490 -32.649  1.00  0.00     0.290 C 
BRANCH  33  34
HETATM   34  N1  UNL     1      15.529   8.082 -31.502  1.00  0.00     0.081 N 
HETATM   35  C1  UNL     1      14.892   7.033 -30.743  1.00  0.00     0.309 C 
HETATM   36  C2  UNL     1      15.908   9.204 -30.677  1.00  0.00     0.309 C 
ENDBRANCH  33  34
ENDBRANCH  32  33
ENDBRANCH  30  32
ENDBRANCH   1  30
BRANCH   7  37
HETATM   37  C8  UNL     1       9.013   7.140 -32.234  1.00  0.00     0.090 C 
HETATM   38  N6  UNL     1       7.888   7.676 -32.459  1.00  0.00    -0.269 N 
ATOM     39  H6  UNL     1       7.275   6.942 -32.814  1.00  0.00     0.194 HD
BRANCH  38  40
HETATM   40  O1  UNL     1       7.209   8.736 -32.429  1.00  0.00    -0.290 OA
ATOM     41  H1  UNL     1       6.465   9.207 -32.785  1.00  0.00     0.244 HD
ENDBRANCH  38  40
BRANCH  37  42
HETATM   42  C9  UNL     1       8.967   5.668 -32.455  1.00  0.00     0.197 C 
BRANCH  42  43
HETATM   43  O2  UNL     1       9.782   5.009 -31.506  1.00  0.00    -0.388 OA
ATOM     44  H2  UNL     1      10.357   4.391 -31.943  1.00  0.00     0.210 HD
ENDBRANCH  42  43
BRANCH  42  45
HETATM   45  C10 UNL     1       7.552   5.164 -32.026  1.00  0.00     0.267 C 
BRANCH  45  46
HETATM   46  N7  UNL     1       7.688   4.167 -30.995  1.00  0.00    -0.077 N 
ATOM     47  H73 UNL     1       7.121   3.341 -31.181  1.00  0.00     0.274 HD
ATOM     48  H72 UNL     1       8.605   3.721 -31.010  1.00  0.00     0.274 HD
ATOM     49  H71 UNL     1       7.476   4.584 -30.088  1.00  0.00     0.274 HD
ENDBRANCH  45  46
ENDBRANCH  42  45
ENDBRANCH  37  42
ENDBRANCH   7  37
BRANCH   4  50
HETATM   50  N4  UNL     1      11.393   8.549 -28.433  1.00  0.00    -0.234 N 
ATOM     51  H42 UNL     1      12.218   8.938 -27.976  1.00  0.00     0.174 HD
ATOM     52  H41 UNL     1      10.675   8.130 -27.843  1.00  0.00     0.174 HD
ENDBRANCH   4  50
TORSDOF 15
ENDMDL
MODEL 4
REMARK VINA RESULT: -6.163358031      2.367      6.286
REMARK  15 active torsions:
REMARK  status: ('A' for Active; 'I' for Inactive)
REMARK    1  A    between atoms: N1_2  and  C3_4 
REMARK    2  A    between atoms: C3_4  and  C4_5 
REMARK    3  A    between atoms: C4_5  and  N2_6 
REMARK    4  A    between atoms: N2_6  and  C5_8 
REMARK    5  A    between atoms: C6_11  and  N4_12 
REMARK    6  A    between atoms: C7_17  and  C8_18 
REMARK    7  A    between atoms: C8_18  and  C9_23 
REMARK    8  A    between atoms: N6_19  and  O1_21 
REMARK    9  A    between atoms: C9_23  and  O2_24 
REMARK   10  A    between atoms: C9_23  and  C10_26 
REMARK   11  A    between atoms: C10_26  and  N7_27 
REMARK   12  A    between atoms: C11_31  and  C12_32 
REMARK   13  A    between atoms: C13_37  and  C14_38 
REMARK       I    between atoms: C14_38  and  N10_40 
REMARK   14  A    between atoms: N10_40  and  N11_42 
REMARK   15  A    between atoms: C17_49  and  N14_50 
ROOT
HETATM    1  C5  UNL     1       8.371   8.384 -33.167  1.00  0.00     0.132 A 
HETATM    2  N3  UNL     1       7.116   8.549 -33.535  1.00  0.00    -0.176 N 
ATOM      3  H3  UNL     1       6.429   7.855 -33.239  1.00  0.00     0.186 HD
HETATM    4  C6  UNL     1       6.699   9.578 -34.274  1.00  0.00     0.678 A 
HETATM    5  N5  UNL     1       7.606  10.480 -34.654  1.00  0.00    -0.189 N 
ATOM      6  H5  UNL     1       7.292  11.270 -35.219  1.00  0.00     0.184 HD
HETATM    7  C7  UNL     1       8.963  10.406 -34.324  1.00  0.00     0.092 A 
HETATM    8  C11 UNL     1       9.344   9.350 -33.575  1.00  0.00     0.068 A 
ENDROOT
BRANCH   8   9
HETATM    9  C12 UNL     1      10.672   9.128 -33.055  1.00  0.00     0.092 C 
HETATM   10  N8  UNL     1      10.899   9.446 -31.752  1.00  0.00    -0.297 N 
HETATM   11  N9  UNL     1      12.069   9.572 -31.151  1.00  0.00    -0.293 N 
ATOM     12  H8  UNL     1      10.073   9.606 -31.174  1.00  0.00     0.187 HD
HETATM   13  C13 UNL     1      13.275   9.049 -31.422  1.00  0.00     0.144 C 
ATOM     14  H9  UNL     1      12.053  10.177 -30.330  1.00  0.00     0.187 HD
HETATM   15  C15 UNL     1      13.702   8.648 -32.691  1.00  0.00     0.106 C 
HETATM   16  N12 UNL     1      15.107   8.616 -32.891  1.00  0.00    -0.098 NA
HETATM   17  C16 UNL     1      12.943   8.279 -33.775  1.00  0.00     0.101 C 
HETATM   18  N13 UNL     1      13.590   7.591 -34.847  1.00  0.00    -0.098 NA
HETATM   19  C17 UNL     1      11.575   8.530 -33.905  1.00  0.00     0.081 C 
BRANCH  13  20
HETATM   20  C14 UNL     1      14.239   8.868 -30.352  1.00  0.00     0.289 C 
HETATM   21  O3  UNL     1      14.139   7.884 -29.582  1.00  0.00    -0.264 OA
HETATM   22  N10 UNL     1      15.298   9.785 -30.156  1.00  0.00    -0.271 N 
ATOM     23  H10 UNL     1      15.374  10.583 -30.786  1.00  0.00     0.189 HD
BRANCH  22  24
HETATM   24  N11 UNL     1      16.242   9.646 -29.141  1.00  0.00    -0.342 N 
ATOM     25 2H11 UNL     1      16.163   8.832 -28.533  1.00  0.00     0.176 HD
ATOM     26 1H11 UNL     1      16.995  10.318 -28.989  1.00  0.00     0.176 HD
ENDBRANCH  22  24
ENDBRANCH  13  20
BRANCH  19  27
HETATM   27  N14 UNL     1      11.138   8.100 -35.057  1.00  0.00    -0.396 N 
ATOM     28 2H14 UNL     1      10.339   7.480 -34.928  1.00  0.00     0.156 HD
ATOM     29 1H14 UNL     1      11.621   8.414 -35.900  1.00  0.00     0.156 HD
ENDBRANCH  19  27
ENDBRANCH   8   9
BRANCH   1  30
HETATM   30  N2  UNL     1       8.795   7.411 -32.439  1.00  0.00    -0.373 N 
ATOM     31  H2  UNL     1       9.213   7.652 -31.540  1.00  0.00     0.161 HD
BRANCH  30  32
HETATM   32  C4  UNL     1       8.733   6.028 -32.776  1.00  0.00     0.151 C 
BRANCH  32  33
HETATM   33  C3  UNL     1       9.219   5.150 -31.662  1.00  0.00     0.290 C 
BRANCH  33  34
HETATM   34  N1  UNL     1       8.172   4.831 -30.711  1.00  0.00     0.081 N 
HETATM   35  C1  UNL     1       8.677   4.138 -29.550  1.00  0.00     0.309 C 
HETATM   36  C2  UNL     1       7.071   4.133 -31.331  1.00  0.00     0.309 C 
ENDBRANCH  33  34
ENDBRANCH  32  33
ENDBRANCH  30  32
ENDBRANCH   1  30
BRANCH   7  37
HETATM   37  C8  UNL     1       9.834  11.408 -34.880  1.00  0.00     0.090 C 
HETATM   38  N6  UNL     1      10.618  12.040 -34.110  1.00  0.00    -0.269 N 
ATOM     39  H6  UNL     1      11.139  12.696 -34.691  1.00  0.00     0.194 HD
BRANCH  38  40
HETATM   40  O1  UNL     1      11.023  12.196 -32.928  1.00  0.00    -0.290 OA
ATOM     41  H1  UNL     1      11.745  12.458 -32.369  1.00  0.00     0.244 HD
ENDBRANCH  38  40
BRANCH  37  42
HETATM   42  C9  UNL     1       9.894  11.939 -36.269  1.00  0.00     0.197 C 
BRANCH  42  43
HETATM   43  O2  UNL     1       8.725  11.579 -36.978  1.00  0.00    -0.388 OA
ATOM     44  H2  UNL     1       8.952  11.279 -37.851  1.00  0.00     0.210 HD
ENDBRANCH  42  43
BRANCH  42  45
HETATM   45  C10 UNL     1       9.725  13.491 -36.196  1.00  0.00     0.267 C 
BRANCH  45  46
HETATM   46  N7  UNL     1       8.324  13.823 -36.210  1.00  0.00    -0.077 N 
ATOM     47  H73 UNL     1       7.777  13.213 -35.604  1.00  0.00     0.274 HD
ATOM     48  H72 UNL     1       8.133  14.707 -35.738  1.00  0.00     0.274 HD
ATOM     49  H71 UNL     1       7.983  13.818 -37.172  1.00  0.00     0.274 HD
ENDBRANCH  45  46
ENDBRANCH  42  45
ENDBRANCH  37  42
ENDBRANCH   7  37
BRANCH   4  50
HETATM   50  N4  UNL     1       5.458   9.711 -34.619  1.00  0.00    -0.234 N 
ATOM     51  H42 UNL     1       5.159   9.479 -35.567  1.00  0.00     0.174 HD
ATOM     52  H41 UNL     1       4.752  10.047 -33.965  1.00  0.00     0.174 HD
ENDBRANCH   4  50
TORSDOF 15
ENDMDL
MODEL 5
REMARK VINA RESULT: -6.078711748      2.594      6.139
REMARK  15 active torsions:
REMARK  status: ('A' for Active; 'I' for Inactive)
REMARK    1  A    between atoms: N1_2  and  C3_4 
REMARK    2  A    between atoms: C3_4  and  C4_5 
REMARK    3  A    between atoms: C4_5  and  N2_6 
REMARK    4  A    between atoms: N2_6  and  C5_8 
REMARK    5  A    between atoms: C6_11  and  N4_12 
REMARK    6  A    between atoms: C7_17  and  C8_18 
REMARK    7  A    between atoms: C8_18  and  C9_23 
REMARK    8  A    between atoms: N6_19  and  O1_21 
REMARK    9  A    between atoms: C9_23  and  O2_24 
REMARK   10  A    between atoms: C9_23  and  C10_26 
REMARK   11  A    between atoms: C10_26  and  N7_27 
REMARK   12  A    between atoms: C11_31  and  C12_32 
REMARK   13  A    between atoms: C13_37  and  C14_38 
REMARK       I    between atoms: C14_38  and  N10_40 
REMARK   14  A    between atoms: N10_40  and  N11_42 
REMARK   15  A    between atoms: C17_49  and  N14_50 
ROOT
HETATM    1  C5  UNL     1      11.015   9.127 -32.637  1.00  0.00     0.132 A 
HETATM    2  N3  UNL     1      11.007   8.243 -31.659  1.00  0.00    -0.176 N 
ATOM      3  H3  UNL     1      11.874   8.080 -31.147  1.00  0.00     0.186 HD
HETATM    4  C6  UNL     1       9.922   7.552 -31.306  1.00  0.00     0.678 A 
HETATM    5  N5  UNL     1       8.794   7.775 -31.982  1.00  0.00    -0.189 N 
ATOM      6  H5  UNL     1       7.961   7.249 -31.715  1.00  0.00     0.184 HD
HETATM    7  C7  UNL     1       8.686   8.687 -33.037  1.00  0.00     0.092 A 
HETATM    8  C11 UNL     1       9.805   9.366 -33.363  1.00  0.00     0.068 A 
ENDROOT
BRANCH   8   9
HETATM    9  C12 UNL     1       9.893  10.409 -34.357  1.00  0.00     0.092 C 
HETATM   10  N8  UNL     1       9.760  11.695 -33.933  1.00  0.00    -0.297 N 
HETATM   11  N9  UNL     1       9.548  12.765 -34.679  1.00  0.00    -0.293 N 
ATOM     12  H8  UNL     1       9.833  11.850 -32.927  1.00  0.00     0.187 HD
HETATM   13  C13 UNL     1       9.817  13.026 -35.968  1.00  0.00     0.144 C 
ATOM     14  H9  UNL     1       9.096  13.535 -34.184  1.00  0.00     0.187 HD
HETATM   15  C15 UNL     1       9.930  12.058 -36.969  1.00  0.00     0.106 C 
HETATM   16  N12 UNL     1       9.702  12.509 -38.295  1.00  0.00    -0.098 NA
HETATM   17  C16 UNL     1      10.234  10.723 -36.843  1.00  0.00     0.101 C 
HETATM   18  N13 UNL     1      10.623  10.008 -38.017  1.00  0.00    -0.098 NA
HETATM   19  C17 UNL     1      10.189  10.012 -35.642  1.00  0.00     0.081 C 
BRANCH  13  20
HETATM   20  C14 UNL     1      10.014  14.398 -36.399  1.00  0.00     0.289 C 
HETATM   21  O3  UNL     1       9.082  15.228 -36.284  1.00  0.00    -0.264 OA
HETATM   22  N10 UNL     1      11.244  14.823 -36.954  1.00  0.00    -0.271 N 
ATOM     23  H10 UNL     1      11.998  14.143 -37.045  1.00  0.00     0.189 HD
BRANCH  22  24
HETATM   24  N11 UNL     1      11.471  16.130 -37.379  1.00  0.00    -0.342 N 
ATOM     25 2H11 UNL     1      11.715  16.270 -38.359  1.00  0.00     0.176 HD
ATOM     26 1H11 UNL     1      11.404  16.935 -36.757  1.00  0.00     0.176 HD
ENDBRANCH  22  24
ENDBRANCH  13  20
BRANCH  19  27
HETATM   27  N14 UNL     1      10.489   8.758 -35.841  1.00  0.00    -0.396 N 
ATOM     28 2H14 UNL     1       9.687   8.256 -36.224  1.00  0.00     0.156 HD
ATOM     29 1H14 UNL     1      11.431   8.447 -35.604  1.00  0.00     0.156 HD
ENDBRANCH  19  27
ENDBRANCH   8   9
BRANCH   1  30
HETATM   30  N2  UNL     1      12.042   9.820 -32.985  1.00  0.00    -0.373 N 
ATOM     31  H2  UNL     1      12.194   9.954 -33.984  1.00  0.00     0.161 HD
BRANCH  30  32
HETATM   32  C4  UNL     1      12.985  10.417 -32.098  1.00  0.00     0.151 C 
BRANCH  32  33
HETATM   33  C3  UNL     1      14.220   9.583 -31.938  1.00  0.00     0.290 C 
BRANCH  33  34
HETATM   34  N1  UNL     1      14.405   9.123 -30.576  1.00  0.00     0.081 N 
HETATM   35  C1  UNL     1      15.543   9.740 -29.937  1.00  0.00     0.309 C 
HETATM   36  C2  UNL     1      14.442   7.683 -30.489  1.00  0.00     0.309 C 
ENDBRANCH  33  34
ENDBRANCH  32  33
ENDBRANCH  30  32
ENDBRANCH   1  30
BRANCH   7  37
HETATM   37  C8  UNL     1       7.424   8.754 -33.726  1.00  0.00     0.090 C 
HETATM   38  N6  UNL     1       6.362   8.917 -33.053  1.00  0.00    -0.269 N 
ATOM     39  H6  UNL     1       5.589   8.934 -33.718  1.00  0.00     0.194 HD
BRANCH  38  40
HETATM   40  O1  UNL     1       5.862   9.067 -31.908  1.00  0.00    -0.290 OA
ATOM     41  H1  UNL     1       5.403   8.653 -31.186  1.00  0.00     0.244 HD
ENDBRANCH  38  40
BRANCH  37  42
HETATM   42  C9  UNL     1       7.124   8.537 -35.168  1.00  0.00     0.197 C 
BRANCH  42  43
HETATM   43  O2  UNL     1       6.453   7.306 -35.346  1.00  0.00    -0.388 OA
ATOM     44  H2  UNL     1       7.076   6.588 -35.318  1.00  0.00     0.210 HD
ENDBRANCH  42  43
BRANCH  42  45
HETATM   45  C10 UNL     1       6.003   9.544 -35.580  1.00  0.00     0.267 C 
BRANCH  45  46
HETATM   46  N7  UNL     1       6.581  10.846 -35.795  1.00  0.00    -0.077 N 
ATOM     47  H73 UNL     1       7.524  10.916 -35.413  1.00  0.00     0.274 HD
ATOM     48  H72 UNL     1       6.808  11.009 -36.776  1.00  0.00     0.274 HD
ATOM     49  H71 UNL     1       5.959  11.561 -35.419  1.00  0.00     0.274 HD
ENDBRANCH  45  46
ENDBRANCH  42  45
ENDBRANCH  37  42
ENDBRANCH   7  37
BRANCH   4  50
HETATM   50  N4  UNL     1       9.948   6.689 -30.340  1.00  0.00    -0.234 N 
ATOM     51  H42 UNL     1       9.628   6.949 -29.407  1.00  0.00     0.174 HD
ATOM     52  H41 UNL     1      10.283   5.736 -30.481  1.00  0.00     0.174 HD
ENDBRANCH   4  50
TORSDOF 15
ENDMDL
