MODEL 1
REMARK VINA RESULT: -8.719658690      0.000      0.000
REMARK  3 active torsions:
REMARK  status: ('A' for Active; 'I' for Inactive)
REMARK    1  A    between atoms: C6_11  and  C7_12 
REMARK    2  A    between atoms: C7_12  and  N3_13 
REMARK    3  A    between atoms: N3_13  and  C8_16 
ROOT
HETATM    1  C1  UNL     1       1.006  -5.806 -19.787  1.00  0.00     0.069 C 
HETATM    2  C2  UNL     1       2.337  -6.247 -20.233  1.00  0.00     0.024 A 
HETATM    3  N1  UNL     1       2.598  -6.400 -21.519  1.00  0.00    -0.355 N 
ATOM      4  H1  UNL     1       1.867  -6.208 -22.203  1.00  0.00     0.166 HD
HETATM    5  C3  UNL     1       3.804  -6.801 -21.945  1.00  0.00     0.083 A 
HETATM    6  C4  UNL     1       4.027  -6.935 -23.299  1.00  0.00     0.131 A 
HETATM    7 CL1  UNL     1       2.715  -6.583 -24.420  1.00  0.00    -0.062 Cl
HETATM    8  N2  UNL     1       5.212  -7.320 -23.750  1.00  0.00    -0.354 N 
ATOM      9  H2  UNL     1       5.371  -7.417 -24.753  1.00  0.00     0.166 HD
HETATM   10  C5  UNL     1       6.191  -7.582 -22.893  1.00  0.00     0.099 A 
HETATM   11  C6  UNL     1       6.062  -7.477 -21.480  1.00  0.00    -0.004 A 
HETATM   12  C16 UNL     1       4.844  -7.079 -21.020  1.00  0.00     0.010 A 
HETATM   13  C17 UNL     1       4.618  -6.934 -19.671  1.00  0.00    -0.029 A 
HETATM   14  C18 UNL     1       5.622  -7.193 -18.668  1.00  0.00     0.050 C 
HETATM   15  C19 UNL     1       3.316  -6.505 -19.315  1.00  0.00     0.040 A 
HETATM   16 BR1  UNL     1       2.971  -6.291 -17.434  1.00  0.00    -0.048 Br
ENDROOT
BRANCH  11  17
HETATM   17  C7  UNL     1       7.189  -7.811 -20.649  1.00  0.00     0.274 C 
BRANCH  17  18
HETATM   18  N3  UNL     1       7.786  -9.127 -21.048  1.00  0.00    -0.063 N 
ATOM     19  H32 UNL     1       7.395  -9.474 -21.924  1.00  0.00     0.278 HD
ATOM     20  H31 UNL     1       8.758  -9.032 -21.346  1.00  0.00     0.278 HD
BRANCH  18  21
HETATM   21  C8  UNL     1       7.640 -10.089 -19.969  1.00  0.00     0.123 C 
HETATM   22  C9  UNL     1       8.680 -11.156 -20.060  1.00  0.00     0.046 C 
HETATM   23  C10 UNL     1       6.246 -10.600 -19.844  1.00  0.00     0.038 C 
HETATM   24  C11 UNL     1       6.063 -11.496 -18.671  1.00  0.00     0.003 C 
HETATM   25  C12 UNL     1       7.056 -11.331 -17.574  1.00  0.00     0.004 C 
HETATM   26  C13 UNL     1       7.507  -9.918 -17.452  1.00  0.00    -0.016 C 
HETATM   27  C14 UNL     1       8.690  -9.833 -16.477  1.00  0.00     0.010 C 
HETATM   28  C15 UNL     1       7.925  -9.272 -18.719  1.00  0.00     0.042 C 
ENDBRANCH  18  21
ENDBRANCH  17  18
ENDBRANCH  11  17
TORSDOF 3
ENDMDL
MODEL 2
REMARK VINA RESULT: -8.670747677      4.170      6.506
REMARK  3 active torsions:
REMARK  status: ('A' for Active; 'I' for Inactive)
REMARK    1  A    between atoms: C6_11  and  C7_12 
REMARK    2  A    between atoms: C7_12  and  N3_13 
REMARK    3  A    between atoms: N3_13  and  C8_16 
ROOT
HETATM    1  C1  UNL     1       3.993 -11.504 -12.871  1.00  0.00     0.069 C 
HETATM    2  C2  UNL     1       4.039 -10.721 -14.116  1.00  0.00     0.024 A 
HETATM    3  N1  UNL     1       3.727  -9.438 -14.116  1.00  0.00    -0.355 N 
ATOM      4  H1  UNL     1       3.452  -8.991 -13.242  1.00  0.00     0.166 HD
HETATM    5  C3  UNL     1       3.762  -8.709 -15.241  1.00  0.00     0.083 A 
HETATM    6  C4  UNL     1       3.436  -7.371 -15.183  1.00  0.00     0.131 A 
HETATM    7 CL1  UNL     1       2.974  -6.669 -13.635  1.00  0.00    -0.062 Cl
HETATM    8  N2  UNL     1       3.472  -6.624 -16.277  1.00  0.00    -0.354 N 
ATOM      9  H2  UNL     1       3.230  -5.634 -16.228  1.00  0.00     0.166 HD
HETATM   10  C5  UNL     1       3.822  -7.166 -17.436  1.00  0.00     0.099 A 
HETATM   11  C6  UNL     1       4.173  -8.535 -17.601  1.00  0.00    -0.004 A 
HETATM   12  C16 UNL     1       4.137  -9.300 -16.476  1.00  0.00     0.010 A 
HETATM   13  C17 UNL     1       4.471 -10.633 -16.524  1.00  0.00    -0.029 A 
HETATM   14  C18 UNL     1       4.865 -11.307 -17.737  1.00  0.00     0.050 C 
HETATM   15  C19 UNL     1       4.406 -11.322 -15.288  1.00  0.00     0.040 A 
HETATM   16 BR1  UNL     1       4.870 -13.189 -15.325  1.00  0.00    -0.048 Br
ENDROOT
BRANCH  11  17
HETATM   17  C7  UNL     1       4.513  -9.016 -18.915  1.00  0.00     0.274 C 
BRANCH  17  18
HETATM   18  N3  UNL     1       5.730  -8.321 -19.449  1.00  0.00    -0.063 N 
ATOM     19  H32 UNL     1       5.845  -7.391 -19.047  1.00  0.00     0.278 HD
ATOM     20  H31 UNL     1       6.593  -8.741 -19.102  1.00  0.00     0.278 HD
BRANCH  18  21
HETATM   21  C8  UNL     1       5.687  -8.286 -20.900  1.00  0.00     0.123 C 
HETATM   22  C9  UNL     1       5.198  -9.584 -21.452  1.00  0.00     0.046 C 
HETATM   23  C10 UNL     1       6.966  -7.808 -21.498  1.00  0.00     0.038 C 
HETATM   24  C11 UNL     1       6.892  -7.659 -22.976  1.00  0.00     0.003 C 
HETATM   25  C12 UNL     1       5.524  -7.489 -23.538  1.00  0.00     0.004 C 
HETATM   26  C13 UNL     1       4.637  -6.743 -22.604  1.00  0.00    -0.016 C 
HETATM   27  C14 UNL     1       3.190  -6.791 -23.112  1.00  0.00     0.010 C 
HETATM   28  C15 UNL     1       4.636  -7.230 -21.203  1.00  0.00     0.042 C 
ENDBRANCH  18  21
ENDBRANCH  17  18
ENDBRANCH  11  17
TORSDOF 3
ENDMDL
MODEL 3
REMARK VINA RESULT: -8.545322248      4.308      6.821
REMARK  3 active torsions:
REMARK  status: ('A' for Active; 'I' for Inactive)
REMARK    1  A    between atoms: C6_11  and  C7_12 
REMARK    2  A    between atoms: C7_12  and  N3_13 
REMARK    3  A    between atoms: N3_13  and  C8_16 
ROOT
HETATM    1  C1  UNL     1       3.091 -12.616 -13.583  1.00  0.00     0.069 C 
HETATM    2  C2  UNL     1       3.764 -11.711 -14.528  1.00  0.00     0.024 A 
HETATM    3  N1  UNL     1       4.363 -10.615 -14.099  1.00  0.00    -0.355 N 
ATOM      4  H1  UNL     1       4.355 -10.400 -13.102  1.00  0.00     0.166 HD
HETATM    5  C3  UNL     1       4.980  -9.778 -14.944  1.00  0.00     0.083 A 
HETATM    6  C4  UNL     1       5.599  -8.653 -14.441  1.00  0.00     0.131 A 
HETATM    7 CL1  UNL     1       5.547  -8.350 -12.707  1.00  0.00    -0.062 Cl
HETATM    8  N2  UNL     1       6.226  -7.813 -15.252  1.00  0.00    -0.354 N 
ATOM      9  H2  UNL     1       6.682  -6.982 -14.874  1.00  0.00     0.166 HD
HETATM   10  C5  UNL     1       6.257  -8.053 -16.557  1.00  0.00     0.099 A 
HETATM   11  C6  UNL     1       5.648  -9.182 -17.173  1.00  0.00    -0.004 A 
HETATM   12  C16 UNL     1       5.007 -10.045 -16.338  1.00  0.00     0.010 A 
HETATM   13  C17 UNL     1       4.397 -11.174 -16.831  1.00  0.00    -0.029 A 
HETATM   14  C18 UNL     1       4.381 -11.517 -18.231  1.00  0.00     0.050 C 
HETATM   15  C19 UNL     1       3.771 -11.999 -15.864  1.00  0.00     0.040 A 
HETATM   16 BR1  UNL     1       2.911 -13.588 -16.525  1.00  0.00    -0.048 Br
ENDROOT
BRANCH  11  17
HETATM   17  C7  UNL     1       5.728  -9.325 -18.603  1.00  0.00     0.274 C 
BRANCH  17  18
HETATM   18  N3  UNL     1       5.241  -8.089 -19.300  1.00  0.00    -0.063 N 
ATOM     19  H32 UNL     1       4.256  -7.907 -19.110  1.00  0.00     0.278 HD
ATOM     20  H31 UNL     1       5.632  -7.240 -18.889  1.00  0.00     0.278 HD
BRANCH  18  21
HETATM   21  C8  UNL     1       5.514  -8.179 -20.724  1.00  0.00     0.123 C 
HETATM   22  C9  UNL     1       5.193  -9.541 -21.244  1.00  0.00     0.046 C 
HETATM   23  C10 UNL     1       6.878  -7.694 -21.077  1.00  0.00     0.038 C 
HETATM   24  C11 UNL     1       7.121  -7.675 -22.544  1.00  0.00     0.003 C 
HETATM   25  C12 UNL     1       5.904  -7.618 -23.398  1.00  0.00     0.004 C 
HETATM   26  C13 UNL     1       4.814  -6.839 -22.748  1.00  0.00    -0.016 C 
HETATM   27  C14 UNL     1       3.514  -6.999 -23.546  1.00  0.00     0.010 C 
HETATM   28  C15 UNL     1       4.524  -7.204 -21.341  1.00  0.00     0.042 C 
ENDBRANCH  18  21
ENDBRANCH  17  18
ENDBRANCH  11  17
TORSDOF 3
ENDMDL
MODEL 4
REMARK VINA RESULT: -8.354727965      4.992      7.851
REMARK  3 active torsions:
REMARK  status: ('A' for Active; 'I' for Inactive)
REMARK    1  A    between atoms: C6_11  and  C7_12 
REMARK    2  A    between atoms: C7_12  and  N3_13 
REMARK    3  A    between atoms: N3_13  and  C8_16 
ROOT
HETATM    1  C1  UNL     1       4.555 -11.178 -11.096  1.00  0.00     0.069 C 
HETATM    2  C2  UNL     1       4.361 -10.851 -12.517  1.00  0.00     0.024 A 
HETATM    3  N1  UNL     1       3.778 -11.712 -13.332  1.00  0.00    -0.355 N 
ATOM      4  H1  UNL     1       3.461 -12.609 -12.965  1.00  0.00     0.166 HD
HETATM    5  C3  UNL     1       3.593 -11.433 -14.629  1.00  0.00     0.083 A 
HETATM    6  C4  UNL     1       2.968 -12.363 -15.433  1.00  0.00     0.131 A 
HETATM    7 CL1  UNL     1       2.447 -13.890 -14.728  1.00  0.00    -0.062 Cl
HETATM    8  N2  UNL     1       2.763 -12.110 -16.718  1.00  0.00    -0.354 N 
ATOM      9  H2  UNL     1       2.300 -12.802 -17.307  1.00  0.00     0.166 HD
HETATM   10  C5  UNL     1       3.162 -10.955 -17.236  1.00  0.00     0.099 A 
HETATM   11  C6  UNL     1       3.815  -9.933 -16.492  1.00  0.00    -0.004 A 
HETATM   12  C16 UNL     1       4.023 -10.194 -15.173  1.00  0.00     0.010 A 
HETATM   13  C17 UNL     1       4.636  -9.267 -14.363  1.00  0.00    -0.029 A 
HETATM   14  C18 UNL     1       5.099  -7.986 -14.837  1.00  0.00     0.050 C 
HETATM   15  C19 UNL     1       4.787  -9.649 -13.007  1.00  0.00     0.040 A 
HETATM   16 BR1  UNL     1       5.639  -8.369 -11.850  1.00  0.00    -0.048 Br
ENDROOT
BRANCH  11  17
HETATM   17  C7  UNL     1       4.224  -8.730 -17.169  1.00  0.00     0.274 C 
BRANCH  17  18
HETATM   18  N3  UNL     1       3.394  -8.489 -18.395  1.00  0.00    -0.063 N 
ATOM     19  H32 UNL     1       3.970  -8.282 -19.211  1.00  0.00     0.278 HD
ATOM     20  H31 UNL     1       2.956  -9.346 -18.735  1.00  0.00     0.278 HD
BRANCH  18  21
HETATM   21  C8  UNL     1       2.418  -7.444 -18.139  1.00  0.00     0.123 C 
HETATM   22  C9  UNL     1       2.832  -6.598 -16.982  1.00  0.00     0.046 C 
HETATM   23  C10 UNL     1       1.027  -7.972 -18.046  1.00  0.00     0.038 C 
HETATM   24  C11 UNL     1       0.011  -6.896 -17.900  1.00  0.00     0.003 C 
HETATM   25  C12 UNL     1       0.425  -5.549 -18.379  1.00  0.00     0.004 C 
HETATM   26  C13 UNL     1       1.343  -5.642 -19.547  1.00  0.00    -0.016 C 
HETATM   27  C14 UNL     1       1.926  -4.258 -19.861  1.00  0.00     0.010 C 
HETATM   28  C15 UNL     1       2.480  -6.581 -19.389  1.00  0.00     0.042 C 
ENDBRANCH  18  21
ENDBRANCH  17  18
ENDBRANCH  11  17
TORSDOF 3
ENDMDL
MODEL 5
REMARK VINA RESULT: -8.332993337      4.055      6.497
REMARK  3 active torsions:
REMARK  status: ('A' for Active; 'I' for Inactive)
REMARK    1  A    between atoms: C6_11  and  C7_12 
REMARK    2  A    between atoms: C7_12  and  N3_13 
REMARK    3  A    between atoms: N3_13  and  C8_16 
ROOT
HETATM    1  C1  UNL     1       3.821 -11.308 -12.654  1.00  0.00     0.069 C 
HETATM    2  C2  UNL     1       4.083 -11.131 -14.091  1.00  0.00     0.024 A 
HETATM    3  N1  UNL     1       3.610 -11.994 -14.973  1.00  0.00    -0.355 N 
ATOM      4  H1  UNL     1       3.059 -12.787 -14.647  1.00  0.00     0.166 HD
HETATM    5  C3  UNL     1       3.839 -11.850 -16.285  1.00  0.00     0.083 A 
HETATM    6  C4  UNL     1       3.313 -12.774 -17.163  1.00  0.00     0.131 A 
HETATM    7 CL1  UNL     1       2.368 -14.117 -16.526  1.00  0.00    -0.062 Cl
HETATM    8  N2  UNL     1       3.514 -12.652 -18.467  1.00  0.00    -0.354 N 
ATOM      9  H2  UNL     1       3.122 -13.338 -19.112  1.00  0.00     0.166 HD
HETATM   10  C5  UNL     1       4.229 -11.634 -18.932  1.00  0.00     0.099 A 
HETATM   11  C6  UNL     1       4.815 -10.631 -18.111  1.00  0.00    -0.004 A 
HETATM   12  C16 UNL     1       4.605 -10.758 -16.772  1.00  0.00     0.010 A 
HETATM   13  C17 UNL     1       5.117  -9.835 -15.892  1.00  0.00    -0.029 A 
HETATM   14  C18 UNL     1       5.902  -8.698 -16.306  1.00  0.00     0.050 C 
HETATM   15  C19 UNL     1       4.824 -10.068 -14.526  1.00  0.00     0.040 A 
HETATM   16 BR1  UNL     1       5.527  -8.790 -13.271  1.00  0.00    -0.048 Br
ENDROOT
BRANCH  11  17
HETATM   17  C7  UNL     1       5.590  -9.587 -18.729  1.00  0.00     0.274 C 
BRANCH  17  18
HETATM   18  N3  UNL     1       4.719  -8.668 -19.533  1.00  0.00    -0.063 N 
ATOM     19  H32 UNL     1       3.752  -8.991 -19.566  1.00  0.00     0.278 HD
ATOM     20  H31 UNL     1       4.563  -7.778 -19.059  1.00  0.00     0.278 HD
BRANCH  18  21
HETATM   21  C8  UNL     1       5.278  -8.487 -20.862  1.00  0.00     0.123 C 
HETATM   22  C9  UNL     1       5.166  -9.741 -21.664  1.00  0.00     0.046 C 
HETATM   23  C10 UNL     1       6.647  -7.899 -20.830  1.00  0.00     0.038 C 
HETATM   24  C11 UNL     1       7.179  -7.604 -22.187  1.00  0.00     0.003 C 
HETATM   25  C12 UNL     1       6.157  -7.433 -23.256  1.00  0.00     0.004 C 
HETATM   26  C13 UNL     1       4.907  -6.823 -22.726  1.00  0.00    -0.016 C 
HETATM   27  C14 UNL     1       3.809  -6.878 -23.796  1.00  0.00     0.010 C 
HETATM   28  C15 UNL     1       4.366  -7.450 -21.496  1.00  0.00     0.042 C 
ENDBRANCH  18  21
ENDBRANCH  17  18
ENDBRANCH  11  17
TORSDOF 3
ENDMDL
