MODEL 1
REMARK VINA RESULT: -6.488362369      0.000      0.000
REMARK  4 active torsions:
REMARK  status: ('A' for Active; 'I' for Inactive)
REMARK    1  A    between atoms: C10_11  and  O1_12 
REMARK    2  A    between atoms: C14_17  and  N2_18 
REMARK    3  A    between atoms: N2_18  and  N3_20 
REMARK    4  A    between atoms: N3_20  and  N4_21 
ROOT
HETATM    1  C1  UNL     1       9.465  -9.359   3.153  1.00  0.00     0.018 C 
HETATM    2  C2  UNL     1       8.872  -8.488   2.023  1.00  0.00    -0.016 C 
HETATM    3  C3  UNL     1       9.661  -8.686   0.776  1.00  0.00     0.012 C 
HETATM    4  C4  UNL     1       8.984  -9.400  -0.326  1.00  0.00     0.008 C 
HETATM    5  C5  UNL     1       7.547  -9.161  -0.536  1.00  0.00     0.025 C 
HETATM    6  C6  UNL     1       6.774  -8.653   0.627  1.00  0.00     0.229 C 
HETATM    7  C7  UNL     1       7.439  -8.945   1.924  1.00  0.00     0.048 C 
HETATM    8  N1  UNL     1       6.419  -7.297   0.396  1.00  0.00     0.103 N 
HETATM    9  C8  UNL     1       7.440  -6.319   0.617  1.00  0.00     0.276 C 
HETATM   10  C9  UNL     1       7.902  -6.147   1.997  1.00  0.00     0.062 C 
HETATM   11  C10 UNL     1       8.875  -7.102   2.561  1.00  0.00     0.128 C 
HETATM   12  C11 UNL     1       6.113  -7.290  -1.028  1.00  0.00     0.162 C 
HETATM   13  C12 UNL     1       6.193  -5.933  -1.636  1.00  0.00     0.049 C 
HETATM   14  C13 UNL     1       4.832  -7.954  -1.373  1.00  0.00     0.069 C 
HETATM   15  C14 UNL     1       5.131  -8.789  -2.601  1.00  0.00     0.117 C 
HETATM   16  C15 UNL     1       6.612  -8.723  -2.835  1.00  0.00     0.035 C 
HETATM   17  C16 UNL     1       7.239  -8.128  -1.612  1.00  0.00     0.032 C 
ENDROOT
BRANCH  15  18
HETATM   18  N2  UNL     1       4.441  -8.271  -3.782  1.00  0.00    -0.248 N 
ATOM     19  H2  UNL     1       3.685  -7.601  -3.642  1.00  0.00     0.197 HD
BRANCH  18  20
HETATM   20  N3  UNL     1       4.716  -8.592  -4.918  1.00  0.00    -0.248 NA
BRANCH  20  21
HETATM   21  N4  UNL     1       5.016  -8.682  -6.110  1.00  0.00    -0.261 N 
ATOM     22  H42 UNL     1       5.849  -8.118  -5.939  1.00  0.00     0.193 HD
ATOM     23  H41 UNL     1       5.098  -8.864  -7.111  1.00  0.00     0.193 HD
ENDBRANCH  20  21
ENDBRANCH  18  20
ENDBRANCH  15  18
BRANCH  11  24
HETATM   24  O1  UNL     1      10.189  -6.579   2.607  1.00  0.00    -0.395 OA
ATOM     25  H1  UNL     1      10.178  -5.629   2.598  1.00  0.00     0.210 HD
ENDBRANCH  11  24
TORSDOF 4
ENDMDL
MODEL 2
REMARK VINA RESULT: -6.457895386      3.465      6.101
REMARK  4 active torsions:
REMARK  status: ('A' for Active; 'I' for Inactive)
REMARK    1  A    between atoms: C10_11  and  O1_12 
REMARK    2  A    between atoms: C14_17  and  N2_18 
REMARK    3  A    between atoms: N2_18  and  N3_20 
REMARK    4  A    between atoms: N3_20  and  N4_21 
ROOT
HETATM    1  C1  UNL     1       9.935  -7.481  -6.877  1.00  0.00     0.018 C 
HETATM    2  C2  UNL     1       8.889  -7.996  -5.863  1.00  0.00    -0.016 C 
HETATM    3  C3  UNL     1       9.508  -9.036  -4.995  1.00  0.00     0.012 C 
HETATM    4  C4  UNL     1       9.722  -8.672  -3.580  1.00  0.00     0.008 C 
HETATM    5  C5  UNL     1       8.713  -7.833  -2.912  1.00  0.00     0.025 C 
HETATM    6  C6  UNL     1       7.848  -6.999  -3.788  1.00  0.00     0.229 C 
HETATM    7  C7  UNL     1       8.456  -6.756  -5.122  1.00  0.00     0.048 C 
HETATM    8  N1  UNL     1       6.532  -7.531  -3.787  1.00  0.00     0.103 N 
HETATM    9  C8  UNL     1       6.301  -8.679  -4.610  1.00  0.00     0.276 C 
HETATM   10  C9  UNL     1       6.411  -8.484  -6.059  1.00  0.00     0.062 C 
HETATM   11  C10 UNL     1       7.744  -8.460  -6.689  1.00  0.00     0.128 C 
HETATM   12  C11 UNL     1       6.363  -7.951  -2.402  1.00  0.00     0.162 C 
HETATM   13  C12 UNL     1       5.294  -8.973  -2.227  1.00  0.00     0.049 C 
HETATM   14  C13 UNL     1       6.189  -6.828  -1.449  1.00  0.00     0.069 C 
HETATM   15  C14 UNL     1       7.056  -7.177  -0.255  1.00  0.00     0.117 C 
HETATM   16  C15 UNL     1       7.840  -8.403  -0.618  1.00  0.00     0.035 C 
HETATM   17  C16 UNL     1       7.695  -8.616  -2.094  1.00  0.00     0.032 C 
ENDROOT
BRANCH  15  18
HETATM   18  N2  UNL     1       6.247  -7.464   0.929  1.00  0.00    -0.248 N 
ATOM     19  H2  UNL     1       6.017  -6.691   1.554  1.00  0.00     0.197 HD
BRANCH  18  20
HETATM   20  N3  UNL     1       5.833  -8.568   1.211  1.00  0.00    -0.248 NA
BRANCH  20  21
HETATM   21  N4  UNL     1       5.270  -9.660   1.306  1.00  0.00    -0.261 N 
ATOM     22  H42 UNL     1       4.396  -9.232   0.999  1.00  0.00     0.193 HD
ATOM     23  H41 UNL     1       4.982 -10.629   1.444  1.00  0.00     0.193 HD
ENDBRANCH  20  21
ENDBRANCH  18  20
ENDBRANCH  15  18
BRANCH  11  24
HETATM   24  O1  UNL     1       8.056  -9.670  -7.353  1.00  0.00    -0.395 OA
ATOM     25  H1  UNL     1       8.887  -9.604  -7.809  1.00  0.00     0.210 HD
ENDBRANCH  11  24
TORSDOF 4
ENDMDL
MODEL 3
REMARK VINA RESULT: -6.296191528      2.268      3.884
REMARK  4 active torsions:
REMARK  status: ('A' for Active; 'I' for Inactive)
REMARK    1  A    between atoms: C10_11  and  O1_12 
REMARK    2  A    between atoms: C14_17  and  N2_18 
REMARK    3  A    between atoms: N2_18  and  N3_20 
REMARK    4  A    between atoms: N3_20  and  N4_21 
ROOT
HETATM    1  C1  UNL     1       7.505  -6.371   0.601  1.00  0.00     0.018 C 
HETATM    2  C2  UNL     1       7.065  -7.247  -0.594  1.00  0.00    -0.016 C 
HETATM    3  C3  UNL     1       6.274  -8.407  -0.096  1.00  0.00     0.012 C 
HETATM    4  C4  UNL     1       4.833  -8.410  -0.420  1.00  0.00     0.008 C 
HETATM    5  C5  UNL     1       4.409  -7.892  -1.731  1.00  0.00     0.025 C 
HETATM    6  C6  UNL     1       5.339  -6.955  -2.415  1.00  0.00     0.229 C 
HETATM    7  C7  UNL     1       6.284  -6.302  -1.472  1.00  0.00     0.048 C 
HETATM    8  N1  UNL     1       5.921  -7.608  -3.534  1.00  0.00     0.103 N 
HETATM    9  C8  UNL     1       6.995  -8.514  -3.263  1.00  0.00     0.276 C 
HETATM   10  C9  UNL     1       8.232  -7.932  -2.736  1.00  0.00     0.062 C 
HETATM   11  C10 UNL     1       8.324  -7.596  -1.302  1.00  0.00     0.128 C 
HETATM   12  C11 UNL     1       4.810  -8.395  -4.052  1.00  0.00     0.162 C 
HETATM   13  C12 UNL     1       5.249  -9.536  -4.902  1.00  0.00     0.049 C 
HETATM   14  C13 UNL     1       3.768  -7.591  -4.735  1.00  0.00     0.069 C 
HETATM   15  C14 UNL     1       2.446  -8.147  -4.245  1.00  0.00     0.117 C 
HETATM   16  C15 UNL     1       2.754  -9.141  -3.164  1.00  0.00     0.035 C 
HETATM   17  C16 UNL     1       4.194  -8.969  -2.786  1.00  0.00     0.032 C 
ENDROOT
BRANCH  15  18
HETATM   18  N2  UNL     1       1.719  -8.824  -5.318  1.00  0.00    -0.248 N 
ATOM     19  H2  UNL     1       0.921  -9.407  -5.065  1.00  0.00     0.197 HD
BRANCH  18  20
HETATM   20  N3  UNL     1       2.009  -8.732  -6.492  1.00  0.00    -0.248 NA
BRANCH  20  21
HETATM   21  N4  UNL     1       2.218  -8.415  -7.664  1.00  0.00    -0.261 N 
ATOM     22  H42 UNL     1       1.381  -8.924  -7.948  1.00  0.00     0.193 HD
ATOM     23  H41 UNL     1       2.551  -8.060  -8.561  1.00  0.00     0.193 HD
ENDBRANCH  20  21
ENDBRANCH  18  20
ENDBRANCH  15  18
BRANCH  11  24
HETATM   24  O1  UNL     1       9.072  -8.546  -0.566  1.00  0.00    -0.395 OA
ATOM     25  H1  UNL     1       8.638  -8.762   0.251  1.00  0.00     0.210 HD
ENDBRANCH  11  24
TORSDOF 4
ENDMDL
MODEL 4
REMARK VINA RESULT: -6.143344571      1.578      2.308
REMARK  4 active torsions:
REMARK  status: ('A' for Active; 'I' for Inactive)
REMARK    1  A    between atoms: C10_11  and  O1_12 
REMARK    2  A    between atoms: C14_17  and  N2_18 
REMARK    3  A    between atoms: N2_18  and  N3_20 
REMARK    4  A    between atoms: N3_20  and  N4_21 
ROOT
HETATM    1  C1  UNL     1       9.727  -8.792   4.197  1.00  0.00     0.018 C 
HETATM    2  C2  UNL     1       9.488  -8.781   2.670  1.00  0.00    -0.016 C 
HETATM    3  C3  UNL     1       8.885 -10.077   2.253  1.00  0.00     0.012 C 
HETATM    4  C4  UNL     1       7.478 -10.035   1.803  1.00  0.00     0.008 C 
HETATM    5  C5  UNL     1       7.025  -8.866   1.031  1.00  0.00     0.025 C 
HETATM    6  C6  UNL     1       7.810  -7.614   1.187  1.00  0.00     0.229 C 
HETATM    7  C7  UNL     1       8.595  -7.587   2.449  1.00  0.00     0.048 C 
HETATM    8  N1  UNL     1       8.537  -7.366  -0.008  1.00  0.00     0.103 N 
HETATM    9  C8  UNL     1       9.737  -8.123  -0.200  1.00  0.00     0.276 C 
HETATM   10  C9  UNL     1      10.837  -7.863   0.733  1.00  0.00     0.062 C 
HETATM   11  C10 UNL     1      10.815  -8.479   2.073  1.00  0.00     0.128 C 
HETATM   12  C11 UNL     1       7.595  -7.779  -1.040  1.00  0.00     0.162 C 
HETATM   13  C12 UNL     1       8.253  -8.093  -2.339  1.00  0.00     0.049 C 
HETATM   14  C13 UNL     1       6.460  -6.843  -1.229  1.00  0.00     0.069 C 
HETATM   15  C14 UNL     1       5.233  -7.721  -1.359  1.00  0.00     0.117 C 
HETATM   16  C15 UNL     1       5.661  -9.130  -1.072  1.00  0.00     0.035 C 
HETATM   17  C16 UNL     1       7.035  -9.075  -0.478  1.00  0.00     0.032 C 
ENDROOT
BRANCH  15  18
HETATM   18  N2  UNL     1       4.672  -7.663  -2.709  1.00  0.00    -0.248 N 
ATOM     19  H2  UNL     1       5.086  -7.009  -3.374  1.00  0.00     0.197 HD
BRANCH  18  20
HETATM   20  N3  UNL     1       3.744  -8.346  -3.084  1.00  0.00    -0.248 NA
BRANCH  20  21
HETATM   21  N4  UNL     1       2.727  -9.025  -3.237  1.00  0.00    -0.261 N 
ATOM     22  H42 UNL     1       2.163  -8.175  -3.232  1.00  0.00     0.193 HD
ATOM     23  H41 UNL     1       2.010  -9.741  -3.362  1.00  0.00     0.193 HD
ENDBRANCH  20  21
ENDBRANCH  18  20
ENDBRANCH  15  18
BRANCH  11  24
HETATM   24  O1  UNL     1      11.682  -9.593   2.176  1.00  0.00    -0.395 OA
ATOM     25  H1  UNL     1      12.532  -9.332   2.513  1.00  0.00     0.210 HD
ENDBRANCH  11  24
TORSDOF 4
ENDMDL
MODEL 5
REMARK VINA RESULT: -6.142471189      3.527      5.930
REMARK  4 active torsions:
REMARK  status: ('A' for Active; 'I' for Inactive)
REMARK    1  A    between atoms: C10_11  and  O1_12 
REMARK    2  A    between atoms: C14_17  and  N2_18 
REMARK    3  A    between atoms: N2_18  and  N3_20 
REMARK    4  A    between atoms: N3_20  and  N4_21 
ROOT
HETATM    1  C1  UNL     1       6.290  -5.908  -1.639  1.00  0.00     0.018 C 
HETATM    2  C2  UNL     1       6.692  -7.265  -1.018  1.00  0.00    -0.016 C 
HETATM    3  C3  UNL     1       7.347  -8.111  -2.055  1.00  0.00     0.012 C 
HETATM    4  C4  UNL     1       8.793  -8.359  -1.885  1.00  0.00     0.008 C 
HETATM    5  C5  UNL     1       9.317  -8.538  -0.521  1.00  0.00     0.025 C 
HETATM    6  C6  UNL     1       8.510  -7.966   0.589  1.00  0.00     0.229 C 
HETATM    7  C7  UNL     1       7.594  -6.890   0.129  1.00  0.00     0.048 C 
HETATM    8  N1  UNL     1       7.914  -9.024   1.326  1.00  0.00     0.103 N 
HETATM    9  C8  UNL     1       6.748  -9.628   0.756  1.00  0.00     0.276 C 
HETATM   10  C9  UNL     1       5.552  -8.787   0.656  1.00  0.00     0.062 C 
HETATM   11  C10 UNL     1       5.434  -7.819  -0.451  1.00  0.00     0.128 C 
HETATM   12  C11 UNL     1       8.964 -10.033   1.333  1.00  0.00     0.162 C 
HETATM   13  C12 UNL     1       8.453 -11.407   1.597  1.00  0.00     0.049 C 
HETATM   14  C13 UNL     1      10.105  -9.709   2.224  1.00  0.00     0.069 C 
HETATM   15  C14 UNL     1      11.347 -10.060   1.429  1.00  0.00     0.117 C 
HETATM   16  C15 UNL     1      10.901 -10.416   0.041  1.00  0.00     0.035 C 
HETATM   17  C16 UNL     1       9.471  -9.994  -0.099  1.00  0.00     0.032 C 
ENDROOT
BRANCH  15  18
HETATM   18  N2  UNL     1      12.049 -11.205   2.009  1.00  0.00    -0.248 N 
ATOM     19  H2  UNL     1      12.789 -11.021   2.688  1.00  0.00     0.197 HD
BRANCH  18  20
HETATM   20  N3  UNL     1      11.803 -12.358   1.732  1.00  0.00    -0.248 NA
BRANCH  20  21
HETATM   21  N4  UNL     1      11.472 -13.544   1.675  1.00  0.00    -0.261 N 
ATOM     22  H42 UNL     1      10.578 -13.312   2.107  1.00  0.00     0.193 HD
ATOM     23  H41 UNL     1      11.378 -14.552   1.546  1.00  0.00     0.193 HD
ENDBRANCH  20  21
ENDBRANCH  18  20
ENDBRANCH  15  18
BRANCH  11  24
HETATM   24  O1  UNL     1       4.570  -8.267  -1.478  1.00  0.00    -0.395 OA
ATOM     25  H1  UNL     1       4.196  -9.114  -1.263  1.00  0.00     0.210 HD
ENDBRANCH  11  24
TORSDOF 4
ENDMDL
