MODEL 1
REMARK VINA RESULT: -3.469008573      0.000      0.000
REMARK  0 active torsions:
REMARK  status: ('A' for Active; 'I' for Inactive)
ROOT
HETATM    1  C1  UNL     1      -0.534 102.526  24.161  1.00  0.00     0.040 C 
HETATM    2  C2  UNL     1       0.910 102.244  24.324  1.00  0.00     0.186 C 
HETATM    3  C3  UNL     1       1.348 101.354  25.437  1.00  0.00     0.077 C 
HETATM    4  C4  UNL     1       2.399 100.945  24.395  1.00  0.00     0.260 C 
HETATM    5  S1  UNL     1       3.675 102.186  24.143  1.00  0.00    -0.062 SA
HETATM    6  N1  UNL     1       1.315 101.156  23.417  1.00  0.00    -0.057 N 
ATOM      7  H11 UNL     1       1.493 101.307  22.424  1.00  0.00     0.279 HD
ATOM      8  H12 UNL     1       0.678 100.412  23.134  1.00  0.00     0.279 HD
ENDROOT
TORSDOF 0
ENDMDL
MODEL 2
REMARK VINA RESULT: -3.344845697      1.926      2.713
REMARK  0 active torsions:
REMARK  status: ('A' for Active; 'I' for Inactive)
ROOT
HETATM    1  C1  UNL     1       3.859 102.501  23.768  1.00  0.00     0.040 C 
HETATM    2  C2  UNL     1       2.642 102.114  24.516  1.00  0.00     0.186 C 
HETATM    3  C3  UNL     1       1.461 103.025  24.490  1.00  0.00     0.077 C 
HETATM    4  C4  UNL     1       0.711 101.685  24.532  1.00  0.00     0.260 C 
HETATM    5  S1  UNL     1       0.762 100.889  26.144  1.00  0.00    -0.062 SA
HETATM    6  N1  UNL     1       1.830 101.187  23.708  1.00  0.00    -0.057 N 
ATOM      7  H11 UNL     1       2.050 100.195  23.623  1.00  0.00     0.279 HD
ATOM      8  H12 UNL     1       1.815 101.215  22.689  1.00  0.00     0.279 HD
ENDROOT
TORSDOF 0
ENDMDL
MODEL 3
REMARK VINA RESULT: -3.318271807      1.992      2.414
REMARK  0 active torsions:
REMARK  status: ('A' for Active; 'I' for Inactive)
ROOT
HETATM    1  C1  UNL     1       1.962 104.538  24.081  1.00  0.00     0.040 C 
HETATM    2  C2  UNL     1       1.392 103.282  24.617  1.00  0.00     0.186 C 
HETATM    3  C3  UNL     1       0.089 102.796  24.080  1.00  0.00     0.077 C 
HETATM    4  C4  UNL     1       0.755 101.433  24.323  1.00  0.00     0.260 C 
HETATM    5  S1  UNL     1       0.841 100.981  26.061  1.00  0.00    -0.062 SA
HETATM    6  N1  UNL     1       2.000 102.125  23.937  1.00  0.00    -0.057 N 
ATOM      7  H11 UNL     1       2.924 101.768  24.180  1.00  0.00     0.279 HD
ATOM      8  H12 UNL     1       2.329 102.165  22.973  1.00  0.00     0.279 HD
ENDROOT
TORSDOF 0
ENDMDL
MODEL 4
REMARK VINA RESULT: -3.302753556      1.879      2.849
REMARK  0 active torsions:
REMARK  status: ('A' for Active; 'I' for Inactive)
ROOT
HETATM    1  C1  UNL     1       3.352 100.331  24.445  1.00  0.00     0.040 C 
HETATM    2  C2  UNL     1       2.221 101.224  24.781  1.00  0.00     0.186 C 
HETATM    3  C3  UNL     1       2.370 102.690  24.552  1.00  0.00     0.077 C 
HETATM    4  C4  UNL     1       0.875 102.561  24.221  1.00  0.00     0.260 C 
HETATM    5  S1  UNL     1      -0.160 102.328  25.673  1.00  0.00    -0.062 SA
HETATM    6  N1  UNL     1       1.250 101.242  23.674  1.00  0.00    -0.057 N 
ATOM      7  H11 UNL     1       0.570 100.496  23.527  1.00  0.00     0.279 HD
ATOM      8  H12 UNL     1       1.524 101.110  22.701  1.00  0.00     0.279 HD
ENDROOT
TORSDOF 0
ENDMDL
MODEL 5
REMARK VINA RESULT: -3.298213015      1.945      2.673
REMARK  0 active torsions:
REMARK  status: ('A' for Active; 'I' for Inactive)
ROOT
HETATM    1  C1  UNL     1       1.093 100.232  26.505  1.00  0.00     0.040 C 
HETATM    2  C2  UNL     1       1.006 101.423  25.631  1.00  0.00     0.186 C 
HETATM    3  C3  UNL     1       1.250 101.262  24.169  1.00  0.00     0.077 C 
HETATM    4  C4  UNL     1       0.179 102.361  24.099  1.00  0.00     0.260 C 
HETATM    5  S1  UNL     1       0.787 103.981  24.587  1.00  0.00    -0.062 SA
HETATM    6  N1  UNL     1      -0.399 101.684  25.275  1.00  0.00    -0.057 N 
ATOM      7  H11 UNL     1      -1.050 102.146  25.909  1.00  0.00     0.279 HD
ATOM      8  H12 UNL     1      -1.092 100.940  25.194  1.00  0.00     0.279 HD
ENDROOT
TORSDOF 0
ENDMDL
