MODEL 1
REMARK VINA RESULT: -4.678154422      0.000      0.000
REMARK  1 active torsions:
REMARK  status: ('A' for Active; 'I' for Inactive)
REMARK    1  A    between atoms: N1_5  and  N2_6 
ROOT
HETATM    1  C1  UNL     1      -0.301 101.900  24.773  1.00  0.00     0.010 C 
HETATM    2  C2  UNL     1       1.165 101.789  25.069  1.00  0.00    -0.016 C 
HETATM    3  C3  UNL     1       1.899 100.896  24.095  1.00  0.00     0.020 C 
HETATM    4  C4  UNL     1       3.188 100.465  24.802  1.00  0.00     0.113 C 
HETATM    5  N1  UNL     1       2.809  99.402  25.699  1.00  0.00    -0.238 NA
HETATM    6  C5  UNL     1       1.604  99.716  26.415  1.00  0.00     0.113 C 
HETATM    7  C6  UNL     1       1.315 101.205  26.457  1.00  0.00     0.020 C 
ENDROOT
BRANCH   5   8
HETATM    8  N2  UNL     1       3.839  98.935  26.484  1.00  0.00    -0.363 NA
ATOM      9  H22 UNL     1       4.575  98.447  25.974  1.00  0.00     0.171 HD
ATOM     10  H21 UNL     1       3.533  98.407  27.302  1.00  0.00     0.171 HD
ENDBRANCH   5   8
TORSDOF 1
ENDMDL
MODEL 2
REMARK VINA RESULT: -4.553308211      1.533      1.639
REMARK  1 active torsions:
REMARK  status: ('A' for Active; 'I' for Inactive)
REMARK    1  A    between atoms: N1_5  and  N2_6 
ROOT
HETATM    1  C1  UNL     1       0.728 103.483  24.103  1.00  0.00     0.010 C 
HETATM    2  C2  UNL     1       1.619 102.613  24.938  1.00  0.00    -0.016 C 
HETATM    3  C3  UNL     1       1.908 101.275  24.296  1.00  0.00     0.020 C 
HETATM    4  C4  UNL     1       2.342 100.343  25.432  1.00  0.00     0.113 C 
HETATM    5  N1  UNL     1       1.126  99.920  26.081  1.00  0.00    -0.238 NA
HETATM    6  C5  UNL     1       0.224 101.019  26.286  1.00  0.00     0.113 C 
HETATM    7  C6  UNL     1       0.920 102.367  26.258  1.00  0.00     0.020 C 
ENDROOT
BRANCH   5   8
HETATM    8  N2  UNL     1       1.326  99.127  27.188  1.00  0.00    -0.363 NA
ATOM      9  H22 UNL     1       0.472  98.818  27.650  1.00  0.00     0.171 HD
ATOM     10  H21 UNL     1       2.000  99.504  27.854  1.00  0.00     0.171 HD
ENDBRANCH   5   8
TORSDOF 1
ENDMDL
MODEL 3
REMARK VINA RESULT: -4.539391338      1.424      2.514
REMARK  1 active torsions:
REMARK  status: ('A' for Active; 'I' for Inactive)
REMARK    1  A    between atoms: N1_5  and  N2_6 
ROOT
HETATM    1  C1  UNL     1       3.849 102.245  23.820  1.00  0.00     0.010 C 
HETATM    2  C2  UNL     1       2.629 101.423  24.115  1.00  0.00    -0.016 C 
HETATM    3  C3  UNL     1       1.766 102.016  25.205  1.00  0.00     0.020 C 
HETATM    4  C4  UNL     1       0.912 100.864  25.745  1.00  0.00     0.113 C 
HETATM    5  N1  UNL     1       1.768 100.126  26.640  1.00  0.00    -0.238 NA
HETATM    6  C5  UNL     1       3.074  99.920  26.077  1.00  0.00     0.113 C 
HETATM    7  C6  UNL     1       3.091 100.054  24.565  1.00  0.00     0.020 C 
ENDROOT
BRANCH   5   8
HETATM    8  N2  UNL     1       1.186  98.996  27.169  1.00  0.00    -0.363 NA
ATOM      9  H22 UNL     1       0.212  98.855  26.903  1.00  0.00     0.171 HD
ATOM     10  H21 UNL     1       1.322  98.889  28.174  1.00  0.00     0.171 HD
ENDBRANCH   5   8
TORSDOF 1
ENDMDL
MODEL 4
REMARK VINA RESULT: -4.486573120      0.985      1.952
REMARK  1 active torsions:
REMARK  status: ('A' for Active; 'I' for Inactive)
REMARK    1  A    between atoms: N1_5  and  N2_6 
ROOT
HETATM    1  C1  UNL     1      -0.034 103.018  25.049  1.00  0.00     0.010 C 
HETATM    2  C2  UNL     1       0.349 101.568  25.086  1.00  0.00    -0.016 C 
HETATM    3  C3  UNL     1       1.124 101.194  26.328  1.00  0.00     0.020 C 
HETATM    4  C4  UNL     1       1.875  99.902  25.988  1.00  0.00     0.113 C 
HETATM    5  N1  UNL     1       3.030 100.307  25.225  1.00  0.00    -0.238 NA
HETATM    6  C5  UNL     1       2.693 101.288  24.232  1.00  0.00     0.113 C 
HETATM    7  C6  UNL     1       1.217 101.287  23.879  1.00  0.00     0.020 C 
ENDROOT
BRANCH   5   8
HETATM    8  N2  UNL     1       3.792  99.259  24.762  1.00  0.00    -0.363 NA
ATOM      9  H22 UNL     1       4.423  98.854  25.452  1.00  0.00     0.171 HD
ATOM     10  H21 UNL     1       4.269  99.448  23.880  1.00  0.00     0.171 HD
ENDBRANCH   5   8
TORSDOF 1
ENDMDL
MODEL 5
REMARK VINA RESULT: -4.408496942      1.577      2.485
REMARK  1 active torsions:
REMARK  status: ('A' for Active; 'I' for Inactive)
REMARK    1  A    between atoms: N1_5  and  N2_6 
ROOT
HETATM    1  C1  UNL     1       2.664 103.398  24.044  1.00  0.00     0.010 C 
HETATM    2  C2  UNL     1       1.560 102.471  24.458  1.00  0.00    -0.016 C 
HETATM    3  C3  UNL     1       1.121 102.678  25.890  1.00  0.00     0.020 C 
HETATM    4  C4  UNL     1       0.424 101.380  26.312  1.00  0.00     0.113 C 
HETATM    5  N1  UNL     1       1.479 100.451  26.628  1.00  0.00    -0.238 NA
HETATM    6  C5  UNL     1       2.525 100.480  25.643  1.00  0.00     0.113 C 
HETATM    7  C6  UNL     1       2.067 101.053  24.315  1.00  0.00     0.020 C 
ENDROOT
BRANCH   5   8
HETATM    8  N2  UNL     1       1.037  99.190  26.960  1.00  0.00    -0.363 NA
ATOM      9  H22 UNL     1       1.777  98.518  27.158  1.00  0.00     0.171 HD
ATOM     10  H21 UNL     1       0.343  98.809  26.315  1.00  0.00     0.171 HD
ENDBRANCH   5   8
TORSDOF 1
ENDMDL
