MODEL 1
REMARK VINA RESULT: -7.418631764      0.000      0.000
REMARK  8 active torsions:
REMARK  status: ('A' for Active; 'I' for Inactive)
REMARK    1  A    between atoms: C2_2  and  C3_3 
REMARK    2  A    between atoms: C3_3  and  C4_5 
REMARK    3  A    between atoms: C5_6  and  O2_7 
REMARK    4  A    between atoms: C11_16  and  O4_17 
REMARK    5  A    between atoms: C12_19  and  C13_20 
REMARK    6  A    between atoms: C19_26  and  O5_27 
REMARK    7  A    between atoms: C20_29  and  O6_30 
REMARK    8  A    between atoms: O6_30  and  C21_31 
ROOT
HETATM    1  C4  UNL     1      72.796  45.634   5.463  1.00  0.00     0.101 C 
HETATM    2  C5  UNL     1      72.153  47.037   5.478  1.00  0.00     0.131 C 
HETATM    3  C6  UNL     1      72.645  47.936   6.538  1.00  0.00     0.040 C 
HETATM    4  C7  UNL     1      73.596  47.448   7.483  1.00  0.00     0.029 C 
HETATM    5  C8  UNL     1      73.772  48.261   8.743  1.00  0.00     0.087 C 
HETATM    6  C9  UNL     1      74.394  46.974   9.178  1.00  0.00     0.154 C 
HETATM    7  O3  UNL     1      75.384  46.968   9.849  1.00  0.00    -0.296 OA
HETATM    8  C10 UNL     1      73.293  46.300   8.443  1.00  0.00     0.137 C 
HETATM    9 CL1  UNL     1      71.907  46.599   9.511  1.00  0.00    -0.107 Cl
HETATM   10  C11 UNL     1      73.479  45.055   7.740  1.00  0.00     0.120 C 
HETATM   11  C12 UNL     1      73.825  43.730   8.294  1.00  0.00    -0.032 C 
HETATM   12  C16 UNL     1      72.764  42.744   7.892  1.00  0.00    -0.004 C 
HETATM   13  C17 UNL     1      73.270  41.315   7.704  1.00  0.00     0.021 C 
HETATM   14  C18 UNL     1      71.584  42.564   8.734  1.00  0.00     0.049 C 
HETATM   15  C19 UNL     1      70.662  41.978   7.690  1.00  0.00     0.149 C 
HETATM   16  C20 UNL     1      71.040  42.680   6.370  1.00  0.00     0.170 C 
HETATM   17  C23 UNL     1      72.358  43.329   6.536  1.00  0.00     0.008 C 
HETATM   18  C24 UNL     1      73.399  42.883   5.516  1.00  0.00     0.020 C 
HETATM   19  C25 UNL     1      72.427  44.825   6.636  1.00  0.00     0.017 C 
HETATM   20  C26 UNL     1      71.047  45.253   6.981  1.00  0.00     0.020 C 
ENDROOT
BRANCH   1  21
HETATM   21  C3  UNL     1      72.560  45.238   4.067  1.00  0.00     0.156 C 
HETATM   22  O1  UNL     1      73.518  45.175   3.197  1.00  0.00    -0.293 OA
BRANCH  21  23
HETATM   23  C2  UNL     1      71.337  44.875   3.398  1.00  0.00     0.040 C 
HETATM   24  C1  UNL     1      71.170  45.159   2.121  1.00  0.00     0.015 C 
ENDBRANCH  21  23
ENDBRANCH   1  21
BRANCH   2  25
HETATM   25  O2  UNL     1      72.624  47.582   4.246  1.00  0.00    -0.395 OA
ATOM     26  H2  UNL     1      71.837  47.993   3.907  1.00  0.00     0.210 HD
ENDBRANCH   2  25
BRANCH  10  27
HETATM   27  O4  UNL     1      74.745  45.366   7.067  1.00  0.00    -0.382 OA
ATOM     28  H4  UNL     1      75.065  46.033   7.665  1.00  0.00     0.211 HD
ENDBRANCH  10  27
BRANCH  11  29
HETATM   29  C13 UNL     1      74.413  43.552   9.613  1.00  0.00    -0.081 C 
HETATM   30  C14 UNL     1      73.700  43.167  10.820  1.00  0.00     0.043 C 
HETATM   31  C15 UNL     1      75.718  42.767   9.692  1.00  0.00     0.043 C 
ENDBRANCH  11  29
BRANCH  16  32
HETATM   32  O6  UNL     1      71.062  41.660   5.358  1.00  0.00    -0.313 OA
BRANCH  32  33
HETATM   33  C21 UNL     1      70.500  40.412   5.505  1.00  0.00     0.255 C 
HETATM   34  C22 UNL     1      71.268  39.174   5.767  1.00  0.00     0.126 C 
HETATM   35  O7  UNL     1      69.251  40.316   5.412  1.00  0.00    -0.266 OA
ENDBRANCH  32  33
ENDBRANCH  16  32
BRANCH  15  36
HETATM   36  O5  UNL     1      69.326  42.045   7.988  1.00  0.00    -0.393 OA
ATOM     37  H5  UNL     1      69.088  41.724   8.850  1.00  0.00     0.210 HD
ENDBRANCH  15  36
TORSDOF 8
ENDMDL
MODEL 2
REMARK VINA RESULT: -7.043338539      2.206      5.291
REMARK  8 active torsions:
REMARK  status: ('A' for Active; 'I' for Inactive)
REMARK    1  A    between atoms: C2_2  and  C3_3 
REMARK    2  A    between atoms: C3_3  and  C4_5 
REMARK    3  A    between atoms: C5_6  and  O2_7 
REMARK    4  A    between atoms: C11_16  and  O4_17 
REMARK    5  A    between atoms: C12_19  and  C13_20 
REMARK    6  A    between atoms: C19_26  and  O5_27 
REMARK    7  A    between atoms: C20_29  and  O6_30 
REMARK    8  A    between atoms: O6_30  and  C21_31 
ROOT
HETATM    1  C4  UNL     1      71.588  46.805   7.671  1.00  0.00     0.101 C 
HETATM    2  C5  UNL     1      71.972  48.099   6.922  1.00  0.00     0.131 C 
HETATM    3  C6  UNL     1      71.982  47.988   5.453  1.00  0.00     0.040 C 
HETATM    4  C7  UNL     1      71.713  46.725   4.845  1.00  0.00     0.029 C 
HETATM    5  C8  UNL     1      72.104  46.579   3.394  1.00  0.00     0.087 C 
HETATM    6  C9  UNL     1      71.954  45.140   3.767  1.00  0.00     0.154 C 
HETATM    7  O3  UNL     1      71.452  44.360   3.011  1.00  0.00    -0.296 OA
HETATM    8  C10 UNL     1      72.600  45.500   5.055  1.00  0.00     0.137 C 
HETATM    9 CL1  UNL     1      74.288  45.739   4.559  1.00  0.00    -0.107 Cl
HETATM   10  C11 UNL     1      72.236  44.881   6.305  1.00  0.00     0.120 C 
HETATM   11  C12 UNL     1      72.385  43.468   6.708  1.00  0.00    -0.032 C 
HETATM   12  C16 UNL     1      73.206  43.407   7.966  1.00  0.00    -0.004 C 
HETATM   13  C17 UNL     1      72.854  42.243   8.892  1.00  0.00     0.021 C 
HETATM   14  C18 UNL     1      74.662  43.326   7.880  1.00  0.00     0.049 C 
HETATM   15  C19 UNL     1      74.988  43.840   9.263  1.00  0.00     0.149 C 
HETATM   16  C20 UNL     1      73.908  44.897   9.572  1.00  0.00     0.170 C 
HETATM   17  C23 UNL     1      72.790  44.728   8.619  1.00  0.00     0.008 C 
HETATM   18  C24 UNL     1      71.438  44.502   9.287  1.00  0.00     0.020 C 
HETATM   19  C25 UNL     1      72.599  45.744   7.531  1.00  0.00     0.017 C 
HETATM   20  C26 UNL     1      73.898  46.458   7.438  1.00  0.00     0.020 C 
ENDROOT
BRANCH   1  21
HETATM   21  C3  UNL     1      71.128  47.356   8.954  1.00  0.00     0.156 C 
HETATM   22  O1  UNL     1      71.926  47.984   9.760  1.00  0.00    -0.293 OA
BRANCH  21  23
HETATM   23  C2  UNL     1      69.823  47.327   9.564  1.00  0.00     0.040 C 
HETATM   24  C1  UNL     1      68.789  46.856   8.894  1.00  0.00     0.015 C 
ENDBRANCH  21  23
ENDBRANCH   1  21
BRANCH   2  25
HETATM   25  O2  UNL     1      70.877  48.954   7.248  1.00  0.00    -0.395 OA
ATOM     26  H2  UNL     1      70.138  48.442   6.942  1.00  0.00     0.210 HD
ENDBRANCH   2  25
BRANCH  10  27
HETATM   27  O4  UNL     1      70.777  44.932   6.162  1.00  0.00    -0.382 OA
ATOM     28  H4  UNL     1      70.559  45.269   7.023  1.00  0.00     0.211 HD
ENDBRANCH  10  27
BRANCH  11  29
HETATM   29  C13 UNL     1      72.578  42.388   5.751  1.00  0.00    -0.081 C 
HETATM   30  C14 UNL     1      73.857  41.838   5.332  1.00  0.00     0.043 C 
HETATM   31  C15 UNL     1      71.681  41.164   5.898  1.00  0.00     0.043 C 
ENDBRANCH  11  29
BRANCH  16  32
HETATM   32  O6  UNL     1      73.499  44.676  10.932  1.00  0.00    -0.313 OA
BRANCH  32  33
HETATM   33  C21 UNL     1      74.252  44.002  11.866  1.00  0.00     0.255 C 
HETATM   34  C22 UNL     1      73.922  42.660  12.396  1.00  0.00     0.126 C 
HETATM   35  O7  UNL     1      75.291  44.562  12.298  1.00  0.00    -0.266 OA
ENDBRANCH  32  33
ENDBRANCH  16  32
BRANCH  15  36
HETATM   36  O5  UNL     1      76.270  44.296   9.428  1.00  0.00    -0.393 OA
ATOM     37  H5  UNL     1      76.421  44.802  10.218  1.00  0.00     0.210 HD
ENDBRANCH  15  36
TORSDOF 8
ENDMDL
MODEL 3
REMARK VINA RESULT: -6.858827786      9.478     12.205
REMARK  8 active torsions:
REMARK  status: ('A' for Active; 'I' for Inactive)
REMARK    1  A    between atoms: C2_2  and  C3_3 
REMARK    2  A    between atoms: C3_3  and  C4_5 
REMARK    3  A    between atoms: C5_6  and  O2_7 
REMARK    4  A    between atoms: C11_16  and  O4_17 
REMARK    5  A    between atoms: C12_19  and  C13_20 
REMARK    6  A    between atoms: C19_26  and  O5_27 
REMARK    7  A    between atoms: C20_29  and  O6_30 
REMARK    8  A    between atoms: O6_30  and  C21_31 
ROOT
HETATM    1  C4  UNL     1      63.241  46.473  12.594  1.00  0.00     0.101 C 
HETATM    2  C5  UNL     1      62.236  45.377  12.176  1.00  0.00     0.131 C 
HETATM    3  C6  UNL     1      62.707  44.476  11.110  1.00  0.00     0.040 C 
HETATM    4  C7  UNL     1      63.981  44.706  10.511  1.00  0.00     0.029 C 
HETATM    5  C8  UNL     1      64.243  44.010   9.196  1.00  0.00     0.087 C 
HETATM    6  C9  UNL     1      65.316  45.049   9.157  1.00  0.00     0.154 C 
HETATM    7  O3  UNL     1      66.407  44.788   8.741  1.00  0.00    -0.296 OA
HETATM    8  C10 UNL     1      64.311  45.979   9.734  1.00  0.00     0.137 C 
HETATM    9 CL1  UNL     1      63.247  46.271   8.344  1.00  0.00    -0.107 Cl
HETATM   10  C11 UNL     1      64.662  47.012  10.677  1.00  0.00     0.120 C 
HETATM   11  C12 UNL     1      65.527  48.191  10.468  1.00  0.00    -0.032 C 
HETATM   12  C16 UNL     1      64.742  49.431  10.792  1.00  0.00    -0.004 C 
HETATM   13  C17 UNL     1      65.582  50.580  11.348  1.00  0.00     0.021 C 
HETATM   14  C18 UNL     1      63.948  50.081   9.752  1.00  0.00     0.049 C 
HETATM   15  C19 UNL     1      62.995  50.836  10.649  1.00  0.00     0.149 C 
HETATM   16  C20 UNL     1      62.769  49.921  11.869  1.00  0.00     0.170 C 
HETATM   17  C23 UNL     1      63.825  48.885  11.890  1.00  0.00     0.008 C 
HETATM   18  C24 UNL     1      64.630  48.851  13.184  1.00  0.00     0.020 C 
HETATM   19  C25 UNL     1      63.467  47.471  11.536  1.00  0.00     0.017 C 
HETATM   20  C26 UNL     1      62.172  47.570  10.815  1.00  0.00     0.020 C 
ENDROOT
BRANCH   1  21
HETATM   21  C3  UNL     1      62.760  46.785  13.948  1.00  0.00     0.156 C 
HETATM   22  O1  UNL     1      63.439  46.474  15.008  1.00  0.00    -0.293 OA
BRANCH  21  23
HETATM   23  C2  UNL     1      61.547  47.432  14.379  1.00  0.00     0.040 C 
HETATM   24  C1  UNL     1      61.590  48.372  15.303  1.00  0.00     0.015 C 
ENDBRANCH  21  23
ENDBRANCH   1  21
BRANCH   2  25
HETATM   25  O2  UNL     1      62.166  44.587  13.362  1.00  0.00    -0.395 OA
ATOM     26  H2  UNL     1      62.438  45.212  14.024  1.00  0.00     0.210 HD
ENDBRANCH   2  25
BRANCH  10  27
HETATM   27  O4  UNL     1      65.542  46.227  11.550  1.00  0.00    -0.382 OA
ATOM     28  H4  UNL     1      66.345  46.300  11.049  1.00  0.00     0.211 HD
ENDBRANCH  10  27
BRANCH  11  29
HETATM   29  C13 UNL     1      66.479  48.290   9.371  1.00  0.00    -0.081 C 
HETATM   30  C14 UNL     1      66.148  48.499   7.971  1.00  0.00     0.043 C 
HETATM   31  C15 UNL     1      67.705  49.169   9.594  1.00  0.00     0.043 C 
ENDBRANCH  11  29
BRANCH  16  32
HETATM   32  O6  UNL     1      62.818  50.768  13.029  1.00  0.00    -0.313 OA
BRANCH  32  33
HETATM   33  C21 UNL     1      62.673  52.136  12.993  1.00  0.00     0.255 C 
HETATM   34  C22 UNL     1      63.783  53.100  13.172  1.00  0.00     0.126 C 
HETATM   35  O7  UNL     1      61.523  52.601  12.796  1.00  0.00    -0.266 OA
ENDBRANCH  32  33
ENDBRANCH  16  32
BRANCH  15  36
HETATM   36  O5  UNL     1      61.836  51.253  10.048  1.00  0.00    -0.393 OA
ATOM     37  H5  UNL     1      61.953  51.785   9.270  1.00  0.00     0.210 HD
ENDBRANCH  15  36
TORSDOF 8
ENDMDL
MODEL 4
REMARK VINA RESULT: -6.536531248      2.226      3.973
REMARK  8 active torsions:
REMARK  status: ('A' for Active; 'I' for Inactive)
REMARK    1  A    between atoms: C2_2  and  C3_3 
REMARK    2  A    between atoms: C3_3  and  C4_5 
REMARK    3  A    between atoms: C5_6  and  O2_7 
REMARK    4  A    between atoms: C11_16  and  O4_17 
REMARK    5  A    between atoms: C12_19  and  C13_20 
REMARK    6  A    between atoms: C19_26  and  O5_27 
REMARK    7  A    between atoms: C20_29  and  O6_30 
REMARK    8  A    between atoms: O6_30  and  C21_31 
ROOT
HETATM    1  C4  UNL     1      73.339  45.934   8.145  1.00  0.00     0.101 C 
HETATM    2  C5  UNL     1      73.938  46.442   9.474  1.00  0.00     0.131 C 
HETATM    3  C6  UNL     1      75.291  45.945   9.777  1.00  0.00     0.040 C 
HETATM    4  C7  UNL     1      75.908  45.012   8.892  1.00  0.00     0.029 C 
HETATM    5  C8  UNL     1      77.101  44.258   9.431  1.00  0.00     0.087 C 
HETATM    6  C9  UNL     1      76.758  43.394   8.261  1.00  0.00     0.154 C 
HETATM    7  O3  UNL     1      77.617  42.919   7.577  1.00  0.00    -0.296 OA
HETATM    8  C10 UNL     1      75.336  43.621   8.626  1.00  0.00     0.137 C 
HETATM    9 CL1  UNL     1      75.172  42.619  10.083  1.00  0.00    -0.107 Cl
HETATM   10  C11 UNL     1      74.291  43.737   7.640  1.00  0.00     0.120 C 
HETATM   11  C12 UNL     1      73.809  42.716   6.688  1.00  0.00    -0.032 C 
HETATM   12  C16 UNL     1      72.333  42.516   6.897  1.00  0.00    -0.004 C 
HETATM   13  C17 UNL     1      71.564  42.133   5.634  1.00  0.00     0.021 C 
HETATM   14  C18 UNL     1      71.866  41.535   7.873  1.00  0.00     0.049 C 
HETATM   15  C19 UNL     1      70.481  42.098   8.097  1.00  0.00     0.149 C 
HETATM   16  C20 UNL     1      70.639  43.628   7.984  1.00  0.00     0.170 C 
HETATM   17  C23 UNL     1      71.934  43.927   7.336  1.00  0.00     0.008 C 
HETATM   18  C24 UNL     1      71.812  44.780   6.078  1.00  0.00     0.020 C 
HETATM   19  C25 UNL     1      73.051  44.490   8.164  1.00  0.00     0.017 C 
HETATM   20  C26 UNL     1      72.678  44.190   9.570  1.00  0.00     0.020 C 
ENDROOT
BRANCH   1  21
HETATM   21  C3  UNL     1      72.343  46.981   7.874  1.00  0.00     0.156 C 
HETATM   22  O1  UNL     1      71.396  47.264   8.713  1.00  0.00    -0.293 OA
BRANCH  21  23
HETATM   23  C2  UNL     1      72.189  47.844   6.731  1.00  0.00     0.040 C 
HETATM   24  C1  UNL     1      73.179  47.987   5.871  1.00  0.00     0.015 C 
ENDBRANCH  21  23
ENDBRANCH   1  21
BRANCH   2  25
HETATM   25  O2  UNL     1      74.077  47.837   9.211  1.00  0.00    -0.395 OA
ATOM     26  H2  UNL     1      74.019  47.859   8.263  1.00  0.00     0.210 HD
ENDBRANCH   2  25
BRANCH  10  27
HETATM   27  O4  UNL     1      74.971  44.634   6.699  1.00  0.00    -0.382 OA
ATOM     28  H4  UNL     1      74.259  44.763   6.083  1.00  0.00     0.211 HD
ENDBRANCH  10  27
BRANCH  11  29
HETATM   29  C13 UNL     1      74.583  41.536   6.334  1.00  0.00    -0.081 C 
HETATM   30  C14 UNL     1      74.739  40.342   7.149  1.00  0.00     0.043 C 
HETATM   31  C15 UNL     1      74.414  40.994   4.918  1.00  0.00     0.043 C 
ENDBRANCH  11  29
BRANCH  16  32
HETATM   32  O6  UNL     1      69.523  44.096   7.208  1.00  0.00    -0.313 OA
BRANCH  32  33
HETATM   33  C21 UNL     1      68.376  44.631   7.749  1.00  0.00     0.255 C 
HETATM   34  C22 UNL     1      68.274  45.995   8.314  1.00  0.00     0.126 C 
HETATM   35  O7  UNL     1      67.345  43.913   7.765  1.00  0.00    -0.266 OA
ENDBRANCH  32  33
ENDBRANCH  16  32
BRANCH  15  36
HETATM   36  O5  UNL     1      69.866  41.690   9.251  1.00  0.00    -0.393 OA
ATOM     37  H5  UNL     1      70.148  40.846   9.583  1.00  0.00     0.210 HD
ENDBRANCH  15  36
TORSDOF 8
ENDMDL
MODEL 5
REMARK VINA RESULT: -6.505811804      9.783     12.220
REMARK  8 active torsions:
REMARK  status: ('A' for Active; 'I' for Inactive)
REMARK    1  A    between atoms: C2_2  and  C3_3 
REMARK    2  A    between atoms: C3_3  and  C4_5 
REMARK    3  A    between atoms: C5_6  and  O2_7 
REMARK    4  A    between atoms: C11_16  and  O4_17 
REMARK    5  A    between atoms: C12_19  and  C13_20 
REMARK    6  A    between atoms: C19_26  and  O5_27 
REMARK    7  A    between atoms: C20_29  and  O6_30 
REMARK    8  A    between atoms: O6_30  and  C21_31 
ROOT
HETATM    1  C4  UNL     1      63.304  46.495  12.000  1.00  0.00     0.101 C 
HETATM    2  C5  UNL     1      62.853  45.391  11.019  1.00  0.00     0.131 C 
HETATM    3  C6  UNL     1      63.849  45.022   9.997  1.00  0.00     0.040 C 
HETATM    4  C7  UNL     1      65.087  45.728   9.941  1.00  0.00     0.029 C 
HETATM    5  C8  UNL     1      65.890  45.579   8.670  1.00  0.00     0.087 C 
HETATM    6  C9  UNL     1      66.540  46.796   9.244  1.00  0.00     0.154 C 
HETATM    7  O3  UNL     1      67.724  46.948   9.177  1.00  0.00    -0.296 OA
HETATM    8  C10 UNL     1      65.175  47.224   9.646  1.00  0.00     0.137 C 
HETATM    9 CL1  UNL     1      64.469  47.693   8.086  1.00  0.00    -0.107 Cl
HETATM   10  C11 UNL     1      64.916  47.946  10.867  1.00  0.00     0.120 C 
HETATM   11  C12 UNL     1      65.374  49.297  11.249  1.00  0.00    -0.032 C 
HETATM   12  C16 UNL     1      64.174  50.144  11.569  1.00  0.00    -0.004 C 
HETATM   13  C17 UNL     1      64.422  51.213  12.631  1.00  0.00     0.021 C 
HETATM   14  C18 UNL     1      63.508  50.890  10.504  1.00  0.00     0.049 C 
HETATM   15  C19 UNL     1      62.165  51.067  11.173  1.00  0.00     0.149 C 
HETATM   16  C20 UNL     1      61.942  49.779  11.990  1.00  0.00     0.170 C 
HETATM   17  C23 UNL     1      63.234  49.071  12.126  1.00  0.00     0.008 C 
HETATM   18  C24 UNL     1      63.645  48.809  13.570  1.00  0.00     0.020 C 
HETATM   19  C25 UNL     1      63.458  47.807  11.349  1.00  0.00     0.017 C 
HETATM   20  C26 UNL     1      62.433  47.827  10.275  1.00  0.00     0.020 C 
ENDROOT
BRANCH   1  21
HETATM   21  C3  UNL     1      62.417  46.228  13.142  1.00  0.00     0.156 C 
HETATM   22  O1  UNL     1      62.876  45.880  14.303  1.00  0.00    -0.293 OA
BRANCH  21  23
HETATM   23  C2  UNL     1      60.981  46.273  13.233  1.00  0.00     0.040 C 
HETATM   24  C1  UNL     1      60.353  45.564  14.152  1.00  0.00     0.015 C 
ENDBRANCH  21  23
ENDBRANCH   1  21
BRANCH   2  25
HETATM   25  O2  UNL     1      62.741  44.265  11.888  1.00  0.00    -0.395 OA
ATOM     26  H2  UNL     1      61.860  43.964  11.697  1.00  0.00     0.210 HD
ENDBRANCH   2  25
BRANCH  10  27
HETATM   27  O4  UNL     1      65.747  47.150  11.777  1.00  0.00    -0.382 OA
ATOM     28  H4  UNL     1      65.072  46.881  12.390  1.00  0.00     0.211 HD
ENDBRANCH  10  27
BRANCH  11  29
HETATM   29  C13 UNL     1      66.490  49.968  10.599  1.00  0.00    -0.081 C 
HETATM   30  C14 UNL     1      66.583  50.295   9.185  1.00  0.00     0.043 C 
HETATM   31  C15 UNL     1      67.064  51.196  11.298  1.00  0.00     0.043 C 
ENDBRANCH  11  29
BRANCH  16  32
HETATM   32  O6  UNL     1      61.413  50.189  13.262  1.00  0.00    -0.313 OA
BRANCH  32  33
HETATM   33  C21 UNL     1      60.077  50.156  13.590  1.00  0.00     0.255 C 
HETATM   34  C22 UNL     1      59.481  49.232  14.581  1.00  0.00     0.126 C 
HETATM   35  O7  UNL     1      59.309  50.964  13.009  1.00  0.00    -0.266 OA
ENDBRANCH  32  33
ENDBRANCH  16  32
BRANCH  15  36
HETATM   36  O5  UNL     1      61.129  51.372  10.329  1.00  0.00    -0.393 OA
ATOM     37  H5  UNL     1      60.303  50.950  10.534  1.00  0.00     0.210 HD
ENDBRANCH  15  36
TORSDOF 8
ENDMDL
