MODEL 1
REMARK VINA RESULT: -10.882079173      0.000      0.000
REMARK  12 active torsions:
REMARK  status: ('A' for Active; 'I' for Inactive)
REMARK    1  A    between atoms: C2_2  and  C7_16 
REMARK    2  A    between atoms: N1_3  and  O1_5 
REMARK    3  A    between atoms: O1_5  and  C3_6 
REMARK    4  A    between atoms: C3_6  and  C5_8 
REMARK    5  A    between atoms: C3_6  and  C6_13 
REMARK    6  A    between atoms: C5_8  and  S1_9 
REMARK       I    between atoms: C7_16  and  N2_18 
REMARK    7  A    between atoms: C8_20  and  C9_21 
REMARK    8  A    between atoms: C9_21  and  N3_22 
REMARK    9  A    between atoms: C10_25  and  C11_26 
REMARK       I    between atoms: C11_26  and  N5_28 
REMARK   10  A    between atoms: N5_28  and  C12_30 
REMARK   11  A    between atoms: C14_34  and  N7_35 
REMARK   12  A    between atoms: C15_40  and  N9_41 
REMARK       I    between atoms: N10_44  and  C18_45 
ROOT
HETATM    1  N3  UNL     1      23.807  -9.693 -17.697  1.00  0.00    -0.114 N 
HETATM    2  N4  UNL     1      24.041  -9.934 -18.967  1.00  0.00    -0.262 N 
ATOM      3  H4  UNL     1      24.949 -10.178 -19.361  1.00  0.00     0.189 HD
HETATM    4  C10 UNL     1      22.893  -9.811 -19.676  1.00  0.00     0.230 A 
HETATM    5  N13 UNL     1      21.909  -9.481 -18.834  1.00  0.00    -0.044 N 
HETATM    6  N14 UNL     1      20.632  -9.193 -18.647  1.00  0.00    -0.204 N 
ATOM      7  H14 UNL     1      19.917  -9.159 -19.374  1.00  0.00     0.211 HD
HETATM    8  N15 UNL     1      20.440  -8.962 -17.380  1.00  0.00    -0.213 N 
ATOM      9  H15 UNL     1      19.539  -8.718 -16.969  1.00  0.00     0.210 HD
HETATM   10  N16 UNL     1      21.554  -9.082 -16.698  1.00  0.00    -0.113 N 
ATOM     11  H16 UNL     1      21.683  -8.954 -15.695  1.00  0.00     0.207 HD
HETATM   12  C21 UNL     1      22.496  -9.413 -17.614  1.00  0.00     0.739 A 
ENDROOT
BRANCH   4  13
HETATM   13  C11 UNL     1      22.747 -10.023 -21.133  1.00  0.00     0.294 C 
HETATM   14  O8  UNL     1      22.493 -11.216 -21.505  1.00  0.00    -0.264 OA
HETATM   15  N5  UNL     1      22.883  -8.944 -22.016  1.00  0.00    -0.316 N 
ATOM     16  H5  UNL     1      23.082  -8.033 -21.603  1.00  0.00     0.169 HD
BRANCH  15  17
HETATM   17  C12 UNL     1      22.771  -8.998 -23.432  1.00  0.00     0.096 A 
HETATM   18  C13 UNL     1      23.910  -9.313 -24.171  1.00  0.00     0.139 A 
HETATM   19  N6  UNL     1      23.824  -9.239 -25.522  1.00  0.00    -0.200 N 
HETATM   20  C14 UNL     1      22.701  -8.876 -26.161  1.00  0.00     0.677 A 
ATOM     21  H6  UNL     1      24.649  -9.468 -26.077  1.00  0.00     0.183 HD
HETATM   22  N8  UNL     1      21.621  -8.579 -25.429  1.00  0.00    -0.175 N 
HETATM   23  C15 UNL     1      21.599  -8.626 -24.059  1.00  0.00     0.147 A 
ATOM     24  H8  UNL     1      20.768  -8.304 -25.916  1.00  0.00     0.186 HD
BRANCH  20  25
HETATM   25  N7  UNL     1      22.714  -8.830 -27.445  1.00  0.00    -0.234 N 
ATOM     26  H72 UNL     1      23.574  -8.785 -27.993  1.00  0.00     0.174 HD
ATOM     27  H71 UNL     1      21.824  -8.840 -27.941  1.00  0.00     0.174 HD
ENDBRANCH  20  25
BRANCH  23  28
HETATM   28  N9  UNL     1      20.394  -8.386 -23.380  1.00  0.00    -0.362 N 
HETATM   29  C16 UNL     1      19.766  -7.066 -23.663  1.00  0.00     0.144 C 
HETATM   30  C17 UNL     1      18.599  -7.352 -24.580  1.00  0.00     0.145 C 
HETATM   31  N10 UNL     1      17.903  -8.516 -24.092  1.00  0.00    -0.353 N 
HETATM   32  C18 UNL     1      16.847  -9.015 -24.910  1.00  0.00     0.184 C 
HETATM   33  C19 UNL     1      18.183  -9.180 -22.871  1.00  0.00     0.145 C 
HETATM   34  N11 UNL     1      15.703  -9.298 -24.373  1.00  0.00    -0.374 N 
HETATM   35  N12 UNL     1      17.048  -9.197 -26.301  1.00  0.00    -0.064 NA
ATOM     36 2H11 UNL     1      15.558  -9.167 -23.371  1.00  0.00     0.158 HD
ATOM     37 1H11 UNL     1      14.948  -9.655 -24.958  1.00  0.00     0.158 HD
HETATM   38  C20 UNL     1      19.656  -9.246 -22.514  1.00  0.00     0.144 C 
ENDBRANCH  23  28
ENDBRANCH  15  17
ENDBRANCH   4  13
BRANCH   1  39
HETATM   39  C9  UNL     1      24.804  -9.762 -16.632  1.00  0.00     0.212 C 
BRANCH  39  40
HETATM   40  C8  UNL     1      25.821  -8.713 -16.832  1.00  0.00     0.086 C 
HETATM   41  N2  UNL     1      26.972  -8.950 -17.256  1.00  0.00    -0.334 N 
HETATM   42  C7  UNL     1      27.449 -10.237 -17.594  1.00  0.00     0.269 C 
ATOM     43  H2  UNL     1      27.611  -8.162 -17.365  1.00  0.00     0.168 HD
HETATM   44  O7  UNL     1      27.176 -10.709 -18.765  1.00  0.00    -0.266 OA
BRANCH  42  45
HETATM   45  C2  UNL     1      28.236 -11.067 -16.698  1.00  0.00     0.096 C 
HETATM   46  C1  UNL     1      29.355 -11.868 -17.379  1.00  0.00     0.076 C 
HETATM   47  N1  UNL     1      28.118 -11.179 -15.446  1.00  0.00    -0.264 N 
ATOM     48  H1  UNL     1      28.790 -11.800 -14.993  1.00  0.00     0.194 HD
BRANCH  47  49
HETATM   49  O1  UNL     1      27.232 -10.594 -14.632  1.00  0.00    -0.257 OA
BRANCH  49  50
HETATM   50  C3  UNL     1      26.512 -11.302 -13.636  1.00  0.00     0.188 C 
HETATM   51  C4  UNL     1      27.455 -11.603 -12.485  1.00  0.00     0.062 C 
BRANCH  50  52
HETATM   52  C5  UNL     1      25.184 -10.814 -13.254  1.00  0.00     0.217 C 
BRANCH  52  53
HETATM   53  S1  UNL     1      24.964  -9.152 -12.799  1.00  0.00     0.105 S 
HETATM   54  O2  UNL     1      24.601  -8.978 -11.344  1.00  0.00    -0.595 OA
HETATM   55  O3  UNL     1      23.828  -8.590 -13.652  1.00  0.00    -0.595 OA
HETATM   56  O4  UNL     1      26.323  -8.244 -13.164  1.00  0.00    -0.595 OA
ENDBRANCH  52  53
ENDBRANCH  50  52
BRANCH  50  57
HETATM   57  C6  UNL     1      26.250 -12.683 -14.248  1.00  0.00     0.212 C 
HETATM   58  O5  UNL     1      25.472 -12.861 -15.196  1.00  0.00    -0.646 OA
HETATM   59  O6  UNL     1      26.939 -13.728 -13.671  1.00  0.00    -0.646 OA
ENDBRANCH  50  57
ENDBRANCH  49  50
ENDBRANCH  47  49
ENDBRANCH  42  45
ENDBRANCH  39  40
ENDBRANCH   1  39
TORSDOF 12
ENDMDL
MODEL 2
REMARK VINA RESULT: -10.675906640      0.941      2.137
REMARK  12 active torsions:
REMARK  status: ('A' for Active; 'I' for Inactive)
REMARK    1  A    between atoms: C2_2  and  C7_16 
REMARK    2  A    between atoms: N1_3  and  O1_5 
REMARK    3  A    between atoms: O1_5  and  C3_6 
REMARK    4  A    between atoms: C3_6  and  C5_8 
REMARK    5  A    between atoms: C3_6  and  C6_13 
REMARK    6  A    between atoms: C5_8  and  S1_9 
REMARK       I    between atoms: C7_16  and  N2_18 
REMARK    7  A    between atoms: C8_20  and  C9_21 
REMARK    8  A    between atoms: C9_21  and  N3_22 
REMARK    9  A    between atoms: C10_25  and  C11_26 
REMARK       I    between atoms: C11_26  and  N5_28 
REMARK   10  A    between atoms: N5_28  and  C12_30 
REMARK   11  A    between atoms: C14_34  and  N7_35 
REMARK   12  A    between atoms: C15_40  and  N9_41 
REMARK       I    between atoms: N10_44  and  C18_45 
ROOT
HETATM    1  N3  UNL     1      23.594  -9.460 -17.583  1.00  0.00    -0.114 N 
HETATM    2  N4  UNL     1      23.874  -9.714 -18.841  1.00  0.00    -0.262 N 
ATOM      3  H4  UNL     1      24.806  -9.900 -19.208  1.00  0.00     0.189 HD
HETATM    4  C10 UNL     1      22.736  -9.690 -19.577  1.00  0.00     0.230 A 
HETATM    5  N13 UNL     1      21.713  -9.411 -18.766  1.00  0.00    -0.044 N 
HETATM    6  N14 UNL     1      20.414  -9.212 -18.614  1.00  0.00    -0.204 N 
ATOM      7  H14 UNL     1      19.716  -9.246 -19.356  1.00  0.00     0.211 HD
HETATM    8  N15 UNL     1      20.176  -8.964 -17.357  1.00  0.00    -0.213 N 
ATOM      9  H15 UNL     1      19.251  -8.776 -16.972  1.00  0.00     0.210 HD
HETATM   10  N16 UNL     1      21.280  -8.988 -16.649  1.00  0.00    -0.113 N 
ATOM     11  H16 UNL     1      21.376  -8.827 -15.646  1.00  0.00     0.207 HD
HETATM   12  C21 UNL     1      22.264  -9.273 -17.535  1.00  0.00     0.739 A 
ENDROOT
BRANCH   4  13
HETATM   13  C11 UNL     1      22.640  -9.946 -21.031  1.00  0.00     0.294 C 
HETATM   14  O8  UNL     1      22.470 -11.161 -21.378  1.00  0.00    -0.264 OA
HETATM   15  N5  UNL     1      22.730  -8.882 -21.938  1.00  0.00    -0.316 N 
ATOM     16  H5  UNL     1      22.862  -7.950 -21.545  1.00  0.00     0.169 HD
BRANCH  15  17
HETATM   17  C12 UNL     1      22.657  -8.978 -23.355  1.00  0.00     0.096 A 
HETATM   18  C13 UNL     1      23.817  -9.308 -24.054  1.00  0.00     0.139 A 
HETATM   19  N6  UNL     1      23.767  -9.273 -25.408  1.00  0.00    -0.200 N 
HETATM   20  C14 UNL     1      22.660  -8.935 -26.087  1.00  0.00     0.677 A 
ATOM     21  H6  UNL     1      24.608  -9.514 -25.933  1.00  0.00     0.183 HD
HETATM   22  N8  UNL     1      21.559  -8.623 -25.393  1.00  0.00    -0.175 N 
HETATM   23  C15 UNL     1      21.501  -8.630 -24.024  1.00  0.00     0.147 A 
ATOM     24  H8  UNL     1      20.719  -8.366 -25.911  1.00  0.00     0.186 HD
BRANCH  20  25
HETATM   25  N7  UNL     1      22.709  -8.925 -27.371  1.00  0.00    -0.234 N 
ATOM     26  H72 UNL     1      23.178  -9.647 -27.917  1.00  0.00     0.174 HD
ATOM     27  H71 UNL     1      22.254  -8.160 -27.868  1.00  0.00     0.174 HD
ENDBRANCH  20  25
BRANCH  23  28
HETATM   28  N9  UNL     1      20.277  -8.377 -23.384  1.00  0.00    -0.362 N 
HETATM   29  C16 UNL     1      19.647  -7.072 -23.729  1.00  0.00     0.144 C 
HETATM   30  C17 UNL     1      18.506  -7.398 -24.665  1.00  0.00     0.145 C 
HETATM   31  N10 UNL     1      17.806  -8.551 -24.156  1.00  0.00    -0.353 N 
HETATM   32  C18 UNL     1      16.775  -9.085 -24.984  1.00  0.00     0.184 C 
HETATM   33  C19 UNL     1      18.059  -9.171 -22.906  1.00  0.00     0.145 C 
HETATM   34  N11 UNL     1      15.620  -9.359 -24.467  1.00  0.00    -0.374 N 
HETATM   35  N12 UNL     1      17.015  -9.313 -26.362  1.00  0.00    -0.064 NA
ATOM     36 2H11 UNL     1      15.448  -9.195 -23.475  1.00  0.00     0.158 HD
ATOM     37 1H11 UNL     1      14.883  -9.742 -25.059  1.00  0.00     0.158 HD
HETATM   38  C20 UNL     1      19.523  -9.213 -22.509  1.00  0.00     0.144 C 
ENDBRANCH  23  28
ENDBRANCH  15  17
ENDBRANCH   4  13
BRANCH   1  39
HETATM   39  C9  UNL     1      24.567  -9.432 -16.495  1.00  0.00     0.212 C 
BRANCH  39  40
HETATM   40  C8  UNL     1      25.610  -8.431 -16.784  1.00  0.00     0.086 C 
HETATM   41  N2  UNL     1      26.774  -8.734 -17.124  1.00  0.00    -0.334 N 
HETATM   42  C7  UNL     1      27.241 -10.060 -17.273  1.00  0.00     0.269 C 
ATOM     43  H2  UNL     1      27.430  -7.974 -17.306  1.00  0.00     0.168 HD
HETATM   44  O7  UNL     1      27.008 -10.675 -18.384  1.00  0.00    -0.266 OA
BRANCH  42  45
HETATM   45  C2  UNL     1      27.976 -10.776 -16.244  1.00  0.00     0.096 C 
HETATM   46  C1  UNL     1      29.041 -11.747 -16.774  1.00  0.00     0.076 C 
HETATM   47  N1  UNL     1      27.853 -10.671 -14.992  1.00  0.00    -0.264 N 
ATOM     48  H1  UNL     1      28.485 -11.249 -14.437  1.00  0.00     0.194 HD
BRANCH  47  49
HETATM   49  O1  UNL     1      27.006  -9.906 -14.295  1.00  0.00    -0.257 OA
BRANCH  49  50
HETATM   50  C3  UNL     1      26.226 -10.398 -13.218  1.00  0.00     0.188 C 
HETATM   51  C4  UNL     1      24.986 -11.063 -13.789  1.00  0.00     0.062 C 
BRANCH  50  52
HETATM   52  C5  UNL     1      26.900 -11.134 -12.145  1.00  0.00     0.217 C 
BRANCH  52  53
HETATM   53  S1  UNL     1      27.015 -12.866 -12.214  1.00  0.00     0.105 S 
HETATM   54  O2  UNL     1      25.882 -13.564 -11.501  1.00  0.00    -0.595 OA
HETATM   55  O3  UNL     1      28.329 -13.266 -11.545  1.00  0.00    -0.595 OA
HETATM   56  O4  UNL     1      27.110 -13.399 -13.799  1.00  0.00    -0.595 OA
ENDBRANCH  52  53
ENDBRANCH  50  52
BRANCH  50  57
HETATM   57  C6  UNL     1      25.670  -9.146 -12.531  1.00  0.00     0.212 C 
HETATM   58  O5  UNL     1      24.965  -9.194 -11.513  1.00  0.00    -0.646 OA
HETATM   59  O6  UNL     1      26.006  -7.946 -13.121  1.00  0.00    -0.646 OA
ENDBRANCH  50  57
ENDBRANCH  49  50
ENDBRANCH  47  49
ENDBRANCH  42  45
ENDBRANCH  39  40
ENDBRANCH   1  39
TORSDOF 12
ENDMDL
MODEL 3
REMARK VINA RESULT: -10.618100123      1.087      1.519
REMARK  12 active torsions:
REMARK  status: ('A' for Active; 'I' for Inactive)
REMARK    1  A    between atoms: C2_2  and  C7_16 
REMARK    2  A    between atoms: N1_3  and  O1_5 
REMARK    3  A    between atoms: O1_5  and  C3_6 
REMARK    4  A    between atoms: C3_6  and  C5_8 
REMARK    5  A    between atoms: C3_6  and  C6_13 
REMARK    6  A    between atoms: C5_8  and  S1_9 
REMARK       I    between atoms: C7_16  and  N2_18 
REMARK    7  A    between atoms: C8_20  and  C9_21 
REMARK    8  A    between atoms: C9_21  and  N3_22 
REMARK    9  A    between atoms: C10_25  and  C11_26 
REMARK       I    between atoms: C11_26  and  N5_28 
REMARK   10  A    between atoms: N5_28  and  C12_30 
REMARK   11  A    between atoms: C14_34  and  N7_35 
REMARK   12  A    between atoms: C15_40  and  N9_41 
REMARK       I    between atoms: N10_44  and  C18_45 
ROOT
HETATM    1  N3  UNL     1      23.752  -9.508 -17.608  1.00  0.00    -0.114 N 
HETATM    2  N4  UNL     1      24.009  -9.762 -18.871  1.00  0.00    -0.262 N 
ATOM      3  H4  UNL     1      24.933  -9.960 -19.253  1.00  0.00     0.189 HD
HETATM    4  C10 UNL     1      22.860  -9.721 -19.589  1.00  0.00     0.230 A 
HETATM    5  N13 UNL     1      21.853  -9.430 -18.761  1.00  0.00    -0.044 N 
HETATM    6  N14 UNL     1      20.560  -9.213 -18.588  1.00  0.00    -0.204 N 
ATOM      7  H14 UNL     1      19.850  -9.236 -19.320  1.00  0.00     0.211 HD
HETATM    8  N15 UNL     1      20.346  -8.966 -17.327  1.00  0.00    -0.213 N 
ATOM      9  H15 UNL     1      19.429  -8.766 -16.928  1.00  0.00     0.210 HD
HETATM   10  N16 UNL     1      21.459  -9.007 -16.637  1.00  0.00    -0.113 N 
ATOM     11  H16 UNL     1      21.573  -8.850 -15.635  1.00  0.00     0.207 HD
HETATM   12  C21 UNL     1      22.426  -9.302 -17.539  1.00  0.00     0.739 A 
ENDROOT
BRANCH   4  13
HETATM   13  C11 UNL     1      22.738  -9.972 -21.042  1.00  0.00     0.294 C 
HETATM   14  O8  UNL     1      22.554 -11.185 -21.389  1.00  0.00    -0.264 OA
HETATM   15  N5  UNL     1      22.820  -8.906 -21.947  1.00  0.00    -0.316 N 
ATOM     16  H5  UNL     1      22.965  -7.976 -21.554  1.00  0.00     0.169 HD
BRANCH  15  17
HETATM   17  C12 UNL     1      22.723  -8.997 -23.363  1.00  0.00     0.096 A 
HETATM   18  C13 UNL     1      23.870  -9.324 -24.083  1.00  0.00     0.139 A 
HETATM   19  N6  UNL     1      23.797  -9.284 -25.436  1.00  0.00    -0.200 N 
HETATM   20  C14 UNL     1      22.678  -8.945 -26.094  1.00  0.00     0.677 A 
ATOM     21  H6  UNL     1      24.629  -9.522 -25.977  1.00  0.00     0.183 HD
HETATM   22  N8  UNL     1      21.589  -8.636 -25.381  1.00  0.00    -0.175 N 
HETATM   23  C15 UNL     1      21.555  -8.648 -24.011  1.00  0.00     0.147 A 
ATOM     24  H8  UNL     1      20.740  -8.378 -25.883  1.00  0.00     0.186 HD
BRANCH  20  25
HETATM   25  N7  UNL     1      22.704  -8.931 -27.379  1.00  0.00    -0.234 N 
ATOM     26  H72 UNL     1      22.767  -8.073 -27.927  1.00  0.00     0.174 HD
ATOM     27  H71 UNL     1      22.662  -9.821 -27.875  1.00  0.00     0.174 HD
ENDBRANCH  20  25
BRANCH  23  28
HETATM   28  N9  UNL     1      20.341  -8.399 -23.349  1.00  0.00    -0.362 N 
HETATM   29  C16 UNL     1      19.719  -7.081 -23.657  1.00  0.00     0.144 C 
HETATM   30  C17 UNL     1      18.563  -7.377 -24.584  1.00  0.00     0.145 C 
HETATM   31  N10 UNL     1      17.859  -8.534 -24.091  1.00  0.00    -0.353 N 
HETATM   32  C18 UNL     1      16.813  -9.043 -24.915  1.00  0.00     0.184 C 
HETATM   33  C19 UNL     1      18.123  -9.184 -22.857  1.00  0.00     0.145 C 
HETATM   34  N11 UNL     1      15.662  -9.317 -24.389  1.00  0.00    -0.374 N 
HETATM   35  N12 UNL     1      17.031  -9.242 -26.302  1.00  0.00    -0.064 NA
ATOM     36 2H11 UNL     1      15.505  -9.174 -23.391  1.00  0.00     0.158 HD
ATOM     37 1H11 UNL     1      14.913  -9.681 -24.979  1.00  0.00     0.158 HD
HETATM   38  C20 UNL     1      19.592  -9.247 -22.481  1.00  0.00     0.144 C 
ENDBRANCH  23  28
ENDBRANCH  15  17
ENDBRANCH   4  13
BRANCH   1  39
HETATM   39  C9  UNL     1      24.743  -9.496 -16.535  1.00  0.00     0.212 C 
BRANCH  39  40
HETATM   40  C8  UNL     1      25.848  -8.585 -16.887  1.00  0.00     0.086 C 
HETATM   41  N2  UNL     1      26.946  -8.982 -17.330  1.00  0.00    -0.334 N 
HETATM   42  C7  UNL     1      27.273 -10.340 -17.550  1.00  0.00     0.269 C 
ATOM     43  H2  UNL     1      27.654  -8.281 -17.548  1.00  0.00     0.168 HD
HETATM   44  O7  UNL     1      26.894 -10.897 -18.651  1.00  0.00    -0.266 OA
BRANCH  42  45
HETATM   45  C2  UNL     1      28.019 -11.153 -16.604  1.00  0.00     0.096 C 
HETATM   46  C1  UNL     1      29.387 -11.635 -17.109  1.00  0.00     0.076 C 
HETATM   47  N1  UNL     1      27.683 -11.478 -15.431  1.00  0.00    -0.264 N 
ATOM     48  H1  UNL     1      28.363 -12.038 -14.916  1.00  0.00     0.194 HD
BRANCH  47  49
HETATM   49  O1  UNL     1      26.556 -11.187 -14.772  1.00  0.00    -0.257 OA
BRANCH  49  50
HETATM   50  C3  UNL     1      26.411 -11.362 -13.372  1.00  0.00     0.188 C 
HETATM   51  C4  UNL     1      27.032 -10.166 -12.673  1.00  0.00     0.062 C 
BRANCH  50  52
HETATM   52  C5  UNL     1      25.110 -11.793 -12.852  1.00  0.00     0.217 C 
BRANCH  52  53
HETATM   53  S1  UNL     1      23.828 -12.208 -13.947  1.00  0.00     0.105 S 
HETATM   54  O2  UNL     1      23.056 -11.007 -14.439  1.00  0.00    -0.595 OA
HETATM   55  O3  UNL     1      22.865 -13.128 -13.198  1.00  0.00    -0.595 OA
HETATM   56  O4  UNL     1      24.409 -13.088 -15.247  1.00  0.00    -0.595 OA
ENDBRANCH  52  53
ENDBRANCH  50  52
BRANCH  50  57
HETATM   57  C6  UNL     1      27.363 -12.511 -13.019  1.00  0.00     0.212 C 
HETATM   58  O5  UNL     1      28.434 -12.337 -12.422  1.00  0.00    -0.646 OA
HETATM   59  O6  UNL     1      26.949 -13.766 -13.412  1.00  0.00    -0.646 OA
ENDBRANCH  50  57
ENDBRANCH  49  50
ENDBRANCH  47  49
ENDBRANCH  42  45
ENDBRANCH  39  40
ENDBRANCH   1  39
TORSDOF 12
ENDMDL
MODEL 4
REMARK VINA RESULT: -10.416807806      1.228      3.470
REMARK  12 active torsions:
REMARK  status: ('A' for Active; 'I' for Inactive)
REMARK    1  A    between atoms: C2_2  and  C7_16 
REMARK    2  A    between atoms: N1_3  and  O1_5 
REMARK    3  A    between atoms: O1_5  and  C3_6 
REMARK    4  A    between atoms: C3_6  and  C5_8 
REMARK    5  A    between atoms: C3_6  and  C6_13 
REMARK    6  A    between atoms: C5_8  and  S1_9 
REMARK       I    between atoms: C7_16  and  N2_18 
REMARK    7  A    between atoms: C8_20  and  C9_21 
REMARK    8  A    between atoms: C9_21  and  N3_22 
REMARK    9  A    between atoms: C10_25  and  C11_26 
REMARK       I    between atoms: C11_26  and  N5_28 
REMARK   10  A    between atoms: N5_28  and  C12_30 
REMARK   11  A    between atoms: C14_34  and  N7_35 
REMARK   12  A    between atoms: C15_40  and  N9_41 
REMARK       I    between atoms: N10_44  and  C18_45 
ROOT
HETATM    1  N3  UNL     1      23.245 -10.003 -17.446  1.00  0.00    -0.114 N 
HETATM    2  N4  UNL     1      23.152 -10.230 -18.737  1.00  0.00    -0.262 N 
ATOM      3  H4  UNL     1      23.925 -10.508 -19.340  1.00  0.00     0.189 HD
HETATM    4  C10 UNL     1      21.875 -10.037 -19.145  1.00  0.00     0.230 A 
HETATM    5  N13 UNL     1      21.142  -9.677 -18.088  1.00  0.00    -0.044 N 
HETATM    6  N14 UNL     1      19.964  -9.332 -17.595  1.00  0.00    -0.204 N 
ATOM      7  H14 UNL     1      19.098  -9.248 -18.127  1.00  0.00     0.211 HD
HETATM    8  N15 UNL     1      20.096  -9.117 -16.317  1.00  0.00    -0.213 N 
ATOM      9  H15 UNL     1      19.334  -8.839 -15.698  1.00  0.00     0.210 HD
HETATM   10  N16 UNL     1      21.334  -9.304 -15.926  1.00  0.00    -0.113 N 
ATOM     11  H16 UNL     1      21.708  -9.203 -14.983  1.00  0.00     0.207 HD
HETATM   12  C21 UNL     1      22.009  -9.662 -17.045  1.00  0.00     0.739 A 
ENDROOT
BRANCH   4  13
HETATM   13  C11 UNL     1      21.371 -10.212 -20.525  1.00  0.00     0.294 C 
HETATM   14  O8  UNL     1      21.442 -11.391 -21.004  1.00  0.00    -0.264 OA
HETATM   15  N5  UNL     1      20.849  -9.116 -21.225  1.00  0.00    -0.316 N 
ATOM     16  H5  UNL     1      20.838  -8.220 -20.738  1.00  0.00     0.169 HD
BRANCH  15  17
HETATM   17  C12 UNL     1      20.333  -9.135 -22.550  1.00  0.00     0.096 A 
HETATM   18  C13 UNL     1      18.958  -9.281 -22.720  1.00  0.00     0.139 A 
HETATM   19  N6  UNL     1      18.491  -9.425 -23.984  1.00  0.00    -0.200 N 
HETATM   20  C14 UNL     1      19.294  -9.433 -25.059  1.00  0.00     0.677 A 
ATOM     21  H6  UNL     1      17.486  -9.531 -24.125  1.00  0.00     0.183 HD
HETATM   22  N8  UNL     1      20.611  -9.290 -24.871  1.00  0.00    -0.175 N 
HETATM   23  C15 UNL     1      21.185  -9.134 -23.636  1.00  0.00     0.147 A 
ATOM     24  H8  UNL     1      21.219  -9.296 -25.689  1.00  0.00     0.186 HD
BRANCH  20  25
HETATM   25  N7  UNL     1      18.762  -9.579 -26.220  1.00  0.00    -0.234 N 
ATOM     26  H72 UNL     1      18.333 -10.450 -26.532  1.00  0.00     0.174 HD
ATOM     27  H71 UNL     1      18.767  -8.785 -26.860  1.00  0.00     0.174 HD
ENDBRANCH  20  25
BRANCH  23  28
HETATM   28  N9  UNL     1      22.567  -8.899 -23.542  1.00  0.00    -0.362 N 
HETATM   29  C16 UNL     1      23.422 -10.103 -23.732  1.00  0.00     0.144 C 
HETATM   30  C17 UNL     1      24.012  -9.977 -25.118  1.00  0.00     0.145 C 
HETATM   31  N10 UNL     1      24.439  -8.614 -25.316  1.00  0.00    -0.353 N 
HETATM   32  C18 UNL     1      24.902  -8.276 -26.621  1.00  0.00     0.184 C 
HETATM   33  C19 UNL     1      24.441  -7.608 -24.316  1.00  0.00     0.145 C 
HETATM   34  N11 UNL     1      26.013  -7.625 -26.755  1.00  0.00    -0.374 N 
HETATM   35  N12 UNL     1      24.151  -8.652 -27.763  1.00  0.00    -0.064 NA
ATOM     36 2H11 UNL     1      26.554  -7.354 -25.932  1.00  0.00     0.158 HD
ATOM     37 1H11 UNL     1      26.345  -7.383 -27.689  1.00  0.00     0.158 HD
HETATM   38  C20 UNL     1      23.265  -7.670 -23.358  1.00  0.00     0.144 C 
ENDBRANCH  23  28
ENDBRANCH  15  17
ENDBRANCH   4  13
BRANCH   1  39
HETATM   39  C9  UNL     1      24.464 -10.142 -16.654  1.00  0.00     0.212 C 
BRANCH  39  40
HETATM   40  C8  UNL     1      25.279  -8.919 -16.775  1.00  0.00     0.086 C 
HETATM   41  N2  UNL     1      26.487  -8.931 -17.092  1.00  0.00    -0.334 N 
HETATM   42  C7  UNL     1      27.226 -10.103 -17.371  1.00  0.00     0.269 C 
ATOM     43  H2  UNL     1      26.973  -8.036 -17.153  1.00  0.00     0.168 HD
HETATM   44  O7  UNL     1      27.153 -10.612 -18.556  1.00  0.00    -0.266 OA
BRANCH  42  45
HETATM   45  C2  UNL     1      28.073 -10.775 -16.399  1.00  0.00     0.096 C 
HETATM   46  C1  UNL     1      29.351 -11.396 -16.979  1.00  0.00     0.076 C 
HETATM   47  N1  UNL     1      27.886 -10.879 -15.154  1.00  0.00    -0.264 N 
ATOM     48  H1  UNL     1      28.616 -11.372 -14.639  1.00  0.00     0.194 HD
BRANCH  47  49
HETATM   49  O1  UNL     1      26.862 -10.430 -14.420  1.00  0.00    -0.257 OA
BRANCH  49  50
HETATM   50  C3  UNL     1      26.468 -11.027 -13.197  1.00  0.00     0.188 C 
HETATM   51  C4  UNL     1      27.634 -11.837 -12.660  1.00  0.00     0.062 C 
BRANCH  50  52
HETATM   52  C5  UNL     1      25.764 -10.202 -12.210  1.00  0.00     0.217 C 
BRANCH  52  53
HETATM   53  S1  UNL     1      24.966  -8.742 -12.706  1.00  0.00     0.105 S 
HETATM   54  O2  UNL     1      25.906  -7.727 -13.310  1.00  0.00    -0.595 OA
HETATM   55  O3  UNL     1      24.322  -8.127 -11.465  1.00  0.00    -0.595 OA
HETATM   56  O4  UNL     1      23.717  -9.072 -13.772  1.00  0.00    -0.595 OA
ENDBRANCH  52  53
ENDBRANCH  50  52
BRANCH  50  57
HETATM   57  C6  UNL     1      25.446 -12.100 -13.594  1.00  0.00     0.212 C 
HETATM   58  O5  UNL     1      24.392 -12.288 -12.971  1.00  0.00    -0.646 OA
HETATM   59  O6  UNL     1      25.776 -12.851 -14.702  1.00  0.00    -0.646 OA
ENDBRANCH  50  57
ENDBRANCH  49  50
ENDBRANCH  47  49
ENDBRANCH  42  45
ENDBRANCH  39  40
ENDBRANCH   1  39
TORSDOF 12
ENDMDL
MODEL 5
REMARK VINA RESULT: -10.380106591      2.046      2.883
REMARK  12 active torsions:
REMARK  status: ('A' for Active; 'I' for Inactive)
REMARK    1  A    between atoms: C2_2  and  C7_16 
REMARK    2  A    between atoms: N1_3  and  O1_5 
REMARK    3  A    between atoms: O1_5  and  C3_6 
REMARK    4  A    between atoms: C3_6  and  C5_8 
REMARK    5  A    between atoms: C3_6  and  C6_13 
REMARK    6  A    between atoms: C5_8  and  S1_9 
REMARK       I    between atoms: C7_16  and  N2_18 
REMARK    7  A    between atoms: C8_20  and  C9_21 
REMARK    8  A    between atoms: C9_21  and  N3_22 
REMARK    9  A    between atoms: C10_25  and  C11_26 
REMARK       I    between atoms: C11_26  and  N5_28 
REMARK   10  A    between atoms: N5_28  and  C12_30 
REMARK   11  A    between atoms: C14_34  and  N7_35 
REMARK   12  A    between atoms: C15_40  and  N9_41 
REMARK       I    between atoms: N10_44  and  C18_45 
ROOT
HETATM    1  N3  UNL     1      23.510  -9.310 -17.477  1.00  0.00    -0.114 N 
HETATM    2  N4  UNL     1      23.802  -9.577 -18.730  1.00  0.00    -0.262 N 
ATOM      3  H4  UNL     1      24.743  -9.707 -19.098  1.00  0.00     0.189 HD
HETATM    4  C10 UNL     1      22.662  -9.655 -19.459  1.00  0.00     0.230 A 
HETATM    5  N13 UNL     1      21.625  -9.428 -18.649  1.00  0.00    -0.044 N 
HETATM    6  N14 UNL     1      20.316  -9.317 -18.494  1.00  0.00    -0.204 N 
ATOM      7  H14 UNL     1      19.619  -9.422 -19.231  1.00  0.00     0.211 HD
HETATM    8  N15 UNL     1      20.067  -9.053 -17.243  1.00  0.00    -0.213 N 
ATOM      9  H15 UNL     1      19.132  -8.921 -16.857  1.00  0.00     0.210 HD
HETATM   10  N16 UNL     1      21.173  -8.979 -16.541  1.00  0.00    -0.113 N 
ATOM     11  H16 UNL     1      21.262  -8.784 -15.544  1.00  0.00     0.207 HD
HETATM   12  C21 UNL     1      22.171  -9.216 -17.426  1.00  0.00     0.739 A 
ENDROOT
BRANCH   4  13
HETATM   13  C11 UNL     1      22.578  -9.957 -20.904  1.00  0.00     0.294 C 
HETATM   14  O8  UNL     1      22.381 -11.178 -21.213  1.00  0.00    -0.264 OA
HETATM   15  N5  UNL     1      22.708  -8.927 -21.846  1.00  0.00    -0.316 N 
ATOM     16  H5  UNL     1      22.858  -7.986 -21.482  1.00  0.00     0.169 HD
BRANCH  15  17
HETATM   17  C12 UNL     1      22.650  -9.069 -23.259  1.00  0.00     0.096 A 
HETATM   18  C13 UNL     1      23.813  -9.435 -23.933  1.00  0.00     0.139 A 
HETATM   19  N6  UNL     1      23.780  -9.444 -25.288  1.00  0.00    -0.200 N 
HETATM   20  C14 UNL     1      22.686  -9.116 -25.991  1.00  0.00     0.677 A 
ATOM     21  H6  UNL     1      24.624  -9.712 -25.795  1.00  0.00     0.183 HD
HETATM   22  N8  UNL     1      21.580  -8.768 -25.321  1.00  0.00    -0.175 N 
HETATM   23  C15 UNL     1      21.506  -8.730 -23.953  1.00  0.00     0.147 A 
ATOM     24  H8  UNL     1      20.749  -8.519 -25.858  1.00  0.00     0.186 HD
BRANCH  20  25
HETATM   25  N7  UNL     1      22.749  -9.149 -27.274  1.00  0.00    -0.234 N 
ATOM     26  H72 UNL     1      22.278  -9.857 -27.838  1.00  0.00     0.174 HD
ATOM     27  H71 UNL     1      23.295  -8.433 -27.752  1.00  0.00     0.174 HD
ENDBRANCH  20  25
BRANCH  23  28
HETATM   28  N9  UNL     1      20.277  -8.442 -23.337  1.00  0.00    -0.362 N 
HETATM   29  C16 UNL     1      19.682  -7.128 -23.708  1.00  0.00     0.144 C 
HETATM   30  C17 UNL     1      18.550  -7.440 -24.659  1.00  0.00     0.145 C 
HETATM   31  N10 UNL     1      17.816  -8.570 -24.148  1.00  0.00    -0.353 N 
HETATM   32  C18 UNL     1      16.788  -9.092 -24.986  1.00  0.00     0.184 C 
HETATM   33  C19 UNL     1      18.034  -9.181 -22.887  1.00  0.00     0.145 C 
HETATM   34  N11 UNL     1      15.618  -9.334 -24.486  1.00  0.00    -0.374 N 
HETATM   35  N12 UNL     1      17.044  -9.342 -26.358  1.00  0.00    -0.064 NA
ATOM     36 2H11 UNL     1      15.433  -9.154 -23.499  1.00  0.00     0.158 HD
ATOM     37 1H11 UNL     1      14.882  -9.707 -25.086  1.00  0.00     0.158 HD
HETATM   38  C20 UNL     1      19.490  -9.250 -22.465  1.00  0.00     0.144 C 
ENDBRANCH  23  28
ENDBRANCH  15  17
ENDBRANCH   4  13
BRANCH   1  39
HETATM   39  C9  UNL     1      24.484  -9.182 -16.397  1.00  0.00     0.212 C 
BRANCH  39  40
HETATM   40  C8  UNL     1      24.358  -7.856 -15.765  1.00  0.00     0.086 C 
HETATM   41  N2  UNL     1      24.843  -7.583 -14.646  1.00  0.00    -0.334 N 
HETATM   42  C7  UNL     1      25.565  -8.497 -13.846  1.00  0.00     0.269 C 
ATOM     43  H2  UNL     1      24.708  -6.638 -14.286  1.00  0.00     0.168 HD
HETATM   44  O7  UNL     1      26.822  -8.669 -14.086  1.00  0.00    -0.266 OA
BRANCH  42  45
HETATM   45  C2  UNL     1      24.974  -9.259 -12.758  1.00  0.00     0.096 C 
HETATM   46  C1  UNL     1      24.109  -8.437 -11.793  1.00  0.00     0.076 C 
HETATM   47  N1  UNL     1      25.074 -10.499 -12.541  1.00  0.00    -0.264 N 
ATOM     48  H1  UNL     1      24.560 -10.848 -11.732  1.00  0.00     0.194 HD
BRANCH  47  49
HETATM   49  O1  UNL     1      25.763 -11.418 -13.228  1.00  0.00    -0.257 OA
BRANCH  49  50
HETATM   50  C3  UNL     1      25.332 -12.761 -13.369  1.00  0.00     0.188 C 
HETATM   51  C4  UNL     1      25.121 -13.045 -14.846  1.00  0.00     0.062 C 
BRANCH  50  52
HETATM   52  C5  UNL     1      26.039 -13.805 -12.620  1.00  0.00     0.217 C 
BRANCH  52  53
HETATM   53  S1  UNL     1      27.294 -13.375 -11.500  1.00  0.00     0.105 S 
HETATM   54  O2  UNL     1      27.882 -14.565 -10.782  1.00  0.00    -0.595 OA
HETATM   55  O3  UNL     1      26.681 -12.437 -10.461  1.00  0.00    -0.595 OA
HETATM   56  O4  UNL     1      28.508 -12.508 -12.261  1.00  0.00    -0.595 OA
ENDBRANCH  52  53
ENDBRANCH  50  52
BRANCH  50  57
HETATM   57  C6  UNL     1      23.909 -12.780 -12.799  1.00  0.00     0.212 C 
HETATM   58  O5  UNL     1      23.665 -13.020 -11.609  1.00  0.00    -0.646 OA
HETATM   59  O6  UNL     1      22.904 -12.508 -13.703  1.00  0.00    -0.646 OA
ENDBRANCH  50  57
ENDBRANCH  49  50
ENDBRANCH  47  49
ENDBRANCH  42  45
ENDBRANCH  39  40
ENDBRANCH   1  39
TORSDOF 12
ENDMDL
