MODEL 1
REMARK VINA RESULT: -7.758131265      0.000      0.000
REMARK  8 active torsions:
REMARK  status: ('A' for Active; 'I' for Inactive)
REMARK    1  A    between atoms: O1_2  and  C2_3 
REMARK    2  A    between atoms: C11_13  and  O3_14 
REMARK    3  A    between atoms: C14_18  and  C15_19 
REMARK    4  A    between atoms: C15_19  and  C16_20 
REMARK    5  A    between atoms: C16_20  and  O4_21 
REMARK    6  A    between atoms: C17_26  and  N2_28 
REMARK    7  A    between atoms: N2_28  and  N3_30 
REMARK    8  A    between atoms: N3_30  and  N4_31 
ROOT
HETATM    1  C2  UNL     1     -87.643 -16.083  15.668  1.00  0.00     0.154 C 
HETATM    2  C3  UNL     1     -88.858 -15.486  16.358  1.00  0.00     0.018 C 
HETATM    3  C4  UNL     1     -88.370 -15.475  17.726  1.00  0.00     0.015 C 
HETATM    4  C5  UNL     1     -87.080 -14.792  17.664  1.00  0.00     0.029 C 
HETATM    5  C6  UNL     1     -86.487 -15.449  16.410  1.00  0.00     0.155 C 
HETATM    6  O2  UNL     1     -85.927 -14.476  15.636  1.00  0.00    -0.382 OA
HETATM    7  C7  UNL     1     -85.917 -13.285  16.336  1.00  0.00     0.179 C 
HETATM    8  C8  UNL     1     -86.977 -13.375  17.393  1.00  0.00    -0.003 C 
HETATM    9  C9  UNL     1     -86.393 -12.642  18.603  1.00  0.00     0.015 C 
HETATM   10  C10 UNL     1     -86.574 -11.206  18.184  1.00  0.00     0.033 C 
HETATM   11  C11 UNL     1     -87.622 -11.202  17.085  1.00  0.00     0.127 C 
HETATM   12  C12 UNL     1     -88.210 -12.604  17.084  1.00  0.00    -0.004 C 
HETATM   13  C13 UNL     1     -89.241 -12.608  18.161  1.00  0.00     0.019 C 
HETATM   14  C14 UNL     1     -88.781 -12.986  15.716  1.00  0.00     0.002 C 
HETATM   15  C22 UNL     1     -89.338 -14.324  15.627  1.00  0.00     0.013 C 
ENDROOT
BRANCH  14  16
HETATM   16  C15 UNL     1     -89.620 -11.917  15.140  1.00  0.00     0.077 C 
BRANCH  16  17
HETATM   17  C16 UNL     1     -89.541 -11.349  13.841  1.00  0.00     0.261 C 
HETATM   18  N1  UNL     1     -91.017 -11.083  13.520  1.00  0.00     0.013 N 
HETATM   19  C17 UNL     1     -91.403 -12.236  12.766  1.00  0.00     0.330 C 
ATOM     20  H12 UNL     1     -91.600 -10.894  14.334  1.00  0.00     0.287 HD
ATOM     21  H11 UNL     1     -91.195 -10.193  13.053  1.00  0.00     0.287 HD
HETATM   22  C18 UNL     1     -92.270 -13.207  13.539  1.00  0.00     0.108 C 
HETATM   23  O5  UNL     1     -90.225 -12.831  12.310  1.00  0.00    -0.321 OA
HETATM   24  C19 UNL     1     -89.229 -11.869  12.550  1.00  0.00     0.116 C 
HETATM   25  C20 UNL     1     -89.596 -10.741  11.540  1.00  0.00     0.051 C 
HETATM   26  C21 UNL     1     -87.913 -12.318  12.089  1.00  0.00     0.051 C 
BRANCH  17  27
HETATM   27  O4  UNL     1     -89.096  -9.994  13.917  1.00  0.00    -0.362 OA
ATOM     28  H4  UNL     1     -89.730  -9.462  14.384  1.00  0.00     0.212 HD
ENDBRANCH  17  27
BRANCH  19  29
HETATM   29  N2  UNL     1     -92.216 -11.836  11.604  1.00  0.00    -0.192 N 
ATOM     30  H2  UNL     1     -92.626 -10.902  11.573  1.00  0.00     0.202 HD
BRANCH  29  31
HETATM   31  N3  UNL     1     -92.405 -12.602  10.685  1.00  0.00    -0.244 NA
BRANCH  31  32
HETATM   32  N4  UNL     1     -92.279 -13.482   9.831  1.00  0.00    -0.261 N 
ATOM     33  H42 UNL     1     -92.397 -14.244  10.497  1.00  0.00     0.193 HD
ATOM     34  H41 UNL     1     -92.145 -13.984   8.954  1.00  0.00     0.193 HD
ENDBRANCH  31  32
ENDBRANCH  29  31
ENDBRANCH  19  29
ENDBRANCH  16  17
ENDBRANCH  14  16
BRANCH  11  35
HETATM   35  O3  UNL     1     -88.533 -10.216  17.430  1.00  0.00    -0.395 OA
ATOM     36  H3  UNL     1     -89.294 -10.358  16.878  1.00  0.00     0.210 HD
ENDBRANCH  11  35
BRANCH   1  37
HETATM   37  O1  UNL     1     -87.663 -17.461  15.841  1.00  0.00    -0.388 OA
HETATM   38  C1  UNL     1     -86.556 -18.075  15.259  1.00  0.00     0.202 C 
ENDBRANCH   1  37
TORSDOF 8
ENDMDL
MODEL 2
REMARK VINA RESULT: -7.749689010      3.166      6.536
REMARK  8 active torsions:
REMARK  status: ('A' for Active; 'I' for Inactive)
REMARK    1  A    between atoms: O1_2  and  C2_3 
REMARK    2  A    between atoms: C11_13  and  O3_14 
REMARK    3  A    between atoms: C14_18  and  C15_19 
REMARK    4  A    between atoms: C15_19  and  C16_20 
REMARK    5  A    between atoms: C16_20  and  O4_21 
REMARK    6  A    between atoms: C17_26  and  N2_28 
REMARK    7  A    between atoms: N2_28  and  N3_30 
REMARK    8  A    between atoms: N3_30  and  N4_31 
ROOT
HETATM    1  C2  UNL     1     -92.424 -14.022  12.611  1.00  0.00     0.154 C 
HETATM    2  C3  UNL     1     -91.150 -14.473  13.306  1.00  0.00     0.018 C 
HETATM    3  C4  UNL     1     -90.408 -14.949  12.151  1.00  0.00     0.015 C 
HETATM    4  C5  UNL     1     -90.440 -13.843  11.197  1.00  0.00     0.029 C 
HETATM    5  C6  UNL     1     -91.910 -13.422  11.320  1.00  0.00     0.155 C 
HETATM    6  O2  UNL     1     -91.967 -12.062  11.394  1.00  0.00    -0.382 OA
HETATM    7  C7  UNL     1     -90.714 -11.539  11.139  1.00  0.00     0.179 C 
HETATM    8  C8  UNL     1     -89.709 -12.616  11.424  1.00  0.00    -0.003 C 
HETATM    9  C9  UNL     1     -88.624 -12.436  10.361  1.00  0.00     0.015 C 
HETATM   10  C10 UNL     1     -87.880 -11.245  10.907  1.00  0.00     0.033 C 
HETATM   11  C11 UNL     1     -88.241 -11.144  12.379  1.00  0.00     0.127 C 
HETATM   12  C12 UNL     1     -88.973 -12.436  12.703  1.00  0.00    -0.004 C 
HETATM   13  C13 UNL     1     -87.908 -13.447  12.963  1.00  0.00     0.019 C 
HETATM   14  C14 UNL     1     -89.934 -12.270  13.884  1.00  0.00     0.002 C 
HETATM   15  C22 UNL     1     -90.692 -13.456  14.239  1.00  0.00     0.013 C 
ENDROOT
BRANCH  14  16
HETATM   16  C15 UNL     1     -89.312 -11.560  15.018  1.00  0.00     0.077 C 
BRANCH  16  17
HETATM   17  C16 UNL     1     -88.938 -12.089  16.282  1.00  0.00     0.261 C 
HETATM   18  N1  UNL     1     -88.558 -10.822  17.058  1.00  0.00     0.013 N 
HETATM   19  C17 UNL     1     -87.138 -10.751  16.899  1.00  0.00     0.330 C 
ATOM     20  H12 UNL     1     -89.059  -9.982  16.769  1.00  0.00     0.287 HD
ATOM     21  H11 UNL     1     -88.878 -10.808  18.027  1.00  0.00     0.287 HD
HETATM   22  C18 UNL     1     -86.686  -9.682  15.928  1.00  0.00     0.108 C 
HETATM   23  O5  UNL     1     -86.713 -12.025  16.515  1.00  0.00    -0.321 OA
HETATM   24  C19 UNL     1     -87.826 -12.852  16.745  1.00  0.00     0.116 C 
HETATM   25  C20 UNL     1     -87.932 -12.852  18.300  1.00  0.00     0.051 C 
HETATM   26  C21 UNL     1     -87.540 -14.253  16.428  1.00  0.00     0.051 C 
BRANCH  17  27
HETATM   27  O4  UNL     1     -90.098 -12.454  17.031  1.00  0.00    -0.362 OA
ATOM     28  H4  UNL     1     -90.070 -12.062  17.896  1.00  0.00     0.212 HD
ENDBRANCH  17  27
BRANCH  19  29
HETATM   29  N2  UNL     1     -86.499 -10.402  18.180  1.00  0.00    -0.192 N 
ATOM     30  H2  UNL     1     -87.030 -10.488  19.048  1.00  0.00     0.202 HD
BRANCH  29  31
HETATM   31  N3  UNL     1     -85.353 -10.015  18.217  1.00  0.00    -0.244 NA
BRANCH  31  32
HETATM   32  N4  UNL     1     -84.270  -9.550  18.579  1.00  0.00    -0.261 N 
ATOM     33  H42 UNL     1     -84.296 -10.010  19.489  1.00  0.00     0.193 HD
ATOM     34  H41 UNL     1     -83.385  -9.046  18.622  1.00  0.00     0.193 HD
ENDBRANCH  31  32
ENDBRANCH  29  31
ENDBRANCH  19  29
ENDBRANCH  16  17
ENDBRANCH  14  16
BRANCH  11  35
HETATM   35  O3  UNL     1     -87.041 -10.999  13.056  1.00  0.00    -0.395 OA
ATOM     36  H3  UNL     1     -87.161 -11.426  13.896  1.00  0.00     0.210 HD
ENDBRANCH  11  35
BRANCH   1  37
HETATM   37  O1  UNL     1     -93.222 -15.134  12.373  1.00  0.00    -0.388 OA
HETATM   38  C1  UNL     1     -94.188 -14.883  11.401  1.00  0.00     0.202 C 
ENDBRANCH   1  37
TORSDOF 8
ENDMDL
MODEL 3
REMARK VINA RESULT: -7.718137935      2.342      3.921
REMARK  8 active torsions:
REMARK  status: ('A' for Active; 'I' for Inactive)
REMARK    1  A    between atoms: O1_2  and  C2_3 
REMARK    2  A    between atoms: C11_13  and  O3_14 
REMARK    3  A    between atoms: C14_18  and  C15_19 
REMARK    4  A    between atoms: C15_19  and  C16_20 
REMARK    5  A    between atoms: C16_20  and  O4_21 
REMARK    6  A    between atoms: C17_26  and  N2_28 
REMARK    7  A    between atoms: N2_28  and  N3_30 
REMARK    8  A    between atoms: N3_30  and  N4_31 
ROOT
HETATM    1  C2  UNL     1     -85.257  -9.780  14.570  1.00  0.00     0.154 C 
HETATM    2  C3  UNL     1     -85.769 -11.167  14.222  1.00  0.00     0.018 C 
HETATM    3  C4  UNL     1     -85.096 -11.932  15.258  1.00  0.00     0.015 C 
HETATM    4  C5  UNL     1     -85.432 -11.255  16.509  1.00  0.00     0.029 C 
HETATM    5  C6  UNL     1     -85.245  -9.793  16.083  1.00  0.00     0.155 C 
HETATM    6  O2  UNL     1     -86.297  -9.066  16.555  1.00  0.00    -0.382 OA
HETATM    7  C7  UNL     1     -87.050  -9.854  17.404  1.00  0.00     0.179 C 
HETATM    8  C8  UNL     1     -86.769 -11.286  17.060  1.00  0.00    -0.003 C 
HETATM    9  C9  UNL     1     -86.776 -12.024  18.400  1.00  0.00     0.015 C 
HETATM   10  C10 UNL     1     -88.255 -12.115  18.670  1.00  0.00     0.033 C 
HETATM   11  C11 UNL     1     -88.955 -11.897  17.340  1.00  0.00     0.127 C 
HETATM   12  C12 UNL     1     -87.855 -11.951  16.293  1.00  0.00    -0.004 C 
HETATM   13  C13 UNL     1     -87.634 -13.400  16.017  1.00  0.00     0.019 C 
HETATM   14  C14 UNL     1     -88.220 -11.157  15.036  1.00  0.00     0.002 C 
HETATM   15  C22 UNL     1     -87.206 -11.138  13.996  1.00  0.00     0.013 C 
ENDROOT
BRANCH  14  16
HETATM   16  C15 UNL     1     -89.591 -11.443  14.570  1.00  0.00     0.077 C 
BRANCH  16  17
HETATM   17  C16 UNL     1     -90.055 -11.546  13.232  1.00  0.00     0.261 C 
HETATM   18  N1  UNL     1     -91.577 -11.556  13.423  1.00  0.00     0.013 N 
HETATM   19  C17 UNL     1     -91.900 -12.950  13.424  1.00  0.00     0.330 C 
ATOM     20  H12 UNL     1     -91.904 -11.045  14.242  1.00  0.00     0.287 HD
ATOM     21  H11 UNL     1     -92.093 -11.002  12.739  1.00  0.00     0.287 HD
HETATM   22  C18 UNL     1     -92.232 -13.497  14.796  1.00  0.00     0.108 C 
HETATM   23  O5  UNL     1     -90.819 -13.613  12.841  1.00  0.00    -0.321 OA
HETATM   24  C19 UNL     1     -90.049 -12.591  12.260  1.00  0.00     0.116 C 
HETATM   25  C20 UNL     1     -90.965 -12.094  11.101  1.00  0.00     0.051 C 
HETATM   26  C21 UNL     1     -88.877 -13.119  11.560  1.00  0.00     0.051 C 
BRANCH  17  27
HETATM   27  O4  UNL     1     -89.936 -10.289  12.565  1.00  0.00    -0.362 OA
ATOM     28  H4  UNL     1     -90.241 -10.360  11.668  1.00  0.00     0.212 HD
ENDBRANCH  17  27
BRANCH  19  29
HETATM   29  N2  UNL     1     -93.104 -13.195  12.611  1.00  0.00    -0.192 N 
ATOM     30  H2  UNL     1     -93.672 -12.405  12.302  1.00  0.00     0.202 HD
BRANCH  29  31
HETATM   31  N3  UNL     1     -93.429 -14.320  12.305  1.00  0.00    -0.244 NA
BRANCH  31  32
HETATM   32  N4  UNL     1     -93.969 -15.428  12.263  1.00  0.00    -0.261 N 
ATOM     33  H42 UNL     1     -94.502 -15.279  13.119  1.00  0.00     0.193 HD
ATOM     34  H41 UNL     1     -94.260 -16.366  11.992  1.00  0.00     0.193 HD
ENDBRANCH  31  32
ENDBRANCH  29  31
ENDBRANCH  19  29
ENDBRANCH  16  17
ENDBRANCH  14  16
BRANCH  11  35
HETATM   35  O3  UNL     1     -89.884 -12.919  17.226  1.00  0.00    -0.395 OA
ATOM     36  H3  UNL     1     -89.671 -13.378  16.421  1.00  0.00     0.210 HD
ENDBRANCH  11  35
BRANCH   1  37
HETATM   37  O1  UNL     1     -83.977  -9.632  14.052  1.00  0.00    -0.388 OA
HETATM   38  C1  UNL     1     -83.695  -8.306  13.730  1.00  0.00     0.202 C 
ENDBRANCH   1  37
TORSDOF 8
ENDMDL
MODEL 4
REMARK VINA RESULT: -7.660124992      3.555      6.441
REMARK  8 active torsions:
REMARK  status: ('A' for Active; 'I' for Inactive)
REMARK    1  A    between atoms: O1_2  and  C2_3 
REMARK    2  A    between atoms: C11_13  and  O3_14 
REMARK    3  A    between atoms: C14_18  and  C15_19 
REMARK    4  A    between atoms: C15_19  and  C16_20 
REMARK    5  A    between atoms: C16_20  and  O4_21 
REMARK    6  A    between atoms: C17_26  and  N2_28 
REMARK    7  A    between atoms: N2_28  and  N3_30 
REMARK    8  A    between atoms: N3_30  and  N4_31 
ROOT
HETATM    1  C2  UNL     1     -90.431 -12.159  12.175  1.00  0.00     0.154 C 
HETATM    2  C3  UNL     1     -89.414 -13.283  12.070  1.00  0.00     0.018 C 
HETATM    3  C4  UNL     1     -88.933 -13.039  10.721  1.00  0.00     0.015 C 
HETATM    4  C5  UNL     1     -88.557 -11.627  10.700  1.00  0.00     0.029 C 
HETATM    5  C6  UNL     1     -89.752 -11.019  11.447  1.00  0.00     0.155 C 
HETATM    6  O2  UNL     1     -89.282 -10.114  12.353  1.00  0.00    -0.382 OA
HETATM    7  C7  UNL     1     -87.930  -9.924  12.146  1.00  0.00     0.179 C 
HETATM    8  C8  UNL     1     -87.408 -11.131  11.426  1.00  0.00    -0.003 C 
HETATM    9  C9  UNL     1     -86.357 -10.590  10.454  1.00  0.00     0.015 C 
HETATM   10  C10 UNL     1     -85.204 -10.336  11.390  1.00  0.00     0.033 C 
HETATM   11  C11 UNL     1     -85.470 -11.154  12.641  1.00  0.00     0.127 C 
HETATM   12  C12 UNL     1     -86.635 -12.065  12.286  1.00  0.00    -0.004 C 
HETATM   13  C13 UNL     1     -86.033 -13.227  11.571  1.00  0.00     0.019 C 
HETATM   14  C14 UNL     1     -87.436 -12.480  13.524  1.00  0.00     0.002 C 
HETATM   15  C22 UNL     1     -88.584 -13.331  13.263  1.00  0.00     0.013 C 
ENDROOT
BRANCH  14  16
HETATM   16  C15 UNL     1     -86.568 -12.919  14.633  1.00  0.00     0.077 C 
BRANCH  16  17
HETATM   17  C16 UNL     1     -86.209 -12.197  15.801  1.00  0.00     0.261 C 
HETATM   18  N1  UNL     1     -86.616 -13.168  16.915  1.00  0.00     0.013 N 
HETATM   19  C17 UNL     1     -87.922 -12.715  17.286  1.00  0.00     0.330 C 
ATOM     20  H12 UNL     1     -86.568 -14.153  16.656  1.00  0.00     0.287 HD
ATOM     21  H11 UNL     1     -85.953 -13.228  17.688  1.00  0.00     0.287 HD
HETATM   22  C18 UNL     1     -89.040 -13.608  16.792  1.00  0.00     0.108 C 
HETATM   23  O5  UNL     1     -88.043 -11.408  16.812  1.00  0.00    -0.321 OA
HETATM   24  C19 UNL     1     -86.736 -11.041  16.450  1.00  0.00     0.116 C 
HETATM   25  C20 UNL     1     -86.012 -10.965  17.829  1.00  0.00     0.051 C 
HETATM   26  C21 UNL     1     -86.670  -9.663  15.959  1.00  0.00     0.051 C 
BRANCH  17  27
HETATM   27  O4  UNL     1     -84.795 -12.236  15.995  1.00  0.00    -0.362 OA
ATOM     28  H4  UNL     1     -84.352 -12.426  15.176  1.00  0.00     0.212 HD
ENDBRANCH  17  27
BRANCH  19  29
HETATM   29  N2  UNL     1     -88.059 -12.704  18.754  1.00  0.00    -0.192 N 
ATOM     30  H2  UNL     1     -87.348 -13.157  19.329  1.00  0.00     0.202 HD
BRANCH  29  31
HETATM   31  N3  UNL     1     -89.003 -12.164  19.285  1.00  0.00    -0.244 NA
BRANCH  31  32
HETATM   32  N4  UNL     1     -90.136 -11.868  19.671  1.00  0.00    -0.261 N 
ATOM     33  H42 UNL     1     -89.980 -12.211  20.618  1.00  0.00     0.193 HD
ATOM     34  H41 UNL     1     -91.098 -11.533  19.722  1.00  0.00     0.193 HD
ENDBRANCH  31  32
ENDBRANCH  29  31
ENDBRANCH  19  29
ENDBRANCH  16  17
ENDBRANCH  14  16
BRANCH  11  35
HETATM   35  O3  UNL     1     -84.293 -11.835  12.909  1.00  0.00    -0.395 OA
ATOM     36  H3  UNL     1     -84.530 -12.551  13.488  1.00  0.00     0.210 HD
ENDBRANCH  11  35
BRANCH   1  37
HETATM   37  O1  UNL     1     -91.598 -12.549  11.531  1.00  0.00    -0.388 OA
HETATM   38  C1  UNL     1     -92.703 -12.497  12.379  1.00  0.00     0.202 C 
ENDBRANCH   1  37
TORSDOF 8
ENDMDL
MODEL 5
REMARK VINA RESULT: -7.607398494      3.387      7.094
REMARK  8 active torsions:
REMARK  status: ('A' for Active; 'I' for Inactive)
REMARK    1  A    between atoms: O1_2  and  C2_3 
REMARK    2  A    between atoms: C11_13  and  O3_14 
REMARK    3  A    between atoms: C14_18  and  C15_19 
REMARK    4  A    between atoms: C15_19  and  C16_20 
REMARK    5  A    between atoms: C16_20  and  O4_21 
REMARK    6  A    between atoms: C17_26  and  N2_28 
REMARK    7  A    between atoms: N2_28  and  N3_30 
REMARK    8  A    between atoms: N3_30  and  N4_31 
ROOT
HETATM    1  C2  UNL     1     -92.855 -14.306  10.417  1.00  0.00     0.154 C 
HETATM    2  C3  UNL     1     -91.630 -14.484  11.298  1.00  0.00     0.018 C 
HETATM    3  C4  UNL     1     -90.835 -15.332  10.425  1.00  0.00     0.015 C 
HETATM    4  C5  UNL     1     -90.794 -14.629   9.145  1.00  0.00     0.029 C 
HETATM    5  C6  UNL     1     -92.261 -14.193   9.030  1.00  0.00     0.155 C 
HETATM    6  O2  UNL     1     -92.296 -12.893   8.622  1.00  0.00    -0.382 OA
HETATM    7  C7  UNL     1     -91.022 -12.490   8.273  1.00  0.00     0.179 C 
HETATM    8  C8  UNL     1     -90.054 -13.398   8.973  1.00  0.00    -0.003 C 
HETATM    9  C9  UNL     1     -88.910 -13.599   7.978  1.00  0.00     0.015 C 
HETATM   10  C10 UNL     1     -88.175 -12.291   8.116  1.00  0.00     0.033 C 
HETATM   11  C11 UNL     1     -88.613 -11.683   9.437  1.00  0.00     0.127 C 
HETATM   12  C12 UNL     1     -89.386 -12.782  10.148  1.00  0.00    -0.004 C 
HETATM   13  C13 UNL     1     -88.355 -13.637  10.805  1.00  0.00     0.019 C 
HETATM   14  C14 UNL     1     -90.406 -12.216  11.140  1.00  0.00     0.002 C 
HETATM   15  C22 UNL     1     -91.204 -13.205  11.843  1.00  0.00     0.013 C 
ENDROOT
BRANCH  14  16
HETATM   16  C15 UNL     1     -89.833 -11.154  11.990  1.00  0.00     0.077 C 
BRANCH  16  17
HETATM   17  C16 UNL     1     -89.760 -11.112  13.407  1.00  0.00     0.261 C 
HETATM   18  N1  UNL     1     -88.964  -9.824  13.648  1.00  0.00     0.013 N 
HETATM   19  C17 UNL     1     -87.619 -10.290  13.798  1.00  0.00     0.330 C 
ATOM     20  H12 UNL     1     -89.087  -9.110  12.930  1.00  0.00     0.287 HD
ATOM     21  H11 UNL     1     -89.304  -9.255  14.423  1.00  0.00     0.287 HD
HETATM   22  C18 UNL     1     -86.740 -10.009  12.598  1.00  0.00     0.108 C 
HETATM   23  O5  UNL     1     -87.697 -11.654  14.086  1.00  0.00    -0.321 OA
HETATM   24  C19 UNL     1     -89.052 -11.875  14.383  1.00  0.00     0.116 C 
HETATM   25  C20 UNL     1     -89.233 -11.109  15.729  1.00  0.00     0.051 C 
HETATM   26  C21 UNL     1     -89.311 -13.268  14.753  1.00  0.00     0.051 C 
BRANCH  17  27
HETATM   27  O4  UNL     1     -91.008 -10.694  13.959  1.00  0.00    -0.362 OA
ATOM     28  H4  UNL     1     -91.678 -11.348  13.798  1.00  0.00     0.212 HD
ENDBRANCH  17  27
BRANCH  19  29
HETATM   29  N2  UNL     1     -86.964  -9.601  14.924  1.00  0.00    -0.192 N 
ATOM     30  H2  UNL     1     -87.373  -8.744  15.296  1.00  0.00     0.202 HD
BRANCH  29  31
HETATM   31  N3  UNL     1     -85.947 -10.040  15.413  1.00  0.00    -0.244 NA
BRANCH  31  32
HETATM   32  N4  UNL     1     -85.062 -10.786  15.837  1.00  0.00    -0.261 N 
ATOM     33  H42 UNL     1     -85.506 -10.913  16.746  1.00  0.00     0.193 HD
ATOM     34  H41 UNL     1     -84.221 -11.356  15.929  1.00  0.00     0.193 HD
ENDBRANCH  31  32
ENDBRANCH  29  31
ENDBRANCH  19  29
ENDBRANCH  16  17
ENDBRANCH  14  16
BRANCH  11  35
HETATM   35  O3  UNL     1     -87.449 -11.309  10.089  1.00  0.00    -0.395 OA
ATOM     36  H3  UNL     1     -87.450 -10.359  10.102  1.00  0.00     0.210 HD
ENDBRANCH  11  35
BRANCH   1  37
HETATM   37  O1  UNL     1     -93.660 -15.432  10.536  1.00  0.00    -0.388 OA
HETATM   38  C1  UNL     1     -94.209 -15.547  11.810  1.00  0.00     0.202 C 
ENDBRANCH   1  37
TORSDOF 8
ENDMDL
