MODEL 1
REMARK VINA RESULT: -7.918751716      0.000      0.000
REMARK  15 active torsions:
REMARK  status: ('A' for Active; 'I' for Inactive)
REMARK    1  A    between atoms: C3_3  and  N1_4 
REMARK    2  A    between atoms: C5_6  and  C6_7 
REMARK    3  A    between atoms: C7_10  and  C8_11 
REMARK       I    between atoms: C8_11  and  N3_13 
REMARK    4  A    between atoms: N3_13  and  C9_14 
REMARK    5  A    between atoms: N3_13  and  C11_18 
REMARK    6  A    between atoms: C9_14  and  C10_15 
REMARK    7  A    between atoms: C11_18  and  C12_19 
REMARK    8  A    between atoms: C11_18  and  S1_23 
REMARK    9  A    between atoms: C12_19  and  C13_20 
REMARK   10  A    between atoms: S1_23  and  C16_26 
REMARK   11  A    between atoms: C16_26  and  C17_27 
REMARK   12  A    between atoms: C17_27  and  C18_28 
REMARK   13  A    between atoms: C18_28  and  O7_29 
REMARK   14  A    between atoms: C23_36  and  C24_37 
REMARK   15  A    between atoms: C25_38  and  C26_39 
ROOT
HETATM    1  N1  UNL     1      19.139  -7.794 105.841  1.00  0.00    -0.330 N 
HETATM    2  C4  UNL     1      17.801  -7.821 105.807  1.00  0.00     0.114 A 
HETATM    3  C5  UNL     1      17.308  -7.044 104.758  1.00  0.00     0.062 A 
HETATM    4  C7  UNL     1      18.415  -6.524 104.131  1.00  0.00     0.065 A 
HETATM    5  C19 UNL     1      19.505  -7.004 104.820  1.00  0.00     0.115 A 
ENDROOT
BRANCH   4   6
HETATM    6  C8  UNL     1      18.479  -5.666 102.972  1.00  0.00     0.261 C 
HETATM    7  O2  UNL     1      18.529  -6.244 101.864  1.00  0.00    -0.267 OA
HETATM    8  N3  UNL     1      18.485  -4.215 103.018  1.00  0.00    -0.298 N 
BRANCH   8   9
HETATM    9  C9  UNL     1      18.435  -3.544 104.255  1.00  0.00     0.180 C 
BRANCH   9  10
HETATM   10  C10 UNL     1      19.645  -3.154 104.931  1.00  0.00     0.215 C 
HETATM   11  O3  UNL     1      20.348  -2.169 104.628  1.00  0.00    -0.643 OA
HETATM   12  O4  UNL     1      20.086  -3.921 106.009  1.00  0.00    -0.643 OA
ENDBRANCH   9  10
ENDBRANCH   8   9
BRANCH   8  13
HETATM   13  C11 UNL     1      18.409  -3.531 101.736  1.00  0.00     0.215 C 
BRANCH  13  14
HETATM   14  C12 UNL     1      17.261  -2.584 101.799  1.00  0.00     0.045 C 
BRANCH  14  15
HETATM   15  C13 UNL     1      16.185  -2.718 100.800  1.00  0.00    -0.020 C 
HETATM   16  C14 UNL     1      16.353  -4.069 100.074  1.00  0.00     0.009 C 
HETATM   17  C15 UNL     1      16.428  -1.698  99.632  1.00  0.00     0.009 C 
ENDBRANCH  14  15
ENDBRANCH  13  14
BRANCH  13  18
HETATM   18  S1  UNL     1      19.911  -2.987 101.076  1.00  0.00     0.166 S 
HETATM   19  O5  UNL     1      21.001  -3.935 101.641  1.00  0.00    -0.226 OA
HETATM   20  O6  UNL     1      20.001  -3.269  99.576  1.00  0.00    -0.226 OA
BRANCH  18  21
HETATM   21  C16 UNL     1      20.472  -1.378 101.328  1.00  0.00     0.144 C 
BRANCH  21  22
HETATM   22  C17 UNL     1      21.912  -1.190 101.646  1.00  0.00     0.041 C 
BRANCH  22  23
HETATM   23  C18 UNL     1      22.221   0.097 102.343  1.00  0.00     0.165 C 
BRANCH  23  24
HETATM   24  O7  UNL     1      22.484  -0.265 103.701  1.00  0.00    -0.401 OA
ATOM     25  H7  UNL     1      23.176   0.319 103.986  1.00  0.00     0.209 HD
ENDBRANCH  23  24
ENDBRANCH  22  23
ENDBRANCH  21  22
ENDBRANCH  18  21
ENDBRANCH  13  18
ENDBRANCH   8  13
ENDBRANCH   4   6
BRANCH   3  26
HETATM   26  C6  UNL     1      15.917  -6.828 104.400  1.00  0.00     0.267 C 
HETATM   27  N2  UNL     1      15.541  -6.154 103.205  1.00  0.00    -0.057 NA
HETATM   28  O1  UNL     1      15.019  -7.247 105.165  1.00  0.00    -0.271 OA
ENDBRANCH   3  26
BRANCH   1  29
HETATM   29  C3  UNL     1      20.038  -8.433 106.731  1.00  0.00     0.045 A 
HETATM   30  C2  UNL     1      20.228  -7.914 107.989  1.00  0.00    -0.014 A 
HETATM   31  C1  UNL     1      19.501  -6.702 108.411  1.00  0.00     0.052 C 
HETATM   32  C23 UNL     1      21.109  -8.525 108.886  1.00  0.00     0.047 A 
HETATM   33  C22 UNL     1      21.786  -9.658 108.486  1.00  0.00     0.053 A 
HETATM   34  C21 UNL     1      21.610 -10.202 107.217  1.00  0.00     0.028 A 
HETATM   35 CL1  UNL     1      22.883 -10.424 109.596  1.00  0.00    -0.083 Cl
HETATM   36  C20 UNL     1      20.741  -9.584 106.359  1.00  0.00     0.032 A 
BRANCH  32  37
HETATM   37  C24 UNL     1      21.277  -7.944 110.197  1.00  0.00    -0.063 C 
HETATM   38  C25 UNL     1      21.418  -7.471 111.309  1.00  0.00    -0.075 C 
BRANCH  38  39
HETATM   39  C26 UNL     1      21.594  -6.919 112.652  1.00  0.00     0.093 C 
HETATM   40  C27 UNL     1      22.128  -5.503 112.614  1.00  0.00     0.046 C 
HETATM   41  C28 UNL     1      22.624  -7.771 113.361  1.00  0.00     0.046 C 
HETATM   42 CL2  UNL     1      20.043  -6.887 113.517  1.00  0.00    -0.106 Cl
ENDBRANCH  38  39
ENDBRANCH  32  37
ENDBRANCH   1  29
TORSDOF 15
ENDMDL
MODEL 2
REMARK VINA RESULT: -7.783902916      1.571      3.414
REMARK  15 active torsions:
REMARK  status: ('A' for Active; 'I' for Inactive)
REMARK    1  A    between atoms: C3_3  and  N1_4 
REMARK    2  A    between atoms: C5_6  and  C6_7 
REMARK    3  A    between atoms: C7_10  and  C8_11 
REMARK       I    between atoms: C8_11  and  N3_13 
REMARK    4  A    between atoms: N3_13  and  C9_14 
REMARK    5  A    between atoms: N3_13  and  C11_18 
REMARK    6  A    between atoms: C9_14  and  C10_15 
REMARK    7  A    between atoms: C11_18  and  C12_19 
REMARK    8  A    between atoms: C11_18  and  S1_23 
REMARK    9  A    between atoms: C12_19  and  C13_20 
REMARK   10  A    between atoms: S1_23  and  C16_26 
REMARK   11  A    between atoms: C16_26  and  C17_27 
REMARK   12  A    between atoms: C17_27  and  C18_28 
REMARK   13  A    between atoms: C18_28  and  O7_29 
REMARK   14  A    between atoms: C23_36  and  C24_37 
REMARK   15  A    between atoms: C25_38  and  C26_39 
ROOT
HETATM    1  N1  UNL     1      19.244  -7.845 105.941  1.00  0.00    -0.330 N 
HETATM    2  C4  UNL     1      17.922  -8.016 105.824  1.00  0.00     0.114 A 
HETATM    3  C5  UNL     1      17.413  -7.285 104.750  1.00  0.00     0.062 A 
HETATM    4  C7  UNL     1      18.493  -6.641 104.196  1.00  0.00     0.065 A 
HETATM    5  C19 UNL     1      19.584  -7.008 104.949  1.00  0.00     0.115 A 
ENDROOT
BRANCH   4   6
HETATM    6  C8  UNL     1      18.534  -5.767 103.048  1.00  0.00     0.261 C 
HETATM    7  O2  UNL     1      18.552  -6.329 101.931  1.00  0.00    -0.267 OA
HETATM    8  N3  UNL     1      18.552  -4.317 103.113  1.00  0.00    -0.298 N 
BRANCH   8   9
HETATM    9  C9  UNL     1      18.537  -3.663 104.361  1.00  0.00     0.180 C 
BRANCH   9  10
HETATM   10  C10 UNL     1      19.750  -3.134 104.929  1.00  0.00     0.215 C 
HETATM   11  O3  UNL     1      20.394  -2.170 104.470  1.00  0.00    -0.643 OA
HETATM   12  O4  UNL     1      20.263  -3.729 106.081  1.00  0.00    -0.643 OA
ENDBRANCH   9  10
ENDBRANCH   8   9
BRANCH   8  13
HETATM   13  C11 UNL     1      18.449  -3.615 101.843  1.00  0.00     0.215 C 
BRANCH  13  14
HETATM   14  C12 UNL     1      19.565  -4.088 100.977  1.00  0.00     0.045 C 
BRANCH  14  15
HETATM   15  C13 UNL     1      20.921  -3.570 101.235  1.00  0.00    -0.020 C 
HETATM   16  C14 UNL     1      20.909  -2.040 101.037  1.00  0.00     0.009 C 
HETATM   17  C15 UNL     1      21.883  -4.031 100.085  1.00  0.00     0.009 C 
ENDBRANCH  14  15
ENDBRANCH  13  14
BRANCH  13  18
HETATM   18  S1  UNL     1      16.861  -3.488 101.172  1.00  0.00     0.166 S 
HETATM   19  O5  UNL     1      16.502  -1.980 101.191  1.00  0.00    -0.226 OA
HETATM   20  O6  UNL     1      16.858  -3.790  99.673  1.00  0.00    -0.226 OA
BRANCH  18  21
HETATM   21  C16 UNL     1      15.524  -4.326 101.864  1.00  0.00     0.144 C 
BRANCH  21  22
HETATM   22  C17 UNL     1      14.248  -4.341 101.102  1.00  0.00     0.041 C 
BRANCH  22  23
HETATM   23  C18 UNL     1      13.400  -5.547 101.354  1.00  0.00     0.165 C 
BRANCH  23  24
HETATM   24  O7  UNL     1      13.196  -5.574 102.769  1.00  0.00    -0.401 OA
ATOM     25  H7  UNL     1      12.352  -5.991 102.892  1.00  0.00     0.209 HD
ENDBRANCH  23  24
ENDBRANCH  22  23
ENDBRANCH  21  22
ENDBRANCH  18  21
ENDBRANCH  13  18
ENDBRANCH   8  13
ENDBRANCH   4   6
BRANCH   3  26
HETATM   26  C6  UNL     1      16.031  -7.217 104.306  1.00  0.00     0.267 C 
HETATM   27  N2  UNL     1      14.953  -7.033 105.216  1.00  0.00    -0.057 NA
HETATM   28  O1  UNL     1      15.779  -7.322 103.084  1.00  0.00    -0.271 OA
ENDBRANCH   3  26
BRANCH   1  29
HETATM   29  C3  UNL     1      20.152  -8.394 106.882  1.00  0.00     0.045 A 
HETATM   30  C2  UNL     1      20.230  -7.849 108.141  1.00  0.00    -0.014 A 
HETATM   31  C1  UNL     1      19.378  -6.705 108.512  1.00  0.00     0.052 C 
HETATM   32  C23 UNL     1      21.117  -8.371 109.088  1.00  0.00     0.047 A 
HETATM   33  C22 UNL     1      21.912  -9.442 108.736  1.00  0.00     0.053 A 
HETATM   34  C21 UNL     1      21.849 -10.010 107.466  1.00  0.00     0.028 A 
HETATM   35 CL1  UNL     1      23.016 -10.097 109.907  1.00  0.00    -0.083 Cl
HETATM   36  C20 UNL     1      20.973  -9.479 106.560  1.00  0.00     0.032 A 
BRANCH  32  37
HETATM   37  C24 UNL     1      21.166  -7.768 110.398  1.00  0.00    -0.063 C 
HETATM   38  C25 UNL     1      21.205  -7.274 111.510  1.00  0.00    -0.075 C 
BRANCH  38  39
HETATM   39  C26 UNL     1      21.254  -6.700 112.854  1.00  0.00     0.093 C 
HETATM   40  C27 UNL     1      21.654  -5.240 112.828  1.00  0.00     0.046 C 
HETATM   41  C28 UNL     1      22.319  -7.445 113.628  1.00  0.00     0.046 C 
HETATM   42 CL2  UNL     1      19.661  -6.808 113.633  1.00  0.00    -0.106 Cl
ENDBRANCH  38  39
ENDBRANCH  32  37
ENDBRANCH   1  29
TORSDOF 15
ENDMDL
MODEL 3
REMARK VINA RESULT: -7.701117473      1.091      1.330
REMARK  15 active torsions:
REMARK  status: ('A' for Active; 'I' for Inactive)
REMARK    1  A    between atoms: C3_3  and  N1_4 
REMARK    2  A    between atoms: C5_6  and  C6_7 
REMARK    3  A    between atoms: C7_10  and  C8_11 
REMARK       I    between atoms: C8_11  and  N3_13 
REMARK    4  A    between atoms: N3_13  and  C9_14 
REMARK    5  A    between atoms: N3_13  and  C11_18 
REMARK    6  A    between atoms: C9_14  and  C10_15 
REMARK    7  A    between atoms: C11_18  and  C12_19 
REMARK    8  A    between atoms: C11_18  and  S1_23 
REMARK    9  A    between atoms: C12_19  and  C13_20 
REMARK   10  A    between atoms: S1_23  and  C16_26 
REMARK   11  A    between atoms: C16_26  and  C17_27 
REMARK   12  A    between atoms: C17_27  and  C18_28 
REMARK   13  A    between atoms: C18_28  and  O7_29 
REMARK   14  A    between atoms: C23_36  and  C24_37 
REMARK   15  A    between atoms: C25_38  and  C26_39 
ROOT
HETATM    1  N1  UNL     1      19.150  -7.738 105.838  1.00  0.00    -0.330 N 
HETATM    2  C4  UNL     1      17.813  -7.782 105.817  1.00  0.00     0.114 A 
HETATM    3  C5  UNL     1      17.301  -7.031 104.759  1.00  0.00     0.062 A 
HETATM    4  C7  UNL     1      18.395  -6.509 104.112  1.00  0.00     0.065 A 
HETATM    5  C19 UNL     1      19.497  -6.963 104.799  1.00  0.00     0.115 A 
ENDROOT
BRANCH   4   6
HETATM    6  C8  UNL     1      18.438  -5.672 102.937  1.00  0.00     0.261 C 
HETATM    7  O2  UNL     1      18.468  -6.270 101.838  1.00  0.00    -0.267 OA
HETATM    8  N3  UNL     1      18.444  -4.221 102.956  1.00  0.00    -0.298 N 
BRANCH   8   9
HETATM    9  C9  UNL     1      18.417  -3.528 104.182  1.00  0.00     0.180 C 
BRANCH   9  10
HETATM   10  C10 UNL     1      19.639  -3.146 104.840  1.00  0.00     0.215 C 
HETATM   11  O3  UNL     1      20.382  -2.210 104.481  1.00  0.00    -0.643 OA
HETATM   12  O4  UNL     1      20.044  -3.862 105.965  1.00  0.00    -0.643 OA
ENDBRANCH   9  10
ENDBRANCH   8   9
BRANCH   8  13
HETATM   13  C11 UNL     1      18.345  -3.560 101.663  1.00  0.00     0.215 C 
BRANCH  13  14
HETATM   14  C12 UNL     1      17.208  -2.600 101.736  1.00  0.00     0.045 C 
BRANCH  14  15
HETATM   15  C13 UNL     1      16.071  -2.787 100.817  1.00  0.00    -0.020 C 
HETATM   16  C14 UNL     1      16.263  -4.119 100.062  1.00  0.00     0.009 C 
HETATM   17  C15 UNL     1      16.166  -1.743  99.649  1.00  0.00     0.009 C 
ENDBRANCH  14  15
ENDBRANCH  13  14
BRANCH  13  18
HETATM   18  S1  UNL     1      19.836  -3.045 100.958  1.00  0.00     0.166 S 
HETATM   19  O5  UNL     1      19.551  -2.837  99.447  1.00  0.00    -0.226 OA
HETATM   20  O6  UNL     1      20.209  -1.630 101.401  1.00  0.00    -0.226 OA
BRANCH  18  21
HETATM   21  C16 UNL     1      21.261  -4.006 101.067  1.00  0.00     0.144 C 
BRANCH  21  22
HETATM   22  C17 UNL     1      22.136  -4.084  99.868  1.00  0.00     0.041 C 
BRANCH  22  23
HETATM   23  C18 UNL     1      23.194  -3.028  99.814  1.00  0.00     0.165 C 
BRANCH  23  24
HETATM   24  O7  UNL     1      22.529  -1.855  99.336  1.00  0.00    -0.401 OA
ATOM     25  H7  UNL     1      23.118  -1.137  99.534  1.00  0.00     0.209 HD
ENDBRANCH  23  24
ENDBRANCH  22  23
ENDBRANCH  21  22
ENDBRANCH  18  21
ENDBRANCH  13  18
ENDBRANCH   8  13
ENDBRANCH   4   6
BRANCH   3  26
HETATM   26  C6  UNL     1      15.904  -6.839 104.409  1.00  0.00     0.267 C 
HETATM   27  N2  UNL     1      15.508  -6.149 103.230  1.00  0.00    -0.057 NA
HETATM   28  O1  UNL     1      15.019  -7.295 105.169  1.00  0.00    -0.271 OA
ENDBRANCH   3  26
BRANCH   1  29
HETATM   29  C3  UNL     1      20.066  -8.349 106.731  1.00  0.00     0.045 A 
HETATM   30  C2  UNL     1      20.210  -7.845 108.001  1.00  0.00    -0.014 A 
HETATM   31  C1  UNL     1      19.419  -6.677 108.432  1.00  0.00     0.052 C 
HETATM   32  C23 UNL     1      21.106  -8.429 108.901  1.00  0.00     0.047 A 
HETATM   33  C22 UNL     1      21.844  -9.520 108.493  1.00  0.00     0.053 A 
HETATM   34  C21 UNL     1      21.715 -10.048 107.211  1.00  0.00     0.028 A 
HETATM   35 CL1  UNL     1      22.959 -10.252 109.606  1.00  0.00    -0.083 Cl
HETATM   36  C20 UNL     1      20.830  -9.457 106.351  1.00  0.00     0.032 A 
BRANCH  32  37
HETATM   37  C24 UNL     1      21.225  -7.865 110.225  1.00  0.00    -0.063 C 
HETATM   38  C25 UNL     1      21.333  -7.404 111.346  1.00  0.00    -0.075 C 
BRANCH  38  39
HETATM   39  C26 UNL     1      21.477  -6.865 112.698  1.00  0.00     0.093 C 
HETATM   40  C27 UNL     1      21.947  -5.425 112.682  1.00  0.00     0.046 C 
HETATM   41  C28 UNL     1      22.541  -7.679 113.401  1.00  0.00     0.046 C 
HETATM   42 CL2  UNL     1      19.922  -6.914 113.555  1.00  0.00    -0.106 Cl
ENDBRANCH  38  39
ENDBRANCH  32  37
ENDBRANCH   1  29
TORSDOF 15
ENDMDL
MODEL 4
REMARK VINA RESULT: -7.569923916      1.923      3.662
REMARK  15 active torsions:
REMARK  status: ('A' for Active; 'I' for Inactive)
REMARK    1  A    between atoms: C3_3  and  N1_4 
REMARK    2  A    between atoms: C5_6  and  C6_7 
REMARK    3  A    between atoms: C7_10  and  C8_11 
REMARK       I    between atoms: C8_11  and  N3_13 
REMARK    4  A    between atoms: N3_13  and  C9_14 
REMARK    5  A    between atoms: N3_13  and  C11_18 
REMARK    6  A    between atoms: C9_14  and  C10_15 
REMARK    7  A    between atoms: C11_18  and  C12_19 
REMARK    8  A    between atoms: C11_18  and  S1_23 
REMARK    9  A    between atoms: C12_19  and  C13_20 
REMARK   10  A    between atoms: S1_23  and  C16_26 
REMARK   11  A    between atoms: C16_26  and  C17_27 
REMARK   12  A    between atoms: C17_27  and  C18_28 
REMARK   13  A    between atoms: C18_28  and  O7_29 
REMARK   14  A    between atoms: C23_36  and  C24_37 
REMARK   15  A    between atoms: C25_38  and  C26_39 
ROOT
HETATM    1  N1  UNL     1      19.802  -7.963 106.498  1.00  0.00    -0.330 N 
HETATM    2  C4  UNL     1      18.538  -8.381 106.366  1.00  0.00     0.114 A 
HETATM    3  C5  UNL     1      17.942  -7.830 105.231  1.00  0.00     0.062 A 
HETATM    4  C7  UNL     1      18.906  -7.038 104.654  1.00  0.00     0.065 A 
HETATM    5  C19 UNL     1      20.019  -7.147 105.455  1.00  0.00     0.115 A 
ENDROOT
BRANCH   4   6
HETATM    6  C8  UNL     1      18.828  -6.252 103.446  1.00  0.00     0.261 C 
HETATM    7  O2  UNL     1      18.793  -6.895 102.374  1.00  0.00    -0.267 OA
HETATM    8  N3  UNL     1      18.785  -4.801 103.406  1.00  0.00    -0.298 N 
BRANCH   8   9
HETATM    9  C9  UNL     1      18.830  -4.057 104.601  1.00  0.00     0.180 C 
BRANCH   9  10
HETATM   10  C10 UNL     1      19.295  -2.695 104.604  1.00  0.00     0.215 C 
HETATM   11  O3  UNL     1      18.902  -1.803 103.825  1.00  0.00    -0.643 OA
HETATM   12  O4  UNL     1      20.260  -2.320 105.538  1.00  0.00    -0.643 OA
ENDBRANCH   9  10
ENDBRANCH   8   9
BRANCH   8  13
HETATM   13  C11 UNL     1      18.563  -4.201 102.100  1.00  0.00     0.215 C 
BRANCH  13  14
HETATM   14  C12 UNL     1      19.639  -4.689 101.192  1.00  0.00     0.045 C 
BRANCH  14  15
HETATM   15  C13 UNL     1      20.534  -3.697 100.569  1.00  0.00    -0.020 C 
HETATM   16  C14 UNL     1      21.594  -4.446  99.735  1.00  0.00     0.009 C 
HETATM   17  C15 UNL     1      21.419  -3.024 101.677  1.00  0.00     0.009 C 
ENDBRANCH  14  15
ENDBRANCH  13  14
BRANCH  13  18
HETATM   18  S1  UNL     1      16.928  -4.193 101.537  1.00  0.00     0.166 S 
HETATM   19  O5  UNL     1      16.521  -2.702 101.412  1.00  0.00    -0.226 OA
HETATM   20  O6  UNL     1      16.832  -4.665 100.085  1.00  0.00    -0.226 OA
BRANCH  18  21
HETATM   21  C16 UNL     1      15.673  -4.980 102.414  1.00  0.00     0.144 C 
BRANCH  21  22
HETATM   22  C17 UNL     1      15.085  -6.213 101.825  1.00  0.00     0.041 C 
BRANCH  22  23
HETATM   23  C18 UNL     1      13.592  -6.266 101.883  1.00  0.00     0.165 C 
BRANCH  23  24
HETATM   24  O7  UNL     1      13.279  -6.542 103.251  1.00  0.00    -0.401 OA
ATOM     25  H7  UNL     1      12.369  -6.291 103.354  1.00  0.00     0.209 HD
ENDBRANCH  23  24
ENDBRANCH  22  23
ENDBRANCH  21  22
ENDBRANCH  18  21
ENDBRANCH  13  18
ENDBRANCH   8  13
ENDBRANCH   4   6
BRANCH   3  26
HETATM   26  C6  UNL     1      16.587  -8.046 104.753  1.00  0.00     0.267 C 
HETATM   27  N2  UNL     1      15.486  -7.285 105.234  1.00  0.00    -0.057 NA
HETATM   28  O1  UNL     1      16.380  -8.930 103.891  1.00  0.00    -0.271 OA
ENDBRANCH   3  26
BRANCH   1  29
HETATM   29  C3  UNL     1      20.762  -8.271 107.496  1.00  0.00     0.045 A 
HETATM   30  C2  UNL     1      20.645  -7.705 108.742  1.00  0.00    -0.014 A 
HETATM   31  C1  UNL     1      19.531  -6.785 109.041  1.00  0.00     0.052 C 
HETATM   32  C23 UNL     1      21.576  -7.991 109.745  1.00  0.00     0.047 A 
HETATM   33  C22 UNL     1      22.616  -8.852 109.460  1.00  0.00     0.053 A 
HETATM   34  C21 UNL     1      22.754  -9.437 108.204  1.00  0.00     0.028 A 
HETATM   35 CL1  UNL     1      23.778  -9.215 110.700  1.00  0.00    -0.083 Cl
HETATM   36  C20 UNL     1      21.828  -9.139 107.243  1.00  0.00     0.032 A 
BRANCH  32  37
HETATM   37  C24 UNL     1      21.415  -7.374 111.039  1.00  0.00    -0.063 C 
HETATM   38  C25 UNL     1      21.286  -6.867 112.138  1.00  0.00    -0.075 C 
BRANCH  38  39
HETATM   39  C26 UNL     1      21.144  -6.271 113.466  1.00  0.00     0.093 C 
HETATM   40  C27 UNL     1      22.168  -6.815 114.439  1.00  0.00     0.046 C 
HETATM   41  C28 UNL     1      19.776  -6.651 113.990  1.00  0.00     0.046 C 
HETATM   42 CL2  UNL     1      21.363  -4.510 113.382  1.00  0.00    -0.106 Cl
ENDBRANCH  38  39
ENDBRANCH  32  37
ENDBRANCH   1  29
TORSDOF 15
ENDMDL
MODEL 5
REMARK VINA RESULT: -7.497391976      1.644      3.778
REMARK  15 active torsions:
REMARK  status: ('A' for Active; 'I' for Inactive)
REMARK    1  A    between atoms: C3_3  and  N1_4 
REMARK    2  A    between atoms: C5_6  and  C6_7 
REMARK    3  A    between atoms: C7_10  and  C8_11 
REMARK       I    between atoms: C8_11  and  N3_13 
REMARK    4  A    between atoms: N3_13  and  C9_14 
REMARK    5  A    between atoms: N3_13  and  C11_18 
REMARK    6  A    between atoms: C9_14  and  C10_15 
REMARK    7  A    between atoms: C11_18  and  C12_19 
REMARK    8  A    between atoms: C11_18  and  S1_23 
REMARK    9  A    between atoms: C12_19  and  C13_20 
REMARK   10  A    between atoms: S1_23  and  C16_26 
REMARK   11  A    between atoms: C16_26  and  C17_27 
REMARK   12  A    between atoms: C17_27  and  C18_28 
REMARK   13  A    between atoms: C18_28  and  O7_29 
REMARK   14  A    between atoms: C23_36  and  C24_37 
REMARK   15  A    between atoms: C25_38  and  C26_39 
ROOT
HETATM    1  N1  UNL     1      19.503  -7.428 106.117  1.00  0.00    -0.330 N 
HETATM    2  C4  UNL     1      18.358  -7.912 105.621  1.00  0.00     0.114 A 
HETATM    3  C5  UNL     1      17.754  -6.994 104.761  1.00  0.00     0.062 A 
HETATM    4  C7  UNL     1      18.586  -5.901 104.742  1.00  0.00     0.065 A 
HETATM    5  C19 UNL     1      19.635  -6.206 105.579  1.00  0.00     0.115 A 
ENDROOT
BRANCH   4   6
HETATM    6  C8  UNL     1      18.449  -4.671 104.000  1.00  0.00     0.261 C 
HETATM    7  O2  UNL     1      18.170  -3.653 104.671  1.00  0.00    -0.267 OA
HETATM    8  N3  UNL     1      18.615  -4.550 102.562  1.00  0.00    -0.298 N 
BRANCH   8   9
HETATM    9  C9  UNL     1      18.924  -5.684 101.787  1.00  0.00     0.180 C 
BRANCH   9  10
HETATM   10  C10 UNL     1      19.461  -5.544 100.458  1.00  0.00     0.215 C 
HETATM   11  O3  UNL     1      20.666  -5.367 100.189  1.00  0.00    -0.643 OA
HETATM   12  O4  UNL     1      18.586  -5.607  99.374  1.00  0.00    -0.643 OA
ENDBRANCH   9  10
ENDBRANCH   8   9
BRANCH   8  13
HETATM   13  C11 UNL     1      18.577  -3.200 102.023  1.00  0.00     0.215 C 
BRANCH  13  14
HETATM   14  C12 UNL     1      19.966  -2.836 101.624  1.00  0.00     0.045 C 
BRANCH  14  15
HETATM   15  C13 UNL     1      20.638  -1.740 102.346  1.00  0.00    -0.020 C 
HETATM   16  C14 UNL     1      20.471  -0.440 101.532  1.00  0.00     0.009 C 
HETATM   17  C15 UNL     1      22.192  -1.953 102.289  1.00  0.00     0.009 C 
ENDBRANCH  14  15
ENDBRANCH  13  14
BRANCH  13  18
HETATM   18  S1  UNL     1      17.275  -2.851 100.940  1.00  0.00     0.166 S 
HETATM   19  O5  UNL     1      16.625  -1.540 101.454  1.00  0.00    -0.226 OA
HETATM   20  O6  UNL     1      17.787  -2.427  99.563  1.00  0.00    -0.226 OA
BRANCH  18  21
HETATM   21  C16 UNL     1      15.995  -3.974 100.685  1.00  0.00     0.144 C 
BRANCH  21  22
HETATM   22  C17 UNL     1      15.143  -4.329 101.851  1.00  0.00     0.041 C 
BRANCH  22  23
HETATM   23  C18 UNL     1      13.999  -5.232 101.520  1.00  0.00     0.165 C 
BRANCH  23  24
HETATM   24  O7  UNL     1      13.265  -5.372 102.740  1.00  0.00    -0.401 OA
ATOM     25  H7  UNL     1      12.759  -4.572 102.820  1.00  0.00     0.209 HD
ENDBRANCH  23  24
ENDBRANCH  22  23
ENDBRANCH  21  22
ENDBRANCH  18  21
ENDBRANCH  13  18
ENDBRANCH   8  13
ENDBRANCH   4   6
BRANCH   3  26
HETATM   26  C6  UNL     1      16.507  -7.157 104.033  1.00  0.00     0.267 C 
HETATM   27  N2  UNL     1      15.240  -7.002 104.660  1.00  0.00    -0.057 NA
HETATM   28  O1  UNL     1      16.547  -7.443 102.814  1.00  0.00    -0.271 OA
ENDBRANCH   3  26
BRANCH   1  29
HETATM   29  C3  UNL     1      20.425  -8.019 107.017  1.00  0.00     0.045 A 
HETATM   30  C2  UNL     1      20.474  -7.579 108.318  1.00  0.00    -0.014 A 
HETATM   31  C1  UNL     1      19.575  -6.502 108.775  1.00  0.00     0.052 C 
HETATM   32  C23 UNL     1      21.373  -8.144 109.227  1.00  0.00     0.047 A 
HETATM   33  C22 UNL     1      22.212  -9.150 108.795  1.00  0.00     0.053 A 
HETATM   34  C21 UNL     1      22.180  -9.611 107.482  1.00  0.00     0.028 A 
HETATM   35 CL1  UNL     1      23.333  -9.859 109.919  1.00  0.00    -0.083 Cl
HETATM   36  C20 UNL     1      21.289  -9.041 106.614  1.00  0.00     0.032 A 
BRANCH  32  37
HETATM   37  C24 UNL     1      21.390  -7.651 110.584  1.00  0.00    -0.063 C 
HETATM   38  C25 UNL     1      21.414  -7.248 111.732  1.00  0.00    -0.075 C 
BRANCH  38  39
HETATM   39  C26 UNL     1      21.459  -6.777 113.116  1.00  0.00     0.093 C 
HETATM   40  C27 UNL     1      21.835  -5.313 113.200  1.00  0.00     0.046 C 
HETATM   41  C28 UNL     1      22.538  -7.562 113.828  1.00  0.00     0.046 C 
HETATM   42 CL2  UNL     1      19.870  -6.970 113.888  1.00  0.00    -0.106 Cl
ENDBRANCH  38  39
ENDBRANCH  32  37
ENDBRANCH   1  29
TORSDOF 15
ENDMDL
