MODEL 1
REMARK VINA RESULT: -7.701246778      0.000      0.000
REMARK  8 active torsions:
REMARK  status: ('A' for Active; 'I' for Inactive)
REMARK    1  A    between atoms: C6_8  and  C7_9 
REMARK    2  A    between atoms: C7_9  and  C9_11 
REMARK    3  A    between atoms: C9_11  and  C10_12 
REMARK    4  A    between atoms: C10_12  and  C11_13 
REMARK    5  A    between atoms: C11_13  and  C12_14 
REMARK    6  A    between atoms: C20_22  and  O1_24 
REMARK    7  A    between atoms: C22_26  and  C23_27 
REMARK    8  A    between atoms: C23_27  and  O2_28 
ROOT
HETATM    1  C1  UNL     1      65.737  51.288  10.462  1.00  0.00     0.063 C 
HETATM    2  C2  UNL     1      66.646  50.274  11.016  1.00  0.00    -0.018 C 
HETATM    3  N1  UNL     1      67.641  50.722  11.688  1.00  0.00    -0.396 N 
ATOM      4  H1  UNL     1      67.727  51.734  11.786  1.00  0.00     0.159 HD
HETATM    5  C3  UNL     1      68.644  49.906  12.312  1.00  0.00     0.129 C 
HETATM    6  C4  UNL     1      69.503  49.384  11.166  1.00  0.00    -0.020 C 
HETATM    7  C5  UNL     1      69.771  50.390  10.104  1.00  0.00     0.018 C 
HETATM    8  C6  UNL     1      70.710  48.761  11.755  1.00  0.00    -0.001 C 
HETATM    9  C15 UNL     1      70.990  47.521  10.878  1.00  0.00     0.006 C 
HETATM   10  C16 UNL     1      69.830  47.476   9.870  1.00  0.00     0.006 C 
HETATM   11  C17 UNL     1      68.784  48.157  10.674  1.00  0.00     0.001 C 
HETATM   12  C18 UNL     1      67.498  48.196  10.034  1.00  0.00     0.003 C 
HETATM   13  C19 UNL     1      67.388  48.598   8.598  1.00  0.00     0.043 C 
HETATM   14  C20 UNL     1      66.121  47.968   8.044  1.00  0.00     0.060 C 
HETATM   15  C21 UNL     1      66.354  46.478   7.973  1.00  0.00     0.046 C 
HETATM   16  C22 UNL     1      64.895  48.378   8.749  1.00  0.00     0.044 C 
HETATM   17  C24 UNL     1      65.004  48.557  10.226  1.00  0.00     0.020 C 
HETATM   18  C25 UNL     1      66.346  48.825  10.766  1.00  0.00     0.035 C 
ENDROOT
BRANCH   8  19
HETATM   19  C7  UNL     1      72.019  49.526  11.701  1.00  0.00    -0.014 C 
HETATM   20  C8  UNL     1      72.735  49.555  12.994  1.00  0.00     0.010 C 
BRANCH  19  21
HETATM   21  C9  UNL     1      72.808  48.711  10.714  1.00  0.00     0.005 C 
BRANCH  21  22
HETATM   22  C10 UNL     1      73.456  49.305   9.560  1.00  0.00     0.001 C 
BRANCH  22  23
HETATM   23  C11 UNL     1      73.350  48.649   8.238  1.00  0.00     0.004 C 
BRANCH  23  24
HETATM   24  C12 UNL     1      72.689  49.599   7.213  1.00  0.00    -0.023 C 
HETATM   25  C13 UNL     1      72.828  50.983   7.754  1.00  0.00     0.009 C 
HETATM   26  C14 UNL     1      71.287  49.186   6.917  1.00  0.00     0.009 C 
ENDBRANCH  23  24
ENDBRANCH  22  23
ENDBRANCH  21  22
ENDBRANCH  19  21
ENDBRANCH   8  19
BRANCH  14  27
HETATM   27  O1  UNL     1      66.043  48.390   6.693  1.00  0.00    -0.390 OA
ATOM     28  H1  UNL     1      65.310  47.917   6.318  1.00  0.00     0.210 HD
ENDBRANCH  14  27
BRANCH  16  29
HETATM   29  C23 UNL     1      63.791  47.385   8.457  1.00  0.00     0.171 C 
BRANCH  29  30
HETATM   30  O2  UNL     1      63.147  47.679   7.254  1.00  0.00    -0.400 OA
ATOM     31  H2  UNL     1      62.564  48.424   7.347  1.00  0.00     0.209 HD
ENDBRANCH  29  30
ENDBRANCH  16  29
TORSDOF 8
ENDMDL
MODEL 2
REMARK VINA RESULT: -7.646683213      3.278      6.596
REMARK  8 active torsions:
REMARK  status: ('A' for Active; 'I' for Inactive)
REMARK    1  A    between atoms: C6_8  and  C7_9 
REMARK    2  A    between atoms: C7_9  and  C9_11 
REMARK    3  A    between atoms: C9_11  and  C10_12 
REMARK    4  A    between atoms: C10_12  and  C11_13 
REMARK    5  A    between atoms: C11_13  and  C12_14 
REMARK    6  A    between atoms: C20_22  and  O1_24 
REMARK    7  A    between atoms: C22_26  and  C23_27 
REMARK    8  A    between atoms: C23_27  and  O2_28 
ROOT
HETATM    1  C1  UNL     1      70.029  47.123   7.876  1.00  0.00     0.063 C 
HETATM    2  C2  UNL     1      69.292  47.463   9.101  1.00  0.00    -0.018 C 
HETATM    3  N1  UNL     1      68.095  47.887   8.935  1.00  0.00    -0.396 N 
ATOM      4  H1  UNL     1      67.747  47.956   7.979  1.00  0.00     0.159 HD
HETATM    5  C3  UNL     1      67.205  48.273   9.995  1.00  0.00     0.129 C 
HETATM    6  C4  UNL     1      67.735  49.614  10.492  1.00  0.00    -0.020 C 
HETATM    7  C5  UNL     1      68.203  50.518   9.407  1.00  0.00     0.018 C 
HETATM    8  C6  UNL     1      66.716  50.195  11.393  1.00  0.00    -0.001 C 
HETATM    9  C15 UNL     1      67.520  50.869  12.526  1.00  0.00     0.006 C 
HETATM   10  C16 UNL     1      68.990  50.537  12.223  1.00  0.00     0.006 C 
HETATM   11  C17 UNL     1      68.803  49.259  11.491  1.00  0.00     0.001 C 
HETATM   12  C18 UNL     1      70.036  48.612  11.136  1.00  0.00     0.003 C 
HETATM   13  C19 UNL     1      71.146  49.401  10.521  1.00  0.00     0.043 C 
HETATM   14  C20 UNL     1      72.447  48.679  10.834  1.00  0.00     0.060 C 
HETATM   15  C21 UNL     1      72.695  48.821  12.315  1.00  0.00     0.046 C 
HETATM   16  C22 UNL     1      72.500  47.299  10.319  1.00  0.00     0.044 C 
HETATM   17  C24 UNL     1      71.230  46.519  10.374  1.00  0.00     0.020 C 
HETATM   18  C25 UNL     1      69.978  47.288  10.425  1.00  0.00     0.035 C 
ENDROOT
BRANCH   8  19
HETATM   19  C7  UNL     1      65.844  51.321  10.871  1.00  0.00    -0.014 C 
HETATM   20  C8  UNL     1      64.418  50.948  10.744  1.00  0.00     0.010 C 
BRANCH  19  21
HETATM   21  C9  UNL     1      65.994  52.352  11.954  1.00  0.00     0.005 C 
BRANCH  21  22
HETATM   22  C10 UNL     1      65.931  53.776  11.684  1.00  0.00     0.001 C 
BRANCH  22  23
HETATM   23  C11 UNL     1      67.180  54.549  11.513  1.00  0.00     0.004 C 
BRANCH  23  24
HETATM   24  C12 UNL     1      67.798  54.279  10.122  1.00  0.00    -0.023 C 
HETATM   25  C13 UNL     1      69.136  53.659  10.357  1.00  0.00     0.009 C 
HETATM   26  C14 UNL     1      67.826  55.517   9.291  1.00  0.00     0.009 C 
ENDBRANCH  23  24
ENDBRANCH  22  23
ENDBRANCH  21  22
ENDBRANCH  19  21
ENDBRANCH   8  19
BRANCH  14  27
HETATM   27  O1  UNL     1      73.468  49.444  10.216  1.00  0.00    -0.390 OA
ATOM     28  H1  UNL     1      73.035  50.213   9.864  1.00  0.00     0.210 HD
ENDBRANCH  14  27
BRANCH  16  29
HETATM   29  C23 UNL     1      73.579  46.531  11.051  1.00  0.00     0.171 C 
BRANCH  29  30
HETATM   30  O2  UNL     1      74.843  46.806  10.528  1.00  0.00    -0.400 OA
ATOM     31  H2  UNL     1      75.531  46.484  11.099  1.00  0.00     0.209 HD
ENDBRANCH  29  30
ENDBRANCH  16  29
TORSDOF 8
ENDMDL
MODEL 3
REMARK VINA RESULT: -7.575216902      3.495      6.784
REMARK  8 active torsions:
REMARK  status: ('A' for Active; 'I' for Inactive)
REMARK    1  A    between atoms: C6_8  and  C7_9 
REMARK    2  A    between atoms: C7_9  and  C9_11 
REMARK    3  A    between atoms: C9_11  and  C10_12 
REMARK    4  A    between atoms: C10_12  and  C11_13 
REMARK    5  A    between atoms: C11_13  and  C12_14 
REMARK    6  A    between atoms: C20_22  and  O1_24 
REMARK    7  A    between atoms: C22_26  and  C23_27 
REMARK    8  A    between atoms: C23_27  and  O2_28 
ROOT
HETATM    1  C1  UNL     1      74.442  46.519   9.881  1.00  0.00     0.063 C 
HETATM    2  C2  UNL     1      73.805  47.842   9.946  1.00  0.00    -0.018 C 
HETATM    3  N1  UNL     1      73.382  48.203  11.100  1.00  0.00    -0.396 N 
ATOM      4  H1  UNL     1      73.516  47.555  11.876  1.00  0.00     0.159 HD
HETATM    5  C3  UNL     1      72.732  49.453  11.383  1.00  0.00     0.129 C 
HETATM    6  C4  UNL     1      71.336  49.320  10.783  1.00  0.00    -0.020 C 
HETATM    7  C5  UNL     1      70.719  47.981  10.978  1.00  0.00     0.018 C 
HETATM    8  C6  UNL     1      70.526  50.458  11.271  1.00  0.00    -0.001 C 
HETATM    9  C15 UNL     1      69.647  50.869  10.070  1.00  0.00     0.006 C 
HETATM   10  C16 UNL     1      70.098  49.958   8.916  1.00  0.00     0.006 C 
HETATM   11  C17 UNL     1      71.499  49.709   9.339  1.00  0.00     0.001 C 
HETATM   12  C18 UNL     1      72.260  48.940   8.392  1.00  0.00     0.003 C 
HETATM   13  C19 UNL     1      71.675  47.703   7.791  1.00  0.00     0.043 C 
HETATM   14  C20 UNL     1      72.360  47.479   6.452  1.00  0.00     0.060 C 
HETATM   15  C21 UNL     1      71.897  48.573   5.521  1.00  0.00     0.046 C 
HETATM   16  C22 UNL     1      73.820  47.316   6.551  1.00  0.00     0.044 C 
HETATM   17  C24 UNL     1      74.516  48.158   7.567  1.00  0.00     0.020 C 
HETATM   18  C25 UNL     1      73.706  48.655   8.688  1.00  0.00     0.035 C 
ENDROOT
BRANCH   8  19
HETATM   19  C7  UNL     1      69.513  50.207  12.371  1.00  0.00    -0.014 C 
HETATM   20  C8  UNL     1      69.691  51.088  13.545  1.00  0.00     0.010 C 
BRANCH  19  21
HETATM   21  C9  UNL     1      68.222  50.551  11.682  1.00  0.00     0.005 C 
BRANCH  21  22
HETATM   22  C10 UNL     1      67.207  51.380  12.305  1.00  0.00     0.001 C 
BRANCH  22  23
HETATM   23  C11 UNL     1      66.447  52.351  11.488  1.00  0.00     0.004 C 
BRANCH  23  24
HETATM   24  C12 UNL     1      67.133  53.737  11.515  1.00  0.00    -0.023 C 
HETATM   25  C13 UNL     1      66.073  54.736  11.843  1.00  0.00     0.009 C 
HETATM   26  C14 UNL     1      67.865  54.004  10.244  1.00  0.00     0.009 C 
ENDBRANCH  23  24
ENDBRANCH  22  23
ENDBRANCH  21  22
ENDBRANCH  19  21
ENDBRANCH   8  19
BRANCH  14  27
HETATM   27  O1  UNL     1      71.795  46.289   5.928  1.00  0.00    -0.390 OA
ATOM     28  H1  UNL     1      72.522  45.800   5.562  1.00  0.00     0.210 HD
ENDBRANCH  14  27
BRANCH  16  29
HETATM   29  C23 UNL     1      74.447  47.565   5.197  1.00  0.00     0.171 C 
BRANCH  29  30
HETATM   30  O2  UNL     1      74.507  46.393   4.442  1.00  0.00    -0.400 OA
ATOM     31  H2  UNL     1      75.375  46.259   4.078  1.00  0.00     0.209 HD
ENDBRANCH  29  30
ENDBRANCH  16  29
TORSDOF 8
ENDMDL
MODEL 4
REMARK VINA RESULT: -7.489206540      2.053      2.920
REMARK  8 active torsions:
REMARK  status: ('A' for Active; 'I' for Inactive)
REMARK    1  A    between atoms: C6_8  and  C7_9 
REMARK    2  A    between atoms: C7_9  and  C9_11 
REMARK    3  A    between atoms: C9_11  and  C10_12 
REMARK    4  A    between atoms: C10_12  and  C11_13 
REMARK    5  A    between atoms: C11_13  and  C12_14 
REMARK    6  A    between atoms: C20_22  and  O1_24 
REMARK    7  A    between atoms: C22_26  and  C23_27 
REMARK    8  A    between atoms: C23_27  and  O2_28 
ROOT
HETATM    1  C1  UNL     1      67.449  53.239  11.703  1.00  0.00     0.063 C 
HETATM    2  C2  UNL     1      68.162  51.979  11.955  1.00  0.00    -0.018 C 
HETATM    3  N1  UNL     1      69.426  52.002  11.753  1.00  0.00    -0.396 N 
ATOM      4  H1  UNL     1      69.838  52.879  11.438  1.00  0.00     0.159 HD
HETATM    5  C3  UNL     1      70.308  50.882  11.937  1.00  0.00     0.129 C 
HETATM    6  C4  UNL     1      70.019  49.951  10.765  1.00  0.00    -0.020 C 
HETATM    7  C5  UNL     1      69.804  50.655   9.472  1.00  0.00     0.018 C 
HETATM    8  C6  UNL     1      71.075  48.915  10.743  1.00  0.00    -0.001 C 
HETATM    9  C15 UNL     1      70.350  47.612  10.341  1.00  0.00     0.006 C 
HETATM   10  C16 UNL     1      68.865  47.996  10.245  1.00  0.00     0.006 C 
HETATM   11  C17 UNL     1      68.844  49.123  11.210  1.00  0.00     0.001 C 
HETATM   12  C18 UNL     1      67.532  49.667  11.434  1.00  0.00     0.003 C 
HETATM   13  C19 UNL     1      66.637  49.964  10.275  1.00  0.00     0.043 C 
HETATM   14  C20 UNL     1      65.204  49.905  10.779  1.00  0.00     0.060 C 
HETATM   15  C21 UNL     1      64.898  48.462  11.098  1.00  0.00     0.046 C 
HETATM   16  C22 UNL     1      64.915  50.860  11.863  1.00  0.00     0.044 C 
HETATM   17  C24 UNL     1      66.002  51.089  12.857  1.00  0.00     0.020 C 
HETATM   18  C25 UNL     1      67.375  50.789  12.423  1.00  0.00     0.035 C 
ENDROOT
BRANCH   8  19
HETATM   19  C7  UNL     1      72.180  49.028   9.710  1.00  0.00    -0.014 C 
HETATM   20  C8  UNL     1      73.536  48.872  10.281  1.00  0.00     0.010 C 
BRANCH  19  21
HETATM   21  C9  UNL     1      71.881  47.860   8.813  1.00  0.00     0.005 C 
BRANCH  21  22
HETATM   22  C10 UNL     1      71.953  47.953   7.367  1.00  0.00     0.001 C 
BRANCH  22  23
HETATM   23  C11 UNL     1      71.656  49.237   6.696  1.00  0.00     0.004 C 
BRANCH  23  24
HETATM   24  C12 UNL     1      70.478  49.074   5.709  1.00  0.00    -0.023 C 
HETATM   25  C13 UNL     1      70.500  50.265   4.809  1.00  0.00     0.009 C 
HETATM   26  C14 UNL     1      69.190  48.864   6.429  1.00  0.00     0.009 C 
ENDBRANCH  23  24
ENDBRANCH  22  23
ENDBRANCH  21  22
ENDBRANCH  19  21
ENDBRANCH   8  19
BRANCH  14  27
HETATM   27  O1  UNL     1      64.391  50.213   9.660  1.00  0.00    -0.390 OA
ATOM     28  H1  UNL     1      63.499  50.034   9.933  1.00  0.00     0.210 HD
ENDBRANCH  14  27
BRANCH  16  29
HETATM   29  C23 UNL     1      63.664  50.425  12.596  1.00  0.00     0.171 C 
BRANCH  29  30
HETATM   30  O2  UNL     1      62.523  51.012  12.047  1.00  0.00    -0.400 OA
ATOM     31  H2  UNL     1      61.891  50.355  11.778  1.00  0.00     0.209 HD
ENDBRANCH  29  30
ENDBRANCH  16  29
TORSDOF 8
ENDMDL
MODEL 5
REMARK VINA RESULT: -7.487482336      3.382      4.578
REMARK  8 active torsions:
REMARK  status: ('A' for Active; 'I' for Inactive)
REMARK    1  A    between atoms: C6_8  and  C7_9 
REMARK    2  A    between atoms: C7_9  and  C9_11 
REMARK    3  A    between atoms: C9_11  and  C10_12 
REMARK    4  A    between atoms: C10_12  and  C11_13 
REMARK    5  A    between atoms: C11_13  and  C12_14 
REMARK    6  A    between atoms: C20_22  and  O1_24 
REMARK    7  A    between atoms: C22_26  and  C23_27 
REMARK    8  A    between atoms: C23_27  and  O2_28 
ROOT
HETATM    1  C1  UNL     1      71.531  51.301  14.041  1.00  0.00     0.063 C 
HETATM    2  C2  UNL     1      71.218  49.999  13.435  1.00  0.00    -0.018 C 
HETATM    3  N1  UNL     1      72.115  49.093  13.559  1.00  0.00    -0.396 N 
ATOM      4  H1  UNL     1      72.967  49.339  14.062  1.00  0.00     0.159 HD
HETATM    5  C3  UNL     1      72.010  47.756  13.043  1.00  0.00     0.129 C 
HETATM    6  C4  UNL     1      72.193  47.896  11.536  1.00  0.00    -0.020 C 
HETATM    7  C5  UNL     1      73.241  48.875  11.143  1.00  0.00     0.018 C 
HETATM    8  C6  UNL     1      72.367  46.537  10.976  1.00  0.00    -0.001 C 
HETATM    9  C15 UNL     1      71.610  46.558   9.630  1.00  0.00     0.006 C 
HETATM   10  C16 UNL     1      70.963  47.951   9.559  1.00  0.00     0.006 C 
HETATM   11  C17 UNL     1      70.822  48.227  11.011  1.00  0.00     0.001 C 
HETATM   12  C18 UNL     1      70.139  49.458  11.301  1.00  0.00     0.003 C 
HETATM   13  C19 UNL     1      70.509  50.709  10.572  1.00  0.00     0.043 C 
HETATM   14  C20 UNL     1      69.294  51.623  10.590  1.00  0.00     0.060 C 
HETATM   15  C21 UNL     1      68.247  50.997   9.703  1.00  0.00     0.046 C 
HETATM   16  C22 UNL     1      68.837  51.978  11.945  1.00  0.00     0.044 C 
HETATM   17  C24 UNL     1      68.930  50.908  12.980  1.00  0.00     0.020 C 
HETATM   18  C25 UNL     1      69.899  49.829  12.738  1.00  0.00     0.035 C 
ENDROOT
BRANCH   8  19
HETATM   19  C7  UNL     1      73.761  46.088  10.582  1.00  0.00    -0.014 C 
HETATM   20  C8  UNL     1      74.168  44.814  11.213  1.00  0.00     0.010 C 
BRANCH  19  21
HETATM   21  C9  UNL     1      73.609  45.884   9.101  1.00  0.00     0.005 C 
BRANCH  21  22
HETATM   22  C10 UNL     1      74.589  46.365   8.146  1.00  0.00     0.001 C 
BRANCH  22  23
HETATM   23  C11 UNL     1      74.829  47.818   8.007  1.00  0.00     0.004 C 
BRANCH  23  24
HETATM   24  C12 UNL     1      73.727  48.469   7.140  1.00  0.00    -0.023 C 
HETATM   25  C13 UNL     1      74.173  48.359   5.720  1.00  0.00     0.009 C 
HETATM   26  C14 UNL     1      73.432  49.859   7.592  1.00  0.00     0.009 C 
ENDBRANCH  23  24
ENDBRANCH  22  23
ENDBRANCH  21  22
ENDBRANCH  19  21
ENDBRANCH   8  19
BRANCH  14  27
HETATM   27  O1  UNL     1      69.692  52.802   9.912  1.00  0.00    -0.390 OA
ATOM     28  H1  UNL     1      68.984  53.005   9.312  1.00  0.00     0.210 HD
ENDBRANCH  14  27
BRANCH  16  29
HETATM   29  C23 UNL     1      67.410  52.474  11.880  1.00  0.00     0.171 C 
BRANCH  29  30
HETATM   30  O2  UNL     1      67.358  53.839  11.595  1.00  0.00    -0.400 OA
ATOM     31  H2  UNL     1      66.802  54.301  12.212  1.00  0.00     0.209 HD
ENDBRANCH  29  30
ENDBRANCH  16  29
TORSDOF 8
ENDMDL
