MODEL 1
REMARK VINA RESULT: -8.193284047      0.000      0.000
REMARK  7 active torsions:
REMARK  status: ('A' for Active; 'I' for Inactive)
REMARK    1  A    between atoms: C5_9  and  N3_10 
REMARK    2  A    between atoms: N3_10  and  C6_12 
REMARK    3  A    between atoms: C6_12  and  C7_13 
REMARK    4  A    between atoms: C7_13  and  N4_14 
REMARK    5  A    between atoms: C16_25  and  O2_26 
REMARK    6  A    between atoms: N5_28  and  C17_29 
REMARK    7  A    between atoms: C17_29  and  C18_30 
ROOT
HETATM    1  C18 UNL     1       4.203  30.062  28.110  1.00  0.00     0.144 C 
HETATM    2  C19 UNL     1       5.352  30.831  28.504  1.00  0.00     0.060 C 
HETATM    3  N6  UNL     1       6.260  31.455  28.847  1.00  0.00    -0.197 NA
ENDROOT
BRANCH   1   4
HETATM    4  C17 UNL     1       4.266  29.443  26.740  1.00  0.00     0.146 C 
BRANCH   4   5
HETATM    5  N5  UNL     1       3.846  28.072  26.757  1.00  0.00    -0.320 N 
HETATM    6  C12 UNL     1       3.854  27.307  27.896  1.00  0.00     0.093 A 
HETATM    7  S1  UNL     1       4.200  27.315  29.569  1.00  0.00    -0.051 SA
HETATM    8  C13 UNL     1       3.426  26.047  27.675  1.00  0.00     0.038 A 
HETATM    9  C4  UNL     1       3.788  25.696  29.948  1.00  0.00     0.105 A 
HETATM   10  C3  UNL     1       3.388  25.195  28.741  1.00  0.00     0.080 A 
HETATM   11  N2  UNL     1       3.793  24.941  31.070  1.00  0.00    -0.334 N 
HETATM   12  N1  UNL     1       2.996  23.879  28.762  1.00  0.00    -0.354 N 
HETATM   13  C2  UNL     1       2.993  23.115  29.859  1.00  0.00     0.050 A 
ATOM     14  H1  UNL     1       2.688  23.458  27.885  1.00  0.00     0.166 HD
HETATM   15  C1  UNL     1       2.532  21.683  29.757  1.00  0.00     0.072 C 
HETATM   16  C5  UNL     1       3.394  23.621  31.062  1.00  0.00     0.124 A 
ATOM     17  H2  UNL     1       4.101  25.360  31.947  1.00  0.00     0.168 HD
HETATM   18  C14 UNL     1       3.133  26.030  26.298  1.00  0.00     0.004 A 
HETATM   19  C15 UNL     1       2.616  24.876  25.493  1.00  0.00     0.054 C 
HETATM   20  C16 UNL     1       3.403  27.283  25.788  1.00  0.00     0.150 A 
BRANCH  16  21
HETATM   21  N3  UNL     1       3.445  22.998  32.142  1.00  0.00    -0.373 N 
ATOM     22  H3  UNL     1       2.770  22.234  32.130  1.00  0.00     0.161 HD
BRANCH  21  23
HETATM   23  C6  UNL     1       4.116  23.005  33.344  1.00  0.00     0.151 C 
BRANCH  23  24
HETATM   24  C7  UNL     1       3.213  22.277  34.385  1.00  0.00     0.292 C 
BRANCH  24  25
HETATM   25  N4  UNL     1       3.839  21.036  34.754  1.00  0.00     0.094 N 
HETATM   26  C8  UNL     1       5.244  20.970  34.537  1.00  0.00     0.298 C 
HETATM   27  C9  UNL     1       5.733  19.551  34.847  1.00  0.00     0.198 C 
HETATM   28  O1  UNL     1       5.126  18.621  34.044  1.00  0.00    -0.388 OA
HETATM   29  C10 UNL     1       4.064  19.127  33.303  1.00  0.00     0.198 C 
HETATM   30  C11 UNL     1       3.157  19.884  34.220  1.00  0.00     0.298 C 
ENDBRANCH  24  25
ENDBRANCH  23  24
ENDBRANCH  21  23
ENDBRANCH  16  21
BRANCH  20  31
HETATM   31  O2  UNL     1       3.244  27.673  24.462  1.00  0.00    -0.345 OA
ATOM     32  H2  UNL     1       3.901  27.603  23.779  1.00  0.00     0.219 HD
ENDBRANCH  20  31
ENDBRANCH   4   5
ENDBRANCH   1   4
TORSDOF 7
ENDMDL
MODEL 2
REMARK VINA RESULT: -8.151356809      1.261      1.483
REMARK  7 active torsions:
REMARK  status: ('A' for Active; 'I' for Inactive)
REMARK    1  A    between atoms: C5_9  and  N3_10 
REMARK    2  A    between atoms: N3_10  and  C6_12 
REMARK    3  A    between atoms: C6_12  and  C7_13 
REMARK    4  A    between atoms: C7_13  and  N4_14 
REMARK    5  A    between atoms: C16_25  and  O2_26 
REMARK    6  A    between atoms: N5_28  and  C17_29 
REMARK    7  A    between atoms: C17_29  and  C18_30 
ROOT
HETATM    1  C18 UNL     1       4.419  30.006  28.370  1.00  0.00     0.144 C 
HETATM    2  C19 UNL     1       5.536  30.876  28.623  1.00  0.00     0.060 C 
HETATM    3  N6  UNL     1       6.423  31.577  28.854  1.00  0.00    -0.197 NA
ENDROOT
BRANCH   1   4
HETATM    4  C17 UNL     1       4.271  29.523  26.954  1.00  0.00     0.146 C 
BRANCH   4   5
HETATM    5  N5  UNL     1       3.875  28.145  26.901  1.00  0.00    -0.320 N 
HETATM    6  C12 UNL     1       3.861  27.335  28.007  1.00  0.00     0.093 A 
HETATM    7  S1  UNL     1       4.157  27.277  29.688  1.00  0.00    -0.051 SA
HETATM    8  C13 UNL     1       3.461  26.078  27.721  1.00  0.00     0.038 A 
HETATM    9  C4  UNL     1       3.761  25.638  29.988  1.00  0.00     0.105 A 
HETATM   10  C3  UNL     1       3.406  25.182  28.750  1.00  0.00     0.080 A 
HETATM   11  N2  UNL     1       3.746  24.837  31.077  1.00  0.00    -0.334 N 
HETATM   12  N1  UNL     1       3.036  23.860  28.704  1.00  0.00    -0.354 N 
HETATM   13  C2  UNL     1       3.013  23.051  29.768  1.00  0.00     0.050 A 
ATOM     14  H1  UNL     1       2.761  23.471  27.802  1.00  0.00     0.166 HD
HETATM   15  C1  UNL     1       2.580  21.618  29.594  1.00  0.00     0.072 C 
HETATM   16  C5  UNL     1       3.370  23.512  31.003  1.00  0.00     0.124 A 
ATOM     17  H2  UNL     1       4.021  25.224  31.980  1.00  0.00     0.168 HD
HETATM   18  C14 UNL     1       3.209  26.113  26.337  1.00  0.00     0.004 A 
HETATM   19  C15 UNL     1       2.736  24.987  25.470  1.00  0.00     0.054 C 
HETATM   20  C16 UNL     1       3.474  27.391  25.887  1.00  0.00     0.150 A 
BRANCH  16  21
HETATM   21  N3  UNL     1       3.400  22.846  32.058  1.00  0.00    -0.373 N 
ATOM     22  H3  UNL     1       2.599  22.215  32.087  1.00  0.00     0.161 HD
BRANCH  21  23
HETATM   23  C6  UNL     1       4.160  22.685  33.194  1.00  0.00     0.151 C 
BRANCH  23  24
HETATM   24  C7  UNL     1       3.398  23.372  34.365  1.00  0.00     0.292 C 
BRANCH  24  25
HETATM   25  N4  UNL     1       2.799  22.357  35.189  1.00  0.00     0.094 N 
HETATM   26  C8  UNL     1       3.427  21.080  35.142  1.00  0.00     0.298 C 
HETATM   27  C9  UNL     1       2.598  20.083  35.957  1.00  0.00     0.198 C 
HETATM   28  O1  UNL     1       1.326  19.959  35.461  1.00  0.00    -0.388 OA
HETATM   29  C10 UNL     1       1.006  20.906  34.496  1.00  0.00     0.198 C 
HETATM   30  C11 UNL     1       1.372  22.261  35.012  1.00  0.00     0.298 C 
ENDBRANCH  24  25
ENDBRANCH  23  24
ENDBRANCH  21  23
ENDBRANCH  16  21
BRANCH  20  31
HETATM   31  O2  UNL     1       3.347  27.833  24.574  1.00  0.00    -0.345 OA
ATOM     32  H2  UNL     1       3.100  28.711  24.304  1.00  0.00     0.219 HD
ENDBRANCH  20  31
ENDBRANCH   4   5
ENDBRANCH   1   4
TORSDOF 7
ENDMDL
MODEL 3
REMARK VINA RESULT: -8.130336168      1.636      2.123
REMARK  7 active torsions:
REMARK  status: ('A' for Active; 'I' for Inactive)
REMARK    1  A    between atoms: C5_9  and  N3_10 
REMARK    2  A    between atoms: N3_10  and  C6_12 
REMARK    3  A    between atoms: C6_12  and  C7_13 
REMARK    4  A    between atoms: C7_13  and  N4_14 
REMARK    5  A    between atoms: C16_25  and  O2_26 
REMARK    6  A    between atoms: N5_28  and  C17_29 
REMARK    7  A    between atoms: C17_29  and  C18_30 
ROOT
HETATM    1  C18 UNL     1       4.224  30.003  28.182  1.00  0.00     0.144 C 
HETATM    2  C19 UNL     1       5.360  30.806  28.549  1.00  0.00     0.060 C 
HETATM    3  N6  UNL     1       6.258  31.456  28.871  1.00  0.00    -0.197 NA
ENDROOT
BRANCH   1   4
HETATM    4  C17 UNL     1       4.258  29.414  26.798  1.00  0.00     0.146 C 
BRANCH   4   5
HETATM    5  N5  UNL     1       3.843  28.041  26.796  1.00  0.00    -0.320 N 
HETATM    6  C12 UNL     1       3.851  27.261  27.924  1.00  0.00     0.093 A 
HETATM    7  S1  UNL     1       4.196  27.246  29.597  1.00  0.00    -0.051 SA
HETATM    8  C13 UNL     1       3.427  26.003  27.684  1.00  0.00     0.038 A 
HETATM    9  C4  UNL     1       3.788  25.621  29.953  1.00  0.00     0.105 A 
HETATM   10  C3  UNL     1       3.391  25.136  28.739  1.00  0.00     0.080 A 
HETATM   11  N2  UNL     1       3.794  24.851  31.064  1.00  0.00    -0.334 N 
HETATM   12  N1  UNL     1       3.003  23.819  28.741  1.00  0.00    -0.354 N 
HETATM   13  C2  UNL     1       3.001  23.040  29.827  1.00  0.00     0.050 A 
ATOM     14  H1  UNL     1       2.696  23.409  27.858  1.00  0.00     0.166 HD
HETATM   15  C1  UNL     1       2.544  21.608  29.705  1.00  0.00     0.072 C 
HETATM   16  C5  UNL     1       3.399  23.529  31.038  1.00  0.00     0.124 A 
ATOM     17  H2  UNL     1       4.100  25.259  31.948  1.00  0.00     0.168 HD
HETATM   18  C14 UNL     1       3.135  26.004  26.307  1.00  0.00     0.004 A 
HETATM   19  C15 UNL     1       2.622  24.861  25.486  1.00  0.00     0.054 C 
HETATM   20  C16 UNL     1       3.402  27.265  25.815  1.00  0.00     0.150 A 
BRANCH  16  21
HETATM   21  N3  UNL     1       3.451  22.892  32.109  1.00  0.00    -0.373 N 
ATOM     22  H3  UNL     1       2.770  22.133  32.090  1.00  0.00     0.161 HD
BRANCH  21  23
HETATM   23  C6  UNL     1       4.128  22.878  33.308  1.00  0.00     0.151 C 
BRANCH  23  24
HETATM   24  C7  UNL     1       3.092  23.184  34.430  1.00  0.00     0.292 C 
BRANCH  24  25
HETATM   25  N4  UNL     1       2.079  22.162  34.418  1.00  0.00     0.094 N 
HETATM   26  C8  UNL     1       0.735  22.631  34.438  1.00  0.00     0.298 C 
HETATM   27  C9  UNL     1      -0.212  21.432  34.561  1.00  0.00     0.198 C 
HETATM   28  O1  UNL     1       0.018  20.723  35.712  1.00  0.00    -0.388 OA
HETATM   29  C10 UNL     1       1.175  21.101  36.382  1.00  0.00     0.198 C 
HETATM   30  C11 UNL     1       2.306  21.136  35.405  1.00  0.00     0.298 C 
ENDBRANCH  24  25
ENDBRANCH  23  24
ENDBRANCH  21  23
ENDBRANCH  16  21
BRANCH  20  31
HETATM   31  O2  UNL     1       3.243  27.673  24.494  1.00  0.00    -0.345 OA
ATOM     32  H2  UNL     1       3.594  27.231  23.730  1.00  0.00     0.219 HD
ENDBRANCH  20  31
ENDBRANCH   4   5
ENDBRANCH   1   4
TORSDOF 7
ENDMDL
MODEL 4
REMARK VINA RESULT: -8.094028167      2.046      2.467
REMARK  7 active torsions:
REMARK  status: ('A' for Active; 'I' for Inactive)
REMARK    1  A    between atoms: C5_9  and  N3_10 
REMARK    2  A    between atoms: N3_10  and  C6_12 
REMARK    3  A    between atoms: C6_12  and  C7_13 
REMARK    4  A    between atoms: C7_13  and  N4_14 
REMARK    5  A    between atoms: C16_25  and  O2_26 
REMARK    6  A    between atoms: N5_28  and  C17_29 
REMARK    7  A    between atoms: C17_29  and  C18_30 
ROOT
HETATM    1  C18 UNL     1       4.353  30.054  28.325  1.00  0.00     0.144 C 
HETATM    2  C19 UNL     1       5.502  30.869  28.616  1.00  0.00     0.060 C 
HETATM    3  N6  UNL     1       6.413  31.528  28.878  1.00  0.00    -0.197 NA
ENDROOT
BRANCH   1   4
HETATM    4  C17 UNL     1       4.253  29.543  26.914  1.00  0.00     0.146 C 
BRANCH   4   5
HETATM    5  N5  UNL     1       3.864  28.162  26.876  1.00  0.00    -0.320 N 
HETATM    6  C12 UNL     1       3.864  27.360  27.988  1.00  0.00     0.093 A 
HETATM    7  S1  UNL     1       4.174  27.318  29.668  1.00  0.00    -0.051 SA
HETATM    8  C13 UNL     1       3.469  26.099  27.716  1.00  0.00     0.038 A 
HETATM    9  C4  UNL     1       3.790  25.679  29.984  1.00  0.00     0.105 A 
HETATM   10  C3  UNL     1       3.427  25.211  28.752  1.00  0.00     0.080 A 
HETATM   11  N2  UNL     1       3.788  24.887  31.080  1.00  0.00    -0.334 N 
HETATM   12  N1  UNL     1       3.064  23.887  28.720  1.00  0.00    -0.354 N 
HETATM   13  C2  UNL     1       3.055  23.087  29.791  1.00  0.00     0.050 A 
ATOM     14  H1  UNL     1       2.784  23.489  27.824  1.00  0.00     0.166 HD
HETATM   15  C1  UNL     1       2.628  21.650  29.631  1.00  0.00     0.072 C 
HETATM   16  C5  UNL     1       3.419  23.559  31.019  1.00  0.00     0.124 A 
ATOM     17  H2  UNL     1       4.068  25.283  31.977  1.00  0.00     0.168 HD
HETATM   18  C14 UNL     1       3.205  26.122  26.333  1.00  0.00     0.004 A 
HETATM   19  C15 UNL     1       2.732  24.986  25.479  1.00  0.00     0.054 C 
HETATM   20  C16 UNL     1       3.459  27.398  25.871  1.00  0.00     0.150 A 
BRANCH  16  21
HETATM   21  N3  UNL     1       3.461  22.902  32.078  1.00  0.00    -0.373 N 
ATOM     22  H3  UNL     1       4.189  22.190  32.011  1.00  0.00     0.161 HD
BRANCH  21  23
HETATM   23  C6  UNL     1       2.848  22.824  33.308  1.00  0.00     0.151 C 
BRANCH  23  24
HETATM   24  C7  UNL     1       1.328  22.591  33.056  1.00  0.00     0.292 C 
BRANCH  24  25
HETATM   25  N4  UNL     1       0.633  22.662  34.313  1.00  0.00     0.094 N 
HETATM   26  C8  UNL     1       1.400  22.307  35.459  1.00  0.00     0.298 C 
HETATM   27  C9  UNL     1       0.488  22.300  36.690  1.00  0.00     0.198 C 
HETATM   28  O1  UNL     1      -0.534  21.396  36.556  1.00  0.00    -0.388 OA
HETATM   29  C10 UNL     1      -0.649  20.865  35.277  1.00  0.00     0.198 C 
HETATM   30  C11 UNL     1      -0.640  21.987  34.288  1.00  0.00     0.298 C 
ENDBRANCH  24  25
ENDBRANCH  23  24
ENDBRANCH  21  23
ENDBRANCH  16  21
BRANCH  20  31
HETATM   31  O2  UNL     1       3.318  27.829  24.556  1.00  0.00    -0.345 OA
ATOM     32  H2  UNL     1       3.276  28.734  24.269  1.00  0.00     0.219 HD
ENDBRANCH  20  31
ENDBRANCH   4   5
ENDBRANCH   1   4
TORSDOF 7
ENDMDL
MODEL 5
REMARK VINA RESULT: -7.870592148      2.228      3.134
REMARK  7 active torsions:
REMARK  status: ('A' for Active; 'I' for Inactive)
REMARK    1  A    between atoms: C5_9  and  N3_10 
REMARK    2  A    between atoms: N3_10  and  C6_12 
REMARK    3  A    between atoms: C6_12  and  C7_13 
REMARK    4  A    between atoms: C7_13  and  N4_14 
REMARK    5  A    between atoms: C16_25  and  O2_26 
REMARK    6  A    between atoms: N5_28  and  C17_29 
REMARK    7  A    between atoms: C17_29  and  C18_30 
ROOT
HETATM    1  C18 UNL     1       4.955  30.340  28.466  1.00  0.00     0.144 C 
HETATM    2  C19 UNL     1       5.951  31.246  28.972  1.00  0.00     0.060 C 
HETATM    3  N6  UNL     1       6.738  31.995  29.362  1.00  0.00    -0.197 NA
ENDROOT
BRANCH   1   4
HETATM    4  C17 UNL     1       5.083  28.909  28.913  1.00  0.00     0.146 C 
BRANCH   4   5
HETATM    5  N5  UNL     1       4.491  28.004  27.970  1.00  0.00    -0.320 N 
HETATM    6  C12 UNL     1       3.856  26.849  28.348  1.00  0.00     0.093 A 
HETATM    7  S1  UNL     1       3.395  25.895  29.688  1.00  0.00    -0.051 SA
HETATM    8  C13 UNL     1       3.383  26.151  27.295  1.00  0.00     0.038 A 
HETATM    9  C4  UNL     1       2.605  24.617  28.865  1.00  0.00     0.105 A 
HETATM   10  C3  UNL     1       2.728  24.981  27.553  1.00  0.00     0.080 A 
HETATM   11  N2  UNL     1       1.977  23.479  29.236  1.00  0.00    -0.334 N 
HETATM   12  N1  UNL     1       2.167  24.107  26.656  1.00  0.00    -0.354 N 
HETATM   13  C2  UNL     1       1.542  22.977  27.000  1.00  0.00     0.050 A 
ATOM     14  H1  UNL     1       2.231  24.334  25.663  1.00  0.00     0.166 HD
HETATM   15  C1  UNL     1       0.959  22.100  25.921  1.00  0.00     0.072 C 
HETATM   16  C5  UNL     1       1.423  22.617  28.312  1.00  0.00     0.124 A 
ATOM     17  H2  UNL     1       1.912  23.250  30.228  1.00  0.00     0.168 HD
HETATM   18  C14 UNL     1       3.753  26.931  26.183  1.00  0.00     0.004 A 
HETATM   19  C15 UNL     1       3.487  26.638  24.738  1.00  0.00     0.054 C 
HETATM   20  C16 UNL     1       4.422  28.046  26.646  1.00  0.00     0.150 A 
BRANCH  16  21
HETATM   21  N3  UNL     1       0.876  21.584  28.746  1.00  0.00    -0.373 N 
ATOM     22  H3  UNL     1       0.731  20.926  27.980  1.00  0.00     0.161 HD
BRANCH  21  23
HETATM   23  C6  UNL     1       0.405  21.041  29.920  1.00  0.00     0.151 C 
BRANCH  23  24
HETATM   24  C7  UNL     1       1.607  20.350  30.629  1.00  0.00     0.292 C 
BRANCH  24  25
HETATM   25  N4  UNL     1       1.752  20.907  31.947  1.00  0.00     0.094 N 
HETATM   26  C8  UNL     1       0.789  21.893  32.304  1.00  0.00     0.298 C 
HETATM   27  C9  UNL     1       1.158  22.483  33.670  1.00  0.00     0.198 C 
HETATM   28  O1  UNL     1       2.395  23.073  33.647  1.00  0.00    -0.388 OA
HETATM   29  C10 UNL     1       3.118  22.815  32.489  1.00  0.00     0.198 C 
HETATM   30  C11 UNL     1       3.097  21.343  32.227  1.00  0.00     0.298 C 
ENDBRANCH  24  25
ENDBRANCH  23  24
ENDBRANCH  21  23
ENDBRANCH  16  21
BRANCH  20  31
HETATM   31  O2  UNL     1       4.950  29.063  25.858  1.00  0.00    -0.345 OA
ATOM     32  H2  UNL     1       5.647  29.657  26.111  1.00  0.00     0.219 HD
ENDBRANCH  20  31
ENDBRANCH   4   5
ENDBRANCH   1   4
TORSDOF 7
ENDMDL
