MODEL 1
REMARK VINA RESULT: -7.125385755      0.000      0.000
REMARK  8 active torsions:
REMARK  status: ('A' for Active; 'I' for Inactive)
REMARK    1  A    between atoms: O1_2  and  C2_3 
REMARK    2  A    between atoms: C2_3  and  C3_5 
REMARK    3  A    between atoms: C7_10  and  C8_11 
REMARK    4  A    between atoms: C8_11  and  O4_12 
REMARK    5  A    between atoms: C9_14  and  C10_15 
REMARK       I    between atoms: N1_19  and  C12_20 
REMARK    6  A    between atoms: C12_20  and  C13_22 
REMARK    7  A    between atoms: C13_22  and  N2_23 
REMARK    8  A    between atoms: C18_28  and  C19_29 
ROOT
HETATM    1  C3  UNL     1      -4.812  -9.252   3.404  1.00  0.00     0.194 C 
HETATM    2  C4  UNL     1      -5.750  -8.101   3.452  1.00  0.00     0.114 C 
HETATM    3  C5  UNL     1      -7.157  -8.497   3.649  1.00  0.00     0.136 C 
HETATM    4  O3  UNL     1      -8.023  -8.053   2.939  1.00  0.00    -0.297 OA
HETATM    5  C6  UNL     1      -7.425  -9.453   4.750  1.00  0.00     0.086 C 
HETATM    6  C7  UNL     1      -6.974  -8.914   6.115  1.00  0.00     0.039 C 
HETATM    7  C9  UNL     1      -6.422 -10.277   6.377  1.00  0.00     0.117 C 
HETATM    8  C11 UNL     1      -6.435 -10.551   4.867  1.00  0.00     0.114 C 
HETATM    9  N1  UNL     1      -5.196 -10.402   4.186  1.00  0.00    -0.330 N 
HETATM   10  C12 UNL     1      -4.268 -11.497   4.294  1.00  0.00     0.247 C 
HETATM   11  O7  UNL     1      -3.183 -11.347   3.695  1.00  0.00    -0.271 OA
ENDROOT
BRANCH   1  12
HETATM   12  C2  UNL     1      -4.693  -9.629   1.950  1.00  0.00     0.282 C 
HETATM   13  O2  UNL     1      -5.591 -10.328   1.420  1.00  0.00    -0.263 OA
BRANCH  12  14
HETATM   14  O1  UNL     1      -3.626  -9.236   1.160  1.00  0.00    -0.325 OA
HETATM   15  C1  UNL     1      -3.766  -8.426   0.009  1.00  0.00     0.213 C 
ENDBRANCH  12  14
ENDBRANCH   1  12
BRANCH  10  16
HETATM   16  C13 UNL     1      -4.539 -12.698   5.033  1.00  0.00     0.340 C 
BRANCH  16  17
HETATM   17  N2  UNL     1      -3.441 -13.203   5.887  1.00  0.00    -0.058 N 
HETATM   18  C14 UNL     1      -2.595 -12.087   6.097  1.00  0.00     0.273 C 
HETATM   19  C15 UNL     1      -2.654 -14.191   5.140  1.00  0.00     0.238 C 
HETATM   20  C16 UNL     1      -2.843 -15.516   5.835  1.00  0.00     0.030 C 
HETATM   21  C17 UNL     1      -4.155 -15.290   6.506  1.00  0.00     0.036 C 
HETATM   22  C18 UNL     1      -4.073 -13.844   6.958  1.00  0.00     0.198 C 
BRANCH  22  23
HETATM   23  C19 UNL     1      -3.693 -13.670   8.372  1.00  0.00    -0.022 C 
HETATM   24  C20 UNL     1      -4.338 -14.866   9.118  1.00  0.00     0.016 C 
HETATM   25  C21 UNL     1      -2.275 -13.665   8.769  1.00  0.00     0.016 C 
HETATM   26  C22 UNL     1      -4.377 -12.479   9.008  1.00  0.00     0.016 C 
ENDBRANCH  22  23
ENDBRANCH  16  17
ENDBRANCH  10  16
BRANCH   7  27
HETATM   27  C10 UNL     1      -7.359 -11.205   7.064  1.00  0.00     0.179 C 
HETATM   28  O5  UNL     1      -7.459 -11.114   8.312  1.00  0.00    -0.648 OA
HETATM   29  O6  UNL     1      -8.121 -12.156   6.417  1.00  0.00    -0.648 OA
ENDBRANCH   7  27
BRANCH   6  30
HETATM   30  C8  UNL     1      -8.144  -8.455   6.917  1.00  0.00     0.170 C 
BRANCH  30  31
HETATM   31  O4  UNL     1      -7.833  -8.164   8.232  1.00  0.00    -0.400 OA
ATOM     32  H4  UNL     1      -7.213  -7.451   8.328  1.00  0.00     0.209 HD
ENDBRANCH  30  31
ENDBRANCH   6  30
TORSDOF 8
ENDMDL
MODEL 2
REMARK VINA RESULT: -6.835960501      2.273      3.734
REMARK  8 active torsions:
REMARK  status: ('A' for Active; 'I' for Inactive)
REMARK    1  A    between atoms: O1_2  and  C2_3 
REMARK    2  A    between atoms: C2_3  and  C3_5 
REMARK    3  A    between atoms: C7_10  and  C8_11 
REMARK    4  A    between atoms: C8_11  and  O4_12 
REMARK    5  A    between atoms: C9_14  and  C10_15 
REMARK       I    between atoms: N1_19  and  C12_20 
REMARK    6  A    between atoms: C12_20  and  C13_22 
REMARK    7  A    between atoms: C13_22  and  N2_23 
REMARK    8  A    between atoms: C18_28  and  C19_29 
ROOT
HETATM    1  C3  UNL     1      -3.337 -11.433   4.495  1.00  0.00     0.194 C 
HETATM    2  C4  UNL     1      -3.473 -10.514   3.336  1.00  0.00     0.114 C 
HETATM    3  C5  UNL     1      -4.862 -10.365   2.863  1.00  0.00     0.136 C 
HETATM    4  O3  UNL     1      -5.125 -10.476   1.692  1.00  0.00    -0.297 OA
HETATM    5  C6  UNL     1      -5.885 -10.079   3.897  1.00  0.00     0.086 C 
HETATM    6  C7  UNL     1      -5.592  -8.782   4.666  1.00  0.00     0.039 C 
HETATM    7  C9  UNL     1      -5.960  -9.532   5.905  1.00  0.00     0.117 C 
HETATM    8  C11 UNL     1      -5.722 -10.849   5.154  1.00  0.00     0.114 C 
HETATM    9  N1  UNL     1      -4.474 -11.491   5.381  1.00  0.00    -0.330 N 
HETATM   10  C12 UNL     1      -4.357 -12.255   6.596  1.00  0.00     0.247 C 
HETATM   11  O7  UNL     1      -3.252 -12.807   6.782  1.00  0.00    -0.271 OA
ENDROOT
BRANCH   1  12
HETATM   12  C2  UNL     1      -3.065 -12.796   3.912  1.00  0.00     0.282 C 
HETATM   13  O2  UNL     1      -4.024 -13.489   3.492  1.00  0.00    -0.263 OA
BRANCH  12  14
HETATM   14  O1  UNL     1      -1.790 -13.327   3.816  1.00  0.00    -0.325 OA
HETATM   15  C1  UNL     1      -0.937 -13.110   2.708  1.00  0.00     0.213 C 
ENDBRANCH  12  14
ENDBRANCH   1  12
BRANCH  10  16
HETATM   16  C13 UNL     1      -5.419 -12.397   7.551  1.00  0.00     0.340 C 
BRANCH  16  17
HETATM   17  N2  UNL     1      -6.108 -13.707   7.575  1.00  0.00    -0.058 N 
HETATM   18  C14 UNL     1      -5.145 -14.619   8.071  1.00  0.00     0.273 C 
HETATM   19  C15 UNL     1      -6.413 -14.125   6.202  1.00  0.00     0.238 C 
HETATM   20  C16 UNL     1      -7.917 -14.143   6.075  1.00  0.00     0.030 C 
HETATM   21  C17 UNL     1      -8.294 -13.175   7.145  1.00  0.00     0.036 C 
HETATM   22  C18 UNL     1      -7.308 -13.479   8.257  1.00  0.00     0.198 C 
BRANCH  22  23
HETATM   23  C19 UNL     1      -7.840 -14.352   9.318  1.00  0.00    -0.022 C 
HETATM   24  C20 UNL     1      -9.004 -13.553   9.960  1.00  0.00     0.016 C 
HETATM   25  C21 UNL     1      -8.394 -15.676   8.987  1.00  0.00     0.016 C 
HETATM   26  C22 UNL     1      -6.874 -14.509  10.473  1.00  0.00     0.016 C 
ENDBRANCH  22  23
ENDBRANCH  16  17
ENDBRANCH  10  16
BRANCH   7  27
HETATM   27  C10 UNL     1      -7.391  -9.426   6.291  1.00  0.00     0.179 C 
HETATM   28  O5  UNL     1      -7.654  -9.039   7.457  1.00  0.00    -0.648 OA
HETATM   29  O6  UNL     1      -8.445  -9.725   5.452  1.00  0.00    -0.648 OA
ENDBRANCH   7  27
BRANCH   6  30
HETATM   30  C8  UNL     1      -6.486  -7.680   4.209  1.00  0.00     0.170 C 
BRANCH  30  31
HETATM   31  O4  UNL     1      -7.352  -8.053   3.198  1.00  0.00    -0.400 OA
ATOM     32  H4  UNL     1      -8.057  -7.434   3.054  1.00  0.00     0.209 HD
ENDBRANCH  30  31
ENDBRANCH   6  30
TORSDOF 8
ENDMDL
MODEL 3
REMARK VINA RESULT: -6.642209341      1.682      4.589
REMARK  8 active torsions:
REMARK  status: ('A' for Active; 'I' for Inactive)
REMARK    1  A    between atoms: O1_2  and  C2_3 
REMARK    2  A    between atoms: C2_3  and  C3_5 
REMARK    3  A    between atoms: C7_10  and  C8_11 
REMARK    4  A    between atoms: C8_11  and  O4_12 
REMARK    5  A    between atoms: C9_14  and  C10_15 
REMARK       I    between atoms: N1_19  and  C12_20 
REMARK    6  A    between atoms: C12_20  and  C13_22 
REMARK    7  A    between atoms: C13_22  and  N2_23 
REMARK    8  A    between atoms: C18_28  and  C19_29 
ROOT
HETATM    1  C3  UNL     1      -7.409 -10.313   5.909  1.00  0.00     0.194 C 
HETATM    2  C4  UNL     1      -7.258  -9.312   4.822  1.00  0.00     0.114 C 
HETATM    3  C5  UNL     1      -5.858  -8.914   4.581  1.00  0.00     0.136 C 
HETATM    4  O3  UNL     1      -5.557  -7.749   4.508  1.00  0.00    -0.297 OA
HETATM    5  C6  UNL     1      -4.874 -10.014   4.438  1.00  0.00     0.086 C 
HETATM    6  C7  UNL     1      -5.219 -10.960   3.278  1.00  0.00     0.039 C 
HETATM    7  C9  UNL     1      -4.873 -12.082   4.201  1.00  0.00     0.117 C 
HETATM    8  C11 UNL     1      -5.059 -11.134   5.393  1.00  0.00     0.114 C 
HETATM    9  N1  UNL     1      -6.300 -11.219   6.082  1.00  0.00    -0.330 N 
HETATM   10  C12 UNL     1      -6.438 -12.299   7.024  1.00  0.00     0.247 C 
HETATM   11  O7  UNL     1      -7.536 -12.362   7.616  1.00  0.00    -0.271 OA
ENDROOT
BRANCH   1  12
HETATM   12  C2  UNL     1      -7.635  -9.522   7.172  1.00  0.00     0.282 C 
HETATM   13  O2  UNL     1      -6.990  -9.819   8.208  1.00  0.00    -0.263 OA
BRANCH  12  14
HETATM   14  O1  UNL     1      -8.530  -8.469   7.245  1.00  0.00    -0.325 OA
HETATM   15  C1  UNL     1      -8.134  -7.117   7.377  1.00  0.00     0.213 C 
ENDBRANCH  12  14
ENDBRANCH   1  12
BRANCH  10  16
HETATM   16  C13 UNL     1      -5.402 -13.257   7.291  1.00  0.00     0.340 C 
BRANCH  16  17
HETATM   17  N2  UNL     1      -4.621 -13.048   8.531  1.00  0.00    -0.058 N 
HETATM   18  C14 UNL     1      -5.276 -11.987   9.203  1.00  0.00     0.273 C 
HETATM   19  C15 UNL     1      -3.279 -12.563   8.189  1.00  0.00     0.238 C 
HETATM   20  C16 UNL     1      -2.306 -13.637   8.608  1.00  0.00     0.030 C 
HETATM   21  C17 UNL     1      -3.191 -14.836   8.576  1.00  0.00     0.036 C 
HETATM   22  C18 UNL     1      -4.510 -14.315   9.113  1.00  0.00     0.198 C 
BRANCH  22  23
HETATM   23  C19 UNL     1      -4.737 -14.596  10.543  1.00  0.00    -0.022 C 
HETATM   24  C20 UNL     1      -4.044 -15.957  10.807  1.00  0.00     0.016 C 
HETATM   25  C21 UNL     1      -4.225 -13.676  11.574  1.00  0.00     0.016 C 
HETATM   26  C22 UNL     1      -6.188 -14.902  10.846  1.00  0.00     0.016 C 
ENDBRANCH  22  23
ENDBRANCH  16  17
ENDBRANCH  10  16
BRANCH   7  27
HETATM   27  C10 UNL     1      -3.457 -12.528   4.131  1.00  0.00     0.179 C 
HETATM   28  O5  UNL     1      -3.208 -13.584   3.497  1.00  0.00    -0.648 OA
HETATM   29  O6  UNL     1      -2.403 -11.857   4.717  1.00  0.00    -0.648 OA
ENDBRANCH   7  27
BRANCH   6  30
HETATM   30  C8  UNL     1      -4.335 -10.705   2.105  1.00  0.00     0.170 C 
BRANCH  30  31
HETATM   31  O4  UNL     1      -4.782  -9.686   1.286  1.00  0.00    -0.400 OA
ATOM     32  H4  UNL     1      -5.616  -9.320   1.554  1.00  0.00     0.209 HD
ENDBRANCH  30  31
ENDBRANCH   6  30
TORSDOF 8
ENDMDL
MODEL 4
REMARK VINA RESULT: -6.610421386      2.555      6.442
REMARK  8 active torsions:
REMARK  status: ('A' for Active; 'I' for Inactive)
REMARK    1  A    between atoms: O1_2  and  C2_3 
REMARK    2  A    between atoms: C2_3  and  C3_5 
REMARK    3  A    between atoms: C7_10  and  C8_11 
REMARK    4  A    between atoms: C8_11  and  O4_12 
REMARK    5  A    between atoms: C9_14  and  C10_15 
REMARK       I    between atoms: N1_19  and  C12_20 
REMARK    6  A    between atoms: C12_20  and  C13_22 
REMARK    7  A    between atoms: C13_22  and  N2_23 
REMARK    8  A    between atoms: C18_28  and  C19_29 
ROOT
HETATM    1  C3  UNL     1      -5.520  -9.021   4.132  1.00  0.00     0.194 C 
HETATM    2  C4  UNL     1      -5.758  -9.470   5.527  1.00  0.00     0.114 C 
HETATM    3  C5  UNL     1      -5.989 -10.922   5.647  1.00  0.00     0.136 C 
HETATM    4  O3  UNL     1      -6.926 -11.343   6.277  1.00  0.00    -0.297 OA
HETATM    5  C6  UNL     1      -5.016 -11.804   4.958  1.00  0.00     0.086 C 
HETATM    6  C7  UNL     1      -3.580 -11.593   5.459  1.00  0.00     0.039 C 
HETATM    7  C9  UNL     1      -3.161 -11.649   4.026  1.00  0.00     0.117 C 
HETATM    8  C11 UNL     1      -4.606 -11.336   3.612  1.00  0.00     0.114 C 
HETATM    9  N1  UNL     1      -4.886  -9.986   3.266  1.00  0.00    -0.330 N 
HETATM   10  C12 UNL     1      -4.503  -9.570   1.942  1.00  0.00     0.247 C 
HETATM   11  O7  UNL     1      -4.751  -8.380   1.657  1.00  0.00    -0.271 OA
ENDROOT
BRANCH   1  12
HETATM   12  C2  UNL     1      -6.871  -8.641   3.583  1.00  0.00     0.282 C 
HETATM   13  O2  UNL     1      -7.138  -7.430   3.389  1.00  0.00    -0.263 OA
BRANCH  12  14
HETATM   14  O1  UNL     1      -7.846  -9.576   3.279  1.00  0.00    -0.325 OA
HETATM   15  C1  UNL     1      -8.952  -9.304   2.442  1.00  0.00     0.213 C 
ENDBRANCH  12  14
ENDBRANCH   1  12
BRANCH  10  16
HETATM   16  C13 UNL     1      -3.876 -10.439   0.987  1.00  0.00     0.340 C 
BRANCH  16  17
HETATM   17  N2  UNL     1      -2.648  -9.925   0.341  1.00  0.00    -0.058 N 
HETATM   18  C14 UNL     1      -1.798  -9.554   1.411  1.00  0.00     0.273 C 
HETATM   19  C15 UNL     1      -2.959  -8.693  -0.393  1.00  0.00     0.238 C 
HETATM   20  C16 UNL     1      -2.744  -8.990  -1.857  1.00  0.00     0.030 C 
HETATM   21  C17 UNL     1      -2.929 -10.470  -1.866  1.00  0.00     0.036 C 
HETATM   22  C18 UNL     1      -2.271 -10.914  -0.573  1.00  0.00     0.198 C 
BRANCH  22  23
HETATM   23  C19 UNL     1      -0.894 -11.417  -0.735  1.00  0.00    -0.022 C 
HETATM   24  C20 UNL     1      -0.914 -12.248  -2.043  1.00  0.00     0.016 C 
HETATM   25  C21 UNL     1       0.232 -10.477  -0.871  1.00  0.00     0.016 C 
HETATM   26  C22 UNL     1      -0.535 -12.454   0.308  1.00  0.00     0.016 C 
ENDBRANCH  22  23
ENDBRANCH  16  17
ENDBRANCH  10  16
BRANCH   7  27
HETATM   27  C10 UNL     1      -2.784 -13.004   3.543  1.00  0.00     0.179 C 
HETATM   28  O5  UNL     1      -1.560 -13.267   3.442  1.00  0.00    -0.648 OA
HETATM   29  O6  UNL     1      -3.692 -13.986   3.200  1.00  0.00    -0.648 OA
ENDBRANCH   7  27
BRANCH   6  30
HETATM   30  C8  UNL     1      -3.165 -12.702   6.365  1.00  0.00     0.170 C 
BRANCH  30  31
HETATM   31  O4  UNL     1      -2.094 -12.381   7.178  1.00  0.00    -0.400 OA
ATOM     32  H4  UNL     1      -1.418 -13.047   7.197  1.00  0.00     0.209 HD
ENDBRANCH  30  31
ENDBRANCH   6  30
TORSDOF 8
ENDMDL
MODEL 5
REMARK VINA RESULT: -6.608057655      1.599      4.691
REMARK  8 active torsions:
REMARK  status: ('A' for Active; 'I' for Inactive)
REMARK    1  A    between atoms: O1_2  and  C2_3 
REMARK    2  A    between atoms: C2_3  and  C3_5 
REMARK    3  A    between atoms: C7_10  and  C8_11 
REMARK    4  A    between atoms: C8_11  and  O4_12 
REMARK    5  A    between atoms: C9_14  and  C10_15 
REMARK       I    between atoms: N1_19  and  C12_20 
REMARK    6  A    between atoms: C12_20  and  C13_22 
REMARK    7  A    between atoms: C13_22  and  N2_23 
REMARK    8  A    between atoms: C18_28  and  C19_29 
ROOT
HETATM    1  C3  UNL     1      -7.494 -10.062   5.493  1.00  0.00     0.194 C 
HETATM    2  C4  UNL     1      -7.285  -8.947   4.534  1.00  0.00     0.114 C 
HETATM    3  C5  UNL     1      -5.871  -8.557   4.387  1.00  0.00     0.136 C 
HETATM    4  O3  UNL     1      -5.545  -7.398   4.458  1.00  0.00    -0.297 OA
HETATM    5  C6  UNL     1      -4.903  -9.655   4.151  1.00  0.00     0.086 C 
HETATM    6  C7  UNL     1      -5.224 -10.453   2.879  1.00  0.00     0.039 C 
HETATM    7  C9  UNL     1      -4.933 -11.682   3.677  1.00  0.00     0.117 C 
HETATM    8  C11 UNL     1      -5.143 -10.872   4.963  1.00  0.00     0.114 C 
HETATM    9  N1  UNL     1      -6.409 -11.007   5.596  1.00  0.00    -0.330 N 
HETATM   10  C12 UNL     1      -6.601 -12.185   6.403  1.00  0.00     0.247 C 
HETATM   11  O7  UNL     1      -7.720 -12.290   6.947  1.00  0.00    -0.271 OA
ENDROOT
BRANCH   1  12
HETATM   12  C2  UNL     1      -7.749  -9.416   6.830  1.00  0.00     0.282 C 
HETATM   13  O2  UNL     1      -7.126  -9.826   7.841  1.00  0.00    -0.263 OA
BRANCH  12  14
HETATM   14  O1  UNL     1      -8.649  -8.378   7.000  1.00  0.00    -0.325 OA
HETATM   15  C1  UNL     1      -8.265  -7.066   7.364  1.00  0.00     0.213 C 
ENDBRANCH  12  14
ENDBRANCH   1  12
BRANCH  10  16
HETATM   16  C13 UNL     1      -5.594 -13.191   6.592  1.00  0.00     0.340 C 
BRANCH  16  17
HETATM   17  N2  UNL     1      -5.431 -13.702   7.971  1.00  0.00    -0.058 N 
HETATM   18  C14 UNL     1      -6.326 -14.794   8.066  1.00  0.00     0.273 C 
HETATM   19  C15 UNL     1      -5.898 -12.691   8.927  1.00  0.00     0.238 C 
HETATM   20  C16 UNL     1      -4.692 -12.244   9.715  1.00  0.00     0.030 C 
HETATM   21  C17 UNL     1      -3.600 -12.569   8.753  1.00  0.00     0.036 C 
HETATM   22  C18 UNL     1      -4.053 -13.879   8.137  1.00  0.00     0.198 C 
BRANCH  22  23
HETATM   23  C19 UNL     1      -3.434 -15.077   8.733  1.00  0.00    -0.022 C 
HETATM   24  C20 UNL     1      -1.944 -14.706   8.943  1.00  0.00     0.016 C 
HETATM   25  C21 UNL     1      -3.907 -15.594  10.029  1.00  0.00     0.016 C 
HETATM   26  C22 UNL     1      -3.351 -16.229   7.755  1.00  0.00     0.016 C 
ENDBRANCH  22  23
ENDBRANCH  16  17
ENDBRANCH  10  16
BRANCH   7  27
HETATM   27  C10 UNL     1      -3.524 -12.149   3.603  1.00  0.00     0.179 C 
HETATM   28  O5  UNL     1      -3.319 -13.326   3.213  1.00  0.00    -0.648 OA
HETATM   29  O6  UNL     1      -2.431 -11.374   3.935  1.00  0.00    -0.648 OA
ENDBRANCH   7  27
BRANCH   6  30
HETATM   30  C8  UNL     1      -4.295 -10.086   1.772  1.00  0.00     0.170 C 
BRANCH  30  31
HETATM   31  O4  UNL     1      -4.478  -8.801   1.298  1.00  0.00    -0.400 OA
ATOM     32  H4  UNL     1      -3.745  -8.474   0.791  1.00  0.00     0.209 HD
ENDBRANCH  30  31
ENDBRANCH   6  30
TORSDOF 8
ENDMDL
