MODEL 1
REMARK VINA RESULT: -7.280600740      0.000      0.000
REMARK  3 active torsions:
REMARK  status: ('A' for Active; 'I' for Inactive)
REMARK    1  A    between atoms: C4_6  and  C5_7 
REMARK    2  A    between atoms: C6_8  and  C7_9 
REMARK    3  A    between atoms: C7_9  and  N2_11 
ROOT
HETATM    1  C1  UNL     1      30.616  17.514  -1.217  1.00  0.00     0.050 C 
HETATM    2  C2  UNL     1      29.855  16.223  -1.149  1.00  0.00    -0.038 A 
HETATM    3  C3  UNL     1      29.251  15.625  -0.100  1.00  0.00     0.095 A 
HETATM    4  N1  UNL     1      28.706  14.497  -0.517  1.00  0.00    -0.365 N 
ATOM      5  H1  UNL     1      28.188  13.855   0.084  1.00  0.00     0.165 HD
HETATM    6  C4  UNL     1      28.921  14.295  -1.859  1.00  0.00     0.038 A 
HETATM    7  C11 UNL     1      29.648  15.388  -2.255  1.00  0.00    -0.028 A 
HETATM    8  C12 UNL     1      30.153  15.677  -3.623  1.00  0.00     0.051 C 
ENDROOT
BRANCH   6   9
HETATM    9  C5  UNL     1      28.450  13.148  -2.610  1.00  0.00     0.028 C 
HETATM   10  C6  UNL     1      27.778  12.129  -2.211  1.00  0.00    -0.000 C 
BRANCH  10  11
HETATM   11  C7  UNL     1      27.421  11.076  -3.228  1.00  0.00     0.097 C 
HETATM   12  C8  UNL     1      28.410  11.166  -4.378  1.00  0.00     0.036 C 
BRANCH  11  13
HETATM   13  N2  UNL     1      27.512   9.767  -2.678  1.00  0.00    -0.414 N 
HETATM   14  C9  UNL     1      28.494   8.962  -3.324  1.00  0.00     0.143 C 
HETATM   15  C10 UNL     1      26.301   9.135  -2.298  1.00  0.00     0.143 C 
ENDBRANCH  11  13
ENDBRANCH  10  11
ENDBRANCH   6   9
TORSDOF 3
ENDMDL
MODEL 2
REMARK VINA RESULT: -7.245260456      3.335      7.800
REMARK  3 active torsions:
REMARK  status: ('A' for Active; 'I' for Inactive)
REMARK    1  A    between atoms: C4_6  and  C5_7 
REMARK    2  A    between atoms: C6_8  and  C7_9 
REMARK    3  A    between atoms: C7_9  and  N2_11 
ROOT
HETATM    1  C1  UNL     1      29.766  14.282  -3.517  1.00  0.00     0.050 C 
HETATM    2  C2  UNL     1      29.581  14.925  -2.175  1.00  0.00    -0.038 A 
HETATM    3  C3  UNL     1      28.765  14.585  -1.153  1.00  0.00     0.095 A 
HETATM    4  N1  UNL     1      28.944  15.445  -0.168  1.00  0.00    -0.365 N 
ATOM      5  H1  UNL     1      28.446  15.410   0.721  1.00  0.00     0.165 HD
HETATM    6  C4  UNL     1      29.885  16.395  -0.489  1.00  0.00     0.038 A 
HETATM    7  C11 UNL     1      30.285  16.063  -1.758  1.00  0.00    -0.028 A 
HETATM    8  C12 UNL     1      31.295  16.768  -2.589  1.00  0.00     0.051 C 
ENDROOT
BRANCH   6   9
HETATM    9  C5  UNL     1      30.300  17.478   0.382  1.00  0.00     0.028 C 
HETATM   10  C6  UNL     1      31.482  17.842   0.728  1.00  0.00    -0.000 C 
BRANCH  10  11
HETATM   11  C7  UNL     1      31.615  19.019   1.658  1.00  0.00     0.097 C 
HETATM   12  C8  UNL     1      32.371  18.569   2.896  1.00  0.00     0.036 C 
BRANCH  11  13
HETATM   13  N2  UNL     1      32.352  20.078   1.059  1.00  0.00    -0.414 N 
HETATM   14  C9  UNL     1      33.734  19.770   0.902  1.00  0.00     0.143 C 
HETATM   15  C10 UNL     1      32.020  21.402   1.443  1.00  0.00     0.143 C 
ENDBRANCH  11  13
ENDBRANCH  10  11
ENDBRANCH   6   9
TORSDOF 3
ENDMDL
MODEL 3
REMARK VINA RESULT: -7.160500750      1.464      6.318
REMARK  3 active torsions:
REMARK  status: ('A' for Active; 'I' for Inactive)
REMARK    1  A    between atoms: C4_6  and  C5_7 
REMARK    2  A    between atoms: C6_8  and  C7_9 
REMARK    3  A    between atoms: C7_9  and  N2_11 
ROOT
HETATM    1  C1  UNL     1      27.411   8.488  -4.615  1.00  0.00     0.050 C 
HETATM    2  C2  UNL     1      27.937   9.879  -4.415  1.00  0.00    -0.038 A 
HETATM    3  C3  UNL     1      28.718  10.636  -5.215  1.00  0.00     0.095 A 
HETATM    4  N1  UNL     1      28.926  11.797  -4.622  1.00  0.00    -0.365 N 
ATOM      5  H1  UNL     1      29.487  12.551  -5.019  1.00  0.00     0.165 HD
HETATM    6  C4  UNL     1      28.293  11.865  -3.403  1.00  0.00     0.038 A 
HETATM    7  C11 UNL     1      27.669  10.651  -3.276  1.00  0.00    -0.028 A 
HETATM    8  C12 UNL     1      26.837  10.190  -2.134  1.00  0.00     0.051 C 
ENDROOT
BRANCH   6   9
HETATM    9  C5  UNL     1      28.333  13.008  -2.512  1.00  0.00     0.028 C 
HETATM   10  C6  UNL     1      29.095  14.041  -2.540  1.00  0.00    -0.000 C 
BRANCH  10  11
HETATM   11  C7  UNL     1      28.908  15.086  -1.471  1.00  0.00     0.097 C 
HETATM   12  C8  UNL     1      28.659  14.380  -0.149  1.00  0.00     0.036 C 
BRANCH  11  13
HETATM   13  N2  UNL     1      30.069  15.894  -1.321  1.00  0.00    -0.414 N 
HETATM   14  C9  UNL     1      29.999  16.760  -0.193  1.00  0.00     0.143 C 
HETATM   15  C10 UNL     1      30.661  16.409  -2.502  1.00  0.00     0.143 C 
ENDBRANCH  11  13
ENDBRANCH  10  11
ENDBRANCH   6   9
TORSDOF 3
ENDMDL
MODEL 4
REMARK VINA RESULT: -7.029199630      1.158      5.976
REMARK  3 active torsions:
REMARK  status: ('A' for Active; 'I' for Inactive)
REMARK    1  A    between atoms: C4_6  and  C5_7 
REMARK    2  A    between atoms: C6_8  and  C7_9 
REMARK    3  A    between atoms: C7_9  and  N2_11 
ROOT
HETATM    1  C1  UNL     1      27.905   8.562  -4.537  1.00  0.00     0.050 C 
HETATM    2  C2  UNL     1      27.552   9.621  -3.536  1.00  0.00    -0.038 A 
HETATM    3  C3  UNL     1      26.805   9.542  -2.414  1.00  0.00     0.095 A 
HETATM    4  N1  UNL     1      26.770  10.735  -1.848  1.00  0.00    -0.365 N 
ATOM      5  H1  UNL     1      26.270  10.945  -0.984  1.00  0.00     0.165 HD
HETATM    6  C4  UNL     1      27.491  11.659  -2.567  1.00  0.00     0.038 A 
HETATM    7  C11 UNL     1      27.984  10.951  -3.633  1.00  0.00    -0.028 A 
HETATM    8  C12 UNL     1      28.838  11.472  -4.732  1.00  0.00     0.051 C 
ENDROOT
BRANCH   6   9
HETATM    9  C5  UNL     1      27.641  13.055  -2.205  1.00  0.00     0.028 C 
HETATM   10  C6  UNL     1      28.711  13.745  -2.035  1.00  0.00    -0.000 C 
BRANCH  10  11
HETATM   11  C7  UNL     1      28.563  15.196  -1.658  1.00  0.00     0.097 C 
HETATM   12  C8  UNL     1      29.183  15.400  -0.286  1.00  0.00     0.036 C 
BRANCH  11  13
HETATM   13  N2  UNL     1      29.243  16.046  -2.574  1.00  0.00    -0.414 N 
HETATM   14  C9  UNL     1      30.144  15.339  -3.421  1.00  0.00     0.143 C 
HETATM   15  C10 UNL     1      29.658  17.316  -2.099  1.00  0.00     0.143 C 
ENDBRANCH  11  13
ENDBRANCH  10  11
ENDBRANCH   6   9
TORSDOF 3
ENDMDL
MODEL 5
REMARK VINA RESULT: -6.984208413      3.082      7.829
REMARK  3 active torsions:
REMARK  status: ('A' for Active; 'I' for Inactive)
REMARK    1  A    between atoms: C4_6  and  C5_7 
REMARK    2  A    between atoms: C6_8  and  C7_9 
REMARK    3  A    between atoms: C7_9  and  N2_11 
ROOT
HETATM    1  C1  UNL     1      28.644  13.330  -2.766  1.00  0.00     0.050 C 
HETATM    2  C2  UNL     1      29.360  14.601  -2.417  1.00  0.00    -0.038 A 
HETATM    3  C3  UNL     1      30.086  15.432  -3.197  1.00  0.00     0.095 A 
HETATM    4  N1  UNL     1      30.527  16.428  -2.451  1.00  0.00    -0.365 N 
ATOM      5  H1  UNL     1      31.103  17.194  -2.801  1.00  0.00     0.165 HD
HETATM    6  C4  UNL     1      30.117  16.305  -1.145  1.00  0.00     0.038 A 
HETATM    7  C11 UNL     1      29.379  15.150  -1.128  1.00  0.00    -0.028 A 
HETATM    8  C12 UNL     1      28.696  14.544   0.045  1.00  0.00     0.051 C 
ENDROOT
BRANCH   6   9
HETATM    9  C5  UNL     1      30.441  17.238  -0.084  1.00  0.00     0.028 C 
HETATM   10  C6  UNL     1      31.471  17.993   0.056  1.00  0.00    -0.000 C 
BRANCH  10  11
HETATM   11  C7  UNL     1      31.541  18.874   1.276  1.00  0.00     0.097 C 
HETATM   12  C8  UNL     1      32.190  18.083   2.400  1.00  0.00     0.036 C 
BRANCH  11  13
HETATM   13  N2  UNL     1      32.337  20.029   1.041  1.00  0.00    -0.414 N 
HETATM   14  C9  UNL     1      33.723  19.729   0.910  1.00  0.00     0.143 C 
HETATM   15  C10 UNL     1      31.991  21.212   1.742  1.00  0.00     0.143 C 
ENDBRANCH  11  13
ENDBRANCH  10  11
ENDBRANCH   6   9
TORSDOF 3
ENDMDL
