MODEL 1
REMARK VINA RESULT: -7.910476742      0.000      0.000
REMARK  11 active torsions:
REMARK  status: ('A' for Active; 'I' for Inactive)
REMARK    1  A    between atoms: O1_2  and  N1_3 
REMARK    2  A    between atoms: C3_8  and  C4_9 
REMARK    3  A    between atoms: C6_18  and  O2_19 
REMARK    4  A    between atoms: C7_21  and  C8_22 
REMARK    5  A    between atoms: C8_22  and  N8_23 
REMARK    6  A    between atoms: N8_23  and  C9_25 
REMARK    7  A    between atoms: C9_25  and  C10_26 
REMARK    8  A    between atoms: C11_28  and  N9_29 
REMARK    9  A    between atoms: N9_29  and  C12_31 
REMARK   10  A    between atoms: C15_40  and  N13_41 
REMARK   11  A    between atoms: C19_53  and  N17_54 
ROOT
HETATM    1  C10 UNL     1      33.193  28.793  84.733  1.00  0.00     0.194 C 
HETATM    2  O3  UNL     1      32.329  29.895  84.956  1.00  0.00    -0.349 OA
HETATM    3  C11 UNL     1      32.841  30.726  83.909  1.00  0.00     0.263 C 
HETATM    4  C17 UNL     1      32.645  29.816  82.762  1.00  0.00     0.061 A 
HETATM    5  C18 UNL     1      32.893  28.543  83.306  1.00  0.00     0.070 A 
HETATM    6  N15 UNL     1      32.759  27.622  82.370  1.00  0.00    -0.300 N 
ATOM      7  H15 UNL     1      32.883  26.617  82.491  1.00  0.00     0.186 HD
HETATM    8  N16 UNL     1      32.439  28.232  81.264  1.00  0.00    -0.285 N 
ATOM      9  H16 UNL     1      32.272  27.761  80.375  1.00  0.00     0.188 HD
HETATM   10  C19 UNL     1      32.354  29.582  81.447  1.00  0.00     0.126 A 
ENDROOT
BRANCH   1  11
HETATM   11  C9  UNL     1      32.750  27.625  85.628  1.00  0.00     0.157 C 
BRANCH  11  12
HETATM   12  N8  UNL     1      31.584  27.032  85.199  1.00  0.00    -0.397 N 
ATOM     13  H8  UNL     1      31.704  26.283  84.517  1.00  0.00     0.158 HD
BRANCH  12  14
HETATM   14  C8  UNL     1      30.288  27.297  85.550  1.00  0.00     0.086 C 
BRANCH  14  15
HETATM   15  C7  UNL     1      29.745  28.697  85.420  1.00  0.00     0.186 C 
HETATM   16  N1  UNL     1      29.415  28.927  83.994  1.00  0.00    -0.218 N 
HETATM   17  C2  UNL     1      28.784  30.129  83.646  1.00  0.00     0.212 C 
HETATM   18  N2  UNL     1      29.152  30.783  82.428  1.00  0.00    -0.062 NA
HETATM   19  N3  UNL     1      27.883  30.583  84.433  1.00  0.00    -0.349 N 
HETATM   20  C3  UNL     1      27.544  29.872  85.620  1.00  0.00     0.186 C 
ATOM     21  H3  UNL     1      27.406  31.457  84.209  1.00  0.00     0.163 HD
HETATM   22  C6  UNL     1      28.601  29.055  86.271  1.00  0.00     0.178 C 
BRANCH  16  23
HETATM   23  O1  UNL     1      29.744  27.983  83.069  1.00  0.00    -0.280 OA
HETATM   24  C1  UNL     1      28.655  27.393  82.460  1.00  0.00     0.238 C 
ENDBRANCH  16  23
BRANCH  20  25
HETATM   25  C4  UNL     1      26.333  29.043  85.284  1.00  0.00     0.139 A 
HETATM   26  N4  UNL     1      26.328  27.706  85.413  1.00  0.00    -0.270 N 
HETATM   27  N5  UNL     1      25.134  27.264  85.043  1.00  0.00    -0.225 N 
ATOM     28  H4  UNL     1      27.107  27.132  85.738  1.00  0.00     0.190 HD
HETATM   29  N6  UNL     1      24.424  28.317  84.695  1.00  0.00    -0.223 N 
ATOM     30  H5  UNL     1      24.824  26.292  85.031  1.00  0.00     0.210 HD
HETATM   31  C5  UNL     1      23.050  28.241  84.227  1.00  0.00     0.202 C 
HETATM   32  N7  UNL     1      25.147  29.436  84.834  1.00  0.00    -0.269 N 
ATOM     33  H7  UNL     1      24.849  30.390  84.636  1.00  0.00     0.190 HD
ENDBRANCH  20  25
BRANCH  22  34
HETATM   34  O2  UNL     1      29.119  29.844  87.344  1.00  0.00    -0.391 OA
ATOM     35  H2  UNL     1      28.763  30.718  87.231  1.00  0.00     0.210 HD
ENDBRANCH  22  34
ENDBRANCH  14  15
ENDBRANCH  12  14
ENDBRANCH  11  12
ENDBRANCH   1  11
BRANCH   3  36
HETATM   36  N9  UNL     1      32.100  31.942  83.834  1.00  0.00    -0.344 N 
ATOM     37  H9  UNL     1      31.331  32.026  83.170  1.00  0.00     0.164 HD
BRANCH  36  38
HETATM   38  C12 UNL     1      32.425  33.032  84.674  1.00  0.00     0.136 A 
HETATM   39  N10 UNL     1      33.200  34.047  84.293  1.00  0.00    -0.337 N 
HETATM   40  C13 UNL     1      33.521  35.082  85.095  1.00  0.00     0.183 A 
ATOM     41  H10 UNL     1      33.572  34.040  83.343  1.00  0.00     0.168 HD
HETATM   42  N11 UNL     1      33.041  35.108  86.351  1.00  0.00    -0.336 N 
HETATM   43  C14 UNL     1      32.251  34.113  86.796  1.00  0.00     0.153 A 
ATOM     44  H11 UNL     1      33.275  35.885  86.968  1.00  0.00     0.168 HD
HETATM   45  N12 UNL     1      31.639  33.868  87.964  1.00  0.00    -0.174 N 
HETATM   46  C16 UNL     1      31.928  33.048  85.956  1.00  0.00     0.137 A 
HETATM   47  C15 UNL     1      30.964  32.719  87.883  1.00  0.00     0.678 A 
ATOM     48  H12 UNL     1      31.683  34.467  88.787  1.00  0.00     0.186 HD
HETATM   49  N14 UNL     1      31.137  32.221  86.667  1.00  0.00    -0.184 N 
ATOM     50  H14 UNL     1      30.736  31.349  86.324  1.00  0.00     0.184 HD
BRANCH  47  51
HETATM   51  N13 UNL     1      30.265  32.202  88.847  1.00  0.00    -0.234 N 
ATOM     52 2H13 UNL     1      30.038  32.636  89.742  1.00  0.00     0.174 HD
ATOM     53 1H13 UNL     1      29.846  31.273  88.828  1.00  0.00     0.174 HD
ENDBRANCH  47  51
ENDBRANCH  36  38
ENDBRANCH   3  36
BRANCH  10  54
HETATM   54  N17 UNL     1      32.055  30.437  80.560  1.00  0.00    -0.384 N 
ATOM     55 2H17 UNL     1      31.151  30.528  80.097  1.00  0.00     0.157 HD
ATOM     56 1H17 UNL     1      32.656  31.163  80.172  1.00  0.00     0.157 HD
ENDBRANCH  10  54
TORSDOF 11
ENDMDL
MODEL 2
REMARK VINA RESULT: -7.886662230      2.123      7.242
REMARK  11 active torsions:
REMARK  status: ('A' for Active; 'I' for Inactive)
REMARK    1  A    between atoms: O1_2  and  N1_3 
REMARK    2  A    between atoms: C3_8  and  C4_9 
REMARK    3  A    between atoms: C6_18  and  O2_19 
REMARK    4  A    between atoms: C7_21  and  C8_22 
REMARK    5  A    between atoms: C8_22  and  N8_23 
REMARK    6  A    between atoms: N8_23  and  C9_25 
REMARK    7  A    between atoms: C9_25  and  C10_26 
REMARK    8  A    between atoms: C11_28  and  N9_29 
REMARK    9  A    between atoms: N9_29  and  C12_31 
REMARK   10  A    between atoms: C15_40  and  N13_41 
REMARK   11  A    between atoms: C19_53  and  N17_54 
ROOT
HETATM    1  C10 UNL     1      28.281  29.418  81.877  1.00  0.00     0.194 C 
HETATM    2  O3  UNL     1      27.604  29.038  83.063  1.00  0.00    -0.349 OA
HETATM    3  C11 UNL     1      26.924  27.905  82.514  1.00  0.00     0.263 C 
HETATM    4  C17 UNL     1      28.088  27.143  82.016  1.00  0.00     0.061 A 
HETATM    5  C18 UNL     1      28.974  28.144  81.582  1.00  0.00     0.070 A 
HETATM    6  N15 UNL     1      30.071  27.593  81.098  1.00  0.00    -0.300 N 
ATOM      7  H15 UNL     1      30.876  28.087  80.714  1.00  0.00     0.186 HD
HETATM    8  N16 UNL     1      29.936  26.301  81.199  1.00  0.00    -0.285 N 
ATOM      9  H16 UNL     1      30.638  25.624  80.899  1.00  0.00     0.188 HD
HETATM   10  C19 UNL     1      28.736  25.969  81.757  1.00  0.00     0.126 A 
ENDROOT
BRANCH   1  11
HETATM   11  C9  UNL     1      29.268  30.549  82.207  1.00  0.00     0.157 C 
BRANCH  11  12
HETATM   12  N8  UNL     1      30.411  30.099  82.828  1.00  0.00    -0.397 N 
ATOM     13  H8  UNL     1      30.942  29.401  82.306  1.00  0.00     0.158 HD
BRANCH  12  14
HETATM   14  C8  UNL     1      30.943  30.446  84.040  1.00  0.00     0.086 C 
BRANCH  14  15
HETATM   15  C7  UNL     1      30.300  29.956  85.312  1.00  0.00     0.186 C 
HETATM   16  N1  UNL     1      31.380  29.630  86.272  1.00  0.00    -0.218 N 
HETATM   17  C2  UNL     1      31.018  29.259  87.575  1.00  0.00     0.212 C 
HETATM   18  N2  UNL     1      31.755  28.225  88.235  1.00  0.00    -0.062 NA
HETATM   19  N3  UNL     1      30.048  29.883  88.128  1.00  0.00    -0.349 N 
HETATM   20  C3  UNL     1      29.371  30.921  87.426  1.00  0.00     0.186 C 
ATOM     21  H3  UNL     1      29.759  29.636  89.075  1.00  0.00     0.163 HD
HETATM   22  C6  UNL     1      29.306  30.836  85.944  1.00  0.00     0.178 C 
BRANCH  16  23
HETATM   23  O1  UNL     1      32.678  29.683  85.864  1.00  0.00    -0.280 OA
HETATM   24  C1  UNL     1      33.169  28.479  85.401  1.00  0.00     0.238 C 
ENDBRANCH  16  23
BRANCH  20  25
HETATM   25  C4  UNL     1      29.996  32.214  87.880  1.00  0.00     0.139 A 
HETATM   26  N4  UNL     1      29.542  32.885  88.953  1.00  0.00    -0.270 N 
HETATM   27  N5  UNL     1      30.285  33.973  89.098  1.00  0.00    -0.225 N 
ATOM     28  H4  UNL     1      28.763  32.605  89.550  1.00  0.00     0.190 HD
HETATM   29  N6  UNL     1      31.176  33.964  88.129  1.00  0.00    -0.223 N 
ATOM     30  H5  UNL     1      30.185  34.683  89.823  1.00  0.00     0.210 HD
HETATM   31  C5  UNL     1      32.179  35.000  87.948  1.00  0.00     0.202 C 
HETATM   32  N7  UNL     1      31.016  32.881  87.356  1.00  0.00    -0.269 N 
ATOM     33  H7  UNL     1      31.565  32.622  86.536  1.00  0.00     0.190 HD
ENDBRANCH  20  25
BRANCH  22  34
HETATM   34  O2  UNL     1      28.021  30.299  85.626  1.00  0.00    -0.391 OA
ATOM     35  H2  UNL     1      27.392  30.769  86.161  1.00  0.00     0.210 HD
ENDBRANCH  22  34
ENDBRANCH  14  15
ENDBRANCH  12  14
ENDBRANCH  11  12
ENDBRANCH   1  11
BRANCH   3  36
HETATM   36  N9  UNL     1      26.170  27.241  83.526  1.00  0.00    -0.344 N 
ATOM     37  H9  UNL     1      26.217  26.225  83.607  1.00  0.00     0.164 HD
BRANCH  36  38
HETATM   38  C12 UNL     1      25.359  27.980  84.417  1.00  0.00     0.136 A 
HETATM   39  N10 UNL     1      25.755  28.352  85.634  1.00  0.00    -0.337 N 
HETATM   40  C13 UNL     1      24.980  29.047  86.491  1.00  0.00     0.183 A 
ATOM     41  H10 UNL     1      26.696  28.097  85.934  1.00  0.00     0.168 HD
HETATM   42  N11 UNL     1      23.736  29.392  86.113  1.00  0.00    -0.336 N 
HETATM   43  C14 UNL     1      23.276  29.046  84.895  1.00  0.00     0.153 A 
ATOM     44  H11 UNL     1      23.139  29.917  86.751  1.00  0.00     0.168 HD
HETATM   45  N12 UNL     1      22.115  29.241  84.254  1.00  0.00    -0.174 N 
HETATM   46  C16 UNL     1      24.089  28.327  84.020  1.00  0.00     0.137 A 
HETATM   47  C15 UNL     1      22.174  28.684  83.042  1.00  0.00     0.678 A 
ATOM     48  H12 UNL     1      21.310  29.739  84.634  1.00  0.00     0.186 HD
HETATM   49  N14 UNL     1      23.369  28.131  82.899  1.00  0.00    -0.184 N 
ATOM     50  H14 UNL     1      23.693  27.633  82.069  1.00  0.00     0.184 HD
BRANCH  47  51
HETATM   51  N13 UNL     1      21.209  28.699  82.174  1.00  0.00    -0.234 N 
ATOM     52 2H13 UNL     1      21.275  28.487  81.178  1.00  0.00     0.174 HD
ATOM     53 1H13 UNL     1      20.239  28.931  82.387  1.00  0.00     0.174 HD
ENDBRANCH  47  51
ENDBRANCH  36  38
ENDBRANCH   3  36
BRANCH  10  54
HETATM   54  N17 UNL     1      28.323  24.792  81.990  1.00  0.00    -0.384 N 
ATOM     55 2H17 UNL     1      27.563  24.538  82.621  1.00  0.00     0.157 HD
ATOM     56 1H17 UNL     1      28.672  23.922  81.588  1.00  0.00     0.157 HD
ENDBRANCH  10  54
TORSDOF 11
ENDMDL
MODEL 3
REMARK VINA RESULT: -7.727494708      2.747      9.149
REMARK  11 active torsions:
REMARK  status: ('A' for Active; 'I' for Inactive)
REMARK    1  A    between atoms: O1_2  and  N1_3 
REMARK    2  A    between atoms: C3_8  and  C4_9 
REMARK    3  A    between atoms: C6_18  and  O2_19 
REMARK    4  A    between atoms: C7_21  and  C8_22 
REMARK    5  A    between atoms: C8_22  and  N8_23 
REMARK    6  A    between atoms: N8_23  and  C9_25 
REMARK    7  A    between atoms: C9_25  and  C10_26 
REMARK    8  A    between atoms: C11_28  and  N9_29 
REMARK    9  A    between atoms: N9_29  and  C12_31 
REMARK   10  A    between atoms: C15_40  and  N13_41 
REMARK   11  A    between atoms: C19_53  and  N17_54 
ROOT
HETATM    1  C10 UNL     1      26.722  27.544  84.533  1.00  0.00     0.194 C 
HETATM    2  O3  UNL     1      26.193  28.305  83.459  1.00  0.00    -0.349 OA
HETATM    3  C11 UNL     1      24.817  28.200  83.840  1.00  0.00     0.263 C 
HETATM    4  C17 UNL     1      24.903  28.756  85.206  1.00  0.00     0.061 A 
HETATM    5  C18 UNL     1      26.154  28.308  85.666  1.00  0.00     0.070 A 
HETATM    6  N15 UNL     1      26.357  28.732  86.898  1.00  0.00    -0.300 N 
ATOM      7  H15 UNL     1      27.182  28.551  87.471  1.00  0.00     0.186 HD
HETATM    8  N16 UNL     1      25.311  29.425  87.251  1.00  0.00    -0.285 N 
ATOM      9  H16 UNL     1      25.198  29.875  88.159  1.00  0.00     0.188 HD
HETATM   10  C19 UNL     1      24.387  29.473  86.248  1.00  0.00     0.126 A 
ENDROOT
BRANCH   1  11
HETATM   11  C9  UNL     1      28.256  27.627  84.493  1.00  0.00     0.157 C 
BRANCH  11  12
HETATM   12  N8  UNL     1      28.725  28.921  84.531  1.00  0.00    -0.397 N 
ATOM     13  H8  UNL     1      28.144  29.607  84.048  1.00  0.00     0.158 HD
BRANCH  12  14
HETATM   14  C8  UNL     1      29.852  29.427  85.119  1.00  0.00     0.086 C 
BRANCH  14  15
HETATM   15  C7  UNL     1      29.847  29.761  86.589  1.00  0.00     0.186 C 
HETATM   16  N1  UNL     1      31.206  29.500  87.120  1.00  0.00    -0.218 N 
HETATM   17  C2  UNL     1      31.475  29.848  88.450  1.00  0.00     0.212 C 
HETATM   18  N2  UNL     1      32.301  28.989  89.243  1.00  0.00    -0.062 NA
HETATM   19  N3  UNL     1      30.981  30.941  88.896  1.00  0.00    -0.349 N 
HETATM   20  C3  UNL     1      30.187  31.766  88.049  1.00  0.00     0.186 C 
ATOM     21  H3  UNL     1      31.157  31.222  89.861  1.00  0.00     0.163 HD
HETATM   22  C6  UNL     1      29.404  31.111  86.969  1.00  0.00     0.178 C 
BRANCH  16  23
HETATM   23  O1  UNL     1      32.139  28.921  86.315  1.00  0.00    -0.280 OA
HETATM   24  C1  UNL     1      32.776  29.807  85.470  1.00  0.00     0.238 C 
ENDBRANCH  16  23
BRANCH  20  25
HETATM   25  C4  UNL     1      31.111  32.820  87.499  1.00  0.00     0.139 A 
HETATM   26  N4  UNL     1      31.567  33.831  88.259  1.00  0.00    -0.270 N 
HETATM   27  N5  UNL     1      32.350  34.589  87.503  1.00  0.00    -0.225 N 
ATOM     28  H4  UNL     1      31.348  33.988  89.243  1.00  0.00     0.190 HD
HETATM   29  N6  UNL     1      32.370  34.046  86.304  1.00  0.00    -0.223 N 
ATOM     30  H5  UNL     1      32.843  35.432  87.796  1.00  0.00     0.210 HD
HETATM   31  C5  UNL     1      33.125  34.590  85.187  1.00  0.00     0.202 C 
HETATM   32  N7  UNL     1      31.607  32.945  86.275  1.00  0.00    -0.269 N 
ATOM     33  H7  UNL     1      31.441  32.332  85.478  1.00  0.00     0.190 HD
ENDBRANCH  20  25
BRANCH  22  34
HETATM   34  O2  UNL     1      28.068  30.980  87.461  1.00  0.00    -0.391 OA
ATOM     35  H2  UNL     1      27.557  30.604  86.754  1.00  0.00     0.210 HD
ENDBRANCH  22  34
ENDBRANCH  14  15
ENDBRANCH  12  14
ENDBRANCH  11  12
ENDBRANCH   1  11
BRANCH   3  36
HETATM   36  N9  UNL     1      23.998  28.949  82.946  1.00  0.00    -0.344 N 
ATOM     37  H9  UNL     1      24.419  29.657  82.345  1.00  0.00     0.164 HD
BRANCH  36  38
HETATM   38  C12 UNL     1      22.604  28.718  82.887  1.00  0.00     0.136 A 
HETATM   39  N10 UNL     1      21.794  28.845  83.938  1.00  0.00    -0.337 N 
HETATM   40  C13 UNL     1      20.466  28.614  83.888  1.00  0.00     0.183 A 
ATOM     41  H10 UNL     1      22.200  29.131  84.829  1.00  0.00     0.168 HD
HETATM   42  N11 UNL     1      19.913  28.235  82.722  1.00  0.00    -0.336 N 
HETATM   43  C14 UNL     1      20.678  28.089  81.623  1.00  0.00     0.153 A 
ATOM     44  H11 UNL     1      18.910  28.057  82.670  1.00  0.00     0.168 HD
HETATM   45  N12 UNL     1      20.421  27.734  80.356  1.00  0.00    -0.174 N 
HETATM   46  C16 UNL     1      22.049  28.331  81.690  1.00  0.00     0.137 A 
HETATM   47  C15 UNL     1      21.553  27.745  79.650  1.00  0.00     0.678 A 
ATOM     48  H12 UNL     1      19.501  27.492  79.989  1.00  0.00     0.186 HD
HETATM   49  N14 UNL     1      22.541  28.108  80.456  1.00  0.00    -0.184 N 
ATOM     50  H14 UNL     1      23.520  28.202  80.185  1.00  0.00     0.184 HD
BRANCH  47  51
HETATM   51  N13 UNL     1      21.642  27.448  78.390  1.00  0.00    -0.234 N 
ATOM     52 2H13 UNL     1      21.927  26.555  77.987  1.00  0.00     0.174 HD
ATOM     53 1H13 UNL     1      21.431  28.089  77.625  1.00  0.00     0.174 HD
ENDBRANCH  47  51
ENDBRANCH  36  38
ENDBRANCH   3  36
BRANCH  10  54
HETATM   54  N17 UNL     1      23.272  30.077  86.292  1.00  0.00    -0.384 N 
ATOM     55 2H17 UNL     1      23.126  31.076  86.148  1.00  0.00     0.157 HD
ATOM     56 1H17 UNL     1      22.354  29.671  86.469  1.00  0.00     0.157 HD
ENDBRANCH  10  54
TORSDOF 11
ENDMDL
MODEL 4
REMARK VINA RESULT: -7.727177171      2.800      6.420
REMARK  11 active torsions:
REMARK  status: ('A' for Active; 'I' for Inactive)
REMARK    1  A    between atoms: O1_2  and  N1_3 
REMARK    2  A    between atoms: C3_8  and  C4_9 
REMARK    3  A    between atoms: C6_18  and  O2_19 
REMARK    4  A    between atoms: C7_21  and  C8_22 
REMARK    5  A    between atoms: C8_22  and  N8_23 
REMARK    6  A    between atoms: N8_23  and  C9_25 
REMARK    7  A    between atoms: C9_25  and  C10_26 
REMARK    8  A    between atoms: C11_28  and  N9_29 
REMARK    9  A    between atoms: N9_29  and  C12_31 
REMARK   10  A    between atoms: C15_40  and  N13_41 
REMARK   11  A    between atoms: C19_53  and  N17_54 
ROOT
HETATM    1  C10 UNL     1      29.261  29.726  84.088  1.00  0.00     0.194 C 
HETATM    2  O3  UNL     1      29.916  30.062  85.299  1.00  0.00    -0.349 OA
HETATM    3  C11 UNL     1      28.794  30.686  85.931  1.00  0.00     0.263 C 
HETATM    4  C17 UNL     1      27.829  29.569  85.865  1.00  0.00     0.061 A 
HETATM    5  C18 UNL     1      28.130  28.948  84.640  1.00  0.00     0.070 A 
HETATM    6  N15 UNL     1      27.322  27.923  84.447  1.00  0.00    -0.300 N 
ATOM      7  H15 UNL     1      27.321  27.298  83.640  1.00  0.00     0.186 HD
HETATM    8  N16 UNL     1      26.526  27.853  85.477  1.00  0.00    -0.285 N 
ATOM      9  H16 UNL     1      25.796  27.150  85.593  1.00  0.00     0.188 HD
HETATM   10  C19 UNL     1      26.794  28.840  86.379  1.00  0.00     0.126 A 
ENDROOT
BRANCH   1  11
HETATM   11  C9  UNL     1      30.200  28.855  83.240  1.00  0.00     0.157 C 
BRANCH  11  12
HETATM   12  N8  UNL     1      31.211  28.279  83.977  1.00  0.00    -0.397 N 
ATOM     13  H8  UNL     1      32.101  28.778  83.957  1.00  0.00     0.158 HD
BRANCH  12  14
HETATM   14  C8  UNL     1      31.202  27.139  84.733  1.00  0.00     0.086 C 
BRANCH  14  15
HETATM   15  C7  UNL     1      31.395  27.226  86.225  1.00  0.00     0.186 C 
HETATM   16  N1  UNL     1      31.539  25.845  86.746  1.00  0.00    -0.218 N 
HETATM   17  C2  UNL     1      31.845  25.679  88.104  1.00  0.00     0.212 C 
HETATM   18  N2  UNL     1      31.233  24.609  88.830  1.00  0.00    -0.062 NA
HETATM   19  N3  UNL     1      32.683  26.488  88.634  1.00  0.00    -0.349 N 
HETATM   20  C3  UNL     1      33.277  27.518  87.850  1.00  0.00     0.186 C 
ATOM     21  H3  UNL     1      32.925  26.394  89.620  1.00  0.00     0.163 HD
HETATM   22  C6  UNL     1      32.497  28.070  86.712  1.00  0.00     0.178 C 
BRANCH  16  23
HETATM   23  O1  UNL     1      31.357  24.789  85.906  1.00  0.00    -0.280 OA
HETATM   24  C1  UNL     1      32.499  24.047  85.684  1.00  0.00     0.238 C 
ENDBRANCH  16  23
BRANCH  20  25
HETATM   25  C4  UNL     1      34.613  26.988  87.400  1.00  0.00     0.139 A 
HETATM   26  N4  UNL     1      34.991  25.721  87.637  1.00  0.00    -0.270 N 
HETATM   27  N5  UNL     1      36.204  25.554  87.127  1.00  0.00    -0.225 N 
ATOM     28  H4  UNL     1      34.441  25.012  88.123  1.00  0.00     0.190 HD
HETATM   29  N6  UNL     1      36.556  26.703  86.589  1.00  0.00    -0.223 N 
ATOM     30  H5  UNL     1      36.758  24.698  87.149  1.00  0.00     0.210 HD
HETATM   31  C5  UNL     1      37.831  26.922  85.925  1.00  0.00     0.202 C 
HETATM   32  N7  UNL     1      35.585  27.612  86.746  1.00  0.00    -0.269 N 
ATOM     33  H7  UNL     1      35.591  28.581  86.429  1.00  0.00     0.190 HD
ENDBRANCH  20  25
BRANCH  22  34
HETATM   34  O2  UNL     1      31.906  29.285  87.178  1.00  0.00    -0.391 OA
ATOM     35  H2  UNL     1      30.965  29.164  87.127  1.00  0.00     0.210 HD
ENDBRANCH  22  34
ENDBRANCH  14  15
ENDBRANCH  12  14
ENDBRANCH  11  12
ENDBRANCH   1  11
BRANCH   3  36
HETATM   36  N9  UNL     1      29.134  31.096  87.254  1.00  0.00    -0.344 N 
ATOM     37  H9  UNL     1      28.787  30.566  88.053  1.00  0.00     0.164 HD
BRANCH  36  38
HETATM   38  C12 UNL     1      29.948  32.233  87.465  1.00  0.00     0.136 A 
HETATM   39  N10 UNL     1      31.149  32.389  86.907  1.00  0.00    -0.337 N 
HETATM   40  C13 UNL     1      31.933  33.466  87.116  1.00  0.00     0.183 A 
ATOM     41  H10 UNL     1      31.493  31.654  86.290  1.00  0.00     0.168 HD
HETATM   42  N11 UNL     1      31.495  34.445  87.927  1.00  0.00    -0.336 N 
HETATM   43  C14 UNL     1      30.290  34.347  88.521  1.00  0.00     0.153 A 
ATOM     44  H11 UNL     1      32.078  35.265  88.094  1.00  0.00     0.168 HD
HETATM   45  N12 UNL     1      29.603  35.138  89.357  1.00  0.00    -0.174 N 
HETATM   46  C16 UNL     1      29.491  33.228  88.296  1.00  0.00     0.137 A 
HETATM   47  C15 UNL     1      28.434  34.566  89.654  1.00  0.00     0.678 A 
ATOM     48  H12 UNL     1      29.924  36.038  89.712  1.00  0.00     0.186 HD
HETATM   49  N14 UNL     1      28.364  33.409  89.012  1.00  0.00    -0.184 N 
ATOM     50  H14 UNL     1      27.580  32.757  89.053  1.00  0.00     0.184 HD
BRANCH  47  51
HETATM   51  N13 UNL     1      27.538  35.079  90.441  1.00  0.00    -0.234 N 
ATOM     52 2H13 UNL     1      27.475  34.973  91.454  1.00  0.00     0.174 HD
ATOM     53 1H13 UNL     1      26.764  35.668  90.134  1.00  0.00     0.174 HD
ENDBRANCH  47  51
ENDBRANCH  36  38
ENDBRANCH   3  36
BRANCH  10  54
HETATM   54  N17 UNL     1      26.192  29.026  87.480  1.00  0.00    -0.384 N 
ATOM     55 2H17 UNL     1      25.624  29.838  87.723  1.00  0.00     0.157 HD
ATOM     56 1H17 UNL     1      26.173  28.405  88.289  1.00  0.00     0.157 HD
ENDBRANCH  10  54
TORSDOF 11
ENDMDL
MODEL 5
REMARK VINA RESULT: -7.726709899      3.094      9.010
REMARK  11 active torsions:
REMARK  status: ('A' for Active; 'I' for Inactive)
REMARK    1  A    between atoms: O1_2  and  N1_3 
REMARK    2  A    between atoms: C3_8  and  C4_9 
REMARK    3  A    between atoms: C6_18  and  O2_19 
REMARK    4  A    between atoms: C7_21  and  C8_22 
REMARK    5  A    between atoms: C8_22  and  N8_23 
REMARK    6  A    between atoms: N8_23  and  C9_25 
REMARK    7  A    between atoms: C9_25  and  C10_26 
REMARK    8  A    between atoms: C11_28  and  N9_29 
REMARK    9  A    between atoms: N9_29  and  C12_31 
REMARK   10  A    between atoms: C15_40  and  N13_41 
REMARK   11  A    between atoms: C19_53  and  N17_54 
ROOT
HETATM    1  C10 UNL     1      25.847  27.785  83.938  1.00  0.00     0.194 C 
HETATM    2  O3  UNL     1      25.118  28.563  83.005  1.00  0.00    -0.349 OA
HETATM    3  C11 UNL     1      23.825  28.351  83.580  1.00  0.00     0.263 C 
HETATM    4  C17 UNL     1      24.088  28.839  84.950  1.00  0.00     0.061 A 
HETATM    5  C18 UNL     1      25.418  28.450  85.188  1.00  0.00     0.070 A 
HETATM    6  N15 UNL     1      25.784  28.822  86.399  1.00  0.00    -0.300 N 
ATOM      7  H15 UNL     1      26.696  28.666  86.829  1.00  0.00     0.186 HD
HETATM    8  N16 UNL     1      24.767  29.427  86.947  1.00  0.00    -0.285 N 
ATOM      9  H16 UNL     1      24.770  29.821  87.888  1.00  0.00     0.188 HD
HETATM   10  C19 UNL     1      23.698  29.467  86.099  1.00  0.00     0.126 A 
ENDROOT
BRANCH   1  11
HETATM   11  C9  UNL     1      27.350  27.969  83.673  1.00  0.00     0.157 C 
BRANCH  11  12
HETATM   12  N8  UNL     1      27.705  29.286  83.490  1.00  0.00    -0.397 N 
ATOM     13  H8  UNL     1      27.181  29.780  82.766  1.00  0.00     0.158 HD
BRANCH  12  14
HETATM   14  C8  UNL     1      28.654  30.034  84.132  1.00  0.00     0.086 C 
BRANCH  14  15
HETATM   15  C7  UNL     1      29.525  29.399  85.185  1.00  0.00     0.186 C 
HETATM   16  N1  UNL     1      30.914  29.873  84.973  1.00  0.00    -0.218 N 
HETATM   17  C2  UNL     1      31.890  29.502  85.908  1.00  0.00     0.212 C 
HETATM   18  N2  UNL     1      33.205  29.174  85.450  1.00  0.00    -0.062 NA
HETATM   19  N3  UNL     1      31.563  29.493  87.145  1.00  0.00    -0.349 N 
HETATM   20  C3  UNL     1      30.242  29.854  87.539  1.00  0.00     0.186 C 
ATOM     21  H3  UNL     1      32.250  29.226  87.850  1.00  0.00     0.163 HD
HETATM   22  C6  UNL     1      29.131  29.590  86.588  1.00  0.00     0.178 C 
BRANCH  16  23
HETATM   23  O1  UNL     1      31.203  30.634  83.881  1.00  0.00    -0.280 OA
HETATM   24  C1  UNL     1      31.780  31.850  84.184  1.00  0.00     0.238 C 
ENDBRANCH  16  23
BRANCH  20  25
HETATM   25  C4  UNL     1      30.302  31.307  87.931  1.00  0.00     0.139 A 
HETATM   26  N4  UNL     1      31.467  31.926  88.187  1.00  0.00    -0.270 N 
HETATM   27  N5  UNL     1      31.198  33.186  88.503  1.00  0.00    -0.225 N 
ATOM     28  H4  UNL     1      32.394  31.502  88.146  1.00  0.00     0.190 HD
HETATM   29  N6  UNL     1      29.891  33.329  88.440  1.00  0.00    -0.223 N 
ATOM     30  H5  UNL     1      31.876  33.907  88.749  1.00  0.00     0.210 HD
HETATM   31  C5  UNL     1      29.204  34.579  88.721  1.00  0.00     0.202 C 
HETATM   32  N7  UNL     1      29.310  32.174  88.087  1.00  0.00    -0.269 N 
ATOM     33  H7  UNL     1      28.313  31.999  87.964  1.00  0.00     0.190 HD
ENDBRANCH  20  25
BRANCH  22  34
HETATM   34  O2  UNL     1      28.518  28.371  87.012  1.00  0.00    -0.391 OA
ATOM     35  H2  UNL     1      28.932  28.132  87.833  1.00  0.00     0.210 HD
ENDBRANCH  22  34
ENDBRANCH  14  15
ENDBRANCH  12  14
ENDBRANCH  11  12
ENDBRANCH   1  11
BRANCH   3  36
HETATM   36  N9  UNL     1      22.837  29.090  82.867  1.00  0.00    -0.344 N 
ATOM     37  H9  UNL     1      22.651  30.061  83.120  1.00  0.00     0.164 HD
BRANCH  36  38
HETATM   38  C12 UNL     1      22.112  28.488  81.814  1.00  0.00     0.136 A 
HETATM   39  N10 UNL     1      20.866  28.032  81.946  1.00  0.00    -0.337 N 
HETATM   40  C13 UNL     1      20.177  27.447  80.946  1.00  0.00     0.183 A 
ATOM     41  H10 UNL     1      20.410  28.131  82.853  1.00  0.00     0.168 HD
HETATM   42  N11 UNL     1      20.762  27.307  79.743  1.00  0.00    -0.336 N 
HETATM   43  C14 UNL     1      22.019  27.748  79.545  1.00  0.00     0.153 A 
ATOM     44  H11 UNL     1      20.252  26.866  78.978  1.00  0.00     0.168 HD
HETATM   45  N12 UNL     1      22.844  27.749  78.488  1.00  0.00    -0.174 N 
HETATM   46  C16 UNL     1      22.720  28.351  80.588  1.00  0.00     0.137 A 
HETATM   47  C15 UNL     1      24.004  28.317  78.827  1.00  0.00     0.678 A 
ATOM     48  H12 UNL     1      22.620  27.374  77.567  1.00  0.00     0.186 HD
HETATM   49  N14 UNL     1      23.931  28.682  80.098  1.00  0.00    -0.184 N 
ATOM     50  H14 UNL     1      24.675  29.142  80.624  1.00  0.00     0.184 HD
BRANCH  47  51
HETATM   51  N13 UNL     1      25.014  28.471  78.026  1.00  0.00    -0.234 N 
ATOM     52 2H13 UNL     1      25.875  28.985  78.214  1.00  0.00     0.174 HD
ATOM     53 1H13 UNL     1      25.072  28.086  77.083  1.00  0.00     0.174 HD
ENDBRANCH  47  51
ENDBRANCH  36  38
ENDBRANCH   3  36
BRANCH  10  54
HETATM   54  N17 UNL     1      22.572  29.994  86.346  1.00  0.00    -0.384 N 
ATOM     55 2H17 UNL     1      22.401  30.981  86.537  1.00  0.00     0.157 HD
ATOM     56 1H17 UNL     1      21.666  29.528  86.390  1.00  0.00     0.157 HD
ENDBRANCH  10  54
TORSDOF 11
ENDMDL
