MODEL 1
REMARK VINA RESULT: -8.125499631      0.000      0.000
REMARK  8 active torsions:
REMARK  status: ('A' for Active; 'I' for Inactive)
REMARK    1  A    between atoms: C2_2  and  C3_3 
REMARK    2  A    between atoms: C3_3  and  C4_4 
REMARK    3  A    between atoms: C4_4  and  C5_5 
REMARK    4  A    between atoms: C4_4  and  N1_7 
REMARK    5  A    between atoms: N1_7  and  C7_9 
REMARK    6  A    between atoms: C8_12  and  N3_13 
REMARK    7  A    between atoms: N3_13  and  C9_15 
REMARK    8  A    between atoms: N4_18  and  C12_19 
ROOT
HETATM    1  C7  UNL     1     -22.491  20.699   1.125  1.00  0.00     0.682 A 
HETATM    2  N2  UNL     1     -22.651  20.706   2.467  1.00  0.00    -0.176 N 
ATOM      3  H2  UNL     1     -21.842  20.508   3.057  1.00  0.00     0.186 HD
HETATM    4  C8  UNL     1     -23.830  20.961   3.058  1.00  0.00     0.132 A 
HETATM    5  C16 UNL     1     -24.947  21.233   2.276  1.00  0.00     0.062 A 
HETATM    6  C17 UNL     1     -26.265  21.526   2.561  1.00  0.00     0.044 A 
HETATM    7  C18 UNL     1     -26.867  21.691   1.332  1.00  0.00     0.145 A 
HETATM    8  O1  UNL     1     -25.971  21.507   0.393  1.00  0.00    -0.304 OA
HETATM    9  C19 UNL     1     -24.795  21.228   0.906  1.00  0.00     0.176 A 
HETATM   10  N5  UNL     1     -23.576  20.962   0.378  1.00  0.00    -0.169 N 
ATOM     11  H5  UNL     1     -23.476  20.961  -0.637  1.00  0.00     0.186 HD
ENDROOT
BRANCH   4  12
HETATM   12  N3  UNL     1     -24.010  20.975   4.318  1.00  0.00    -0.370 N 
ATOM     13  H3  UNL     1     -23.949  21.876   4.791  1.00  0.00     0.161 HD
BRANCH  12  14
HETATM   14  C9  UNL     1     -24.297  19.802   5.141  1.00  0.00     0.086 C 
HETATM   15  C10 UNL     1     -23.746  20.079   6.495  1.00  0.00     0.044 C 
HETATM   16  C11 UNL     1     -23.210  18.896   7.232  1.00  0.00     0.119 C 
HETATM   17  N4  UNL     1     -22.342  18.164   6.391  1.00  0.00    -0.413 N 
HETATM   18  C14 UNL     1     -22.884  17.696   5.166  1.00  0.00     0.119 C 
HETATM   19  C15 UNL     1     -23.904  18.525   4.512  1.00  0.00     0.044 C 
BRANCH  17  20
HETATM   20  C12 UNL     1     -20.970  18.540   6.382  1.00  0.00     0.112 C 
HETATM   21  C13 UNL     1     -20.203  18.135   7.612  1.00  0.00     0.026 C 
ENDBRANCH  17  20
ENDBRANCH  12  14
ENDBRANCH   4  12
BRANCH   1  22
HETATM   22  N1  UNL     1     -21.322  20.443   0.600  1.00  0.00    -0.221 N 
ATOM     23  H1  UNL     1     -21.293  20.116  -0.366  1.00  0.00     0.178 HD
BRANCH  22  24
HETATM   24  C4  UNL     1     -20.079  20.595   1.296  1.00  0.00     0.099 C 
BRANCH  24  25
HETATM   25  C3  UNL     1     -19.270  21.756   0.761  1.00  0.00     0.025 C 
BRANCH  25  26
HETATM   26  C2  UNL     1     -17.993  21.186   0.155  1.00  0.00    -0.002 C 
HETATM   27  C1  UNL     1     -17.791  21.759  -1.235  1.00  0.00     0.005 C 
ENDBRANCH  25  26
ENDBRANCH  24  25
BRANCH  24  28
HETATM   28  C5  UNL     1     -19.217  19.358   1.298  1.00  0.00     0.021 C 
HETATM   29  C6  UNL     1     -20.103  18.193   1.708  1.00  0.00     0.007 C 
ENDBRANCH  24  28
ENDBRANCH  22  24
ENDBRANCH   1  22
TORSDOF 8
ENDMDL
MODEL 2
REMARK VINA RESULT: -8.054703674      2.710      5.188
REMARK  8 active torsions:
REMARK  status: ('A' for Active; 'I' for Inactive)
REMARK    1  A    between atoms: C2_2  and  C3_3 
REMARK    2  A    between atoms: C3_3  and  C4_4 
REMARK    3  A    between atoms: C4_4  and  C5_5 
REMARK    4  A    between atoms: C4_4  and  N1_7 
REMARK    5  A    between atoms: N1_7  and  C7_9 
REMARK    6  A    between atoms: C8_12  and  N3_13 
REMARK    7  A    between atoms: N3_13  and  C9_15 
REMARK    8  A    between atoms: N4_18  and  C12_19 
ROOT
HETATM    1  C7  UNL     1     -21.806  19.487   3.189  1.00  0.00     0.682 A 
HETATM    2  N2  UNL     1     -22.991  20.112   3.371  1.00  0.00    -0.176 N 
ATOM      3  H2  UNL     1     -23.443  20.547   2.566  1.00  0.00     0.186 HD
HETATM    4  C8  UNL     1     -23.599  20.183   4.566  1.00  0.00     0.132 A 
HETATM    5  C16 UNL     1     -23.004  19.597   5.678  1.00  0.00     0.062 A 
HETATM    6  C17 UNL     1     -23.356  19.496   7.008  1.00  0.00     0.044 A 
HETATM    7  C18 UNL     1     -22.330  18.786   7.595  1.00  0.00     0.145 A 
HETATM    8  O1  UNL     1     -21.439  18.493   6.679  1.00  0.00    -0.304 OA
HETATM    9  C19 UNL     1     -21.795  18.959   5.504  1.00  0.00     0.176 A 
HETATM   10  N5  UNL     1     -21.239  18.925   4.269  1.00  0.00    -0.169 N 
ATOM     11  H5  UNL     1     -20.344  18.449   4.153  1.00  0.00     0.186 HD
ENDROOT
BRANCH   4  12
HETATM   12  N3  UNL     1     -24.715  20.764   4.767  1.00  0.00    -0.370 N 
ATOM     13  H3  UNL     1     -25.538  20.173   4.879  1.00  0.00     0.161 HD
BRANCH  12  14
HETATM   14  C9  UNL     1     -24.909  22.210   4.851  1.00  0.00     0.086 C 
HETATM   15  C10 UNL     1     -25.705  22.468   6.081  1.00  0.00     0.044 C 
HETATM   16  C11 UNL     1     -26.656  23.618   6.009  1.00  0.00     0.119 C 
HETATM   17  N4  UNL     1     -27.425  23.526   4.828  1.00  0.00    -0.413 N 
HETATM   18  C14 UNL     1     -26.712  23.483   3.602  1.00  0.00     0.119 C 
HETATM   19  C15 UNL     1     -25.403  22.816   3.600  1.00  0.00     0.044 C 
BRANCH  17  20
HETATM   20  C12 UNL     1     -28.633  22.778   4.892  1.00  0.00     0.112 C 
HETATM   21  C13 UNL     1     -28.853  21.846   3.730  1.00  0.00     0.026 C 
ENDBRANCH  17  20
ENDBRANCH  12  14
ENDBRANCH   4  12
BRANCH   1  22
HETATM   22  N1  UNL     1     -21.255  19.445   2.005  1.00  0.00    -0.221 N 
ATOM     23  H1  UNL     1     -21.503  18.671   1.389  1.00  0.00     0.178 HD
BRANCH  22  24
HETATM   24  C4  UNL     1     -20.325  20.420   1.518  1.00  0.00     0.099 C 
BRANCH  24  25
HETATM   25  C3  UNL     1     -20.845  21.133   0.289  1.00  0.00     0.025 C 
BRANCH  25  26
HETATM   26  C2  UNL     1     -21.647  22.339   0.764  1.00  0.00    -0.002 C 
HETATM   27  C1  UNL     1     -20.769  23.576   0.734  1.00  0.00     0.005 C 
ENDBRANCH  25  26
ENDBRANCH  24  25
BRANCH  24  28
HETATM   28  C5  UNL     1     -18.953  19.871   1.221  1.00  0.00     0.021 C 
HETATM   29  C6  UNL     1     -18.171  20.970   0.520  1.00  0.00     0.007 C 
ENDBRANCH  24  28
ENDBRANCH  22  24
ENDBRANCH   1  22
TORSDOF 8
ENDMDL
MODEL 3
REMARK VINA RESULT: -8.023374953      2.753      5.016
REMARK  8 active torsions:
REMARK  status: ('A' for Active; 'I' for Inactive)
REMARK    1  A    between atoms: C2_2  and  C3_3 
REMARK    2  A    between atoms: C3_3  and  C4_4 
REMARK    3  A    between atoms: C4_4  and  C5_5 
REMARK    4  A    between atoms: C4_4  and  N1_7 
REMARK    5  A    between atoms: N1_7  and  C7_9 
REMARK    6  A    between atoms: C8_12  and  N3_13 
REMARK    7  A    between atoms: N3_13  and  C9_15 
REMARK    8  A    between atoms: N4_18  and  C12_19 
ROOT
HETATM    1  C7  UNL     1     -21.747  19.441   2.982  1.00  0.00     0.682 A 
HETATM    2  N2  UNL     1     -23.031  19.859   3.051  1.00  0.00    -0.176 N 
ATOM      3  H2  UNL     1     -23.498  20.145   2.190  1.00  0.00     0.186 HD
HETATM    4  C8  UNL     1     -23.718  19.914   4.203  1.00  0.00     0.132 A 
HETATM    5  C16 UNL     1     -23.103  19.529   5.390  1.00  0.00     0.062 A 
HETATM    6  C17 UNL     1     -23.516  19.468   6.705  1.00  0.00     0.044 A 
HETATM    7  C18 UNL     1     -22.423  18.998   7.401  1.00  0.00     0.145 A 
HETATM    8  O1  UNL     1     -21.439  18.797   6.559  1.00  0.00    -0.304 OA
HETATM    9  C19 UNL     1     -21.794  19.102   5.332  1.00  0.00     0.176 A 
HETATM   10  N5  UNL     1     -21.162  19.072   4.133  1.00  0.00    -0.169 N 
ATOM     11  H5  UNL     1     -20.194  18.754   4.103  1.00  0.00     0.186 HD
ENDROOT
BRANCH   4  12
HETATM   12  N3  UNL     1     -24.927  20.302   4.298  1.00  0.00    -0.370 N 
ATOM     13  H3  UNL     1     -25.555  19.745   4.877  1.00  0.00     0.161 HD
BRANCH  12  14
HETATM   14  C9  UNL     1     -25.486  21.484   3.644  1.00  0.00     0.086 C 
HETATM   15  C10 UNL     1     -25.054  22.663   4.440  1.00  0.00     0.044 C 
HETATM   16  C11 UNL     1     -26.026  23.796   4.502  1.00  0.00     0.119 C 
HETATM   17  N4  UNL     1     -27.307  23.306   4.839  1.00  0.00    -0.413 N 
HETATM   18  C14 UNL     1     -27.858  22.315   3.985  1.00  0.00     0.119 C 
HETATM   19  C15 UNL     1     -26.928  21.372   3.350  1.00  0.00     0.044 C 
BRANCH  17  20
HETATM   20  C12 UNL     1     -27.626  23.208   6.222  1.00  0.00     0.112 C 
HETATM   21  C13 UNL     1     -27.461  24.490   6.993  1.00  0.00     0.026 C 
ENDBRANCH  17  20
ENDBRANCH  12  14
ENDBRANCH   4  12
BRANCH   1  22
HETATM   22  N1  UNL     1     -21.124  19.407   1.835  1.00  0.00    -0.221 N 
ATOM     23  H1  UNL     1     -21.298  18.613   1.219  1.00  0.00     0.178 HD
BRANCH  22  24
HETATM   24  C4  UNL     1     -20.209  20.415   1.388  1.00  0.00     0.099 C 
BRANCH  24  25
HETATM   25  C3  UNL     1     -20.732  21.156   0.178  1.00  0.00     0.025 C 
BRANCH  25  26
HETATM   26  C2  UNL     1     -21.546  22.342   0.682  1.00  0.00    -0.002 C 
HETATM   27  C1  UNL     1     -20.671  23.581   0.715  1.00  0.00     0.005 C 
ENDBRANCH  25  26
ENDBRANCH  24  25
BRANCH  24  28
HETATM   28  C5  UNL     1     -18.823  19.904   1.088  1.00  0.00     0.021 C 
HETATM   29  C6  UNL     1     -18.107  20.987   0.297  1.00  0.00     0.007 C 
ENDBRANCH  24  28
ENDBRANCH  22  24
ENDBRANCH   1  22
TORSDOF 8
ENDMDL
MODEL 4
REMARK VINA RESULT: -7.965418215      2.677      4.958
REMARK  8 active torsions:
REMARK  status: ('A' for Active; 'I' for Inactive)
REMARK    1  A    between atoms: C2_2  and  C3_3 
REMARK    2  A    between atoms: C3_3  and  C4_4 
REMARK    3  A    between atoms: C4_4  and  C5_5 
REMARK    4  A    between atoms: C4_4  and  N1_7 
REMARK    5  A    between atoms: N1_7  and  C7_9 
REMARK    6  A    between atoms: C8_12  and  N3_13 
REMARK    7  A    between atoms: N3_13  and  C9_15 
REMARK    8  A    between atoms: N4_18  and  C12_19 
ROOT
HETATM    1  C7  UNL     1     -21.796  18.968   3.033  1.00  0.00     0.682 A 
HETATM    2  N2  UNL     1     -23.058  19.450   3.084  1.00  0.00    -0.176 N 
ATOM      3  H2  UNL     1     -23.546  19.633   2.207  1.00  0.00     0.186 HD
HETATM    4  C8  UNL     1     -23.696  19.700   4.239  1.00  0.00     0.132 A 
HETATM    5  C16 UNL     1     -23.051  19.459   5.447  1.00  0.00     0.062 A 
HETATM    6  C17 UNL     1     -23.414  19.605   6.770  1.00  0.00     0.044 A 
HETATM    7  C18 UNL     1     -22.315  19.189   7.490  1.00  0.00     0.145 A 
HETATM    8  O1  UNL     1     -21.373  18.826   6.654  1.00  0.00    -0.304 OA
HETATM    9  C19 UNL     1     -21.764  18.969   5.408  1.00  0.00     0.176 A 
HETATM   10  N5  UNL     1     -21.181  18.740   4.205  1.00  0.00    -0.169 N 
ATOM     11  H5  UNL     1     -20.228  18.377   4.190  1.00  0.00     0.186 HD
ENDROOT
BRANCH   4  12
HETATM   12  N3  UNL     1     -24.883  20.153   4.317  1.00  0.00    -0.370 N 
ATOM     13  H3  UNL     1     -25.540  19.647   4.910  1.00  0.00     0.161 HD
BRANCH  12  14
HETATM   14  C9  UNL     1     -25.379  21.341   3.625  1.00  0.00     0.086 C 
HETATM   15  C10 UNL     1     -24.984  22.516   4.447  1.00  0.00     0.044 C 
HETATM   16  C11 UNL     1     -25.940  23.663   4.441  1.00  0.00     0.119 C 
HETATM   17  N4  UNL     1     -27.248  23.194   4.692  1.00  0.00    -0.413 N 
HETATM   18  C14 UNL     1     -27.755  22.209   3.803  1.00  0.00     0.119 C 
HETATM   19  C15 UNL     1     -26.800  21.250   3.234  1.00  0.00     0.044 C 
BRANCH  17  20
HETATM   20  C12 UNL     1     -27.661  23.104   6.049  1.00  0.00     0.112 C 
HETATM   21  C13 UNL     1     -27.321  24.308   6.886  1.00  0.00     0.026 C 
ENDBRANCH  17  20
ENDBRANCH  12  14
ENDBRANCH   4  12
BRANCH   1  22
HETATM   22  N1  UNL     1     -21.219  18.743   1.883  1.00  0.00    -0.221 N 
ATOM     23  H1  UNL     1     -21.244  17.793   1.514  1.00  0.00     0.178 HD
BRANCH  22  24
HETATM   24  C4  UNL     1     -20.555  19.748   1.108  1.00  0.00     0.099 C 
BRANCH  24  25
HETATM   25  C3  UNL     1     -19.056  19.718   1.310  1.00  0.00     0.025 C 
BRANCH  25  26
HETATM   26  C2  UNL     1     -18.549  21.151   1.198  1.00  0.00    -0.002 C 
HETATM   27  C1  UNL     1     -17.828  21.333  -0.125  1.00  0.00     0.005 C 
ENDBRANCH  25  26
ENDBRANCH  24  25
BRANCH  24  28
HETATM   28  C5  UNL     1     -21.054  21.150   1.353  1.00  0.00     0.021 C 
HETATM   29  C6  UNL     1     -22.047  21.473   0.250  1.00  0.00     0.007 C 
ENDBRANCH  24  28
ENDBRANCH  22  24
ENDBRANCH   1  22
TORSDOF 8
ENDMDL
MODEL 5
REMARK VINA RESULT: -7.831601080      3.889      7.098
REMARK  8 active torsions:
REMARK  status: ('A' for Active; 'I' for Inactive)
REMARK    1  A    between atoms: C2_2  and  C3_3 
REMARK    2  A    between atoms: C3_3  and  C4_4 
REMARK    3  A    between atoms: C4_4  and  C5_5 
REMARK    4  A    between atoms: C4_4  and  N1_7 
REMARK    5  A    between atoms: N1_7  and  C7_9 
REMARK    6  A    between atoms: C8_12  and  N3_13 
REMARK    7  A    between atoms: N3_13  and  C9_15 
REMARK    8  A    between atoms: N4_18  and  C12_19 
ROOT
HETATM    1  C7  UNL     1     -24.332  20.848   4.992  1.00  0.00     0.682 A 
HETATM    2  N2  UNL     1     -24.778  21.192   3.763  1.00  0.00    -0.176 N 
ATOM      3  H2  UNL     1     -24.385  20.717   2.950  1.00  0.00     0.186 HD
HETATM    4  C8  UNL     1     -25.717  22.131   3.566  1.00  0.00     0.132 A 
HETATM    5  C16 UNL     1     -26.269  22.793   4.658  1.00  0.00     0.062 A 
HETATM    6  C17 UNL     1     -27.223  23.780   4.795  1.00  0.00     0.044 A 
HETATM    7  C18 UNL     1     -27.317  23.998   6.153  1.00  0.00     0.145 A 
HETATM    8  O1  UNL     1     -26.480  23.201   6.770  1.00  0.00    -0.304 OA
HETATM    9  C19 UNL     1     -25.821  22.451   5.915  1.00  0.00     0.176 A 
HETATM   10  N5  UNL     1     -24.871  21.493   6.040  1.00  0.00    -0.169 N 
ATOM     11  H5  UNL     1     -24.548  21.249   6.976  1.00  0.00     0.186 HD
ENDROOT
BRANCH   4  12
HETATM   12  N3  UNL     1     -26.156  22.475   2.421  1.00  0.00    -0.370 N 
ATOM     13  H3  UNL     1     -26.135  23.468   2.190  1.00  0.00     0.161 HD
BRANCH  12  14
HETATM   14  C9  UNL     1     -26.688  21.560   1.413  1.00  0.00     0.086 C 
HETATM   15  C10 UNL     1     -25.914  21.796   0.165  1.00  0.00     0.044 C 
HETATM   16  C11 UNL     1     -26.673  21.631  -1.111  1.00  0.00     0.119 C 
HETATM   17  N4  UNL     1     -27.888  22.348  -1.038  1.00  0.00    -0.413 N 
HETATM   18  C14 UNL     1     -28.765  22.014   0.028  1.00  0.00     0.119 C 
HETATM   19  C15 UNL     1     -28.160  21.594   1.299  1.00  0.00     0.044 C 
BRANCH  17  20
HETATM   20  C12 UNL     1     -27.870  23.709  -1.448  1.00  0.00     0.112 C 
HETATM   21  C13 UNL     1     -27.727  23.912  -2.933  1.00  0.00     0.026 C 
ENDBRANCH  17  20
ENDBRANCH  12  14
ENDBRANCH   4  12
BRANCH   1  22
HETATM   22  N1  UNL     1     -23.416  19.927   5.129  1.00  0.00    -0.221 N 
ATOM     23  H1  UNL     1     -22.656  19.904   4.450  1.00  0.00     0.178 HD
BRANCH  22  24
HETATM   24  C4  UNL     1     -23.413  18.948   6.175  1.00  0.00     0.099 C 
BRANCH  24  25
HETATM   25  C3  UNL     1     -22.323  19.211   7.191  1.00  0.00     0.025 C 
BRANCH  25  26
HETATM   26  C2  UNL     1     -21.506  17.931   7.329  1.00  0.00    -0.002 C 
HETATM   27  C1  UNL     1     -20.044  18.282   7.532  1.00  0.00     0.005 C 
ENDBRANCH  25  26
ENDBRANCH  24  25
BRANCH  24  28
HETATM   28  C5  UNL     1     -23.297  17.525   5.690  1.00  0.00     0.021 C 
HETATM   29  C6  UNL     1     -23.618  17.530   4.204  1.00  0.00     0.007 C 
ENDBRANCH  24  28
ENDBRANCH  22  24
ENDBRANCH   1  22
TORSDOF 8
ENDMDL
