MODEL 1
REMARK VINA RESULT: -8.627391606      0.000      0.000
REMARK  7 active torsions:
REMARK  status: ('A' for Active; 'I' for Inactive)
REMARK    1  A    between atoms: N1_6  and  C6_7 
REMARK    2  A    between atoms: C7_10  and  N3_11 
REMARK    3  A    between atoms: C8_14  and  C9_15 
REMARK    4  A    between atoms: C9_15  and  C10_16 
REMARK       I    between atoms: C10_16  and  N4_18 
REMARK    5  A    between atoms: N4_18  and  C11_20 
REMARK    6  A    between atoms: C11_20  and  C12_21 
REMARK    7  A    between atoms: C16_26  and  N5_27 
ROOT
HETATM    1  C6  UNL     1       2.411  32.798  24.534  1.00  0.00     0.683 A 
HETATM    2  N2  UNL     1       2.742  31.486  24.354  1.00  0.00    -0.176 N 
ATOM      3  H2  UNL     1       2.003  30.826  24.112  1.00  0.00     0.186 HD
HETATM    4  C7  UNL     1       3.999  31.023  24.480  1.00  0.00     0.125 A 
HETATM    5  C8  UNL     1       4.973  31.939  24.807  1.00  0.00     0.041 A 
HETATM    6  C16 UNL     1       4.683  33.285  24.999  1.00  0.00     0.152 A 
HETATM    7  N7  UNL     1       3.412  33.665  24.855  1.00  0.00    -0.174 N 
ATOM      8  H7  UNL     1       3.179  34.649  24.993  1.00  0.00     0.186 HD
ENDROOT
BRANCH   5   9
HETATM    9  C9  UNL     1       6.359  31.474  24.948  1.00  0.00     0.149 C 
BRANCH   9  10
HETATM   10  C10 UNL     1       6.997  31.419  23.581  1.00  0.00     0.222 C 
HETATM   11  O1  UNL     1       6.400  30.879  22.616  1.00  0.00    -0.273 OA
HETATM   12  N4  UNL     1       8.276  31.972  23.348  1.00  0.00    -0.358 N 
ATOM     13  H4  UNL     1       8.769  32.414  24.123  1.00  0.00     0.162 HD
BRANCH  12  14
HETATM   14  C11 UNL     1       8.908  31.934  22.059  1.00  0.00     0.154 C 
BRANCH  14  15
HETATM   15  C12 UNL     1      10.393  31.750  22.083  1.00  0.00     0.139 C 
HETATM   16  C13 UNL     1      10.810  30.371  22.485  1.00  0.00     0.035 C 
HETATM   17  C14 UNL     1      12.139  30.606  23.154  1.00  0.00     0.029 C 
HETATM   18  C15 UNL     1      12.148  32.071  23.420  1.00  0.00     0.168 C 
HETATM   19  O2  UNL     1      10.891  32.569  23.097  1.00  0.00    -0.384 OA
ENDBRANCH  14  15
ENDBRANCH  12  14
ENDBRANCH   9  10
ENDBRANCH   5   9
BRANCH   4  20
HETATM   20  N3  UNL     1       4.281  29.767  24.303  1.00  0.00    -0.384 N 
ATOM     21  H32 UNL     1       3.646  29.144  23.805  1.00  0.00     0.157 HD
ATOM     22  H31 UNL     1       5.148  29.360  24.656  1.00  0.00     0.157 HD
ENDBRANCH   4  20
BRANCH   6  23
HETATM   23  N5  UNL     1       5.762  34.145  25.333  1.00  0.00    -0.249 N 
HETATM   24  C17 UNL     1       6.438  34.283  26.471  1.00  0.00     0.143 A 
HETATM   25  C18 UNL     1       7.401  35.256  26.300  1.00  0.00     0.068 A 
HETATM   26 CL1  UNL     1       8.581  35.843  27.484  1.00  0.00    -0.081 Cl
HETATM   27  C19 UNL     1       7.272  35.698  24.997  1.00  0.00     0.133 A 
HETATM   28  N6  UNL     1       6.269  35.004  24.441  1.00  0.00    -0.302 N 
ATOM     29  H6  UNL     1       5.941  35.114  23.482  1.00  0.00     0.186 HD
ENDBRANCH   6  23
BRANCH   1  30
HETATM   30  N1  UNL     1       1.077  33.211  24.385  1.00  0.00    -0.213 N 
HETATM   31  C2  UNL     1       0.570  34.098  23.375  1.00  0.00     0.098 C 
HETATM   32  C1  UNL     1       0.097  35.422  23.931  1.00  0.00     0.033 C 
HETATM   33  C3  UNL     1      -0.610  33.290  22.853  1.00  0.00     0.027 C 
HETATM   34  C4  UNL     1      -1.102  32.571  24.109  1.00  0.00     0.022 C 
HETATM   35  C5  UNL     1      -0.066  32.859  25.179  1.00  0.00     0.141 C 
ENDBRANCH   1  30
TORSDOF 7
ENDMDL
MODEL 2
REMARK VINA RESULT: -8.177774868      3.910      7.932
REMARK  7 active torsions:
REMARK  status: ('A' for Active; 'I' for Inactive)
REMARK    1  A    between atoms: N1_6  and  C6_7 
REMARK    2  A    between atoms: C7_10  and  N3_11 
REMARK    3  A    between atoms: C8_14  and  C9_15 
REMARK    4  A    between atoms: C9_15  and  C10_16 
REMARK       I    between atoms: C10_16  and  N4_18 
REMARK    5  A    between atoms: N4_18  and  C11_20 
REMARK    6  A    between atoms: C11_20  and  C12_21 
REMARK    7  A    between atoms: C16_26  and  N5_27 
ROOT
HETATM    1  C6  UNL     1       4.597  32.455  24.221  1.00  0.00     0.683 A 
HETATM    2  N2  UNL     1       4.661  33.799  23.994  1.00  0.00    -0.176 N 
ATOM      3  H2  UNL     1       5.551  34.201  23.696  1.00  0.00     0.186 HD
HETATM    4  C7  UNL     1       3.605  34.619  24.144  1.00  0.00     0.125 A 
HETATM    5  C8  UNL     1       2.421  34.045  24.545  1.00  0.00     0.041 A 
HETATM    6  C16 UNL     1       2.308  32.680  24.787  1.00  0.00     0.152 A 
HETATM    7  N7  UNL     1       3.402  31.935  24.616  1.00  0.00    -0.174 N 
ATOM      8  H7  UNL     1       3.339  30.932  24.789  1.00  0.00     0.186 HD
ENDROOT
BRANCH   5   9
HETATM    9  C9  UNL     1       1.242  34.905  24.714  1.00  0.00     0.149 C 
BRANCH   9  10
HETATM   10  C10 UNL     1       0.646  35.187  23.357  1.00  0.00     0.222 C 
HETATM   11  O1  UNL     1       0.108  34.269  22.688  1.00  0.00    -0.273 OA
HETATM   12  N4  UNL     1       0.674  36.486  22.800  1.00  0.00    -0.358 N 
ATOM     13  H4  UNL     1       1.107  37.239  23.334  1.00  0.00     0.162 HD
BRANCH  12  14
HETATM   14  C11 UNL     1       0.116  36.784  21.511  1.00  0.00     0.154 C 
BRANCH  14  15
HETATM   15  C12 UNL     1       1.061  36.639  20.359  1.00  0.00     0.139 C 
HETATM   16  C13 UNL     1       2.499  36.723  20.762  1.00  0.00     0.035 C 
HETATM   17  C14 UNL     1       3.155  37.304  19.537  1.00  0.00     0.029 C 
HETATM   18  C15 UNL     1       2.015  37.852  18.750  1.00  0.00     0.168 C 
HETATM   19  O2  UNL     1       0.871  37.747  19.531  1.00  0.00    -0.384 OA
ENDBRANCH  14  15
ENDBRANCH  12  14
ENDBRANCH   9  10
ENDBRANCH   5   9
BRANCH   4  20
HETATM   20  N3  UNL     1       3.700  35.896  23.920  1.00  0.00    -0.384 N 
ATOM     21  H32 UNL     1       4.570  36.316  23.597  1.00  0.00     0.157 HD
ATOM     22  H31 UNL     1       2.906  36.522  24.059  1.00  0.00     0.157 HD
ENDBRANCH   4  20
BRANCH   6  23
HETATM   23  N5  UNL     1       1.040  32.192  25.198  1.00  0.00    -0.249 N 
HETATM   24  C17 UNL     1       0.592  31.853  26.404  1.00  0.00     0.143 A 
HETATM   25  C18 UNL     1      -0.716  31.432  26.289  1.00  0.00     0.068 A 
HETATM   26 CL1  UNL     1      -1.798  30.869  27.574  1.00  0.00    -0.081 Cl
HETATM   27  C19 UNL     1      -1.036  31.534  24.948  1.00  0.00     0.133 A 
HETATM   28  N6  UNL     1       0.051  31.997  24.317  1.00  0.00    -0.302 N 
ATOM     29  H6  UNL     1       0.116  32.175  23.315  1.00  0.00     0.186 HD
ENDBRANCH   6  23
BRANCH   1  30
HETATM   30  N1  UNL     1       5.742  31.659  24.044  1.00  0.00    -0.213 N 
HETATM   31  C2  UNL     1       5.842  30.489  23.217  1.00  0.00     0.098 C 
HETATM   32  C1  UNL     1       6.037  29.217  24.010  1.00  0.00     0.033 C 
HETATM   33  C3  UNL     1       7.097  30.813  22.418  1.00  0.00     0.027 C 
HETATM   34  C4  UNL     1       7.943  31.588  23.428  1.00  0.00     0.022 C 
HETATM   35  C5  UNL     1       7.044  31.815  24.628  1.00  0.00     0.141 C 
ENDBRANCH   1  30
TORSDOF 7
ENDMDL
MODEL 3
REMARK VINA RESULT: -7.991760297      3.295      7.843
REMARK  7 active torsions:
REMARK  status: ('A' for Active; 'I' for Inactive)
REMARK    1  A    between atoms: N1_6  and  C6_7 
REMARK    2  A    between atoms: C7_10  and  N3_11 
REMARK    3  A    between atoms: C8_14  and  C9_15 
REMARK    4  A    between atoms: C9_15  and  C10_16 
REMARK       I    between atoms: C10_16  and  N4_18 
REMARK    5  A    between atoms: N4_18  and  C11_20 
REMARK    6  A    between atoms: C11_20  and  C12_21 
REMARK    7  A    between atoms: C16_26  and  N5_27 
ROOT
HETATM    1  C6  UNL     1       6.935  32.407  24.455  1.00  0.00     0.683 A 
HETATM    2  N2  UNL     1       7.394  33.595  24.946  1.00  0.00    -0.176 N 
ATOM      3  H2  UNL     1       8.387  33.810  24.853  1.00  0.00     0.186 HD
HETATM    4  C7  UNL     1       6.596  34.496  25.547  1.00  0.00     0.125 A 
HETATM    5  C8  UNL     1       5.263  34.176  25.656  1.00  0.00     0.041 A 
HETATM    6  C16 UNL     1       4.750  32.978  25.169  1.00  0.00     0.152 A 
HETATM    7  N7  UNL     1       5.607  32.137  24.587  1.00  0.00    -0.174 N 
ATOM      8  H7  UNL     1       5.250  31.252  24.224  1.00  0.00     0.186 HD
ENDROOT
BRANCH   5   9
HETATM    9  C9  UNL     1       4.356  35.137  26.300  1.00  0.00     0.149 C 
BRANCH   9  10
HETATM   10  C10 UNL     1       3.799  36.063  25.246  1.00  0.00     0.222 C 
HETATM   11  O1  UNL     1       4.565  36.696  24.477  1.00  0.00    -0.273 OA
HETATM   12  N4  UNL     1       2.405  36.244  25.095  1.00  0.00    -0.358 N 
ATOM     13  H4  UNL     1       1.774  35.735  25.713  1.00  0.00     0.162 HD
BRANCH  12  14
HETATM   14  C11 UNL     1       1.846  37.118  24.102  1.00  0.00     0.154 C 
BRANCH  14  15
HETATM   15  C12 UNL     1       1.357  36.441  22.860  1.00  0.00     0.139 C 
HETATM   16  C13 UNL     1       2.326  36.520  21.724  1.00  0.00     0.035 C 
HETATM   17  C14 UNL     1       1.426  36.510  20.516  1.00  0.00     0.029 C 
HETATM   18  C15 UNL     1       0.082  36.830  21.073  1.00  0.00     0.168 C 
HETATM   19  O2  UNL     1       0.245  37.157  22.414  1.00  0.00    -0.384 OA
ENDBRANCH  14  15
ENDBRANCH  12  14
ENDBRANCH   9  10
ENDBRANCH   5   9
BRANCH   4  20
HETATM   20  N3  UNL     1       7.064  35.619  26.005  1.00  0.00    -0.384 N 
ATOM     21  H32 UNL     1       8.067  35.781  26.093  1.00  0.00     0.157 HD
ATOM     22  H31 UNL     1       6.445  36.378  26.291  1.00  0.00     0.157 HD
ENDBRANCH   4  20
BRANCH   6  23
HETATM   23  N5  UNL     1       3.359  32.748  25.334  1.00  0.00    -0.249 N 
HETATM   24  C17 UNL     1       2.676  32.282  26.377  1.00  0.00     0.143 A 
HETATM   25  C18 UNL     1       1.338  32.237  26.046  1.00  0.00     0.068 A 
HETATM   26 CL1  UNL     1      -0.017  31.701  27.054  1.00  0.00    -0.081 Cl
HETATM   27  C19 UNL     1       1.247  32.701  24.747  1.00  0.00     0.133 A 
HETATM   28  N6  UNL     1       2.491  33.000  24.347  1.00  0.00    -0.302 N 
ATOM     29  H6  UNL     1       2.738  33.366  23.428  1.00  0.00     0.186 HD
ENDBRANCH   6  23
BRANCH   1  30
HETATM   30  N1  UNL     1       7.827  31.512  23.839  1.00  0.00    -0.213 N 
HETATM   31  C2  UNL     1       8.296  31.581  22.483  1.00  0.00     0.098 C 
HETATM   32  C1  UNL     1       7.791  30.445  21.623  1.00  0.00     0.033 C 
HETATM   33  C3  UNL     1       9.799  31.458  22.695  1.00  0.00     0.027 C 
HETATM   34  C4  UNL     1       9.888  30.523  23.901  1.00  0.00     0.022 C 
HETATM   35  C5  UNL     1       8.464  30.353  24.395  1.00  0.00     0.141 C 
ENDBRANCH   1  30
TORSDOF 7
ENDMDL
MODEL 4
REMARK VINA RESULT: -7.901745502      2.764      4.257
REMARK  7 active torsions:
REMARK  status: ('A' for Active; 'I' for Inactive)
REMARK    1  A    between atoms: N1_6  and  C6_7 
REMARK    2  A    between atoms: C7_10  and  N3_11 
REMARK    3  A    between atoms: C8_14  and  C9_15 
REMARK    4  A    between atoms: C9_15  and  C10_16 
REMARK       I    between atoms: C10_16  and  N4_18 
REMARK    5  A    between atoms: N4_18  and  C11_20 
REMARK    6  A    between atoms: C11_20  and  C12_21 
REMARK    7  A    between atoms: C16_26  and  N5_27 
ROOT
HETATM    1  C6  UNL     1       3.898  36.098  25.091  1.00  0.00     0.683 A 
HETATM    2  N2  UNL     1       4.906  36.540  25.898  1.00  0.00    -0.176 N 
ATOM      3  H2  UNL     1       4.888  37.510  26.213  1.00  0.00     0.186 HD
HETATM    4  C7  UNL     1       5.923  35.754  26.297  1.00  0.00     0.125 A 
HETATM    5  C8  UNL     1       5.918  34.452  25.855  1.00  0.00     0.041 A 
HETATM    6  C16 UNL     1       4.912  33.957  25.032  1.00  0.00     0.152 A 
HETATM    7  N7  UNL     1       3.938  34.800  24.680  1.00  0.00    -0.174 N 
ATOM      8  H7  UNL     1       3.191  34.456  24.077  1.00  0.00     0.186 HD
ENDROOT
BRANCH   5   9
HETATM    9  C9  UNL     1       7.008  33.560  26.274  1.00  0.00     0.149 C 
BRANCH   9  10
HETATM   10  C10 UNL     1       8.222  33.841  25.423  1.00  0.00     0.222 C 
HETATM   11  O1  UNL     1       8.830  34.938  25.512  1.00  0.00    -0.273 OA
HETATM   12  N4  UNL     1       8.709  32.883  24.504  1.00  0.00    -0.358 N 
ATOM     13  H4  UNL     1       8.225  31.990  24.423  1.00  0.00     0.162 HD
BRANCH  12  14
HETATM   14  C11 UNL     1       9.861  33.123  23.681  1.00  0.00     0.154 C 
BRANCH  14  15
HETATM   15  C12 UNL     1      10.244  31.992  22.777  1.00  0.00     0.139 C 
HETATM   16  C13 UNL     1      10.248  30.663  23.464  1.00  0.00     0.035 C 
HETATM   17  C14 UNL     1      11.307  29.902  22.711  1.00  0.00     0.029 C 
HETATM   18  C15 UNL     1      12.051  30.962  21.976  1.00  0.00     0.168 C 
HETATM   19  O2  UNL     1      11.575  32.193  22.410  1.00  0.00    -0.384 OA
ENDBRANCH  14  15
ENDBRANCH  12  14
ENDBRANCH   9  10
ENDBRANCH   5   9
BRANCH   4  20
HETATM   20  N3  UNL     1       6.869  36.207  27.066  1.00  0.00    -0.384 N 
ATOM     21  H32 UNL     1       7.568  35.585  27.472  1.00  0.00     0.157 HD
ATOM     22  H31 UNL     1       6.945  37.199  27.289  1.00  0.00     0.157 HD
ENDBRANCH   4  20
BRANCH   6  23
HETATM   23  N5  UNL     1       5.003  32.598  24.633  1.00  0.00    -0.249 N 
HETATM   24  C17 UNL     1       5.736  32.022  23.683  1.00  0.00     0.143 A 
HETATM   25  C18 UNL     1       5.473  30.668  23.680  1.00  0.00     0.068 A 
HETATM   26 CL1  UNL     1       6.168  29.425  22.627  1.00  0.00    -0.081 Cl
HETATM   27  C19 UNL     1       4.542  30.455  24.680  1.00  0.00     0.133 A 
HETATM   28  N6  UNL     1       4.279  31.646  25.235  1.00  0.00    -0.302 N 
ATOM     29  H6  UNL     1       3.627  31.804  26.003  1.00  0.00     0.186 HD
ENDBRANCH   6  23
BRANCH   1  30
HETATM   30  N1  UNL     1       2.867  36.975  24.713  1.00  0.00    -0.213 N 
HETATM   31  C2  UNL     1       1.460  36.689  24.736  1.00  0.00     0.098 C 
HETATM   32  C1  UNL     1       0.846  36.623  23.355  1.00  0.00     0.033 C 
HETATM   33  C3  UNL     1       0.935  37.903  25.491  1.00  0.00     0.027 C 
HETATM   34  C4  UNL     1       1.880  39.013  25.032  1.00  0.00     0.022 C 
HETATM   35  C5  UNL     1       2.966  38.322  24.230  1.00  0.00     0.141 C 
ENDBRANCH   1  30
TORSDOF 7
ENDMDL
MODEL 5
REMARK VINA RESULT: -7.897927803      2.816      7.189
REMARK  7 active torsions:
REMARK  status: ('A' for Active; 'I' for Inactive)
REMARK    1  A    between atoms: N1_6  and  C6_7 
REMARK    2  A    between atoms: C7_10  and  N3_11 
REMARK    3  A    between atoms: C8_14  and  C9_15 
REMARK    4  A    between atoms: C9_15  and  C10_16 
REMARK       I    between atoms: C10_16  and  N4_18 
REMARK    5  A    between atoms: N4_18  and  C11_20 
REMARK    6  A    between atoms: C11_20  and  C12_21 
REMARK    7  A    between atoms: C16_26  and  N5_27 
ROOT
HETATM    1  C6  UNL     1       6.220  32.678  24.647  1.00  0.00     0.683 A 
HETATM    2  N2  UNL     1       4.928  32.591  25.078  1.00  0.00    -0.176 N 
ATOM      3  H2  UNL     1       4.471  31.679  25.070  1.00  0.00     0.186 HD
HETATM    4  C7  UNL     1       4.228  33.655  25.514  1.00  0.00     0.125 A 
HETATM    5  C8  UNL     1       4.872  34.870  25.513  1.00  0.00     0.041 A 
HETATM    6  C16 UNL     1       6.188  35.006  25.083  1.00  0.00     0.152 A 
HETATM    7  N7  UNL     1       6.813  33.904  24.666  1.00  0.00    -0.174 N 
ATOM      8  H7  UNL     1       7.779  33.983  24.346  1.00  0.00     0.186 HD
ENDROOT
BRANCH   5   9
HETATM    9  C9  UNL     1       4.144  36.055  25.987  1.00  0.00     0.149 C 
BRANCH   9  10
HETATM   10  C10 UNL     1       3.245  36.550  24.881  1.00  0.00     0.222 C 
HETATM   11  O1  UNL     1       3.710  36.808  23.741  1.00  0.00    -0.273 OA
HETATM   12  N4  UNL     1       1.860  36.738  25.092  1.00  0.00    -0.358 N 
ATOM     13  H4  UNL     1       1.472  36.531  26.012  1.00  0.00     0.162 HD
BRANCH  12  14
HETATM   14  C11 UNL     1       0.980  37.208  24.059  1.00  0.00     0.154 C 
BRANCH  14  15
HETATM   15  C12 UNL     1       0.102  36.162  23.446  1.00  0.00     0.139 C 
HETATM   16  C13 UNL     1       0.204  34.833  24.126  1.00  0.00     0.035 C 
HETATM   17  C14 UNL     1      -0.078  33.864  23.008  1.00  0.00     0.029 C 
HETATM   18  C15 UNL     1       0.089  34.685  21.777  1.00  0.00     0.168 C 
HETATM   19  O2  UNL     1       0.583  35.926  22.158  1.00  0.00    -0.384 OA
ENDBRANCH  14  15
ENDBRANCH  12  14
ENDBRANCH   9  10
ENDBRANCH   5   9
BRANCH   4  20
HETATM   20  N3  UNL     1       2.997  33.539  25.918  1.00  0.00    -0.384 N 
ATOM     21  H32 UNL     1       2.314  32.993  25.393  1.00  0.00     0.157 HD
ATOM     22  H31 UNL     1       2.672  33.990  26.773  1.00  0.00     0.157 HD
ENDBRANCH   4  20
BRANCH   6  23
HETATM   23  N5  UNL     1       6.757  36.306  25.122  1.00  0.00    -0.249 N 
HETATM   24  C17 UNL     1       7.400  36.940  26.099  1.00  0.00     0.143 A 
HETATM   25  C18 UNL     1       7.761  38.194  25.652  1.00  0.00     0.068 A 
HETATM   26 CL1  UNL     1       8.636  39.457  26.534  1.00  0.00    -0.081 Cl
HETATM   27  C19 UNL     1       7.301  38.285  24.352  1.00  0.00     0.133 A 
HETATM   28  N6  UNL     1       6.697  37.123  24.064  1.00  0.00    -0.302 N 
ATOM     29  H6  UNL     1       6.258  36.896  23.172  1.00  0.00     0.186 HD
ENDBRANCH   6  23
BRANCH   1  30
HETATM   30  N1  UNL     1       6.889  31.524  24.205  1.00  0.00    -0.213 N 
HETATM   31  C2  UNL     1       6.384  30.555  23.274  1.00  0.00     0.098 C 
HETATM   32  C1  UNL     1       6.117  29.208  23.906  1.00  0.00     0.033 C 
HETATM   33  C3  UNL     1       7.551  30.461  22.300  1.00  0.00     0.027 C 
HETATM   34  C4  UNL     1       8.761  30.664  23.211  1.00  0.00     0.022 C 
HETATM   35  C5  UNL     1       8.195  31.051  24.565  1.00  0.00     0.141 C 
ENDBRANCH   1  30
TORSDOF 7
ENDMDL
