MODEL 1
REMARK VINA RESULT: -8.010885590      0.000      0.000
REMARK  18 active torsions:
REMARK  status: ('A' for Active; 'I' for Inactive)
REMARK    1  A    between atoms: N3_4  and  C2_6 
REMARK    2  A    between atoms: C2_6  and  C3_7 
REMARK    3  A    between atoms: C3_7  and  C4_8 
REMARK    4  A    between atoms: C4_8  and  C5_9 
REMARK    5  A    between atoms: C5_9  and  C6_10 
REMARK    6  A    between atoms: C6_10  and  C7_11 
REMARK    7  A    between atoms: C7_11  and  N4_12 
REMARK    8  A    between atoms: N4_12  and  N5_14 
REMARK    9  A    between atoms: N5_14  and  C8_16 
REMARK   10  A    between atoms: C8_16  and  O1_17 
REMARK   11  A    between atoms: C9_19  and  N6_20 
REMARK   12  A    between atoms: C13_24  and  N7_25 
REMARK       I    between atoms: N7_25  and  C14_27 
REMARK   13  A    between atoms: C14_27  and  C15_29 
REMARK   14  A    between atoms: C15_29  and  C16_30 
REMARK   15  A    between atoms: C16_30  and  C17_31 
REMARK   16  A    between atoms: C17_31  and  C18_32 
REMARK   17  A    between atoms: C18_32  and  C19_33 
REMARK   18  A    between atoms: C19_33  and  N8_34 
ROOT
HETATM    1  N6  UNL     1      -1.547   5.708  93.496  1.00  0.00    -0.287 NA
HETATM    2  C10 UNL     1      -2.891   5.735  92.877  1.00  0.00     0.095 C 
HETATM    3  C11 UNL     1      -2.927   6.704  91.738  1.00  0.00     0.017 C 
HETATM    4  C12 UNL     1      -2.380   8.039  92.269  1.00  0.00     0.027 C 
HETATM    5  C13 UNL     1      -0.895   7.822  92.521  1.00  0.00     0.097 C 
HETATM    6  C25 UNL     1      -0.592   6.318  92.658  1.00  0.00     0.120 C 
ENDROOT
BRANCH   5   7
HETATM    7  N7  UNL     1      -0.167   8.338  91.401  1.00  0.00    -0.355 N 
HETATM    8  C14 UNL     1       0.275   9.667  91.227  1.00  0.00     0.217 C 
HETATM    9  O2  UNL     1       0.062  10.555  92.057  1.00  0.00    -0.274 OA
ATOM     10  H7  UNL     1       0.053   7.679  90.654  1.00  0.00     0.162 HD
BRANCH   8  11
HETATM   11  C15 UNL     1       1.043  10.044  89.979  1.00  0.00     0.103 C 
BRANCH  11  12
HETATM   12  C16 UNL     1       2.065  11.092  90.179  1.00  0.00     0.009 C 
BRANCH  12  13
HETATM   13  C17 UNL     1       3.495  10.577  89.827  1.00  0.00     0.002 C 
BRANCH  13  14
HETATM   14  C18 UNL     1       4.252  10.459  91.134  1.00  0.00     0.020 C 
BRANCH  14  15
HETATM   15  C19 UNL     1       3.647  11.293  92.214  1.00  0.00     0.133 C 
BRANCH  15  16
HETATM   16  N8  UNL     1       4.255  11.043  93.483  1.00  0.00    -0.310 N 
HETATM   17  C20 UNL     1       4.742   9.866  93.846  1.00  0.00     0.187 A 
HETATM   18  N9  UNL     1       5.249   9.722  95.067  1.00  0.00    -0.336 N 
HETATM   19  C21 UNL     1       5.301  10.696  95.970  1.00  0.00     0.138 A 
ATOM     20  H9  UNL     1       5.622   8.807  95.326  1.00  0.00     0.168 HD
HETATM   21  N10 UNL     1       5.726  10.850  97.217  1.00  0.00    -0.285 N 
HETATM   22  C23 UNL     1       4.783  11.943  95.587  1.00  0.00     0.094 A 
HETATM   23  N11 UNL     1       5.531  12.058  97.658  1.00  0.00    -0.309 N 
ATOM     24  H10 UNL     1       6.156  10.107  97.767  1.00  0.00     0.188 HD
HETATM   25  C22 UNL     1       4.955  12.749  96.677  1.00  0.00     0.128 A 
ATOM     26  H11 UNL     1       5.775  12.410  98.583  1.00  0.00     0.186 HD
HETATM   27  C24 UNL     1       4.259  12.119  94.343  1.00  0.00     0.264 A 
HETATM   28  O3  UNL     1       3.799  13.216  94.000  1.00  0.00    -0.267 OA
ENDBRANCH  15  16
ENDBRANCH  14  15
ENDBRANCH  13  14
ENDBRANCH  12  13
ENDBRANCH  11  12
ENDBRANCH   8  11
ENDBRANCH   5   7
BRANCH   1  29
HETATM   29  C9  UNL     1      -1.320   4.352  93.813  1.00  0.00     0.117 C 
HETATM   30  C8  UNL     1      -0.373   3.929  94.807  1.00  0.00     0.165 C 
BRANCH  30  31
HETATM   31  N5  UNL     1      -0.222   2.574  95.109  1.00  0.00    -0.284 N 
ATOM     32  H5  UNL     1       0.705   2.189  94.927  1.00  0.00     0.188 HD
BRANCH  31  33
HETATM   33  N4  UNL     1      -1.107   1.708  95.599  1.00  0.00    -0.334 N 
ATOM     34  H4  UNL     1      -1.533   1.008  94.992  1.00  0.00     0.180 HD
BRANCH  33  35
HETATM   35  C7  UNL     1      -1.460   1.772  97.013  1.00  0.00     0.139 C 
BRANCH  35  36
HETATM   36  C6  UNL     1      -2.915   2.336  97.052  1.00  0.00     0.021 C 
BRANCH  36  37
HETATM   37  C5  UNL     1      -3.300   2.989  98.305  1.00  0.00     0.002 C 
BRANCH  37  38
HETATM   38  C4  UNL     1      -3.465   4.452  98.166  1.00  0.00     0.002 C 
BRANCH  38  39
HETATM   39  C3  UNL     1      -3.103   5.213  96.969  1.00  0.00     0.020 C 
BRANCH  39  40
HETATM   40  C2  UNL     1      -2.866   6.693  97.086  1.00  0.00     0.122 C 
BRANCH  40  41
HETATM   41  N3  UNL     1      -1.620   6.986  96.353  1.00  0.00    -0.367 N 
HETATM   42  C1  UNL     1      -0.886   7.998  96.587  1.00  0.00     0.196 C 
HETATM   43  N1  UNL     1       0.300   8.118  95.768  1.00  0.00    -0.067 NA
HETATM   44  N2  UNL     1      -1.181   8.946  97.562  1.00  0.00    -0.067 NA
ATOM     45  H3  UNL     1      -1.331   6.341  95.618  1.00  0.00     0.161 HD
ENDBRANCH  40  41
ENDBRANCH  39  40
ENDBRANCH  38  39
ENDBRANCH  37  38
ENDBRANCH  36  37
ENDBRANCH  35  36
ENDBRANCH  33  35
ENDBRANCH  31  33
ENDBRANCH  30  31
BRANCH  30  46
HETATM   46  O1  UNL     1       0.380   4.792  95.434  1.00  0.00    -0.344 OA
ATOM     47  H1  UNL     1       0.033   5.661  95.596  1.00  0.00     0.219 HD
ENDBRANCH  30  46
ENDBRANCH   1  29
TORSDOF 18
ENDMDL
MODEL 2
REMARK VINA RESULT: -7.317667236      1.879      2.981
REMARK  18 active torsions:
REMARK  status: ('A' for Active; 'I' for Inactive)
REMARK    1  A    between atoms: N3_4  and  C2_6 
REMARK    2  A    between atoms: C2_6  and  C3_7 
REMARK    3  A    between atoms: C3_7  and  C4_8 
REMARK    4  A    between atoms: C4_8  and  C5_9 
REMARK    5  A    between atoms: C5_9  and  C6_10 
REMARK    6  A    between atoms: C6_10  and  C7_11 
REMARK    7  A    between atoms: C7_11  and  N4_12 
REMARK    8  A    between atoms: N4_12  and  N5_14 
REMARK    9  A    between atoms: N5_14  and  C8_16 
REMARK   10  A    between atoms: C8_16  and  O1_17 
REMARK   11  A    between atoms: C9_19  and  N6_20 
REMARK   12  A    between atoms: C13_24  and  N7_25 
REMARK       I    between atoms: N7_25  and  C14_27 
REMARK   13  A    between atoms: C14_27  and  C15_29 
REMARK   14  A    between atoms: C15_29  and  C16_30 
REMARK   15  A    between atoms: C16_30  and  C17_31 
REMARK   16  A    between atoms: C17_31  and  C18_32 
REMARK   17  A    between atoms: C18_32  and  C19_33 
REMARK   18  A    between atoms: C19_33  and  N8_34 
ROOT
HETATM    1  N6  UNL     1      -2.608   6.040  93.528  1.00  0.00    -0.287 NA
HETATM    2  C10 UNL     1      -4.055   5.728  93.571  1.00  0.00     0.095 C 
HETATM    3  C11 UNL     1      -4.823   6.671  92.702  1.00  0.00     0.017 C 
HETATM    4  C12 UNL     1      -4.407   8.094  93.109  1.00  0.00     0.027 C 
HETATM    5  C13 UNL     1      -2.964   8.265  92.653  1.00  0.00     0.097 C 
HETATM    6  C25 UNL     1      -2.306   6.887  92.445  1.00  0.00     0.120 C 
ENDROOT
BRANCH   5   7
HETATM    7  N7  UNL     1      -2.966   8.967  91.405  1.00  0.00    -0.355 N 
HETATM    8  C14 UNL     1      -2.385  10.228  91.151  1.00  0.00     0.217 C 
HETATM    9  O2  UNL     1      -1.799  10.880  92.019  1.00  0.00    -0.274 OA
ATOM     10  H7  UNL     1      -3.434   8.511  90.622  1.00  0.00     0.162 HD
BRANCH   8  11
HETATM   11  C15 UNL     1      -2.472  10.827  89.764  1.00  0.00     0.103 C 
BRANCH  11  12
HETATM   12  C16 UNL     1      -1.233  10.714  88.967  1.00  0.00     0.009 C 
BRANCH  12  13
HETATM   13  C17 UNL     1      -1.127   9.325  88.262  1.00  0.00     0.002 C 
BRANCH  13  14
HETATM   14  C18 UNL     1       0.050   8.606  88.886  1.00  0.00     0.020 C 
BRANCH  14  15
HETATM   15  C19 UNL     1       1.082   9.553  89.403  1.00  0.00     0.133 C 
BRANCH  15  16
HETATM   16  N8  UNL     1       1.390   9.305  90.776  1.00  0.00    -0.310 N 
HETATM   17  C20 UNL     1       0.695   8.485  91.549  1.00  0.00     0.187 A 
HETATM   18  N9  UNL     1       1.035   8.355  92.829  1.00  0.00    -0.336 N 
HETATM   19  C21 UNL     1       2.043   9.006  93.400  1.00  0.00     0.138 A 
ATOM     20  H9  UNL     1       0.488   7.716  93.407  1.00  0.00     0.168 HD
HETATM   21  N10 UNL     1       2.599   9.085  94.601  1.00  0.00    -0.285 N 
HETATM   22  C23 UNL     1       2.778   9.877  92.582  1.00  0.00     0.094 A 
HETATM   23  N11 UNL     1       3.604   9.910  94.625  1.00  0.00    -0.309 N 
ATOM     24  H10 UNL     1       2.277   8.558  95.413  1.00  0.00     0.188 HD
HETATM   25  C22 UNL     1       3.736  10.410  93.399  1.00  0.00     0.128 A 
ATOM     26  H11 UNL     1       4.183  10.133  95.435  1.00  0.00     0.186 HD
HETATM   27  C24 UNL     1       2.454  10.029  91.268  1.00  0.00     0.264 A 
HETATM   28  O3  UNL     1       3.097  10.798  90.542  1.00  0.00    -0.267 OA
ENDBRANCH  15  16
ENDBRANCH  14  15
ENDBRANCH  13  14
ENDBRANCH  12  13
ENDBRANCH  11  12
ENDBRANCH   8  11
ENDBRANCH   5   7
BRANCH   1  29
HETATM   29  C9  UNL     1      -1.965   4.784  93.533  1.00  0.00     0.117 C 
HETATM   30  C8  UNL     1      -0.602   4.604  93.951  1.00  0.00     0.165 C 
BRANCH  30  31
HETATM   31  N5  UNL     1      -0.033   3.329  93.975  1.00  0.00    -0.284 N 
ATOM     32  H5  UNL     1       0.572   3.109  93.183  1.00  0.00     0.188 HD
BRANCH  31  33
HETATM   33  N4  UNL     1      -0.160   2.357  94.876  1.00  0.00    -0.334 N 
ATOM     34  H4  UNL     1      -0.097   1.380  94.592  1.00  0.00     0.180 HD
BRANCH  33  35
HETATM   35  C7  UNL     1      -0.392   2.706  96.273  1.00  0.00     0.139 C 
BRANCH  35  36
HETATM   36  C6  UNL     1      -1.713   1.975  96.669  1.00  0.00     0.021 C 
BRANCH  36  37
HETATM   37  C5  UNL     1      -2.672   2.781  97.428  1.00  0.00     0.002 C 
BRANCH  37  38
HETATM   38  C4  UNL     1      -2.644   4.212  97.057  1.00  0.00     0.002 C 
BRANCH  38  39
HETATM   39  C3  UNL     1      -3.394   5.260  97.753  1.00  0.00     0.020 C 
BRANCH  39  40
HETATM   40  C2  UNL     1      -3.449   6.639  97.157  1.00  0.00     0.122 C 
BRANCH  40  41
HETATM   41  N3  UNL     1      -2.156   6.867  96.484  1.00  0.00    -0.367 N 
HETATM   42  C1  UNL     1      -1.546   7.982  96.490  1.00  0.00     0.196 C 
HETATM   43  N1  UNL     1      -0.288   8.016  95.778  1.00  0.00    -0.067 NA
HETATM   44  N2  UNL     1      -2.036   9.117  97.130  1.00  0.00    -0.067 NA
ATOM     45  H3  UNL     1      -1.728   6.086  95.987  1.00  0.00     0.161 HD
ENDBRANCH  40  41
ENDBRANCH  39  40
ENDBRANCH  38  39
ENDBRANCH  37  38
ENDBRANCH  36  37
ENDBRANCH  35  36
ENDBRANCH  33  35
ENDBRANCH  31  33
ENDBRANCH  30  31
BRANCH  30  46
HETATM   46  O1  UNL     1       0.139   5.622  94.296  1.00  0.00    -0.344 OA
ATOM     47  H1  UNL     1      -0.042   6.052  95.123  1.00  0.00     0.219 HD
ENDBRANCH  30  46
ENDBRANCH   1  29
TORSDOF 18
ENDMDL
MODEL 3
REMARK VINA RESULT: -7.097089318      2.615      3.560
REMARK  18 active torsions:
REMARK  status: ('A' for Active; 'I' for Inactive)
REMARK    1  A    between atoms: N3_4  and  C2_6 
REMARK    2  A    between atoms: C2_6  and  C3_7 
REMARK    3  A    between atoms: C3_7  and  C4_8 
REMARK    4  A    between atoms: C4_8  and  C5_9 
REMARK    5  A    between atoms: C5_9  and  C6_10 
REMARK    6  A    between atoms: C6_10  and  C7_11 
REMARK    7  A    between atoms: C7_11  and  N4_12 
REMARK    8  A    between atoms: N4_12  and  N5_14 
REMARK    9  A    between atoms: N5_14  and  C8_16 
REMARK   10  A    between atoms: C8_16  and  O1_17 
REMARK   11  A    between atoms: C9_19  and  N6_20 
REMARK   12  A    between atoms: C13_24  and  N7_25 
REMARK       I    between atoms: N7_25  and  C14_27 
REMARK   13  A    between atoms: C14_27  and  C15_29 
REMARK   14  A    between atoms: C15_29  and  C16_30 
REMARK   15  A    between atoms: C16_30  and  C17_31 
REMARK   16  A    between atoms: C17_31  and  C18_32 
REMARK   17  A    between atoms: C18_32  and  C19_33 
REMARK   18  A    between atoms: C19_33  and  N8_34 
ROOT
HETATM    1  N6  UNL     1       0.250   5.343  94.646  1.00  0.00    -0.287 NA
HETATM    2  C10 UNL     1       0.480   6.332  95.723  1.00  0.00     0.095 C 
HETATM    3  C11 UNL     1       0.384   7.725  95.188  1.00  0.00     0.017 C 
HETATM    4  C12 UNL     1       1.312   7.801  93.965  1.00  0.00     0.027 C 
HETATM    5  C13 UNL     1       0.666   6.945  92.884  1.00  0.00     0.097 C 
HETATM    6  C25 UNL     1      -0.328   5.952  93.515  1.00  0.00     0.120 C 
ENDROOT
BRANCH   5   7
HETATM    7  N7  UNL     1      -0.047   7.809  91.993  1.00  0.00    -0.355 N 
HETATM    8  C14 UNL     1       0.088   7.864  90.590  1.00  0.00     0.217 C 
HETATM    9  O2  UNL     1       0.876   7.147  89.966  1.00  0.00    -0.274 OA
ATOM     10  H7  UNL     1      -0.722   8.447  92.414  1.00  0.00     0.162 HD
BRANCH   8  11
HETATM   11  C15 UNL     1      -0.755   8.836  89.792  1.00  0.00     0.103 C 
BRANCH  11  12
HETATM   12  C16 UNL     1      -0.392   8.936  88.363  1.00  0.00     0.009 C 
BRANCH  12  13
HETATM   13  C17 UNL     1      -0.817  10.309  87.756  1.00  0.00     0.002 C 
BRANCH  13  14
HETATM   14  C18 UNL     1      -0.259  11.382  88.667  1.00  0.00     0.020 C 
BRANCH  14  15
HETATM   15  C19 UNL     1       1.213  11.558  88.497  1.00  0.00     0.133 C 
BRANCH  15  16
HETATM   16  N8  UNL     1       1.915  11.389  89.731  1.00  0.00    -0.310 N 
HETATM   17  C20 UNL     1       1.428  11.750  90.908  1.00  0.00     0.187 A 
HETATM   18  N9  UNL     1       2.176  11.593  91.997  1.00  0.00    -0.336 N 
HETATM   19  C21 UNL     1       3.407  11.092  91.986  1.00  0.00     0.138 A 
ATOM     20  H9  UNL     1       1.782  11.875  92.895  1.00  0.00     0.168 HD
HETATM   21  N10 UNL     1       4.362  10.826  92.867  1.00  0.00    -0.285 N 
HETATM   22  C23 UNL     1       3.925  10.711  90.738  1.00  0.00     0.094 A 
HETATM   23  N11 UNL     1       5.422  10.321  92.308  1.00  0.00    -0.309 N 
ATOM     24  H10 UNL     1       4.275  10.998  93.869  1.00  0.00     0.188 HD
HETATM   25  C22 UNL     1       5.180  10.239  91.003  1.00  0.00     0.128 A 
ATOM     26  H11 UNL     1       6.279  10.039  92.783  1.00  0.00     0.186 HD
HETATM   27  C24 UNL     1       3.180  10.859  89.608  1.00  0.00     0.264 A 
HETATM   28  O3  UNL     1       3.632  10.528  88.504  1.00  0.00    -0.267 OA
ENDBRANCH  15  16
ENDBRANCH  14  15
ENDBRANCH  13  14
ENDBRANCH  12  13
ENDBRANCH  11  12
ENDBRANCH   8  11
ENDBRANCH   5   7
BRANCH   1  29
HETATM   29  C9  UNL     1      -0.503   4.315  95.251  1.00  0.00     0.117 C 
HETATM   30  C8  UNL     1      -0.399   2.935  94.863  1.00  0.00     0.165 C 
BRANCH  30  31
HETATM   31  N5  UNL     1      -1.138   1.956  95.529  1.00  0.00    -0.284 N 
ATOM     32  H5  UNL     1      -0.782   1.004  95.433  1.00  0.00     0.188 HD
BRANCH  31  33
HETATM   33  N4  UNL     1      -2.237   2.076  96.270  1.00  0.00    -0.334 N 
ATOM     34  H4  UNL     1      -3.048   2.581  95.912  1.00  0.00     0.180 HD
BRANCH  33  35
HETATM   35  C7  UNL     1      -2.269   1.479  97.601  1.00  0.00     0.139 C 
BRANCH  35  36
HETATM   36  C6  UNL     1      -3.126   2.450  98.471  1.00  0.00     0.021 C 
BRANCH  36  37
HETATM   37  C5  UNL     1      -3.279   3.804  97.933  1.00  0.00     0.002 C 
BRANCH  37  38
HETATM   38  C4  UNL     1      -4.279   4.608  98.668  1.00  0.00     0.002 C 
BRANCH  38  39
HETATM   39  C3  UNL     1      -4.131   6.033  98.971  1.00  0.00     0.020 C 
BRANCH  39  40
HETATM   40  C2  UNL     1      -4.049   7.018  97.838  1.00  0.00     0.122 C 
BRANCH  40  41
HETATM   41  N3  UNL     1      -2.679   7.564  97.846  1.00  0.00    -0.367 N 
HETATM   42  C1  UNL     1      -2.395   8.748  98.213  1.00  0.00     0.196 C 
HETATM   43  N1  UNL     1      -0.994   9.106  98.154  1.00  0.00    -0.067 NA
HETATM   44  N2  UNL     1      -3.350   9.663  98.645  1.00  0.00    -0.067 NA
ATOM     45  H3  UNL     1      -1.918   6.958  97.539  1.00  0.00     0.161 HD
ENDBRANCH  40  41
ENDBRANCH  39  40
ENDBRANCH  38  39
ENDBRANCH  37  38
ENDBRANCH  36  37
ENDBRANCH  35  36
ENDBRANCH  33  35
ENDBRANCH  31  33
ENDBRANCH  30  31
BRANCH  30  46
HETATM   46  O1  UNL     1       0.369   2.569  93.872  1.00  0.00    -0.344 OA
ATOM     47  H1  UNL     1       0.038   1.923  93.260  1.00  0.00     0.219 HD
ENDBRANCH  30  46
ENDBRANCH   1  29
TORSDOF 18
ENDMDL
MODEL 4
REMARK VINA RESULT: -6.962011199      3.528      9.412
REMARK  18 active torsions:
REMARK  status: ('A' for Active; 'I' for Inactive)
REMARK    1  A    between atoms: N3_4  and  C2_6 
REMARK    2  A    between atoms: C2_6  and  C3_7 
REMARK    3  A    between atoms: C3_7  and  C4_8 
REMARK    4  A    between atoms: C4_8  and  C5_9 
REMARK    5  A    between atoms: C5_9  and  C6_10 
REMARK    6  A    between atoms: C6_10  and  C7_11 
REMARK    7  A    between atoms: C7_11  and  N4_12 
REMARK    8  A    between atoms: N4_12  and  N5_14 
REMARK    9  A    between atoms: N5_14  and  C8_16 
REMARK   10  A    between atoms: C8_16  and  O1_17 
REMARK   11  A    between atoms: C9_19  and  N6_20 
REMARK   12  A    between atoms: C13_24  and  N7_25 
REMARK       I    between atoms: N7_25  and  C14_27 
REMARK   13  A    between atoms: C14_27  and  C15_29 
REMARK   14  A    between atoms: C15_29  and  C16_30 
REMARK   15  A    between atoms: C16_30  and  C17_31 
REMARK   16  A    between atoms: C17_31  and  C18_32 
REMARK   17  A    between atoms: C18_32  and  C19_33 
REMARK   18  A    between atoms: C19_33  and  N8_34 
ROOT
HETATM    1  N6  UNL     1      -0.658   8.310  94.276  1.00  0.00    -0.287 NA
HETATM    2  C10 UNL     1       0.635   7.649  94.568  1.00  0.00     0.095 C 
HETATM    3  C11 UNL     1       0.529   6.807  95.799  1.00  0.00     0.017 C 
HETATM    4  C12 UNL     1      -0.061   7.699  96.903  1.00  0.00     0.027 C 
HETATM    5  C13 UNL     1      -1.508   7.963  96.512  1.00  0.00     0.097 C 
HETATM    6  C25 UNL     1      -1.706   7.715  95.005  1.00  0.00     0.120 C 
ENDROOT
BRANCH   5   7
HETATM    7  N7  UNL     1      -2.344   7.058  97.242  1.00  0.00    -0.355 N 
HETATM    8  C14 UNL     1      -3.336   7.406  98.183  1.00  0.00     0.217 C 
HETATM    9  O2  UNL     1      -3.585   8.575  98.489  1.00  0.00    -0.274 OA
ATOM     10  H7  UNL     1      -2.210   6.063  97.063  1.00  0.00     0.162 HD
BRANCH   8  11
HETATM   11  C15 UNL     1      -4.140   6.318  98.862  1.00  0.00     0.103 C 
BRANCH  11  12
HETATM   12  C16 UNL     1      -3.747   4.942  98.493  1.00  0.00     0.009 C 
BRANCH  12  13
HETATM   13  C17 UNL     1      -4.712   4.332  97.430  1.00  0.00     0.002 C 
BRANCH  13  14
HETATM   14  C18 UNL     1      -3.848   3.620  96.410  1.00  0.00     0.020 C 
BRANCH  14  15
HETATM   15  C19 UNL     1      -3.490   4.501  95.259  1.00  0.00     0.133 C 
BRANCH  15  16
HETATM   16  N8  UNL     1      -2.194   4.198  94.740  1.00  0.00    -0.310 N 
HETATM   17  C20 UNL     1      -1.270   3.531  95.414  1.00  0.00     0.187 A 
HETATM   18  N9  UNL     1      -0.076   3.336  94.861  1.00  0.00    -0.336 N 
HETATM   19  C21 UNL     1       0.264   3.777  93.653  1.00  0.00     0.138 A 
ATOM     20  H9  UNL     1       0.622   2.818  95.396  1.00  0.00     0.168 HD
HETATM   21  N10 UNL     1       1.331   3.744  92.867  1.00  0.00    -0.285 N 
HETATM   22  C23 UNL     1      -0.715   4.485  92.939  1.00  0.00     0.094 A 
HETATM   23  N11 UNL     1       1.129   4.355  91.737  1.00  0.00    -0.309 N 
ATOM     24  H10 UNL     1       2.209   3.291  93.118  1.00  0.00     0.188 HD
HETATM   25  C22 UNL     1      -0.119   4.818  91.755  1.00  0.00     0.128 A 
ATOM     26  H11 UNL     1       1.801   4.459  90.977  1.00  0.00     0.186 HD
HETATM   27  C24 UNL     1      -1.945   4.697  93.481  1.00  0.00     0.264 A 
HETATM   28  O3  UNL     1      -2.812   5.324  92.857  1.00  0.00    -0.267 OA
ENDBRANCH  15  16
ENDBRANCH  14  15
ENDBRANCH  13  14
ENDBRANCH  12  13
ENDBRANCH  11  12
ENDBRANCH   8  11
ENDBRANCH   5   7
BRANCH   1  29
HETATM   29  C9  UNL     1      -0.777   8.270  92.871  1.00  0.00     0.117 C 
HETATM   30  C8  UNL     1      -0.119   9.206  92.002  1.00  0.00     0.165 C 
BRANCH  30  31
HETATM   31  N5  UNL     1      -0.238   9.089  90.616  1.00  0.00    -0.284 N 
ATOM     32  H5  UNL     1       0.403   8.427  90.179  1.00  0.00     0.188 HD
BRANCH  31  33
HETATM   33  N4  UNL     1      -1.064   9.713  89.778  1.00  0.00    -0.334 N 
ATOM     34  H4  UNL     1      -1.652  10.478  90.107  1.00  0.00     0.180 HD
BRANCH  33  35
HETATM   35  C7  UNL     1      -1.117   9.290  88.383  1.00  0.00     0.139 C 
BRANCH  35  36
HETATM   36  C6  UNL     1      -1.631  10.533  87.592  1.00  0.00     0.021 C 
BRANCH  36  37
HETATM   37  C5  UNL     1      -1.155  10.638  86.211  1.00  0.00     0.002 C 
BRANCH  37  38
HETATM   38  C4  UNL     1      -0.209  11.757  86.010  1.00  0.00     0.002 C 
BRANCH  38  39
HETATM   39  C3  UNL     1      -0.149  12.949  86.858  1.00  0.00     0.020 C 
BRANCH  39  40
HETATM   40  C2  UNL     1       1.129  13.270  87.582  1.00  0.00     0.122 C 
BRANCH  40  41
HETATM   41  N3  UNL     1       1.754  11.981  87.936  1.00  0.00    -0.367 N 
HETATM   42  C1  UNL     1       1.705  11.471  89.100  1.00  0.00     0.196 C 
HETATM   43  N1  UNL     1       2.376  10.199  89.258  1.00  0.00    -0.067 NA
HETATM   44  N2  UNL     1       1.058  12.077  90.173  1.00  0.00    -0.067 NA
ATOM     45  H3  UNL     1       2.253  11.472  87.207  1.00  0.00     0.161 HD
ENDBRANCH  40  41
ENDBRANCH  39  40
ENDBRANCH  38  39
ENDBRANCH  37  38
ENDBRANCH  36  37
ENDBRANCH  35  36
ENDBRANCH  33  35
ENDBRANCH  31  33
ENDBRANCH  30  31
BRANCH  30  46
HETATM   46  O1  UNL     1       0.586  10.194  92.484  1.00  0.00    -0.344 OA
ATOM     47  H1  UNL     1       0.511  11.046  92.072  1.00  0.00     0.219 HD
ENDBRANCH  30  46
ENDBRANCH   1  29
TORSDOF 18
ENDMDL
MODEL 5
REMARK VINA RESULT: -6.899413621      2.031      9.454
REMARK  18 active torsions:
REMARK  status: ('A' for Active; 'I' for Inactive)
REMARK    1  A    between atoms: N3_4  and  C2_6 
REMARK    2  A    between atoms: C2_6  and  C3_7 
REMARK    3  A    between atoms: C3_7  and  C4_8 
REMARK    4  A    between atoms: C4_8  and  C5_9 
REMARK    5  A    between atoms: C5_9  and  C6_10 
REMARK    6  A    between atoms: C6_10  and  C7_11 
REMARK    7  A    between atoms: C7_11  and  N4_12 
REMARK    8  A    between atoms: N4_12  and  N5_14 
REMARK    9  A    between atoms: N5_14  and  C8_16 
REMARK   10  A    between atoms: C8_16  and  O1_17 
REMARK   11  A    between atoms: C9_19  and  N6_20 
REMARK   12  A    between atoms: C13_24  and  N7_25 
REMARK       I    between atoms: N7_25  and  C14_27 
REMARK   13  A    between atoms: C14_27  and  C15_29 
REMARK   14  A    between atoms: C15_29  and  C16_30 
REMARK   15  A    between atoms: C16_30  and  C17_31 
REMARK   16  A    between atoms: C17_31  and  C18_32 
REMARK   17  A    between atoms: C18_32  and  C19_33 
REMARK   18  A    between atoms: C19_33  and  N8_34 
ROOT
HETATM    1  N6  UNL     1      -0.836   8.290  94.581  1.00  0.00    -0.287 NA
HETATM    2  C10 UNL     1       0.379   7.866  95.314  1.00  0.00     0.095 C 
HETATM    3  C11 UNL     1       0.017   7.294  96.647  1.00  0.00     0.017 C 
HETATM    4  C12 UNL     1      -0.892   8.319  97.343  1.00  0.00     0.027 C 
HETATM    5  C13 UNL     1      -2.205   8.319  96.574  1.00  0.00     0.097 C 
HETATM    6  C25 UNL     1      -1.995   7.738  95.162  1.00  0.00     0.120 C 
ENDROOT
BRANCH   5   7
HETATM    7  N7  UNL     1      -3.140   7.493  97.277  1.00  0.00    -0.355 N 
HETATM    8  C14 UNL     1      -4.005   7.901  98.314  1.00  0.00     0.217 C 
HETATM    9  O2  UNL     1      -4.037   9.058  98.741  1.00  0.00    -0.274 OA
ATOM     10  H7  UNL     1      -3.184   6.512  97.000  1.00  0.00     0.162 HD
BRANCH   8  11
HETATM   11  C15 UNL     1      -4.941   6.894  98.948  1.00  0.00     0.103 C 
BRANCH  11  12
HETATM   12  C16 UNL     1      -4.326   5.584  99.245  1.00  0.00     0.009 C 
BRANCH  12  13
HETATM   13  C17 UNL     1      -5.266   4.403  98.846  1.00  0.00     0.002 C 
BRANCH  13  14
HETATM   14  C18 UNL     1      -5.632   4.608  97.390  1.00  0.00     0.020 C 
BRANCH  14  15
HETATM   15  C19 UNL     1      -5.337   3.403  96.559  1.00  0.00     0.133 C 
BRANCH  15  16
HETATM   16  N8  UNL     1      -3.933   3.148  96.474  1.00  0.00    -0.310 N 
HETATM   17  C20 UNL     1      -3.296   2.281  97.246  1.00  0.00     0.187 A 
HETATM   18  N9  UNL     1      -1.978   2.145  97.120  1.00  0.00    -0.336 N 
HETATM   19  C21 UNL     1      -1.239   2.836  96.257  1.00  0.00     0.138 A 
ATOM     20  H9  UNL     1      -1.506   1.471  97.723  1.00  0.00     0.168 HD
HETATM   21  N10 UNL     1       0.039   2.921  95.916  1.00  0.00    -0.285 N 
HETATM   22  C23 UNL     1      -1.914   3.756  95.441  1.00  0.00     0.094 A 
HETATM   23  N11 UNL     1       0.240   3.795  94.973  1.00  0.00    -0.309 N 
ATOM     24  H10 UNL     1       0.780   2.365  96.342  1.00  0.00     0.188 HD
HETATM   25  C22 UNL     1      -0.942   4.321  94.663  1.00  0.00     0.128 A 
ATOM     26  H11 UNL     1       1.137   4.032  94.551  1.00  0.00     0.186 HD
HETATM   27  C24 UNL     1      -3.262   3.914  95.547  1.00  0.00     0.264 A 
HETATM   28  O3  UNL     1      -3.863   4.726  94.831  1.00  0.00    -0.267 OA
ENDBRANCH  15  16
ENDBRANCH  14  15
ENDBRANCH  13  14
ENDBRANCH  12  13
ENDBRANCH  11  12
ENDBRANCH   8  11
ENDBRANCH   5   7
BRANCH   1  29
HETATM   29  C9  UNL     1      -0.590   7.942  93.236  1.00  0.00     0.117 C 
HETATM   30  C8  UNL     1      -0.384   8.918  92.201  1.00  0.00     0.165 C 
BRANCH  30  31
HETATM   31  N5  UNL     1      -0.100   8.513  90.895  1.00  0.00    -0.284 N 
ATOM     32  H5  UNL     1      -0.840   7.979  90.436  1.00  0.00     0.188 HD
BRANCH  31  33
HETATM   33  N4  UNL     1       0.989   8.718  90.159  1.00  0.00    -0.334 N 
ATOM     34  H4  UNL     1       1.763   8.054  90.187  1.00  0.00     0.180 HD
BRANCH  33  35
HETATM   35  C7  UNL     1       1.065   9.902  89.311  1.00  0.00     0.139 C 
BRANCH  35  36
HETATM   36  C6  UNL     1       2.190  10.787  89.933  1.00  0.00     0.021 C 
BRANCH  36  37
HETATM   37  C5  UNL     1       2.900  10.191  91.067  1.00  0.00     0.002 C 
BRANCH  37  38
HETATM   38  C4  UNL     1       4.325  10.584  91.127  1.00  0.00     0.002 C 
BRANCH  38  39
HETATM   39  C3  UNL     1       5.357   9.838  91.849  1.00  0.00     0.020 C 
BRANCH  39  40
HETATM   40  C2  UNL     1       5.257   9.708  93.344  1.00  0.00     0.122 C 
BRANCH  40  41
HETATM   41  N3  UNL     1       4.966  11.055  93.871  1.00  0.00    -0.367 N 
HETATM   42  C1  UNL     1       5.153  11.392  95.083  1.00  0.00     0.196 C 
HETATM   43  N1  UNL     1       4.811  12.758  95.416  1.00  0.00    -0.067 NA
HETATM   44  N2  UNL     1       5.649  10.523  96.049  1.00  0.00    -0.067 NA
ATOM     45  H3  UNL     1       4.595  11.754  93.227  1.00  0.00     0.161 HD
ENDBRANCH  40  41
ENDBRANCH  39  40
ENDBRANCH  38  39
ENDBRANCH  37  38
ENDBRANCH  36  37
ENDBRANCH  35  36
ENDBRANCH  33  35
ENDBRANCH  31  33
ENDBRANCH  30  31
BRANCH  30  46
HETATM   46  O1  UNL     1      -0.478  10.196  92.449  1.00  0.00    -0.344 OA
ATOM     47  H1  UNL     1       0.306  10.728  92.382  1.00  0.00     0.219 HD
ENDBRANCH  30  46
ENDBRANCH   1  29
TORSDOF 18
ENDMDL
