MODEL 1
REMARK VINA RESULT: -5.931960590      0.000      0.000
REMARK  8 active torsions:
REMARK  status: ('A' for Active; 'I' for Inactive)
REMARK    1  A    between atoms: S1_2  and  C2_3 
REMARK    2  A    between atoms: C2_3  and  C3_4 
REMARK    3  A    between atoms: C3_4  and  C4_5 
REMARK    4  A    between atoms: C6_10  and  C7_11 
REMARK    5  A    between atoms: C7_11  and  C8_12 
REMARK    6  A    between atoms: C14_24  and  C15_25 
REMARK    7  A    between atoms: C19_32  and  C20_33 
REMARK    8  A    between atoms: C23_39  and  O5_40 
ROOT
HETATM    1  C20 UNL     1     -66.823  11.980  11.732  1.00  0.00     0.120 C 
HETATM    2  C21 UNL     1     -67.491  10.637  11.402  1.00  0.00     0.028 C 
HETATM    3  C22 UNL     1     -67.532  12.584  12.851  1.00  0.00     0.066 C 
HETATM    4  N5  UNL     1     -68.083  13.043  13.742  1.00  0.00    -0.197 NA
ENDROOT
BRANCH   1   5
HETATM    5  C19 UNL     1     -66.985  12.831  10.456  1.00  0.00     0.193 C 
HETATM    6  C18 UNL     1     -65.665  13.244   9.925  1.00  0.00     0.242 C 
HETATM    7  N4  UNL     1     -64.394  12.751  10.113  1.00  0.00    -0.346 N 
HETATM    8  O4  UNL     1     -65.741  14.266   9.133  1.00  0.00    -0.271 OA
HETATM    9  C14 UNL     1     -63.780  11.456   9.941  1.00  0.00     0.180 C 
ATOM     10  H4  UNL     1     -63.741  13.458  10.449  1.00  0.00     0.163 HD
HETATM   11  C13 UNL     1     -64.457  10.483   9.107  1.00  0.00     0.241 C 
HETATM   12  N3  UNL     1     -64.927  10.562   7.785  1.00  0.00    -0.351 N 
HETATM   13  O3  UNL     1     -64.672   9.343   9.669  1.00  0.00    -0.271 OA
HETATM   14  C12 UNL     1     -64.287  11.080   6.612  1.00  0.00     0.225 C 
ATOM     15  H3  UNL     1     -65.867  10.195   7.637  1.00  0.00     0.163 HD
HETATM   16  C11 UNL     1     -64.666  12.432   6.210  1.00  0.00     0.236 C 
HETATM   17  N2  UNL     1     -65.809  12.899   5.565  1.00  0.00    -0.346 N 
HETATM   18  O2  UNL     1     -63.791  13.333   6.507  1.00  0.00    -0.272 OA
HETATM   19  C6  UNL     1     -67.203  12.625   5.873  1.00  0.00     0.177 C 
ATOM     20  H2  UNL     1     -65.646  13.515   4.769  1.00  0.00     0.163 HD
HETATM   21  C5  UNL     1     -67.947  13.867   6.230  1.00  0.00     0.244 C 
HETATM   22  N1  UNL     1     -69.116  14.030   6.953  1.00  0.00    -0.325 N 
HETATM   23  O1  UNL     1     -67.363  14.909   5.763  1.00  0.00    -0.271 OA
HETATM   24  C4  UNL     1     -69.456  13.642   8.299  1.00  0.00     0.063 C 
ATOM     25  H1  UNL     1     -69.863  14.505   6.448  1.00  0.00     0.169 HD
HETATM   26  C23 UNL     1     -68.894  12.375   8.772  1.00  0.00     0.160 C 
HETATM   27  N6  UNL     1     -67.800  12.081   9.562  1.00  0.00    -0.355 N 
ATOM     28  H6  UNL     1     -67.510  11.106   9.488  1.00  0.00     0.162 HD
BRANCH   9  29
HETATM   29  C15 UNL     1     -62.294  11.612   9.547  1.00  0.00     0.009 C 
HETATM   30  C16 UNL     1     -61.454  11.217  10.724  1.00  0.00     0.012 C 
HETATM   31  C17 UNL     1     -62.062  13.090   9.312  1.00  0.00     0.012 C 
ENDBRANCH   9  29
BRANCH  19  32
HETATM   32  C7  UNL     1     -67.810  12.200   4.526  1.00  0.00     0.038 C 
BRANCH  32  33
HETATM   33  C8  UNL     1     -67.799  10.737   4.286  1.00  0.00    -0.020 C 
HETATM   34  C9  UNL     1     -67.836  10.091   5.684  1.00  0.00     0.009 C 
HETATM   35  C10 UNL     1     -66.546  10.265   3.618  1.00  0.00     0.009 C 
ENDBRANCH  32  33
ENDBRANCH  19  32
BRANCH  24  36
HETATM   36  C3  UNL     1     -69.386  14.796   9.278  1.00  0.00     0.072 C 
BRANCH  36  37
HETATM   37  C2  UNL     1     -70.801  14.876   9.893  1.00  0.00     0.079 C 
BRANCH  37  38
HETATM   38  S1  UNL     1     -70.780  14.258  11.598  1.00  0.00    -0.173 SA
HETATM   39  C1  UNL     1     -71.093  12.476  11.630  1.00  0.00     0.089 C 
ENDBRANCH  37  38
ENDBRANCH  36  37
ENDBRANCH  24  36
BRANCH  26  40
HETATM   40  O5  UNL     1     -69.571  11.336   8.354  1.00  0.00    -0.345 OA
ATOM     41  H5  UNL     1     -69.946  10.833   9.067  1.00  0.00     0.219 HD
ENDBRANCH  26  40
ENDBRANCH   1   5
TORSDOF 8
ENDMDL
MODEL 2
REMARK VINA RESULT: -5.917585604      2.494      5.599
REMARK  8 active torsions:
REMARK  status: ('A' for Active; 'I' for Inactive)
REMARK    1  A    between atoms: S1_2  and  C2_3 
REMARK    2  A    between atoms: C2_3  and  C3_4 
REMARK    3  A    between atoms: C3_4  and  C4_5 
REMARK    4  A    between atoms: C6_10  and  C7_11 
REMARK    5  A    between atoms: C7_11  and  C8_12 
REMARK    6  A    between atoms: C14_24  and  C15_25 
REMARK    7  A    between atoms: C19_32  and  C20_33 
REMARK    8  A    between atoms: C23_39  and  O5_40 
ROOT
HETATM    1  C20 UNL     1     -67.307  14.075  11.336  1.00  0.00     0.120 C 
HETATM    2  C21 UNL     1     -66.372  15.275  11.546  1.00  0.00     0.028 C 
HETATM    3  C22 UNL     1     -67.589  13.479  12.634  1.00  0.00     0.066 C 
HETATM    4  N5  UNL     1     -67.820  13.027  13.659  1.00  0.00    -0.197 NA
ENDROOT
BRANCH   1   5
HETATM    5  C19 UNL     1     -66.512  13.098  10.445  1.00  0.00     0.193 C 
HETATM    6  C18 UNL     1     -67.127  11.751  10.457  1.00  0.00     0.242 C 
HETATM    7  N4  UNL     1     -68.388  11.311  10.785  1.00  0.00    -0.346 N 
HETATM    8  O4  UNL     1     -66.306  10.822  10.084  1.00  0.00    -0.271 OA
HETATM    9  C14 UNL     1     -69.719  11.642  10.337  1.00  0.00     0.180 C 
ATOM     10  H4  UNL     1     -68.381  10.589  11.506  1.00  0.00     0.163 HD
HETATM   11  C13 UNL     1     -69.863  12.329   9.068  1.00  0.00     0.241 C 
HETATM   12  N3  UNL     1     -69.386  12.014   7.784  1.00  0.00    -0.351 N 
HETATM   13  O3  UNL     1     -70.545  13.422   9.118  1.00  0.00    -0.271 OA
HETATM   14  C12 UNL     1     -69.402  10.767   7.079  1.00  0.00     0.225 C 
ATOM     15  H3  UNL     1     -68.964  12.792   7.277  1.00  0.00     0.163 HD
HETATM   16  C11 UNL     1     -68.159   9.999   7.092  1.00  0.00     0.236 C 
HETATM   17  N2  UNL     1     -66.977  10.175   6.377  1.00  0.00    -0.346 N 
HETATM   18  O2  UNL     1     -68.171   8.996   7.904  1.00  0.00    -0.272 OA
HETATM   19  C6  UNL     1     -66.197  11.388   6.195  1.00  0.00     0.177 C 
ATOM     20  H2  UNL     1     -66.609   9.341   5.920  1.00  0.00     0.163 HD
HETATM   21  C5  UNL     1     -64.822  11.255   6.757  1.00  0.00     0.244 C 
HETATM   22  N1  UNL     1     -63.925  12.229   7.159  1.00  0.00    -0.325 N 
HETATM   23  O1  UNL     1     -64.478  10.024   6.855  1.00  0.00    -0.271 OA
HETATM   24  C4  UNL     1     -64.043  13.274   8.144  1.00  0.00     0.063 C 
ATOM     25  H1  UNL     1     -63.027  12.202   6.676  1.00  0.00     0.169 HD
HETATM   26  C23 UNL     1     -65.361  13.900   8.272  1.00  0.00     0.160 C 
HETATM   27  N6  UNL     1     -66.397  13.710   9.165  1.00  0.00    -0.355 N 
ATOM     28  H6  UNL     1     -67.280  14.097   8.832  1.00  0.00     0.162 HD
BRANCH   9  29
HETATM   29  C15 UNL     1     -70.642  10.405  10.425  1.00  0.00     0.009 C 
HETATM   30  C16 UNL     1     -71.740  10.709  11.399  1.00  0.00     0.012 C 
HETATM   31  C17 UNL     1     -69.812   9.289  11.026  1.00  0.00     0.012 C 
ENDBRANCH   9  29
BRANCH  19  32
HETATM   32  C7  UNL     1     -65.973  11.466   4.675  1.00  0.00     0.038 C 
BRANCH  32  33
HETATM   33  C8  UNL     1     -67.138  11.975   3.912  1.00  0.00    -0.020 C 
HETATM   34  C9  UNL     1     -67.551  10.823   2.976  1.00  0.00     0.009 C 
HETATM   35  C10 UNL     1     -66.798  13.145   3.043  1.00  0.00     0.009 C 
ENDBRANCH  32  33
ENDBRANCH  19  32
BRANCH  24  36
HETATM   36  C3  UNL     1     -63.351  12.932   9.448  1.00  0.00     0.072 C 
BRANCH  36  37
HETATM   37  C2  UNL     1     -62.056  12.202   9.024  1.00  0.00     0.079 C 
BRANCH  37  38
HETATM   38  S1  UNL     1     -61.507  11.083  10.342  1.00  0.00    -0.173 SA
HETATM   39  C1  UNL     1     -59.705  10.908  10.314  1.00  0.00     0.089 C 
ENDBRANCH  37  38
ENDBRANCH  36  37
ENDBRANCH  24  36
BRANCH  26  40
HETATM   40  O5  UNL     1     -65.579  14.808   7.355  1.00  0.00    -0.345 OA
ATOM     41  H5  UNL     1     -66.354  14.626   6.837  1.00  0.00     0.219 HD
ENDBRANCH  26  40
ENDBRANCH   1   5
TORSDOF 8
ENDMDL
MODEL 3
REMARK VINA RESULT: -5.769444782      2.501      7.043
REMARK  8 active torsions:
REMARK  status: ('A' for Active; 'I' for Inactive)
REMARK    1  A    between atoms: S1_2  and  C2_3 
REMARK    2  A    between atoms: C2_3  and  C3_4 
REMARK    3  A    between atoms: C3_4  and  C4_5 
REMARK    4  A    between atoms: C6_10  and  C7_11 
REMARK    5  A    between atoms: C7_11  and  C8_12 
REMARK    6  A    between atoms: C14_24  and  C15_25 
REMARK    7  A    between atoms: C19_32  and  C20_33 
REMARK    8  A    between atoms: C23_39  and  O5_40 
ROOT
HETATM    1  C20 UNL     1     -66.357  11.286   5.969  1.00  0.00     0.120 C 
HETATM    2  C21 UNL     1     -65.064  10.460   6.045  1.00  0.00     0.028 C 
HETATM    3  C22 UNL     1     -66.486  11.816   4.620  1.00  0.00     0.066 C 
HETATM    4  N5  UNL     1     -66.589  12.214   3.552  1.00  0.00    -0.197 NA
ENDROOT
BRANCH   1   5
HETATM    5  C19 UNL     1     -66.163  12.425   6.990  1.00  0.00     0.193 C 
HETATM    6  C18 UNL     1     -67.211  13.461   6.832  1.00  0.00     0.242 C 
HETATM    7  N4  UNL     1     -68.454  13.439   6.244  1.00  0.00    -0.346 N 
HETATM    8  O4  UNL     1     -66.874  14.597   7.352  1.00  0.00    -0.271 OA
HETATM    9  C14 UNL     1     -69.634  12.626   6.413  1.00  0.00     0.180 C 
ATOM     10  H4  UNL     1     -68.567  14.158   5.529  1.00  0.00     0.163 HD
HETATM   11  C13 UNL     1     -69.766  11.857   7.635  1.00  0.00     0.241 C 
HETATM   12  N3  UNL     1     -69.700  12.242   8.984  1.00  0.00    -0.351 N 
HETATM   13  O3  UNL     1     -69.981  10.597   7.462  1.00  0.00    -0.271 OA
HETATM   14  C12 UNL     1     -70.307  13.355   9.653  1.00  0.00     0.225 C 
ATOM     15  H3  UNL     1     -69.133  11.638   9.579  1.00  0.00     0.163 HD
HETATM   16  C11 UNL     1     -69.452  14.517   9.885  1.00  0.00     0.236 C 
HETATM   17  N2  UNL     1     -68.452  14.732  10.831  1.00  0.00    -0.346 N 
HETATM   18  O2  UNL     1     -69.667  15.497   9.073  1.00  0.00    -0.272 OA
HETATM   19  C6  UNL     1     -67.338  13.870  11.188  1.00  0.00     0.177 C 
ATOM     20  H2  UNL     1     -68.510  15.613  11.341  1.00  0.00     0.163 HD
HETATM   21  C5  UNL     1     -66.023  14.522  10.920  1.00  0.00     0.244 C 
HETATM   22  N1  UNL     1     -64.773  13.961  10.726  1.00  0.00    -0.325 N 
HETATM   23  O1  UNL     1     -66.138  15.798  10.877  1.00  0.00    -0.271 OA
HETATM   24  C4  UNL     1     -64.306  13.005   9.753  1.00  0.00     0.063 C 
ATOM     25  H1  UNL     1     -64.061  14.279  11.383  1.00  0.00     0.169 HD
HETATM   26  C23 UNL     1     -65.253  11.958   9.366  1.00  0.00     0.160 C 
HETATM   27  N6  UNL     1     -66.089  11.818   8.275  1.00  0.00    -0.355 N 
ATOM     28  H6  UNL     1     -66.819  11.121   8.425  1.00  0.00     0.162 HD
BRANCH   9  29
HETATM   29  C15 UNL     1     -70.906  13.453   6.117  1.00  0.00     0.009 C 
HETATM   30  C16 UNL     1     -71.610  12.829   4.951  1.00  0.00     0.012 C 
HETATM   31  C17 UNL     1     -70.437  14.823   5.671  1.00  0.00     0.012 C 
ENDBRANCH   9  29
BRANCH  19  32
HETATM   32  C7  UNL     1     -67.405  13.785  12.722  1.00  0.00     0.038 C 
BRANCH  32  33
HETATM   33  C8  UNL     1     -68.114  12.588  13.236  1.00  0.00    -0.020 C 
HETATM   34  C9  UNL     1     -68.023  11.541  12.110  1.00  0.00     0.009 C 
HETATM   35  C10 UNL     1     -69.568  12.836  13.487  1.00  0.00     0.009 C 
ENDBRANCH  32  33
ENDBRANCH  19  32
BRANCH  24  36
HETATM   36  C3  UNL     1     -63.542  13.652   8.616  1.00  0.00     0.072 C 
BRANCH  36  37
HETATM   37  C2  UNL     1     -62.503  12.591   8.188  1.00  0.00     0.079 C 
BRANCH  37  38
HETATM   38  S1  UNL     1     -61.690  11.885   9.647  1.00  0.00    -0.173 SA
HETATM   39  C1  UNL     1     -61.795  10.078   9.618  1.00  0.00     0.089 C 
ENDBRANCH  37  38
ENDBRANCH  36  37
ENDBRANCH  24  36
BRANCH  26  40
HETATM   40  O5  UNL     1     -65.303  10.978  10.232  1.00  0.00    -0.345 OA
ATOM     41  H5  UNL     1     -65.447  10.133   9.821  1.00  0.00     0.219 HD
ENDBRANCH  26  40
ENDBRANCH   1   5
TORSDOF 8
ENDMDL
MODEL 4
REMARK VINA RESULT: -5.746972878      2.748      6.768
REMARK  8 active torsions:
REMARK  status: ('A' for Active; 'I' for Inactive)
REMARK    1  A    between atoms: S1_2  and  C2_3 
REMARK    2  A    between atoms: C2_3  and  C3_4 
REMARK    3  A    between atoms: C3_4  and  C4_5 
REMARK    4  A    between atoms: C6_10  and  C7_11 
REMARK    5  A    between atoms: C7_11  and  C8_12 
REMARK    6  A    between atoms: C14_24  and  C15_25 
REMARK    7  A    between atoms: C19_32  and  C20_33 
REMARK    8  A    between atoms: C23_39  and  O5_40 
ROOT
HETATM    1  C20 UNL     1     -68.556  12.127   5.960  1.00  0.00     0.120 C 
HETATM    2  C21 UNL     1     -67.977  10.717   6.148  1.00  0.00     0.028 C 
HETATM    3  C22 UNL     1     -68.844  12.322   4.547  1.00  0.00     0.066 C 
HETATM    4  N5  UNL     1     -69.084  12.461   3.437  1.00  0.00    -0.197 NA
ENDROOT
BRANCH   1   5
HETATM    5  C19 UNL     1     -67.441  13.084   6.430  1.00  0.00     0.193 C 
HETATM    6  C18 UNL     1     -67.906  13.925   7.557  1.00  0.00     0.242 C 
HETATM    7  N4  UNL     1     -68.940  13.785   8.453  1.00  0.00    -0.346 N 
HETATM    8  O4  UNL     1     -67.191  14.993   7.712  1.00  0.00    -0.271 OA
HETATM    9  C14 UNL     1     -69.331  12.757   9.387  1.00  0.00     0.180 C 
ATOM     10  H4  UNL     1     -69.570  14.587   8.460  1.00  0.00     0.163 HD
HETATM   11  C13 UNL     1     -68.341  11.772   9.775  1.00  0.00     0.241 C 
HETATM   12  N3  UNL     1     -67.047  11.917  10.303  1.00  0.00    -0.351 N 
HETATM   13  O3  UNL     1     -68.702  10.545   9.609  1.00  0.00    -0.271 OA
HETATM   14  C12 UNL     1     -66.575  12.766  11.356  1.00  0.00     0.225 C 
ATOM     15  H3  UNL     1     -66.335  11.329   9.871  1.00  0.00     0.163 HD
HETATM   16  C11 UNL     1     -65.914  14.003  10.945  1.00  0.00     0.236 C 
HETATM   17  N2  UNL     1     -64.633  14.223  10.445  1.00  0.00    -0.346 N 
HETATM   18  O2  UNL     1     -66.649  15.056  11.069  1.00  0.00    -0.272 OA
HETATM   19  C6  UNL     1     -63.943  13.526   9.373  1.00  0.00     0.177 C 
ATOM     20  H2  UNL     1     -64.108  14.975  10.893  1.00  0.00     0.163 HD
HETATM   21  C5  UNL     1     -63.604  14.441   8.244  1.00  0.00     0.244 C 
HETATM   22  N1  UNL     1     -63.335  14.157   6.917  1.00  0.00    -0.325 N 
HETATM   23  O1  UNL     1     -63.570  15.663   8.631  1.00  0.00    -0.271 OA
HETATM   24  C4  UNL     1     -64.126  13.488   5.914  1.00  0.00     0.063 C 
ATOM     25  H1  UNL     1     -62.422  14.476   6.593  1.00  0.00     0.169 HD
HETATM   26  C23 UNL     1     -64.954  12.374   6.377  1.00  0.00     0.160 C 
HETATM   27  N6  UNL     1     -66.296  12.281   6.695  1.00  0.00    -0.355 N 
ATOM     28  H6  UNL     1     -66.515  11.449   7.243  1.00  0.00     0.162 HD
BRANCH   9  29
HETATM   29  C15 UNL     1     -70.031  13.380  10.616  1.00  0.00     0.009 C 
HETATM   30  C16 UNL     1     -71.405  12.794  10.720  1.00  0.00     0.012 C 
HETATM   31  C17 UNL     1     -70.199  14.855  10.314  1.00  0.00     0.012 C 
ENDBRANCH   9  29
BRANCH  19  32
HETATM   32  C7  UNL     1     -62.578  13.159   9.979  1.00  0.00     0.038 C 
BRANCH  32  33
HETATM   33  C8  UNL     1     -62.120  11.785   9.663  1.00  0.00    -0.020 C 
HETATM   34  C9  UNL     1     -63.339  10.877   9.914  1.00  0.00     0.009 C 
HETATM   35  C10 UNL     1     -61.028  11.312  10.571  1.00  0.00     0.009 C 
ENDBRANCH  32  33
ENDBRANCH  19  32
BRANCH  24  36
HETATM   36  C3  UNL     1     -64.800  14.453   4.959  1.00  0.00     0.072 C 
BRANCH  36  37
HETATM   37  C2  UNL     1     -63.679  15.428   4.532  1.00  0.00     0.079 C 
BRANCH  37  38
HETATM   38  S1  UNL     1     -63.663  15.614   2.728  1.00  0.00    -0.173 SA
HETATM   39  C1  UNL     1     -62.029  15.206   2.064  1.00  0.00     0.089 C 
ENDBRANCH  37  38
ENDBRANCH  36  37
ENDBRANCH  24  36
BRANCH  26  40
HETATM   40  O5  UNL     1     -64.275  11.263   6.511  1.00  0.00    -0.345 OA
ATOM     41  H5  UNL     1     -63.346  11.415   6.638  1.00  0.00     0.219 HD
ENDBRANCH  26  40
ENDBRANCH   1   5
TORSDOF 8
ENDMDL
MODEL 5
REMARK VINA RESULT: -5.728289635      2.603      5.331
REMARK  8 active torsions:
REMARK  status: ('A' for Active; 'I' for Inactive)
REMARK    1  A    between atoms: S1_2  and  C2_3 
REMARK    2  A    between atoms: C2_3  and  C3_4 
REMARK    3  A    between atoms: C3_4  and  C4_5 
REMARK    4  A    between atoms: C6_10  and  C7_11 
REMARK    5  A    between atoms: C7_11  and  C8_12 
REMARK    6  A    between atoms: C14_24  and  C15_25 
REMARK    7  A    between atoms: C19_32  and  C20_33 
REMARK    8  A    between atoms: C23_39  and  O5_40 
ROOT
HETATM    1  C20 UNL     1     -65.030  13.108   9.267  1.00  0.00     0.120 C 
HETATM    2  C21 UNL     1     -64.234  11.826   9.557  1.00  0.00     0.028 C 
HETATM    3  C22 UNL     1     -64.462  14.190  10.059  1.00  0.00     0.066 C 
HETATM    4  N5  UNL     1     -64.000  15.039  10.670  1.00  0.00    -0.197 NA
ENDROOT
BRANCH   1   5
HETATM    5  C19 UNL     1     -66.471  12.795   9.718  1.00  0.00     0.193 C 
HETATM    6  C18 UNL     1     -67.432  13.026   8.615  1.00  0.00     0.242 C 
HETATM    7  N4  UNL     1     -67.275  13.104   7.250  1.00  0.00    -0.346 N 
HETATM    8  O4  UNL     1     -68.647  13.181   9.033  1.00  0.00    -0.271 OA
HETATM    9  C14 UNL     1     -66.718  12.229   6.248  1.00  0.00     0.180 C 
ATOM     10  H4  UNL     1     -67.633  13.976   6.860  1.00  0.00     0.163 HD
HETATM   11  C13 UNL     1     -66.549  10.828   6.580  1.00  0.00     0.241 C 
HETATM   12  N3  UNL     1     -67.459   9.875   7.070  1.00  0.00    -0.351 N 
HETATM   13  O3  UNL     1     -65.358  10.367   6.401  1.00  0.00    -0.271 OA
HETATM   14  C12 UNL     1     -68.798   9.586   6.652  1.00  0.00     0.225 C 
ATOM     15  H3  UNL     1     -67.113   9.302   7.839  1.00  0.00     0.163 HD
HETATM   16  C11 UNL     1     -69.869  10.165   7.460  1.00  0.00     0.236 C 
HETATM   17  N2  UNL     1     -70.373   9.787   8.702  1.00  0.00    -0.346 N 
HETATM   18  O2  UNL     1     -70.431  11.196   6.924  1.00  0.00    -0.272 OA
HETATM   19  C6  UNL     1     -69.647   9.484   9.924  1.00  0.00     0.177 C 
ATOM     20  H2  UNL     1     -71.388   9.712   8.762  1.00  0.00     0.163 HD
HETATM   21  C5  UNL     1     -70.005  10.420  11.030  1.00  0.00     0.244 C 
HETATM   22  N1  UNL     1     -69.306  10.755  12.176  1.00  0.00    -0.325 N 
HETATM   23  O1  UNL     1     -71.149  10.961  10.827  1.00  0.00    -0.271 OA
HETATM   24  C4  UNL     1     -67.992  11.321  12.350  1.00  0.00     0.063 C 
ATOM     25  H1  UNL     1     -69.806  10.569  13.045  1.00  0.00     0.169 HD
HETATM   26  C23 UNL     1     -66.968  10.892  11.397  1.00  0.00     0.160 C 
HETATM   27  N6  UNL     1     -66.457  11.477  10.255  1.00  0.00    -0.355 N 
ATOM     28  H6  UNL     1     -65.955  10.815   9.663  1.00  0.00     0.162 HD
BRANCH   9  29
HETATM   29  C15 UNL     1     -67.452  12.412   4.901  1.00  0.00     0.009 C 
HETATM   30  C16 UNL     1     -66.460  12.897   3.888  1.00  0.00     0.012 C 
HETATM   31  C17 UNL     1     -68.458  13.527   5.106  1.00  0.00     0.012 C 
ENDBRANCH   9  29
BRANCH  19  32
HETATM   32  C7  UNL     1     -70.221   8.132  10.378  1.00  0.00     0.038 C 
BRANCH  32  33
HETATM   33  C8  UNL     1     -71.506   7.768   9.735  1.00  0.00    -0.020 C 
HETATM   34  C9  UNL     1     -72.509   7.592  10.891  1.00  0.00     0.009 C 
HETATM   35  C10 UNL     1     -71.444   6.461   9.008  1.00  0.00     0.009 C 
ENDBRANCH  32  33
ENDBRANCH  19  32
BRANCH  24  36
HETATM   36  C3  UNL     1     -68.030  12.806  12.648  1.00  0.00     0.072 C 
BRANCH  36  37
HETATM   37  C2  UNL     1     -69.354  13.020  13.414  1.00  0.00     0.079 C 
BRANCH  37  38
HETATM   38  S1  UNL     1     -70.446  14.131  12.485  1.00  0.00    -0.173 SA
HETATM   39  C1  UNL     1     -71.614  14.950  13.599  1.00  0.00     0.089 C 
ENDBRANCH  37  38
ENDBRANCH  36  37
ENDBRANCH  24  36
BRANCH  26  40
HETATM   40  O5  UNL     1     -66.452   9.728  11.701  1.00  0.00    -0.345 OA
ATOM     41  H5  UNL     1     -65.612   9.579  11.282  1.00  0.00     0.219 HD
ENDBRANCH  26  40
ENDBRANCH   1   5
TORSDOF 8
ENDMDL
