MODEL 1
REMARK VINA RESULT: -8.449884804      0.000      0.000
REMARK  14 active torsions:
REMARK  status: ('A' for Active; 'I' for Inactive)
REMARK    1  A    between atoms: C1_2  and  C2_3 
REMARK    2  A    between atoms: C1_2  and  O4_17 
REMARK    3  A    between atoms: C2_3  and  C3_4 
REMARK    4  A    between atoms: C3_4  and  C4_5 
REMARK    5  A    between atoms: C4_5  and  C5_6 
REMARK    6  A    between atoms: C5_6  and  C6_7 
REMARK    7  A    between atoms: C12_14  and  O3_15 
REMARK    8  A    between atoms: O4_17  and  C13_18 
REMARK    9  A    between atoms: C13_18  and  C14_19 
REMARK   10  A    between atoms: C14_19  and  S1_20 
REMARK   11  A    between atoms: S1_20  and  C15_21 
REMARK   12  A    between atoms: C16_22  and  O5_23 
REMARK   13  A    between atoms: C17_25  and  O6_26 
REMARK   14  A    between atoms: C21_33  and  O9_34 
ROOT
HETATM    1  C13 UNL     1     -12.973  22.488  28.840  1.00  0.00     0.189 C 
ENDROOT
BRANCH   1   2
HETATM    2  O4  UNL     1     -11.980  21.928  28.042  1.00  0.00    -0.321 OA
BRANCH   2   3
HETATM    3  C1  UNL     1     -12.029  21.771  26.659  1.00  0.00     0.258 C 
HETATM    4  O1  UNL     1     -12.213  22.805  25.996  1.00  0.00    -0.265 OA
BRANCH   3   5
HETATM    5  C2  UNL     1     -11.877  20.466  25.999  1.00  0.00     0.111 C 
BRANCH   5   6
HETATM    6  C3  UNL     1     -11.705  19.371  26.993  1.00  0.00     0.010 C 
BRANCH   6   7
HETATM    7  C4  UNL     1     -12.855  18.413  27.112  1.00  0.00     0.001 C 
BRANCH   7   8
HETATM    8  C5  UNL     1     -13.351  18.317  28.518  1.00  0.00     0.012 C 
BRANCH   8   9
HETATM    9  C6  UNL     1     -13.012  16.994  29.138  1.00  0.00     0.050 C 
HETATM   10  C7  UNL     1     -11.711  17.062  29.805  1.00  0.00    -0.021 A 
HETATM   11  C8  UNL     1     -10.339  17.011  29.566  1.00  0.00     0.149 A 
HETATM   12  C10 UNL     1     -11.853  17.232  31.163  1.00  0.00    -0.025 A 
HETATM   13  O2  UNL     1      -9.740  17.143  30.720  1.00  0.00    -0.334 OA
HETATM   14  C9  UNL     1     -10.596  17.278  31.700  1.00  0.00     0.149 A 
HETATM   15  C11 UNL     1     -13.302  17.294  31.511  1.00  0.00     0.073 C 
HETATM   16  C12 UNL     1     -13.970  16.680  30.293  1.00  0.00     0.131 C 
BRANCH  16  17
HETATM   17  O3  UNL     1     -14.084  15.317  30.431  1.00  0.00    -0.395 OA
ATOM     18  H3  UNL     1     -14.902  15.113  30.868  1.00  0.00     0.210 HD
ENDBRANCH  16  17
ENDBRANCH   8   9
ENDBRANCH   7   8
ENDBRANCH   6   7
ENDBRANCH   5   6
ENDBRANCH   3   5
ENDBRANCH   2   3
ENDBRANCH   1   2
BRANCH   1  19
HETATM   19  C14 UNL     1     -13.921  21.503  29.461  1.00  0.00     0.101 C 
BRANCH  19  20
HETATM   20  S1  UNL     1     -15.573  21.779  28.724  1.00  0.00    -0.157 SA
BRANCH  20  21
HETATM   21  C15 UNL     1     -15.494  21.045  27.054  1.00  0.00     0.110 C 
HETATM   22  C16 UNL     1     -15.655  22.147  26.068  1.00  0.00     0.165 C 
HETATM   23  C17 UNL     1     -15.983  21.645  24.660  1.00  0.00     0.179 C 
HETATM   24  C18 UNL     1     -17.168  20.758  24.794  1.00  0.00     0.187 C 
HETATM   25  O7  UNL     1     -17.611  20.162  23.645  1.00  0.00    -0.356 OA
HETATM   26  C20 UNL     1     -16.679  19.522  25.570  1.00  0.00     0.185 C 
HETATM   27  C19 UNL     1     -18.303  19.037  24.123  1.00  0.00     0.339 C 
HETATM   28  O8  UNL     1     -17.715  18.661  25.320  1.00  0.00    -0.356 OA
HETATM   29  C21 UNL     1     -16.519  19.961  26.983  1.00  0.00     0.166 C 
BRANCH  22  30
HETATM   30  O5  UNL     1     -16.720  22.999  26.415  1.00  0.00    -0.392 OA
ATOM     31  H5  UNL     1     -16.838  23.689  25.773  1.00  0.00     0.210 HD
ENDBRANCH  22  30
BRANCH  23  32
HETATM   32  O6  UNL     1     -14.881  20.908  24.239  1.00  0.00    -0.390 OA
ATOM     33  H6  UNL     1     -15.224  20.161  23.762  1.00  0.00     0.210 HD
ENDBRANCH  23  32
BRANCH  29  34
HETATM   34  O9  UNL     1     -17.748  20.301  27.508  1.00  0.00    -0.392 OA
ATOM     35  H9  UNL     1     -18.249  19.567  27.844  1.00  0.00     0.210 HD
ENDBRANCH  29  34
ENDBRANCH  20  21
ENDBRANCH  19  20
ENDBRANCH   1  19
TORSDOF 14
ENDMDL
MODEL 2
REMARK VINA RESULT: -8.278973013      1.887      7.086
REMARK  14 active torsions:
REMARK  status: ('A' for Active; 'I' for Inactive)
REMARK    1  A    between atoms: C1_2  and  C2_3 
REMARK    2  A    between atoms: C1_2  and  O4_17 
REMARK    3  A    between atoms: C2_3  and  C3_4 
REMARK    4  A    between atoms: C3_4  and  C4_5 
REMARK    5  A    between atoms: C4_5  and  C5_6 
REMARK    6  A    between atoms: C5_6  and  C6_7 
REMARK    7  A    between atoms: C12_14  and  O3_15 
REMARK    8  A    between atoms: O4_17  and  C13_18 
REMARK    9  A    between atoms: C13_18  and  C14_19 
REMARK   10  A    between atoms: C14_19  and  S1_20 
REMARK   11  A    between atoms: S1_20  and  C15_21 
REMARK   12  A    between atoms: C16_22  and  O5_23 
REMARK   13  A    between atoms: C17_25  and  O6_26 
REMARK   14  A    between atoms: C21_33  and  O9_34 
ROOT
HETATM    1  C13 UNL     1     -15.704  18.025  25.455  1.00  0.00     0.189 C 
ENDROOT
BRANCH   1   2
HETATM    2  O4  UNL     1     -16.577  18.962  26.002  1.00  0.00    -0.321 OA
BRANCH   2   3
HETATM    3  C1  UNL     1     -17.609  19.612  25.331  1.00  0.00     0.258 C 
HETATM    4  O1  UNL     1     -18.760  19.374  25.733  1.00  0.00    -0.265 OA
BRANCH   3   5
HETATM    5  C2  UNL     1     -17.375  20.532  24.208  1.00  0.00     0.111 C 
BRANCH   5   6
HETATM    6  C3  UNL     1     -16.505  21.670  24.610  1.00  0.00     0.010 C 
BRANCH   6   7
HETATM    7  C4  UNL     1     -15.055  21.544  24.239  1.00  0.00     0.001 C 
BRANCH   7   8
HETATM    8  C5  UNL     1     -14.183  21.428  25.447  1.00  0.00     0.012 C 
BRANCH   8   9
HETATM    9  C6  UNL     1     -14.272  22.646  26.317  1.00  0.00     0.050 C 
HETATM   10  C7  UNL     1     -14.477  22.261  27.714  1.00  0.00    -0.021 A 
HETATM   11  C8  UNL     1     -15.455  21.858  28.621  1.00  0.00     0.149 A 
HETATM   12  C10 UNL     1     -13.298  22.308  28.424  1.00  0.00    -0.025 A 
HETATM   13  O2  UNL     1     -14.866  21.687  29.775  1.00  0.00    -0.334 OA
HETATM   14  C9  UNL     1     -13.584  21.942  29.709  1.00  0.00     0.149 A 
HETATM   15  C11 UNL     1     -12.190  22.739  27.524  1.00  0.00     0.073 C 
HETATM   16  C12 UNL     1     -12.925  23.377  26.359  1.00  0.00     0.131 C 
BRANCH  16  17
HETATM   17  O3  UNL     1     -13.142  24.715  26.590  1.00  0.00    -0.395 OA
ATOM     18  H3  UNL     1     -12.366  25.096  26.983  1.00  0.00     0.210 HD
ENDBRANCH  16  17
ENDBRANCH   8   9
ENDBRANCH   7   8
ENDBRANCH   6   7
ENDBRANCH   5   6
ENDBRANCH   3   5
ENDBRANCH   2   3
ENDBRANCH   1   2
BRANCH   1  19
HETATM   19  C14 UNL     1     -14.431  17.818  26.223  1.00  0.00     0.101 C 
BRANCH  19  20
HETATM   20  S1  UNL     1     -14.693  18.459  27.917  1.00  0.00    -0.157 SA
BRANCH  20  21
HETATM   21  C15 UNL     1     -13.894  17.251  29.029  1.00  0.00     0.110 C 
HETATM   22  C16 UNL     1     -14.299  17.581  30.421  1.00  0.00     0.165 C 
HETATM   23  C17 UNL     1     -13.423  16.901  31.474  1.00  0.00     0.179 C 
HETATM   24  C18 UNL     1     -12.016  17.249  31.142  1.00  0.00     0.187 C 
HETATM   25  O7  UNL     1     -11.051  16.704  31.945  1.00  0.00    -0.356 OA
HETATM   26  C20 UNL     1     -11.709  16.525  29.819  1.00  0.00     0.185 C 
HETATM   27  C19 UNL     1      -9.913  16.724  31.123  1.00  0.00     0.339 C 
HETATM   28  O8  UNL     1     -10.342  16.620  29.809  1.00  0.00    -0.356 OA
HETATM   29  C21 UNL     1     -12.425  17.285  28.759  1.00  0.00     0.166 C 
BRANCH  22  30
HETATM   30  O5  UNL     1     -14.186  18.960  30.679  1.00  0.00    -0.392 OA
ATOM     31  H5  UNL     1     -14.501  19.478  29.948  1.00  0.00     0.210 HD
ENDBRANCH  22  30
BRANCH  23  32
HETATM   32  O6  UNL     1     -13.622  15.532  31.328  1.00  0.00    -0.390 OA
ATOM     33  H6  UNL     1     -14.340  15.301  31.907  1.00  0.00     0.210 HD
ENDBRANCH  23  32
BRANCH  29  34
HETATM   34  O9  UNL     1     -11.892  18.553  28.653  1.00  0.00    -0.392 OA
ATOM     35  H9  UNL     1     -10.991  18.577  28.353  1.00  0.00     0.210 HD
ENDBRANCH  29  34
ENDBRANCH  20  21
ENDBRANCH  19  20
ENDBRANCH   1  19
TORSDOF 14
ENDMDL
MODEL 3
REMARK VINA RESULT: -8.138143117      1.722      7.186
REMARK  14 active torsions:
REMARK  status: ('A' for Active; 'I' for Inactive)
REMARK    1  A    between atoms: C1_2  and  C2_3 
REMARK    2  A    between atoms: C1_2  and  O4_17 
REMARK    3  A    between atoms: C2_3  and  C3_4 
REMARK    4  A    between atoms: C3_4  and  C4_5 
REMARK    5  A    between atoms: C4_5  and  C5_6 
REMARK    6  A    between atoms: C5_6  and  C6_7 
REMARK    7  A    between atoms: C12_14  and  O3_15 
REMARK    8  A    between atoms: O4_17  and  C13_18 
REMARK    9  A    between atoms: C13_18  and  C14_19 
REMARK   10  A    between atoms: C14_19  and  S1_20 
REMARK   11  A    between atoms: S1_20  and  C15_21 
REMARK   12  A    between atoms: C16_22  and  O5_23 
REMARK   13  A    between atoms: C17_25  and  O6_26 
REMARK   14  A    between atoms: C21_33  and  O9_34 
ROOT
HETATM    1  C13 UNL     1     -15.663  17.744  25.579  1.00  0.00     0.189 C 
ENDROOT
BRANCH   1   2
HETATM    2  O4  UNL     1     -16.027  18.721  24.656  1.00  0.00    -0.321 OA
BRANCH   2   3
HETATM    3  C1  UNL     1     -17.251  19.380  24.597  1.00  0.00     0.258 C 
HETATM    4  O1  UNL     1     -17.567  19.852  23.492  1.00  0.00    -0.265 OA
BRANCH   3   5
HETATM    5  C2  UNL     1     -18.137  19.523  25.761  1.00  0.00     0.111 C 
BRANCH   5   6
HETATM    6  C3  UNL     1     -17.510  20.357  26.822  1.00  0.00     0.010 C 
BRANCH   6   7
HETATM    7  C4  UNL     1     -17.033  21.713  26.386  1.00  0.00     0.001 C 
BRANCH   7   8
HETATM    8  C5  UNL     1     -15.805  22.131  27.128  1.00  0.00     0.012 C 
BRANCH   8   9
HETATM    9  C6  UNL     1     -14.851  22.882  26.247  1.00  0.00     0.050 C 
HETATM   10  C7  UNL     1     -13.491  22.800  26.782  1.00  0.00    -0.021 A 
HETATM   11  C8  UNL     1     -12.641  23.353  27.737  1.00  0.00     0.149 A 
HETATM   12  C10 UNL     1     -12.751  21.845  26.123  1.00  0.00    -0.025 A 
HETATM   13  O2  UNL     1     -11.487  22.748  27.626  1.00  0.00    -0.334 OA
HETATM   14  C9  UNL     1     -11.502  21.843  26.681  1.00  0.00     0.149 A 
HETATM   15  C11 UNL     1     -13.589  21.200  25.071  1.00  0.00     0.073 C 
HETATM   16  C12 UNL     1     -14.722  22.193  24.884  1.00  0.00     0.131 C 
BRANCH  16  17
HETATM   17  O3  UNL     1     -14.400  23.131  23.930  1.00  0.00    -0.395 OA
ATOM     18  H3  UNL     1     -13.490  23.380  24.031  1.00  0.00     0.210 HD
ENDBRANCH  16  17
ENDBRANCH   8   9
ENDBRANCH   7   8
ENDBRANCH   6   7
ENDBRANCH   5   6
ENDBRANCH   3   5
ENDBRANCH   2   3
ENDBRANCH   1   2
BRANCH   1  19
HETATM   19  C14 UNL     1     -14.313  17.933  26.207  1.00  0.00     0.101 C 
BRANCH  19  20
HETATM   20  S1  UNL     1     -14.571  18.610  27.887  1.00  0.00    -0.157 SA
BRANCH  20  21
HETATM   21  C15 UNL     1     -13.841  17.385  29.027  1.00  0.00     0.110 C 
HETATM   22  C16 UNL     1     -14.233  17.764  30.410  1.00  0.00     0.165 C 
HETATM   23  C17 UNL     1     -13.399  17.061  31.482  1.00  0.00     0.179 C 
HETATM   24  C18 UNL     1     -11.974  17.326  31.150  1.00  0.00     0.187 C 
HETATM   25  O7  UNL     1     -11.043  16.748  31.968  1.00  0.00    -0.356 OA
HETATM   26  C20 UNL     1     -11.701  16.560  29.843  1.00  0.00     0.185 C 
HETATM   27  C19 UNL     1      -9.901  16.691  31.152  1.00  0.00     0.339 C 
HETATM   28  O8  UNL     1     -10.331  16.582  29.838  1.00  0.00    -0.356 OA
HETATM   29  C21 UNL     1     -12.371  17.335  28.765  1.00  0.00     0.166 C 
BRANCH  22  30
HETATM   30  O5  UNL     1     -14.048  19.141  30.640  1.00  0.00    -0.392 OA
ATOM     31  H5  UNL     1     -14.769  19.652  30.292  1.00  0.00     0.210 HD
ENDBRANCH  22  30
BRANCH  23  32
HETATM   32  O6  UNL     1     -13.670  15.701  31.363  1.00  0.00    -0.390 OA
ATOM     33  H6  UNL     1     -14.190  15.463  32.122  1.00  0.00     0.210 HD
ENDBRANCH  23  32
BRANCH  29  34
HETATM   34  O9  UNL     1     -11.772  18.570  28.634  1.00  0.00    -0.392 OA
ATOM     35  H9  UNL     1     -10.861  18.539  28.365  1.00  0.00     0.210 HD
ENDBRANCH  29  34
ENDBRANCH  20  21
ENDBRANCH  19  20
ENDBRANCH   1  19
TORSDOF 14
ENDMDL
MODEL 4
REMARK VINA RESULT: -8.009696247      2.822      7.438
REMARK  14 active torsions:
REMARK  status: ('A' for Active; 'I' for Inactive)
REMARK    1  A    between atoms: C1_2  and  C2_3 
REMARK    2  A    between atoms: C1_2  and  O4_17 
REMARK    3  A    between atoms: C2_3  and  C3_4 
REMARK    4  A    between atoms: C3_4  and  C4_5 
REMARK    5  A    between atoms: C4_5  and  C5_6 
REMARK    6  A    between atoms: C5_6  and  C6_7 
REMARK    7  A    between atoms: C12_14  and  O3_15 
REMARK    8  A    between atoms: O4_17  and  C13_18 
REMARK    9  A    between atoms: C13_18  and  C14_19 
REMARK   10  A    between atoms: C14_19  and  S1_20 
REMARK   11  A    between atoms: S1_20  and  C15_21 
REMARK   12  A    between atoms: C16_22  and  O5_23 
REMARK   13  A    between atoms: C17_25  and  O6_26 
REMARK   14  A    between atoms: C21_33  and  O9_34 
ROOT
HETATM    1  C13 UNL     1     -17.170  21.305  26.222  1.00  0.00     0.189 C 
ENDROOT
BRANCH   1   2
HETATM    2  O4  UNL     1     -16.794  21.276  24.882  1.00  0.00    -0.321 OA
BRANCH   2   3
HETATM    3  C1  UNL     1     -16.814  20.163  24.047  1.00  0.00     0.258 C 
HETATM    4  O1  UNL     1     -15.707  19.716  23.703  1.00  0.00    -0.265 OA
BRANCH   3   5
HETATM    5  C2  UNL     1     -18.060  19.535  23.583  1.00  0.00     0.111 C 
BRANCH   5   6
HETATM    6  C3  UNL     1     -17.865  18.086  23.303  1.00  0.00     0.010 C 
BRANCH   6   7
HETATM    7  C4  UNL     1     -18.997  17.403  22.590  1.00  0.00     0.001 C 
BRANCH   7   8
HETATM    8  C5  UNL     1     -20.279  17.519  23.348  1.00  0.00     0.012 C 
BRANCH   8   9
HETATM    9  C6  UNL     1     -20.248  16.726  24.620  1.00  0.00     0.050 C 
HETATM   10  C7  UNL     1     -20.631  17.566  25.755  1.00  0.00    -0.021 A 
HETATM   11  C8  UNL     1     -20.139  18.522  26.643  1.00  0.00     0.149 A 
HETATM   12  C10 UNL     1     -21.945  17.362  26.108  1.00  0.00    -0.025 A 
HETATM   13  O2  UNL     1     -21.117  18.840  27.450  1.00  0.00    -0.334 OA
HETATM   14  C9  UNL     1     -22.211  18.178  27.173  1.00  0.00     0.149 A 
HETATM   15  C11 UNL     1     -22.553  16.342  25.206  1.00  0.00     0.073 C 
HETATM   16  C12 UNL     1     -21.340  15.650  24.610  1.00  0.00     0.131 C 
BRANCH  16  17
HETATM   17  O3  UNL     1     -20.943  14.593  25.395  1.00  0.00    -0.395 OA
ATOM     18  H3  UNL     1     -21.543  13.867  25.270  1.00  0.00     0.210 HD
ENDBRANCH  16  17
ENDBRANCH   8   9
ENDBRANCH   7   8
ENDBRANCH   6   7
ENDBRANCH   5   6
ENDBRANCH   3   5
ENDBRANCH   2   3
ENDBRANCH   1   2
BRANCH   1  19
HETATM   19  C14 UNL     1     -16.600  22.444  27.018  1.00  0.00     0.101 C 
BRANCH  19  20
HETATM   20  S1  UNL     1     -15.605  21.729  28.377  1.00  0.00    -0.157 SA
BRANCH  20  21
HETATM   21  C15 UNL     1     -14.695  20.330  27.637  1.00  0.00     0.110 C 
HETATM   22  C16 UNL     1     -14.350  19.385  28.731  1.00  0.00     0.165 C 
HETATM   23  C17 UNL     1     -13.279  18.370  28.329  1.00  0.00     0.179 C 
HETATM   24  C18 UNL     1     -12.129  19.155  27.807  1.00  0.00     0.187 C 
HETATM   25  O7  UNL     1     -11.062  18.434  27.348  1.00  0.00    -0.356 OA
HETATM   26  C20 UNL     1     -12.618  19.785  26.490  1.00  0.00     0.185 C 
HETATM   27  C19 UNL     1     -10.437  19.328  26.463  1.00  0.00     0.339 C 
HETATM   28  O8  UNL     1     -11.417  20.161  25.948  1.00  0.00    -0.356 OA
HETATM   29  C21 UNL     1     -13.535  20.890  26.879  1.00  0.00     0.166 C 
BRANCH  22  30
HETATM   30  O5  UNL     1     -13.822  20.059  29.849  1.00  0.00    -0.392 OA
ATOM     31  H5  UNL     1     -14.306  19.853  30.640  1.00  0.00     0.210 HD
ENDBRANCH  22  30
BRANCH  23  32
HETATM   32  O6  UNL     1     -13.830  17.598  27.311  1.00  0.00    -0.390 OA
ATOM     33  H6  UNL     1     -13.235  17.662  26.573  1.00  0.00     0.210 HD
ENDBRANCH  23  32
BRANCH  29  34
HETATM   34  O9  UNL     1     -12.832  21.867  27.551  1.00  0.00    -0.392 OA
ATOM     35  H9  UNL     1     -12.043  21.559  27.982  1.00  0.00     0.210 HD
ENDBRANCH  29  34
ENDBRANCH  20  21
ENDBRANCH  19  20
ENDBRANCH   1  19
TORSDOF 14
ENDMDL
MODEL 5
REMARK VINA RESULT: -7.995145332      2.074      7.359
REMARK  14 active torsions:
REMARK  status: ('A' for Active; 'I' for Inactive)
REMARK    1  A    between atoms: C1_2  and  C2_3 
REMARK    2  A    between atoms: C1_2  and  O4_17 
REMARK    3  A    between atoms: C2_3  and  C3_4 
REMARK    4  A    between atoms: C3_4  and  C4_5 
REMARK    5  A    between atoms: C4_5  and  C5_6 
REMARK    6  A    between atoms: C5_6  and  C6_7 
REMARK    7  A    between atoms: C12_14  and  O3_15 
REMARK    8  A    between atoms: O4_17  and  C13_18 
REMARK    9  A    between atoms: C13_18  and  C14_19 
REMARK   10  A    between atoms: C14_19  and  S1_20 
REMARK   11  A    between atoms: S1_20  and  C15_21 
REMARK   12  A    between atoms: C16_22  and  O5_23 
REMARK   13  A    between atoms: C17_25  and  O6_26 
REMARK   14  A    between atoms: C21_33  and  O9_34 
ROOT
HETATM    1  C13 UNL     1     -14.231  18.067  26.644  1.00  0.00     0.189 C 
ENDROOT
BRANCH   1   2
HETATM    2  O4  UNL     1     -15.080  17.578  25.654  1.00  0.00    -0.321 OA
BRANCH   2   3
HETATM    3  C1  UNL     1     -16.051  18.306  24.973  1.00  0.00     0.258 C 
HETATM    4  O1  UNL     1     -17.227  17.942  25.140  1.00  0.00    -0.265 OA
BRANCH   3   5
HETATM    5  C2  UNL     1     -15.729  19.443  24.098  1.00  0.00     0.111 C 
BRANCH   5   6
HETATM    6  C3  UNL     1     -16.699  20.557  24.277  1.00  0.00     0.010 C 
BRANCH   6   7
HETATM    7  C4  UNL     1     -16.109  21.872  24.698  1.00  0.00     0.001 C 
BRANCH   7   8
HETATM    8  C5  UNL     1     -14.839  21.689  25.463  1.00  0.00     0.012 C 
BRANCH   8   9
HETATM    9  C6  UNL     1     -14.609  22.805  26.437  1.00  0.00     0.050 C 
HETATM   10  C7  UNL     1     -14.662  22.302  27.811  1.00  0.00    -0.021 A 
HETATM   11  C8  UNL     1     -15.546  21.943  28.826  1.00  0.00     0.149 A 
HETATM   12  C10 UNL     1     -13.399  22.107  28.322  1.00  0.00    -0.025 A 
HETATM   13  O2  UNL     1     -14.828  21.566  29.851  1.00  0.00    -0.334 OA
HETATM   14  C9  UNL     1     -13.546  21.646  29.601  1.00  0.00     0.149 A 
HETATM   15  C11 UNL     1     -12.382  22.474  27.295  1.00  0.00     0.073 C 
HETATM   16  C12 UNL     1     -13.174  23.332  26.324  1.00  0.00     0.131 C 
BRANCH  16  17
HETATM   17  O3  UNL     1     -13.145  24.654  26.701  1.00  0.00    -0.395 OA
ATOM     18  H3  UNL     1     -12.295  24.855  27.074  1.00  0.00     0.210 HD
ENDBRANCH  16  17
ENDBRANCH   8   9
ENDBRANCH   7   8
ENDBRANCH   6   7
ENDBRANCH   5   6
ENDBRANCH   3   5
ENDBRANCH   2   3
ENDBRANCH   1   2
BRANCH   1  19
HETATM   19  C14 UNL     1     -14.922  18.643  27.846  1.00  0.00     0.101 C 
BRANCH  19  20
HETATM   20  S1  UNL     1     -14.463  17.621  29.294  1.00  0.00    -0.157 SA
BRANCH  20  21
HETATM   21  C15 UNL     1     -12.684  17.928  29.567  1.00  0.00     0.110 C 
HETATM   22  C16 UNL     1     -11.942  16.727  29.100  1.00  0.00     0.165 C 
HETATM   23  C17 UNL     1     -10.498  16.684  29.604  1.00  0.00     0.179 C 
HETATM   24  C18 UNL     1     -10.562  16.835  31.083  1.00  0.00     0.187 C 
HETATM   25  O7  UNL     1      -9.364  16.864  31.741  1.00  0.00    -0.356 OA
HETATM   26  C20 UNL     1     -11.046  18.274  31.334  1.00  0.00     0.185 C 
HETATM   27  C19 UNL     1      -9.678  17.538  32.932  1.00  0.00     0.339 C 
HETATM   28  O8  UNL     1     -10.728  18.401  32.661  1.00  0.00    -0.356 OA
HETATM   29  C21 UNL     1     -12.497  18.283  31.006  1.00  0.00     0.166 C 
BRANCH  22  30
HETATM   30  O5  UNL     1     -12.534  15.539  29.569  1.00  0.00    -0.392 OA
ATOM     31  H5  UNL     1     -12.923  15.041  28.861  1.00  0.00     0.210 HD
ENDBRANCH  22  30
BRANCH  23  32
HETATM   32  O6  UNL     1      -9.851  17.780  29.042  1.00  0.00    -0.390 OA
ATOM     33  H6  UNL     1      -9.863  17.646  28.101  1.00  0.00     0.210 HD
ENDBRANCH  23  32
BRANCH  29  34
HETATM   34  O9  UNL     1     -13.181  17.473  31.888  1.00  0.00    -0.392 OA
ATOM     35  H9  UNL     1     -12.840  16.588  31.956  1.00  0.00     0.210 HD
ENDBRANCH  29  34
ENDBRANCH  20  21
ENDBRANCH  19  20
ENDBRANCH   1  19
TORSDOF 14
ENDMDL
