MODEL 1
REMARK VINA RESULT: -8.805365494      0.000      0.000
REMARK  13 active torsions:
REMARK  status: ('A' for Active; 'I' for Inactive)
REMARK    1  A    between atoms: C2_2  and  S1_3 
REMARK    2  A    between atoms: C2_2  and  C8_16 
REMARK    3  A    between atoms: S1_3  and  C3_4 
REMARK    4  A    between atoms: C5_6  and  O1_7 
REMARK    5  A    between atoms: C6_9  and  O2_10 
REMARK    6  A    between atoms: C7_12  and  O3_13 
REMARK    7  A    between atoms: C8_16  and  C9_18 
REMARK    8  A    between atoms: C9_18  and  O6_19 
REMARK    9  A    between atoms: C9_18  and  C10_21 
REMARK   10  A    between atoms: C12_24  and  O8_25 
REMARK   11  A    between atoms: O8_25  and  C13_26 
REMARK   12  A    between atoms: C18_31  and  C20_33 
REMARK   13  A    between atoms: C20_33  and  O9_34 
ROOT
HETATM    1  C9  UNL     1     -13.730  22.006  28.700  1.00  0.00     0.216 C 
ENDROOT
BRANCH   1   2
HETATM    2  C8  UNL     1     -12.949  20.816  28.370  1.00  0.00     0.172 C 
HETATM    3  O5  UNL     1     -11.919  20.952  27.715  1.00  0.00    -0.294 OA
BRANCH   2   4
HETATM    4  C2  UNL     1     -13.350  19.463  28.797  1.00  0.00     0.118 C 
HETATM    5  C1  UNL     1     -14.584  18.936  28.148  1.00  0.00     0.029 C 
BRANCH   4   6
HETATM    6  S1  UNL     1     -11.944  18.299  28.596  1.00  0.00    -0.125 SA
BRANCH   6   7
HETATM    7  C3  UNL     1     -12.473  16.689  29.228  1.00  0.00     0.189 C 
HETATM    8  C4  UNL     1     -11.281  15.778  29.415  1.00  0.00     0.077 C 
HETATM    9  C5  UNL     1     -10.406  16.394  30.482  1.00  0.00     0.154 C 
HETATM   10  C6  UNL     1     -11.169  17.281  31.416  1.00  0.00     0.202 C 
HETATM   11  C7  UNL     1     -12.619  16.972  31.523  1.00  0.00     0.289 C 
HETATM   12  O4  UNL     1     -13.270  16.778  30.333  1.00  0.00    -0.343 OA
BRANCH   9  13
HETATM   13  O1  UNL     1      -9.432  17.189  29.846  1.00  0.00    -0.393 OA
ATOM     14  H1  UNL     1      -8.640  16.673  29.758  1.00  0.00     0.210 HD
ENDBRANCH   9  13
BRANCH  10  15
HETATM   15  O2  UNL     1     -10.597  17.114  32.695  1.00  0.00    -0.388 OA
ATOM     16  H2  UNL     1      -9.905  17.759  32.773  1.00  0.00     0.210 HD
ENDBRANCH  10  15
BRANCH  11  17
HETATM   17  O3  UNL     1     -12.873  15.892  32.379  1.00  0.00    -0.368 OA
ATOM     18  H3  UNL     1     -12.486  15.083  32.065  1.00  0.00     0.212 HD
ENDBRANCH  11  17
ENDBRANCH   6   7
ENDBRANCH   4   6
ENDBRANCH   2   4
ENDBRANCH   1   2
BRANCH   1  19
HETATM   19  O6  UNL     1     -12.980  23.191  28.491  1.00  0.00    -0.384 OA
ATOM     20  H6  UNL     1     -13.488  23.965  28.706  1.00  0.00     0.211 HD
ENDBRANCH   1  19
BRANCH   1  21
HETATM   21  C10 UNL     1     -15.006  22.087  27.946  1.00  0.00     0.076 C 
HETATM   22  C11 UNL     1     -15.028  22.452  26.651  1.00  0.00     0.182 C 
HETATM   23  O7  UNL     1     -16.146  22.566  25.841  1.00  0.00    -0.296 OA
HETATM   24  O10 UNL     1     -13.951  22.792  25.851  1.00  0.00    -0.312 OA
HETATM   25  C12 UNL     1     -15.736  22.136  24.534  1.00  0.00     0.305 C 
HETATM   26  C18 UNL     1     -14.251  22.272  24.553  1.00  0.00     0.137 C 
HETATM   27  C19 UNL     1     -13.512  20.956  24.450  1.00  0.00     0.054 C 
BRANCH  25  28
HETATM   28  O8  UNL     1     -16.082  20.807  24.441  1.00  0.00    -0.352 OA
BRANCH  28  29
HETATM   29  C13 UNL     1     -17.381  20.542  24.851  1.00  0.00     0.124 C 
HETATM   30  C14 UNL     1     -18.120  19.968  23.660  1.00  0.00     0.032 C 
HETATM   31  C15 UNL     1     -17.314  18.695  23.409  1.00  0.00     0.002 C 
HETATM   32  C16 UNL     1     -17.036  18.182  24.792  1.00  0.00     0.002 C 
HETATM   33  C17 UNL     1     -17.350  19.309  25.763  1.00  0.00     0.032 C 
ENDBRANCH  28  29
ENDBRANCH  25  28
BRANCH  26  34
HETATM   34  C20 UNL     1     -13.733  23.285  23.562  1.00  0.00     0.207 C 
BRANCH  34  35
HETATM   35  O9  UNL     1     -12.976  24.281  24.140  1.00  0.00    -0.398 OA
ATOM     36  H9  UNL     1     -12.094  24.337  23.792  1.00  0.00     0.209 HD
ENDBRANCH  34  35
ENDBRANCH  26  34
ENDBRANCH   1  21
TORSDOF 13
ENDMDL
MODEL 2
REMARK VINA RESULT: -8.674621306      1.123      1.561
REMARK  13 active torsions:
REMARK  status: ('A' for Active; 'I' for Inactive)
REMARK    1  A    between atoms: C2_2  and  S1_3 
REMARK    2  A    between atoms: C2_2  and  C8_16 
REMARK    3  A    between atoms: S1_3  and  C3_4 
REMARK    4  A    between atoms: C5_6  and  O1_7 
REMARK    5  A    between atoms: C6_9  and  O2_10 
REMARK    6  A    between atoms: C7_12  and  O3_13 
REMARK    7  A    between atoms: C8_16  and  C9_18 
REMARK    8  A    between atoms: C9_18  and  O6_19 
REMARK    9  A    between atoms: C9_18  and  C10_21 
REMARK   10  A    between atoms: C12_24  and  O8_25 
REMARK   11  A    between atoms: O8_25  and  C13_26 
REMARK   12  A    between atoms: C18_31  and  C20_33 
REMARK   13  A    between atoms: C20_33  and  O9_34 
ROOT
HETATM    1  C9  UNL     1     -12.836  22.125  28.498  1.00  0.00     0.216 C 
ENDROOT
BRANCH   1   2
HETATM    2  C8  UNL     1     -12.013  21.290  27.627  1.00  0.00     0.172 C 
HETATM    3  O5  UNL     1     -11.107  21.820  26.990  1.00  0.00    -0.294 OA
BRANCH   2   4
HETATM    4  C2  UNL     1     -12.228  19.838  27.490  1.00  0.00     0.118 C 
HETATM    5  C1  UNL     1     -11.254  19.136  26.606  1.00  0.00     0.029 C 
BRANCH   4   6
HETATM    6  S1  UNL     1     -12.304  19.055  29.149  1.00  0.00    -0.125 SA
BRANCH   6   7
HETATM    7  C3  UNL     1     -12.472  17.271  28.905  1.00  0.00     0.189 C 
HETATM    8  C4  UNL     1     -11.632  16.518  29.911  1.00  0.00     0.077 C 
HETATM    9  C5  UNL     1     -12.192  16.820  31.281  1.00  0.00     0.154 C 
HETATM   10  C6  UNL     1     -13.638  17.205  31.245  1.00  0.00     0.202 C 
HETATM   11  C7  UNL     1     -14.389  16.691  30.070  1.00  0.00     0.289 C 
HETATM   12  O4  UNL     1     -13.772  16.852  28.858  1.00  0.00    -0.343 OA
BRANCH   9  13
HETATM   13  O1  UNL     1     -11.478  17.910  31.817  1.00  0.00    -0.393 OA
ATOM     14  H1  UNL     1     -11.458  17.816  32.761  1.00  0.00     0.210 HD
ENDBRANCH   9  13
BRANCH  10  15
HETATM   15  O2  UNL     1     -14.233  16.667  32.406  1.00  0.00    -0.388 OA
ATOM     16  H2  UNL     1     -14.805  17.339  32.758  1.00  0.00     0.210 HD
ENDBRANCH  10  15
BRANCH  11  17
HETATM   17  O3  UNL     1     -14.774  15.352  30.226  1.00  0.00    -0.368 OA
ATOM     18  H3  UNL     1     -14.251  14.761  29.697  1.00  0.00     0.212 HD
ENDBRANCH  11  17
ENDBRANCH   6   7
ENDBRANCH   4   6
ENDBRANCH   2   4
ENDBRANCH   1   2
BRANCH   1  19
HETATM   19  O6  UNL     1     -12.352  23.457  28.545  1.00  0.00    -0.384 OA
ATOM     20  H6  UNL     1     -11.423  23.495  28.353  1.00  0.00     0.211 HD
ENDBRANCH   1  19
BRANCH   1  21
HETATM   21  C10 UNL     1     -14.268  22.132  28.107  1.00  0.00     0.076 C 
HETATM   22  C11 UNL     1     -14.646  22.432  26.851  1.00  0.00     0.182 C 
HETATM   23  O7  UNL     1     -15.942  22.473  26.362  1.00  0.00    -0.296 OA
HETATM   24  O10 UNL     1     -13.833  22.762  25.781  1.00  0.00    -0.312 OA
HETATM   25  C12 UNL     1     -15.874  21.989  25.012  1.00  0.00     0.305 C 
HETATM   26  C18 UNL     1     -14.444  22.169  24.630  1.00  0.00     0.137 C 
HETATM   27  C19 UNL     1     -13.705  20.872  24.388  1.00  0.00     0.054 C 
BRANCH  25  28
HETATM   28  O8  UNL     1     -16.178  20.649  25.068  1.00  0.00    -0.352 OA
BRANCH  28  29
HETATM   29  C13 UNL     1     -17.540  20.390  25.112  1.00  0.00     0.124 C 
HETATM   30  C14 UNL     1     -17.985  20.077  23.698  1.00  0.00     0.032 C 
HETATM   31  C15 UNL     1     -17.160  18.825  23.409  1.00  0.00     0.002 C 
HETATM   32  C16 UNL     1     -17.223  18.061  24.698  1.00  0.00     0.002 C 
HETATM   33  C17 UNL     1     -17.742  19.015  25.763  1.00  0.00     0.032 C 
ENDBRANCH  28  29
ENDBRANCH  25  28
BRANCH  26  34
HETATM   34  C20 UNL     1     -14.248  23.147  23.497  1.00  0.00     0.207 C 
BRANCH  34  35
HETATM   35  O9  UNL     1     -13.135  23.946  23.648  1.00  0.00    -0.398 OA
ATOM     36  H9  UNL     1     -12.654  24.082  22.840  1.00  0.00     0.209 HD
ENDBRANCH  34  35
ENDBRANCH  26  34
ENDBRANCH   1  21
TORSDOF 13
ENDMDL
MODEL 3
REMARK VINA RESULT: -7.964470368      3.143      7.887
REMARK  13 active torsions:
REMARK  status: ('A' for Active; 'I' for Inactive)
REMARK    1  A    between atoms: C2_2  and  S1_3 
REMARK    2  A    between atoms: C2_2  and  C8_16 
REMARK    3  A    between atoms: S1_3  and  C3_4 
REMARK    4  A    between atoms: C5_6  and  O1_7 
REMARK    5  A    between atoms: C6_9  and  O2_10 
REMARK    6  A    between atoms: C7_12  and  O3_13 
REMARK    7  A    between atoms: C8_16  and  C9_18 
REMARK    8  A    between atoms: C9_18  and  O6_19 
REMARK    9  A    between atoms: C9_18  and  C10_21 
REMARK   10  A    between atoms: C12_24  and  O8_25 
REMARK   11  A    between atoms: O8_25  and  C13_26 
REMARK   12  A    between atoms: C18_31  and  C20_33 
REMARK   13  A    between atoms: C20_33  and  O9_34 
ROOT
HETATM    1  C9  UNL     1     -15.544  21.096  24.550  1.00  0.00     0.216 C 
ENDROOT
BRANCH   1   2
HETATM    2  C8  UNL     1     -16.751  20.925  25.355  1.00  0.00     0.172 C 
HETATM    3  O5  UNL     1     -17.161  21.879  26.009  1.00  0.00    -0.294 OA
BRANCH   2   4
HETATM    4  C2  UNL     1     -17.493  19.652  25.406  1.00  0.00     0.118 C 
HETATM    5  C1  UNL     1     -18.379  19.485  26.593  1.00  0.00     0.029 C 
BRANCH   4   6
HETATM    6  S1  UNL     1     -18.423  19.405  23.841  1.00  0.00    -0.125 SA
BRANCH   6   7
HETATM    7  C3  UNL     1     -18.388  17.638  23.458  1.00  0.00     0.189 C 
HETATM    8  C4  UNL     1     -19.397  16.894  24.303  1.00  0.00     0.077 C 
HETATM    9  C5  UNL     1     -20.768  17.392  23.913  1.00  0.00     0.154 C 
HETATM   10  C6  UNL     1     -20.811  17.940  22.520  1.00  0.00     0.202 C 
HETATM   11  C7  UNL     1     -19.765  17.405  21.609  1.00  0.00     0.289 C 
HETATM   12  O4  UNL     1     -18.495  17.372  22.122  1.00  0.00    -0.343 OA
BRANCH   9  13
HETATM   13  O1  UNL     1     -21.121  18.439  24.788  1.00  0.00    -0.393 OA
ATOM     14  H1  UNL     1     -20.693  18.285  25.621  1.00  0.00     0.210 HD
ENDBRANCH   9  13
BRANCH  10  15
HETATM   15  O2  UNL     1     -22.068  17.592  21.983  1.00  0.00    -0.388 OA
ATOM     16  H2  UNL     1     -22.147  18.046  21.152  1.00  0.00     0.210 HD
ENDBRANCH  10  15
BRANCH  11  17
HETATM   17  O3  UNL     1     -20.097  16.143  21.098  1.00  0.00    -0.368 OA
ATOM     18  H3  UNL     1     -20.518  15.590  21.745  1.00  0.00     0.212 HD
ENDBRANCH  11  17
ENDBRANCH   6   7
ENDBRANCH   4   6
ENDBRANCH   2   4
ENDBRANCH   1   2
BRANCH   1  19
HETATM   19  O6  UNL     1     -15.201  22.466  24.417  1.00  0.00    -0.384 OA
ATOM     20  H6  UNL     1     -14.316  22.633  24.718  1.00  0.00     0.211 HD
ENDBRANCH   1  19
BRANCH   1  21
HETATM   21  C10 UNL     1     -14.381  20.345  25.085  1.00  0.00     0.076 C 
HETATM   22  C11 UNL     1     -13.603  20.862  26.053  1.00  0.00     0.182 C 
HETATM   23  O7  UNL     1     -12.495  20.265  26.634  1.00  0.00    -0.296 OA
HETATM   24  O10 UNL     1     -13.734  22.090  26.676  1.00  0.00    -0.312 OA
HETATM   25  C12 UNL     1     -12.512  20.654  28.015  1.00  0.00     0.305 C 
HETATM   26  C18 UNL     1     -13.365  21.876  28.041  1.00  0.00     0.137 C 
HETATM   27  C19 UNL     1     -14.662  21.704  28.800  1.00  0.00     0.054 C 
BRANCH  25  28
HETATM   28  O8  UNL     1     -13.137  19.633  28.695  1.00  0.00    -0.352 OA
BRANCH  28  29
HETATM   29  C13 UNL     1     -12.744  18.369  28.280  1.00  0.00     0.124 C 
HETATM   30  C14 UNL     1     -11.980  17.737  29.425  1.00  0.00     0.032 C 
HETATM   31  C15 UNL     1     -13.063  17.691  30.500  1.00  0.00     0.002 C 
HETATM   32  C16 UNL     1     -14.292  17.288  29.739  1.00  0.00     0.002 C 
HETATM   33  C17 UNL     1     -13.986  17.467  28.260  1.00  0.00     0.032 C 
ENDBRANCH  28  29
ENDBRANCH  25  28
BRANCH  26  34
HETATM   34  C20 UNL     1     -12.620  23.114  28.477  1.00  0.00     0.207 C 
BRANCH  34  35
HETATM   35  O9  UNL     1     -12.222  23.913  27.427  1.00  0.00    -0.398 OA
ATOM     36  H9  UNL     1     -12.794  24.658  27.280  1.00  0.00     0.209 HD
ENDBRANCH  34  35
ENDBRANCH  26  34
ENDBRANCH   1  21
TORSDOF 13
ENDMDL
MODEL 4
REMARK VINA RESULT: -7.952456718      3.769      8.241
REMARK  13 active torsions:
REMARK  status: ('A' for Active; 'I' for Inactive)
REMARK    1  A    between atoms: C2_2  and  S1_3 
REMARK    2  A    between atoms: C2_2  and  C8_16 
REMARK    3  A    between atoms: S1_3  and  C3_4 
REMARK    4  A    between atoms: C5_6  and  O1_7 
REMARK    5  A    between atoms: C6_9  and  O2_10 
REMARK    6  A    between atoms: C7_12  and  O3_13 
REMARK    7  A    between atoms: C8_16  and  C9_18 
REMARK    8  A    between atoms: C9_18  and  O6_19 
REMARK    9  A    between atoms: C9_18  and  C10_21 
REMARK   10  A    between atoms: C12_24  and  O8_25 
REMARK   11  A    between atoms: O8_25  and  C13_26 
REMARK   12  A    between atoms: C18_31  and  C20_33 
REMARK   13  A    between atoms: C20_33  and  O9_34 
ROOT
HETATM    1  C9  UNL     1     -16.546  20.113  26.359  1.00  0.00     0.216 C 
ENDROOT
BRANCH   1   2
HETATM    2  C8  UNL     1     -17.884  19.560  26.165  1.00  0.00     0.172 C 
HETATM    3  O5  UNL     1     -18.553  19.277  27.156  1.00  0.00    -0.294 OA
BRANCH   2   4
HETATM    4  C2  UNL     1     -18.459  19.332  24.827  1.00  0.00     0.118 C 
HETATM    5  C1  UNL     1     -17.720  19.975  23.704  1.00  0.00     0.029 C 
BRANCH   4   6
HETATM    6  S1  UNL     1     -18.677  17.532  24.535  1.00  0.00    -0.125 SA
BRANCH   6   7
HETATM    7  C3  UNL     1     -20.309  17.071  25.163  1.00  0.00     0.189 C 
HETATM    8  C4  UNL     1     -21.389  17.861  24.459  1.00  0.00     0.077 C 
HETATM    9  C5  UNL     1     -21.360  17.466  23.002  1.00  0.00     0.154 C 
HETATM   10  C6  UNL     1     -20.791  16.099  22.783  1.00  0.00     0.202 C 
HETATM   11  C7  UNL     1     -20.899  15.186  23.951  1.00  0.00     0.289 C 
HETATM   12  O4  UNL     1     -20.530  15.722  25.156  1.00  0.00    -0.343 OA
BRANCH   9  13
HETATM   13  O1  UNL     1     -20.537  18.381  22.315  1.00  0.00    -0.393 OA
ATOM     14  H1  UNL     1     -20.164  17.937  21.563  1.00  0.00     0.210 HD
ENDBRANCH   9  13
BRANCH  10  15
HETATM   15  O2  UNL     1     -21.513  15.522  21.717  1.00  0.00    -0.388 OA
ATOM     16  H2  UNL     1     -21.971  14.769  22.071  1.00  0.00     0.210 HD
ENDBRANCH  10  15
BRANCH  11  17
HETATM   17  O3  UNL     1     -22.173  14.612  24.064  1.00  0.00    -0.368 OA
ATOM     18  H3  UNL     1     -22.187  13.877  24.664  1.00  0.00     0.212 HD
ENDBRANCH  11  17
ENDBRANCH   6   7
ENDBRANCH   4   6
ENDBRANCH   2   4
ENDBRANCH   1   2
BRANCH   1  19
HETATM   19  O6  UNL     1     -16.510  21.005  27.461  1.00  0.00    -0.384 OA
ATOM     20  H6  UNL     1     -15.629  21.098  27.803  1.00  0.00     0.211 HD
ENDBRANCH   1  19
BRANCH   1  21
HETATM   21  C10 UNL     1     -15.508  19.067  26.535  1.00  0.00     0.076 C 
HETATM   22  C11 UNL     1     -14.201  19.382  26.583  1.00  0.00     0.182 C 
HETATM   23  O7  UNL     1     -13.141  18.505  26.742  1.00  0.00    -0.296 OA
HETATM   24  O10 UNL     1     -13.633  20.640  26.485  1.00  0.00    -0.312 OA
HETATM   25  C12 UNL     1     -12.170  19.194  27.544  1.00  0.00     0.305 C 
HETATM   26  C18 UNL     1     -12.518  20.635  27.382  1.00  0.00     0.137 C 
HETATM   27  C19 UNL     1     -13.003  21.297  28.652  1.00  0.00     0.054 C 
BRANCH  25  28
HETATM   28  O8  UNL     1     -12.396  18.803  28.843  1.00  0.00    -0.352 OA
BRANCH  28  29
HETATM   29  C13 UNL     1     -12.647  17.444  28.977  1.00  0.00     0.124 C 
HETATM   30  C14 UNL     1     -11.592  16.883  29.909  1.00  0.00     0.032 C 
HETATM   31  C15 UNL     1     -11.894  17.663  31.186  1.00  0.00     0.002 C 
HETATM   32  C16 UNL     1     -13.394  17.692  31.230  1.00  0.00     0.002 C 
HETATM   33  C17 UNL     1     -13.893  17.275  29.856  1.00  0.00     0.032 C 
ENDBRANCH  28  29
ENDBRANCH  25  28
BRANCH  26  34
HETATM   34  C20 UNL     1     -11.431  21.439  26.710  1.00  0.00     0.207 C 
BRANCH  34  35
HETATM   35  O9  UNL     1     -10.557  20.670  25.972  1.00  0.00    -0.398 OA
ATOM     36  H9  UNL     1      -9.803  20.373  26.468  1.00  0.00     0.209 HD
ENDBRANCH  34  35
ENDBRANCH  26  34
ENDBRANCH   1  21
TORSDOF 13
ENDMDL
MODEL 5
REMARK VINA RESULT: -7.874470579      4.118      7.558
REMARK  13 active torsions:
REMARK  status: ('A' for Active; 'I' for Inactive)
REMARK    1  A    between atoms: C2_2  and  S1_3 
REMARK    2  A    between atoms: C2_2  and  C8_16 
REMARK    3  A    between atoms: S1_3  and  C3_4 
REMARK    4  A    between atoms: C5_6  and  O1_7 
REMARK    5  A    between atoms: C6_9  and  O2_10 
REMARK    6  A    between atoms: C7_12  and  O3_13 
REMARK    7  A    between atoms: C8_16  and  C9_18 
REMARK    8  A    between atoms: C9_18  and  O6_19 
REMARK    9  A    between atoms: C9_18  and  C10_21 
REMARK   10  A    between atoms: C12_24  and  O8_25 
REMARK   11  A    between atoms: O8_25  and  C13_26 
REMARK   12  A    between atoms: C18_31  and  C20_33 
REMARK   13  A    between atoms: C20_33  and  O9_34 
ROOT
HETATM    1  C9  UNL     1     -17.831  19.159  24.604  1.00  0.00     0.216 C 
ENDROOT
BRANCH   1   2
HETATM    2  C8  UNL     1     -16.398  19.286  24.858  1.00  0.00     0.172 C 
HETATM    3  O5  UNL     1     -15.664  19.613  23.930  1.00  0.00    -0.294 OA
BRANCH   2   4
HETATM    4  C2  UNL     1     -15.806  19.040  26.185  1.00  0.00     0.118 C 
HETATM    5  C1  UNL     1     -14.730  18.008  26.215  1.00  0.00     0.029 C 
BRANCH   4   6
HETATM    6  S1  UNL     1     -15.230  20.622  26.919  1.00  0.00    -0.125 SA
BRANCH   6   7
HETATM    7  C3  UNL     1     -13.426  20.657  26.798  1.00  0.00     0.189 C 
HETATM    8  C4  UNL     1     -12.997  21.162  25.439  1.00  0.00     0.077 C 
HETATM    9  C5  UNL     1     -13.464  22.593  25.322  1.00  0.00     0.154 C 
HETATM   10  C6  UNL     1     -13.629  23.260  26.652  1.00  0.00     0.202 C 
HETATM   11  C7  UNL     1     -12.806  22.678  27.745  1.00  0.00     0.289 C 
HETATM   12  O4  UNL     1     -12.827  21.312  27.836  1.00  0.00    -0.343 OA
BRANCH   9  13
HETATM   13  O1  UNL     1     -14.724  22.594  24.691  1.00  0.00    -0.393 OA
ATOM     14  H1  UNL     1     -15.363  22.255  25.305  1.00  0.00     0.210 HD
ENDBRANCH   9  13
BRANCH  10  15
HETATM   15  O2  UNL     1     -13.235  24.605  26.486  1.00  0.00    -0.388 OA
ATOM     16  H2  UNL     1     -13.929  25.141  26.851  1.00  0.00     0.210 HD
ENDBRANCH  10  15
BRANCH  11  17
HETATM   17  O3  UNL     1     -11.479  23.126  27.711  1.00  0.00    -0.368 OA
ATOM     18  H3  UNL     1     -10.857  22.411  27.643  1.00  0.00     0.212 HD
ENDBRANCH  11  17
ENDBRANCH   6   7
ENDBRANCH   4   6
ENDBRANCH   2   4
ENDBRANCH   1   2
BRANCH   1  19
HETATM   19  O6  UNL     1     -18.260  20.059  23.595  1.00  0.00    -0.384 OA
ATOM     20  H6  UNL     1     -19.073  19.772  23.197  1.00  0.00     0.211 HD
ENDBRANCH   1  19
BRANCH   1  21
HETATM   21  C10 UNL     1     -18.233  17.778  24.237  1.00  0.00     0.076 C 
HETATM   22  C11 UNL     1     -19.521  17.462  24.014  1.00  0.00     0.182 C 
HETATM   23  O7  UNL     1     -20.022  16.218  23.668  1.00  0.00    -0.296 OA
HETATM   24  O10 UNL     1     -20.619  18.302  24.080  1.00  0.00    -0.312 OA
HETATM   25  C12 UNL     1     -21.109  16.464  22.763  1.00  0.00     0.305 C 
HETATM   26  C18 UNL     1     -21.497  17.879  23.032  1.00  0.00     0.137 C 
HETATM   27  C19 UNL     1     -21.243  18.817  21.873  1.00  0.00     0.054 C 
BRANCH  25  28
HETATM   28  O8  UNL     1     -20.586  16.357  21.495  1.00  0.00    -0.352 OA
BRANCH  28  29
HETATM   29  C13 UNL     1     -20.953  15.189  20.841  1.00  0.00     0.124 C 
HETATM   30  C14 UNL     1     -22.273  15.458  20.147  1.00  0.00     0.032 C 
HETATM   31  C15 UNL     1     -21.867  16.568  19.180  1.00  0.00     0.002 C 
HETATM   32  C16 UNL     1     -20.520  16.127  18.689  1.00  0.00     0.002 C 
HETATM   33  C17 UNL     1     -20.041  15.022  19.618  1.00  0.00     0.032 C 
ENDBRANCH  28  29
ENDBRANCH  25  28
BRANCH  26  34
HETATM   34  C20 UNL     1     -22.899  18.021  23.572  1.00  0.00     0.207 C 
BRANCH  34  35
HETATM   35  O9  UNL     1     -23.701  16.932  23.307  1.00  0.00    -0.398 OA
ATOM     36  H9  UNL     1     -23.676  16.268  23.987  1.00  0.00     0.209 HD
ENDBRANCH  34  35
ENDBRANCH  26  34
ENDBRANCH   1  21
TORSDOF 13
ENDMDL
