MODEL 1
REMARK VINA RESULT: -9.459388607      0.000      0.000
REMARK  9 active torsions:
REMARK  status: ('A' for Active; 'I' for Inactive)
REMARK    1  A    between atoms: C4_4  and  C5_5 
REMARK    2  A    between atoms: C5_5  and  C6_6 
REMARK    3  A    between atoms: C6_6  and  C7_7 
REMARK    4  A    between atoms: C12_13  and  O2_15 
REMARK    5  A    between atoms: C14_17  and  O3_18 
REMARK    6  A    between atoms: O3_18  and  C15_19 
REMARK    7  A    between atoms: C15_19  and  C16_21 
REMARK    8  A    between atoms: C18_24  and  O5_26 
REMARK    9  A    between atoms: C20_28  and  O6_29 
ROOT
HETATM    1  C7  UNL     1     -35.108 -12.594  23.473  1.00  0.00     0.004 C 
HETATM    2  C8  UNL     1     -36.577 -12.288  23.245  1.00  0.00     0.022 C 
HETATM    3  C9  UNL     1     -34.500 -12.978  22.185  1.00  0.00    -0.011 C 
HETATM    4  C10 UNL     1     -33.157 -12.870  22.103  1.00  0.00     0.050 C 
HETATM    5  C11 UNL     1     -32.410 -12.389  23.261  1.00  0.00     0.185 C 
HETATM    6  O1  UNL     1     -31.240 -12.782  23.490  1.00  0.00    -0.290 OA
HETATM    7  C12 UNL     1     -33.011 -11.409  24.217  1.00  0.00     0.145 C 
HETATM    8  C13 UNL     1     -32.665 -11.774  25.591  1.00  0.00     0.057 C 
HETATM    9  C14 UNL     1     -34.468 -11.282  23.872  1.00  0.00     0.185 C 
ENDROOT
BRANCH   9  10
HETATM   10  O3  UNL     1     -35.196 -10.398  24.613  1.00  0.00    -0.310 OA
BRANCH  10  11
HETATM   11  C15 UNL     1     -35.625  -9.152  24.376  1.00  0.00     0.278 C 
HETATM   12  O4  UNL     1     -36.527  -9.010  23.561  1.00  0.00    -0.263 OA
BRANCH  11  13
HETATM   13  C16 UNL     1     -35.052  -7.968  25.056  1.00  0.00     0.098 C 
HETATM   14  C17 UNL     1     -34.692  -8.437  26.460  1.00  0.00     0.038 C 
HETATM   15  S1  UNL     1     -36.252  -6.617  25.179  1.00  0.00    -0.109 SA
HETATM   16  C18 UNL     1     -36.531  -5.988  23.504  1.00  0.00     0.129 C 
HETATM   17  C19 UNL     1     -36.683  -4.481  23.575  1.00  0.00     0.061 C 
HETATM   18  C20 UNL     1     -35.364  -6.389  22.634  1.00  0.00     0.163 C 
HETATM   19  C21 UNL     1     -34.058  -6.352  23.379  1.00  0.00     0.042 C 
HETATM   20  C22 UNL     1     -33.844  -7.462  24.328  1.00  0.00     0.012 C 
HETATM   21  C23 UNL     1     -32.851  -6.973  25.390  1.00  0.00     0.012 C 
BRANCH  16  22
HETATM   22  O5  UNL     1     -37.699  -6.561  23.026  1.00  0.00    -0.377 OA
ATOM     23  H5  UNL     1     -38.051  -5.986  22.357  1.00  0.00     0.211 HD
ENDBRANCH  16  22
BRANCH  18  24
HETATM   24  O6  UNL     1     -35.267  -5.384  21.639  1.00  0.00    -0.392 OA
ATOM     25  H6  UNL     1     -34.805  -5.786  20.913  1.00  0.00     0.210 HD
ENDBRANCH  18  24
ENDBRANCH  11  13
ENDBRANCH  10  11
ENDBRANCH   9  10
BRANCH   1  26
HETATM   26  C6  UNL     1     -34.994 -13.681  24.424  1.00  0.00     0.019 C 
BRANCH  26  27
HETATM   27  C5  UNL     1     -36.150 -14.620  24.441  1.00  0.00     0.028 C 
BRANCH  27  28
HETATM   28  C4  UNL     1     -36.895 -14.807  25.669  1.00  0.00    -0.025 C 
HETATM   29  C2  UNL     1     -38.207 -14.981  25.662  1.00  0.00    -0.091 C 
HETATM   30  C1  UNL     1     -39.053 -15.008  24.449  1.00  0.00     0.042 C 
HETATM   31  C3  UNL     1     -38.891 -15.170  26.987  1.00  0.00     0.042 C 
ENDBRANCH  27  28
ENDBRANCH  26  27
ENDBRANCH   1  26
BRANCH   7  32
HETATM   32  O2  UNL     1     -32.352 -10.187  23.941  1.00  0.00    -0.379 OA
ATOM     33  H2  UNL     1     -31.429 -10.381  24.051  1.00  0.00     0.211 HD
ENDBRANCH   7  32
TORSDOF 9
ENDMDL
MODEL 2
REMARK VINA RESULT: -8.805108466      1.982      2.945
REMARK  9 active torsions:
REMARK  status: ('A' for Active; 'I' for Inactive)
REMARK    1  A    between atoms: C4_4  and  C5_5 
REMARK    2  A    between atoms: C5_5  and  C6_6 
REMARK    3  A    between atoms: C6_6  and  C7_7 
REMARK    4  A    between atoms: C12_13  and  O2_15 
REMARK    5  A    between atoms: C14_17  and  O3_18 
REMARK    6  A    between atoms: O3_18  and  C15_19 
REMARK    7  A    between atoms: C15_19  and  C16_21 
REMARK    8  A    between atoms: C18_24  and  O5_26 
REMARK    9  A    between atoms: C20_28  and  O6_29 
ROOT
HETATM    1  C7  UNL     1     -33.257 -12.445  23.208  1.00  0.00     0.004 C 
HETATM    2  C8  UNL     1     -34.139 -12.698  21.999  1.00  0.00     0.022 C 
HETATM    3  C9  UNL     1     -31.845 -12.522  22.787  1.00  0.00    -0.011 C 
HETATM    4  C10 UNL     1     -30.948 -11.918  23.595  1.00  0.00     0.050 C 
HETATM    5  C11 UNL     1     -31.418 -11.242  24.800  1.00  0.00     0.185 C 
HETATM    6  O1  UNL     1     -30.706 -11.181  25.832  1.00  0.00    -0.290 OA
HETATM    7  C12 UNL     1     -32.766 -10.597  24.850  1.00  0.00     0.145 C 
HETATM    8  C13 UNL     1     -33.401 -10.864  26.141  1.00  0.00     0.057 C 
HETATM    9  C14 UNL     1     -33.506 -11.007  23.608  1.00  0.00     0.185 C 
ENDROOT
BRANCH   9  10
HETATM   10  O3  UNL     1     -34.756 -10.489  23.443  1.00  0.00    -0.310 OA
BRANCH  10  11
HETATM   11  C15 UNL     1     -35.330  -9.352  23.855  1.00  0.00     0.278 C 
HETATM   12  O4  UNL     1     -34.705  -8.312  23.690  1.00  0.00    -0.263 OA
BRANCH  11  13
HETATM   13  C16 UNL     1     -36.668  -9.317  24.490  1.00  0.00     0.098 C 
HETATM   14  C17 UNL     1     -37.568 -10.158  23.594  1.00  0.00     0.038 C 
HETATM   15  S1  UNL     1     -37.329  -7.632  24.571  1.00  0.00    -0.109 SA
HETATM   16  C18 UNL     1     -36.323  -6.714  25.765  1.00  0.00     0.129 C 
HETATM   17  C19 UNL     1     -37.232  -5.786  26.547  1.00  0.00     0.061 C 
HETATM   18  C20 UNL     1     -35.622  -7.698  26.669  1.00  0.00     0.163 C 
HETATM   19  C21 UNL     1     -36.477  -8.897  26.980  1.00  0.00     0.042 C 
HETATM   20  C22 UNL     1     -36.616  -9.871  25.881  1.00  0.00     0.012 C 
HETATM   21  C23 UNL     1     -37.928 -10.636  26.108  1.00  0.00     0.012 C 
BRANCH  16  22
HETATM   22  O5  UNL     1     -35.391  -5.976  25.053  1.00  0.00    -0.377 OA
ATOM     23  H5  UNL     1     -35.234  -5.170  25.530  1.00  0.00     0.211 HD
ENDBRANCH  16  22
BRANCH  18  24
HETATM   24  O6  UNL     1     -35.444  -7.024  27.903  1.00  0.00    -0.392 OA
ATOM     25  H6  UNL     1     -34.508  -7.026  28.063  1.00  0.00     0.210 HD
ENDBRANCH  18  24
ENDBRANCH  11  13
ENDBRANCH  10  11
ENDBRANCH   9  10
BRANCH   1  26
HETATM   26  C6  UNL     1     -33.534 -13.450  24.213  1.00  0.00     0.019 C 
BRANCH  26  27
HETATM   27  C5  UNL     1     -34.757 -14.264  23.964  1.00  0.00     0.028 C 
BRANCH  27  28
HETATM   28  C4  UNL     1     -35.614 -14.617  25.078  1.00  0.00    -0.025 C 
HETATM   29  C2  UNL     1     -36.913 -14.366  25.058  1.00  0.00    -0.091 C 
HETATM   30  C1  UNL     1     -37.634 -13.716  23.942  1.00  0.00     0.042 C 
HETATM   31  C3  UNL     1     -37.719 -14.773  26.259  1.00  0.00     0.042 C 
ENDBRANCH  27  28
ENDBRANCH  26  27
ENDBRANCH   1  26
BRANCH   7  32
HETATM   32  O2  UNL     1     -32.501  -9.208  24.805  1.00  0.00    -0.379 OA
ATOM     33  H2  UNL     1     -33.337  -8.797  24.990  1.00  0.00     0.211 HD
ENDBRANCH   7  32
TORSDOF 9
ENDMDL
MODEL 3
REMARK VINA RESULT: -8.795952407      1.417      2.926
REMARK  9 active torsions:
REMARK  status: ('A' for Active; 'I' for Inactive)
REMARK    1  A    between atoms: C4_4  and  C5_5 
REMARK    2  A    between atoms: C5_5  and  C6_6 
REMARK    3  A    between atoms: C6_6  and  C7_7 
REMARK    4  A    between atoms: C12_13  and  O2_15 
REMARK    5  A    between atoms: C14_17  and  O3_18 
REMARK    6  A    between atoms: O3_18  and  C15_19 
REMARK    7  A    between atoms: C15_19  and  C16_21 
REMARK    8  A    between atoms: C18_24  and  O5_26 
REMARK    9  A    between atoms: C20_28  and  O6_29 
ROOT
HETATM    1  C7  UNL     1     -34.935 -12.438  23.449  1.00  0.00     0.004 C 
HETATM    2  C8  UNL     1     -36.387 -12.038  23.264  1.00  0.00     0.022 C 
HETATM    3  C9  UNL     1     -34.400 -12.890  22.150  1.00  0.00    -0.011 C 
HETATM    4  C10 UNL     1     -33.057 -12.875  22.020  1.00  0.00     0.050 C 
HETATM    5  C11 UNL     1     -32.239 -12.422  23.141  1.00  0.00     0.185 C 
HETATM    6  O1  UNL     1     -31.090 -12.890  23.339  1.00  0.00    -0.290 OA
HETATM    7  C12 UNL     1     -32.738 -11.384  24.094  1.00  0.00     0.145 C 
HETATM    8  C13 UNL     1     -32.369 -11.743  25.463  1.00  0.00     0.057 C 
HETATM    9  C14 UNL     1     -34.195 -11.165  23.796  1.00  0.00     0.185 C 
ENDROOT
BRANCH   9  10
HETATM   10  O3  UNL     1     -34.835 -10.218  24.540  1.00  0.00    -0.310 OA
BRANCH  10  11
HETATM   11  C15 UNL     1     -35.529  -9.122  24.211  1.00  0.00     0.278 C 
HETATM   12  O4  UNL     1     -36.583  -9.280  23.608  1.00  0.00    -0.263 OA
BRANCH  11  13
HETATM   13  C16 UNL     1     -35.070  -7.755  24.548  1.00  0.00     0.098 C 
HETATM   14  C17 UNL     1     -34.775  -7.082  23.214  1.00  0.00     0.038 C 
HETATM   15  S1  UNL     1     -33.555  -7.780  25.540  1.00  0.00    -0.109 SA
HETATM   16  C18 UNL     1     -33.986  -8.442  27.170  1.00  0.00     0.129 C 
HETATM   17  C19 UNL     1     -33.191  -7.691  28.220  1.00  0.00     0.061 C 
HETATM   18  C20 UNL     1     -35.472  -8.285  27.379  1.00  0.00     0.163 C 
HETATM   19  C21 UNL     1     -36.002  -7.011  26.782  1.00  0.00     0.042 C 
HETATM   20  C22 UNL     1     -36.121  -7.008  25.311  1.00  0.00     0.012 C 
HETATM   21  C23 UNL     1     -36.059  -5.546  24.848  1.00  0.00     0.012 C 
BRANCH  16  22
HETATM   22  O5  UNL     1     -33.643  -9.785  27.185  1.00  0.00    -0.377 OA
ATOM     23  H5  UNL     1     -34.179 -10.228  26.538  1.00  0.00     0.211 HD
ENDBRANCH  16  22
BRANCH  18  24
HETATM   24  O6  UNL     1     -35.649  -8.155  28.780  1.00  0.00    -0.392 OA
ATOM     25  H6  UNL     1     -36.550  -8.401  28.948  1.00  0.00     0.210 HD
ENDBRANCH  18  24
ENDBRANCH  11  13
ENDBRANCH  10  11
ENDBRANCH   9  10
BRANCH   1  26
HETATM   26  C6  UNL     1     -34.861 -13.511  24.420  1.00  0.00     0.019 C 
BRANCH  26  27
HETATM   27  C5  UNL     1     -35.958 -14.514  24.328  1.00  0.00     0.028 C 
BRANCH  27  28
HETATM   28  C4  UNL     1     -36.706 -14.860  25.520  1.00  0.00    -0.025 C 
HETATM   29  C2  UNL     1     -38.029 -14.915  25.514  1.00  0.00    -0.091 C 
HETATM   30  C1  UNL     1     -38.884 -14.641  24.339  1.00  0.00     0.042 C 
HETATM   31  C3  UNL     1     -38.715 -15.286  26.798  1.00  0.00     0.042 C 
ENDBRANCH  27  28
ENDBRANCH  26  27
ENDBRANCH   1  26
BRANCH   7  32
HETATM   32  O2  UNL     1     -32.008 -10.216  23.767  1.00  0.00    -0.379 OA
ATOM     33  H2  UNL     1     -32.410  -9.529  24.285  1.00  0.00     0.211 HD
ENDBRANCH   7  32
TORSDOF 9
ENDMDL
MODEL 4
REMARK VINA RESULT: -8.614724210      1.939      3.050
REMARK  9 active torsions:
REMARK  status: ('A' for Active; 'I' for Inactive)
REMARK    1  A    between atoms: C4_4  and  C5_5 
REMARK    2  A    between atoms: C5_5  and  C6_6 
REMARK    3  A    between atoms: C6_6  and  C7_7 
REMARK    4  A    between atoms: C12_13  and  O2_15 
REMARK    5  A    between atoms: C14_17  and  O3_18 
REMARK    6  A    between atoms: O3_18  and  C15_19 
REMARK    7  A    between atoms: C15_19  and  C16_21 
REMARK    8  A    between atoms: C18_24  and  O5_26 
REMARK    9  A    between atoms: C20_28  and  O6_29 
ROOT
HETATM    1  C7  UNL     1     -36.124 -10.954  24.002  1.00  0.00     0.004 C 
HETATM    2  C8  UNL     1     -37.353 -10.570  23.199  1.00  0.00     0.022 C 
HETATM    3  C9  UNL     1     -35.342 -11.937  23.228  1.00  0.00    -0.011 C 
HETATM    4  C10 UNL     1     -34.043 -12.067  23.569  1.00  0.00     0.050 C 
HETATM    5  C11 UNL     1     -33.505 -11.248  24.650  1.00  0.00     0.185 C 
HETATM    6  O1  UNL     1     -32.578 -11.667  25.386  1.00  0.00    -0.290 OA
HETATM    7  C12 UNL     1     -34.039  -9.878  24.922  1.00  0.00     0.145 C 
HETATM    8  C13 UNL     1     -34.156  -9.662  26.364  1.00  0.00     0.057 C 
HETATM    9  C14 UNL     1     -35.276  -9.704  24.086  1.00  0.00     0.185 C 
ENDROOT
BRANCH   9  10
HETATM   10  O3  UNL     1     -35.901  -8.495  24.162  1.00  0.00    -0.310 OA
BRANCH  10  11
HETATM   11  C15 UNL     1     -35.759  -7.355  23.474  1.00  0.00     0.278 C 
HETATM   12  O4  UNL     1     -34.619  -6.983  23.225  1.00  0.00    -0.263 OA
BRANCH  11  13
HETATM   13  C16 UNL     1     -36.914  -6.549  23.017  1.00  0.00     0.098 C 
HETATM   14  C17 UNL     1     -37.408  -7.227  21.746  1.00  0.00     0.038 C 
HETATM   15  S1  UNL     1     -36.434  -4.847  22.625  1.00  0.00    -0.109 SA
HETATM   16  C18 UNL     1     -36.004  -4.034  24.185  1.00  0.00     0.129 C 
HETATM   17  C19 UNL     1     -36.493  -2.600  24.131  1.00  0.00     0.061 C 
HETATM   18  C20 UNL     1     -36.641  -4.796  25.321  1.00  0.00     0.163 C 
HETATM   19  C21 UNL     1     -37.998  -5.335  24.958  1.00  0.00     0.042 C 
HETATM   20  C22 UNL     1     -37.988  -6.508  24.062  1.00  0.00     0.012 C 
HETATM   21  C23 UNL     1     -39.333  -6.533  23.324  1.00  0.00     0.012 C 
BRANCH  16  22
HETATM   22  O5  UNL     1     -34.624  -4.061  24.310  1.00  0.00    -0.377 OA
ATOM     23  H5  UNL     1     -34.257  -3.597  23.566  1.00  0.00     0.211 HD
ENDBRANCH  16  22
BRANCH  18  24
HETATM   24  O6  UNL     1     -36.870  -3.839  26.342  1.00  0.00    -0.392 OA
ATOM     25  H6  UNL     1     -37.781  -3.942  26.590  1.00  0.00     0.210 HD
ENDBRANCH  18  24
ENDBRANCH  11  13
ENDBRANCH  10  11
ENDBRANCH   9  10
BRANCH   1  26
HETATM   26  C6  UNL     1     -36.545 -11.533  25.262  1.00  0.00     0.019 C 
BRANCH  26  27
HETATM   27  C5  UNL     1     -37.034 -12.937  25.173  1.00  0.00     0.028 C 
BRANCH  27  28
HETATM   28  C4  UNL     1     -38.413 -13.231  25.508  1.00  0.00    -0.025 C 
HETATM   29  C2  UNL     1     -38.921 -14.443  25.344  1.00  0.00    -0.091 C 
HETATM   30  C1  UNL     1     -38.179 -15.609  24.817  1.00  0.00     0.042 C 
HETATM   31  C3  UNL     1     -40.360 -14.651  25.723  1.00  0.00     0.042 C 
ENDBRANCH  27  28
ENDBRANCH  26  27
ENDBRANCH   1  26
BRANCH   7  32
HETATM   32  O2  UNL     1     -33.030  -9.000  24.458  1.00  0.00    -0.379 OA
ATOM     33  H2  UNL     1     -32.243  -9.277  24.913  1.00  0.00     0.211 HD
ENDBRANCH   7  32
TORSDOF 9
ENDMDL
MODEL 5
REMARK VINA RESULT: -8.565907200      1.296      1.610
REMARK  9 active torsions:
REMARK  status: ('A' for Active; 'I' for Inactive)
REMARK    1  A    between atoms: C4_4  and  C5_5 
REMARK    2  A    between atoms: C5_5  and  C6_6 
REMARK    3  A    between atoms: C6_6  and  C7_7 
REMARK    4  A    between atoms: C12_13  and  O2_15 
REMARK    5  A    between atoms: C14_17  and  O3_18 
REMARK    6  A    between atoms: O3_18  and  C15_19 
REMARK    7  A    between atoms: C15_19  and  C16_21 
REMARK    8  A    between atoms: C18_24  and  O5_26 
REMARK    9  A    between atoms: C20_28  and  O6_29 
ROOT
HETATM    1  C7  UNL     1     -35.189 -12.204  23.550  1.00  0.00     0.004 C 
HETATM    2  C8  UNL     1     -36.608 -11.787  23.212  1.00  0.00     0.022 C 
HETATM    3  C9  UNL     1     -34.551 -12.740  22.331  1.00  0.00    -0.011 C 
HETATM    4  C10 UNL     1     -33.202 -12.758  22.324  1.00  0.00     0.050 C 
HETATM    5  C11 UNL     1     -32.476 -12.258  23.487  1.00  0.00     0.185 C 
HETATM    6  O1  UNL     1     -31.362 -12.735  23.815  1.00  0.00    -0.290 OA
HETATM    7  C12 UNL     1     -33.034 -11.158  24.333  1.00  0.00     0.145 C 
HETATM    8  C13 UNL     1     -32.799 -11.446  25.748  1.00  0.00     0.057 C 
HETATM    9  C14 UNL     1     -34.452 -10.928  23.892  1.00  0.00     0.185 C 
ENDROOT
BRANCH   9  10
HETATM   10  O3  UNL     1     -35.134  -9.929  24.522  1.00  0.00    -0.310 OA
BRANCH  10  11
HETATM   11  C15 UNL     1     -35.322  -8.635  24.232  1.00  0.00     0.278 C 
HETATM   12  O4  UNL     1     -34.538  -8.112  23.449  1.00  0.00    -0.263 OA
BRANCH  11  13
HETATM   13  C16 UNL     1     -36.425  -7.838  24.816  1.00  0.00     0.098 C 
HETATM   14  C17 UNL     1     -37.042  -8.721  25.892  1.00  0.00     0.038 C 
HETATM   15  S1  UNL     1     -37.692  -7.440  23.585  1.00  0.00    -0.109 SA
HETATM   16  C18 UNL     1     -36.961  -6.267  22.415  1.00  0.00     0.129 C 
HETATM   17  C19 UNL     1     -38.020  -5.256  22.023  1.00  0.00     0.061 C 
HETATM   18  C20 UNL     1     -35.774  -5.605  23.070  1.00  0.00     0.163 C 
HETATM   19  C21 UNL     1     -35.996  -5.358  24.537  1.00  0.00     0.042 C 
HETATM   20  C22 UNL     1     -35.911  -6.555  25.396  1.00  0.00     0.012 C 
HETATM   21  C23 UNL     1     -36.734  -6.273  26.660  1.00  0.00     0.012 C 
BRANCH  16  22
HETATM   22  O5  UNL     1     -36.551  -6.982  21.300  1.00  0.00    -0.377 OA
ATOM     23  H5  UNL     1     -37.165  -7.695  21.171  1.00  0.00     0.211 HD
ENDBRANCH  16  22
BRANCH  18  24
HETATM   24  O6  UNL     1     -35.677  -4.321  22.476  1.00  0.00    -0.392 OA
ATOM     25  H6  UNL     1     -35.805  -4.460  21.545  1.00  0.00     0.210 HD
ENDBRANCH  18  24
ENDBRANCH  11  13
ENDBRANCH  10  11
ENDBRANCH   9  10
BRANCH   1  26
HETATM   26  C6  UNL     1     -35.229 -13.222  24.581  1.00  0.00     0.019 C 
BRANCH  26  27
HETATM   27  C5  UNL     1     -35.924 -14.480  24.191  1.00  0.00     0.028 C 
BRANCH  27  28
HETATM   28  C4  UNL     1     -37.369 -14.487  24.077  1.00  0.00    -0.025 C 
HETATM   29  C2  UNL     1     -38.130 -15.091  24.976  1.00  0.00    -0.091 C 
HETATM   30  C1  UNL     1     -37.629 -15.810  26.167  1.00  0.00     0.042 C 
HETATM   31  C3  UNL     1     -39.618 -15.040  24.774  1.00  0.00     0.042 C 
ENDBRANCH  27  28
ENDBRANCH  26  27
ENDBRANCH   1  26
BRANCH   7  32
HETATM   32  O2  UNL     1     -32.250 -10.025  24.011  1.00  0.00    -0.379 OA
ATOM     33  H2  UNL     1     -31.792 -10.267  23.215  1.00  0.00     0.211 HD
ENDBRANCH   7  32
TORSDOF 9
ENDMDL
