MODEL 1
REMARK VINA RESULT: -7.134393179      0.000      0.000
REMARK  5 active torsions:
REMARK  status: ('A' for Active; 'I' for Inactive)
REMARK    1  A    between atoms: C7_9  and  C9_11 
REMARK    2  A    between atoms: C9_11  and  O3_12 
REMARK    3  A    between atoms: O3_12  and  C10_13 
REMARK    4  A    between atoms: C10_13  and  N1_15 
REMARK    5  A    between atoms: N1_15  and  N2_17 
ROOT
HETATM    1  C1  UNL     1     -42.633   5.214  13.263  1.00  0.00     0.027 C 
HETATM    2  C2  UNL     1     -42.492   3.923  13.385  1.00  0.00     0.030 C 
HETATM    3  C3  UNL     1     -41.527   3.133  14.127  1.00  0.00     0.290 C 
HETATM    4  O1  UNL     1     -40.606   3.630  14.827  1.00  0.00    -0.260 OA
HETATM    5  O2  UNL     1     -41.815   1.769  13.919  1.00  0.00    -0.310 OA
HETATM    6  C4  UNL     1     -43.126   1.604  13.485  1.00  0.00     0.156 C 
HETATM    7  C5  UNL     1     -43.177   0.400  12.541  1.00  0.00     0.035 C 
HETATM    8  C6  UNL     1     -42.234   0.278  11.455  1.00  0.00     0.018 C 
HETATM    9  C7  UNL     1     -42.551   0.752  10.052  1.00  0.00     0.024 C 
HETATM   10  C8  UNL     1     -43.679  -0.018   9.465  1.00  0.00     0.022 C 
HETATM   11  C11 UNL     1     -42.865   2.280  10.020  1.00  0.00     0.174 C 
HETATM   12 CL1  UNL     1     -44.223   2.506   8.888  1.00  0.00    -0.087 Cl
HETATM   13 CL2  UNL     1     -41.481   3.140   9.246  1.00  0.00    -0.087 Cl
HETATM   14  C12 UNL     1     -43.128   2.706  11.343  1.00  0.00    -0.123 C 
HETATM   15  C13 UNL     1     -43.383   2.936  12.716  1.00  0.00     0.070 C 
HETATM   16  C14 UNL     1     -44.806   3.403  13.072  1.00  0.00     0.036 C 
ENDROOT
BRANCH   9  17
HETATM   17  C9  UNL     1     -41.309   0.498   9.216  1.00  0.00     0.191 C 
BRANCH  17  18
HETATM   18  O3  UNL     1     -40.567  -0.587   9.740  1.00  0.00    -0.325 OA
BRANCH  18  19
HETATM   19  C10 UNL     1     -39.275  -0.819   9.288  1.00  0.00     0.228 C 
HETATM   20  S1  UNL     1     -38.323   0.377   8.719  1.00  0.00    -0.032 SA
BRANCH  19  21
HETATM   21  N1  UNL     1     -38.769  -2.145   9.325  1.00  0.00    -0.277 N 
ATOM     22  H1  UNL     1     -39.386  -2.907   9.608  1.00  0.00     0.189 HD
BRANCH  21  23
HETATM   23  N2  UNL     1     -37.442  -2.430   8.982  1.00  0.00    -0.343 N 
ATOM     24  H22 UNL     1     -37.269  -3.139   8.269  1.00  0.00     0.176 HD
ATOM     25  H21 UNL     1     -36.661  -1.948   9.428  1.00  0.00     0.176 HD
ENDBRANCH  21  23
ENDBRANCH  19  21
ENDBRANCH  18  19
ENDBRANCH  17  18
ENDBRANCH   9  17
TORSDOF 5
ENDMDL
MODEL 2
REMARK VINA RESULT: -7.054834175      3.970      5.976
REMARK  5 active torsions:
REMARK  status: ('A' for Active; 'I' for Inactive)
REMARK    1  A    between atoms: C7_9  and  C9_11 
REMARK    2  A    between atoms: C9_11  and  O3_12 
REMARK    3  A    between atoms: O3_12  and  C10_13 
REMARK    4  A    between atoms: C10_13  and  N1_15 
REMARK    5  A    between atoms: N1_15  and  N2_17 
ROOT
HETATM    1  C1  UNL     1     -43.645  -0.080   9.849  1.00  0.00     0.027 C 
HETATM    2  C2  UNL     1     -42.613   0.688  10.065  1.00  0.00     0.030 C 
HETATM    3  C3  UNL     1     -41.194   0.389  10.123  1.00  0.00     0.290 C 
HETATM    4  O1  UNL     1     -40.715  -0.763   9.953  1.00  0.00    -0.260 OA
HETATM    5  O2  UNL     1     -40.498   1.584  10.392  1.00  0.00    -0.310 OA
HETATM    6  C4  UNL     1     -41.278   2.690  10.071  1.00  0.00     0.156 C 
HETATM    7  C5  UNL     1     -40.936   3.823  11.041  1.00  0.00     0.035 C 
HETATM    8  C6  UNL     1     -40.903   3.586  12.465  1.00  0.00     0.018 C 
HETATM    9  C7  UNL     1     -42.095   3.859  13.359  1.00  0.00     0.024 C 
HETATM   10  C8  UNL     1     -42.435   5.306  13.375  1.00  0.00     0.022 C 
HETATM   11  C11 UNL     1     -43.337   3.016  12.932  1.00  0.00     0.174 C 
HETATM   12 CL1  UNL     1     -44.760   4.078  13.087  1.00  0.00    -0.087 Cl
HETATM   13 CL2  UNL     1     -43.604   1.718  14.154  1.00  0.00    -0.087 Cl
HETATM   14  C12 UNL     1     -43.111   2.526  11.624  1.00  0.00    -0.123 C 
HETATM   15  C13 UNL     1     -42.720   2.152  10.317  1.00  0.00     0.070 C 
HETATM   16  C14 UNL     1     -43.605   2.673   9.170  1.00  0.00     0.036 C 
ENDROOT
BRANCH   9  17
HETATM   17  C9  UNL     1     -41.691   3.444  14.762  1.00  0.00     0.191 C 
BRANCH  17  18
HETATM   18  O3  UNL     1     -40.736   4.343  15.295  1.00  0.00    -0.325 OA
BRANCH  18  19
HETATM   19  C10 UNL     1     -39.964   3.961  16.383  1.00  0.00     0.228 C 
HETATM   20  S1  UNL     1     -40.591   3.161  17.659  1.00  0.00    -0.032 SA
BRANCH  19  21
HETATM   21  N1  UNL     1     -38.581   4.280  16.381  1.00  0.00    -0.277 N 
ATOM     22  H1  UNL     1     -38.292   5.245  16.221  1.00  0.00     0.189 HD
BRANCH  21  23
HETATM   23  N2  UNL     1     -37.604   3.299  16.592  1.00  0.00    -0.343 N 
ATOM     24  H22 UNL     1     -37.801   2.559  17.266  1.00  0.00     0.176 HD
ATOM     25  H21 UNL     1     -36.716   3.315  16.091  1.00  0.00     0.176 HD
ENDBRANCH  21  23
ENDBRANCH  19  21
ENDBRANCH  18  19
ENDBRANCH  17  18
ENDBRANCH   9  17
TORSDOF 5
ENDMDL
MODEL 3
REMARK VINA RESULT: -6.957478928      1.004      1.073
REMARK  5 active torsions:
REMARK  status: ('A' for Active; 'I' for Inactive)
REMARK    1  A    between atoms: C7_9  and  C9_11 
REMARK    2  A    between atoms: C9_11  and  O3_12 
REMARK    3  A    between atoms: O3_12  and  C10_13 
REMARK    4  A    between atoms: C10_13  and  N1_15 
REMARK    5  A    between atoms: N1_15  and  N2_17 
ROOT
HETATM    1  C1  UNL     1     -43.047   5.962  13.427  1.00  0.00     0.027 C 
HETATM    2  C2  UNL     1     -42.991   4.714  13.801  1.00  0.00     0.030 C 
HETATM    3  C3  UNL     1     -42.290   4.075  14.899  1.00  0.00     0.290 C 
HETATM    4  O1  UNL     1     -41.571   4.696  15.725  1.00  0.00    -0.260 OA
HETATM    5  O2  UNL     1     -42.563   2.693  14.857  1.00  0.00    -0.310 OA
HETATM    6  C4  UNL     1     -43.715   2.442  14.121  1.00  0.00     0.156 C 
HETATM    7  C5  UNL     1     -43.558   1.091  13.419  1.00  0.00     0.035 C 
HETATM    8  C6  UNL     1     -42.364   0.790  12.664  1.00  0.00     0.018 C 
HETATM    9  C7  UNL     1     -42.277   1.009  11.167  1.00  0.00     0.024 C 
HETATM   10  C8  UNL     1     -43.235   0.137  10.439  1.00  0.00     0.022 C 
HETATM   11  C11 UNL     1     -42.514   2.505  10.792  1.00  0.00     0.174 C 
HETATM   12 CL1  UNL     1     -43.511   2.515   9.314  1.00  0.00    -0.087 Cl
HETATM   13 CL2  UNL     1     -40.943   3.231  10.284  1.00  0.00    -0.087 Cl
HETATM   14  C12 UNL     1     -43.105   3.153  11.902  1.00  0.00    -0.123 C 
HETATM   15  C13 UNL     1     -43.708   3.616  13.096  1.00  0.00     0.070 C 
HETATM   16  C14 UNL     1     -45.156   4.123  12.970  1.00  0.00     0.036 C 
ENDROOT
BRANCH   9  17
HETATM   17  C9  UNL     1     -40.867   0.626  10.753  1.00  0.00     0.191 C 
BRANCH  17  18
HETATM   18  O3  UNL     1     -40.890  -0.200   9.605  1.00  0.00    -0.325 OA
BRANCH  18  19
HETATM   19  C10 UNL     1     -39.698  -0.556   8.990  1.00  0.00     0.228 C 
HETATM   20  S1  UNL     1     -38.745   0.535   8.239  1.00  0.00    -0.032 SA
BRANCH  19  21
HETATM   21  N1  UNL     1     -39.298  -1.918   9.017  1.00  0.00    -0.277 N 
ATOM     22  H1  UNL     1     -39.988  -2.645   8.829  1.00  0.00     0.189 HD
BRANCH  21  23
HETATM   23  N2  UNL     1     -37.976  -2.286   9.298  1.00  0.00    -0.343 N 
ATOM     24  H22 UNL     1     -37.791  -2.805  10.156  1.00  0.00     0.176 HD
ATOM     25  H21 UNL     1     -37.211  -2.045   8.667  1.00  0.00     0.176 HD
ENDBRANCH  21  23
ENDBRANCH  19  21
ENDBRANCH  18  19
ENDBRANCH  17  18
ENDBRANCH   9  17
TORSDOF 5
ENDMDL
MODEL 4
REMARK VINA RESULT: -6.828536799      4.739      6.645
REMARK  5 active torsions:
REMARK  status: ('A' for Active; 'I' for Inactive)
REMARK    1  A    between atoms: C7_9  and  C9_11 
REMARK    2  A    between atoms: C9_11  and  O3_12 
REMARK    3  A    between atoms: O3_12  and  C10_13 
REMARK    4  A    between atoms: C10_13  and  N1_15 
REMARK    5  A    between atoms: N1_15  and  N2_17 
ROOT
HETATM    1  C1  UNL     1     -43.614  -0.073   9.885  1.00  0.00     0.027 C 
HETATM    2  C2  UNL     1     -42.588   0.706  10.094  1.00  0.00     0.030 C 
HETATM    3  C3  UNL     1     -41.167   0.419  10.149  1.00  0.00     0.290 C 
HETATM    4  O1  UNL     1     -40.678  -0.729   9.982  1.00  0.00    -0.260 OA
HETATM    5  O2  UNL     1     -40.481   1.622  10.410  1.00  0.00    -0.310 OA
HETATM    6  C4  UNL     1     -41.271   2.719  10.088  1.00  0.00     0.156 C 
HETATM    7  C5  UNL     1     -40.936   3.859  11.052  1.00  0.00     0.035 C 
HETATM    8  C6  UNL     1     -40.896   3.628  12.477  1.00  0.00     0.018 C 
HETATM    9  C7  UNL     1     -42.088   3.895  13.373  1.00  0.00     0.024 C 
HETATM   10  C8  UNL     1     -42.441   5.338  13.385  1.00  0.00     0.022 C 
HETATM   11  C11 UNL     1     -43.324   3.039  12.954  1.00  0.00     0.174 C 
HETATM   12 CL1  UNL     1     -44.756   4.088  13.110  1.00  0.00    -0.087 Cl
HETATM   13 CL2  UNL     1     -43.575   1.743  14.183  1.00  0.00    -0.087 Cl
HETATM   14  C12 UNL     1     -43.098   2.545  11.647  1.00  0.00    -0.123 C 
HETATM   15  C13 UNL     1     -42.708   2.169  10.340  1.00  0.00     0.070 C 
HETATM   16  C14 UNL     1     -43.601   2.677   9.194  1.00  0.00     0.036 C 
ENDROOT
BRANCH   9  17
HETATM   17  C9  UNL     1     -41.675   3.489  14.777  1.00  0.00     0.191 C 
BRANCH  17  18
HETATM   18  O3  UNL     1     -41.678   4.608  15.643  1.00  0.00    -0.325 OA
BRANCH  18  19
HETATM   19  C10 UNL     1     -42.166   4.477  16.935  1.00  0.00     0.228 C 
HETATM   20  S1  UNL     1     -43.653   3.883  17.249  1.00  0.00    -0.032 SA
BRANCH  19  21
HETATM   21  N1  UNL     1     -41.340   4.877  18.018  1.00  0.00    -0.277 N 
ATOM     22  H1  UNL     1     -40.410   4.469  18.113  1.00  0.00     0.189 HD
BRANCH  21  23
HETATM   23  N2  UNL     1     -41.774   5.817  18.960  1.00  0.00    -0.343 N 
ATOM     24  H22 UNL     1     -41.259   5.896  19.837  1.00  0.00     0.176 HD
ATOM     25  H21 UNL     1     -42.583   6.413  18.784  1.00  0.00     0.176 HD
ENDBRANCH  21  23
ENDBRANCH  19  21
ENDBRANCH  18  19
ENDBRANCH  17  18
ENDBRANCH   9  17
TORSDOF 5
ENDMDL
MODEL 5
REMARK VINA RESULT: -6.720856347      4.897      6.580
REMARK  5 active torsions:
REMARK  status: ('A' for Active; 'I' for Inactive)
REMARK    1  A    between atoms: C7_9  and  C9_11 
REMARK    2  A    between atoms: C9_11  and  O3_12 
REMARK    3  A    between atoms: O3_12  and  C10_13 
REMARK    4  A    between atoms: C10_13  and  N1_15 
REMARK    5  A    between atoms: N1_15  and  N2_17 
ROOT
HETATM    1  C1  UNL     1     -47.343   1.356  15.909  1.00  0.00     0.027 C 
HETATM    2  C2  UNL     1     -47.377   2.520  15.322  1.00  0.00     0.030 C 
HETATM    3  C3  UNL     1     -48.098   2.979  14.149  1.00  0.00     0.290 C 
HETATM    4  O1  UNL     1     -48.868   2.249  13.472  1.00  0.00    -0.260 OA
HETATM    5  O2  UNL     1     -47.781   4.335  13.935  1.00  0.00    -0.310 OA
HETATM    6  C4  UNL     1     -47.284   4.914  15.097  1.00  0.00     0.156 C 
HETATM    7  C5  UNL     1     -46.256   5.979  14.708  1.00  0.00     0.035 C 
HETATM    8  C6  UNL     1     -45.202   5.673  13.769  1.00  0.00     0.018 C 
HETATM    9  C7  UNL     1     -43.825   5.229  14.216  1.00  0.00     0.024 C 
HETATM   10  C8  UNL     1     -43.139   6.295  14.992  1.00  0.00     0.022 C 
HETATM   11  C11 UNL     1     -43.890   3.911  15.050  1.00  0.00     0.174 C 
HETATM   12 CL1  UNL     1     -42.724   4.086  16.386  1.00  0.00    -0.087 Cl
HETATM   13 CL2  UNL     1     -43.236   2.559  14.050  1.00  0.00    -0.087 Cl
HETATM   14  C12 UNL     1     -45.229   3.713  15.463  1.00  0.00    -0.123 C 
HETATM   15  C13 UNL     1     -46.604   3.700  15.798  1.00  0.00     0.070 C 
HETATM   16  C14 UNL     1     -46.935   3.793  17.299  1.00  0.00     0.036 C 
ENDROOT
BRANCH   9  17
HETATM   17  C9  UNL     1     -43.024   4.960  12.954  1.00  0.00     0.191 C 
BRANCH  17  18
HETATM   18  O3  UNL     1     -41.731   5.529  13.052  1.00  0.00    -0.325 OA
BRANCH  18  19
HETATM   19  C10 UNL     1     -40.621   4.778  12.697  1.00  0.00     0.228 C 
HETATM   20  S1  UNL     1     -40.623   3.772  11.413  1.00  0.00    -0.032 SA
BRANCH  19  21
HETATM   21  N1  UNL     1     -39.443   4.891  13.483  1.00  0.00    -0.277 N 
ATOM     22  H1  UNL     1     -38.576   5.197  13.041  1.00  0.00     0.189 HD
BRANCH  21  23
HETATM   23  N2  UNL     1     -39.446   4.591  14.850  1.00  0.00    -0.343 N 
ATOM     24  H22 UNL     1     -40.321   4.287  15.276  1.00  0.00     0.176 HD
ATOM     25  H21 UNL     1     -38.600   4.672  15.415  1.00  0.00     0.176 HD
ENDBRANCH  21  23
ENDBRANCH  19  21
ENDBRANCH  18  19
ENDBRANCH  17  18
ENDBRANCH   9  17
TORSDOF 5
ENDMDL
