MODEL 1
REMARK VINA RESULT: -6.474058350      0.000      0.000
REMARK  5 active torsions:
REMARK  status: ('A' for Active; 'I' for Inactive)
REMARK    1  A    between atoms: C3_5  and  N2_6 
REMARK    2  A    between atoms: N2_6  and  C4_8 
REMARK    3  A    between atoms: C4_8  and  C5_9 
REMARK    4  A    between atoms: C8_12  and  O1_13 
REMARK    5  A    between atoms: C9_15  and  O2_16 
ROOT
HETATM    1  C4  UNL     1      40.973   0.082 -10.173  1.00  0.00     0.159 C 
ENDROOT
BRANCH   1   2
HETATM    2  N2  UNL     1      41.119   1.499 -10.138  1.00  0.00    -0.367 N 
ATOM      3  H2  UNL     1      40.979   2.021  -9.273  1.00  0.00     0.161 HD
BRANCH   2   4
HETATM    4  C3  UNL     1      41.441   2.115 -11.259  1.00  0.00     0.146 A 
HETATM    5  N1  UNL     1      41.390   3.415 -11.531  1.00  0.00    -0.339 N 
HETATM    6  C2  UNL     1      41.756   3.832 -12.715  1.00  0.00     0.036 A 
ATOM      7  H1  UNL     1      41.070   4.078 -10.825  1.00  0.00     0.168 HD
HETATM    8  C1  UNL     1      41.732   5.303 -13.118  1.00  0.00     0.070 C 
HETATM    9  C10 UNL     1      42.175   2.890 -13.615  1.00  0.00     0.100 A 
HETATM   10  S1  UNL     1      42.026   1.446 -12.724  1.00  0.00    -0.040 SA
HETATM   11 CL1  UNL     1      42.728   3.144 -15.283  1.00  0.00    -0.074 Cl
ENDBRANCH   2   4
ENDBRANCH   1   2
BRANCH   1  12
HETATM   12  C5  UNL     1      40.713  -0.553  -8.848  1.00  0.00     0.079 C 
HETATM   13  C6  UNL     1      41.958  -0.696  -8.008  1.00  0.00     0.048 C 
HETATM   14  C7  UNL     1      39.963  -1.857  -8.965  1.00  0.00     0.076 C 
HETATM   15  C8  UNL     1      38.553  -1.361  -9.264  1.00  0.00     0.176 C 
HETATM   16  C9  UNL     1      38.553  -0.020  -8.594  1.00  0.00     0.286 C 
HETATM   17  O3  UNL     1      39.818   0.247  -8.143  1.00  0.00    -0.347 OA
BRANCH  15  18
HETATM   18  O1  UNL     1      37.580  -2.152  -8.700  1.00  0.00    -0.391 OA
ATOM     19  H1  UNL     1      37.677  -2.239  -7.759  1.00  0.00     0.210 HD
ENDBRANCH  15  18
BRANCH  16  20
HETATM   20  O2  UNL     1      38.036   0.958  -9.442  1.00  0.00    -0.369 OA
ATOM     21  H2  UNL     1      38.348   1.820  -9.192  1.00  0.00     0.212 HD
ENDBRANCH  16  20
ENDBRANCH   1  12
TORSDOF 5
ENDMDL
MODEL 2
REMARK VINA RESULT: -6.333635018      4.481      7.181
REMARK  5 active torsions:
REMARK  status: ('A' for Active; 'I' for Inactive)
REMARK    1  A    between atoms: C3_5  and  N2_6 
REMARK    2  A    between atoms: N2_6  and  C4_8 
REMARK    3  A    between atoms: C4_8  and  C5_9 
REMARK    4  A    between atoms: C8_12  and  O1_13 
REMARK    5  A    between atoms: C9_15  and  O2_16 
ROOT
HETATM    1  C4  UNL     1      42.059   3.606 -12.994  1.00  0.00     0.159 C 
ENDROOT
BRANCH   1   2
HETATM    2  N2  UNL     1      42.188   3.764 -11.584  1.00  0.00    -0.367 N 
ATOM      3  H2  UNL     1      42.819   4.461 -11.188  1.00  0.00     0.161 HD
BRANCH   2   4
HETATM    4  C3  UNL     1      41.464   2.983 -10.806  1.00  0.00     0.146 A 
HETATM    5  N1  UNL     1      40.545   3.331  -9.911  1.00  0.00    -0.339 N 
HETATM    6  C2  UNL     1      39.932   2.397  -9.233  1.00  0.00     0.036 A 
ATOM      7  H1  UNL     1      40.321   4.314  -9.756  1.00  0.00     0.168 HD
HETATM    8  C1  UNL     1      38.864   2.699  -8.187  1.00  0.00     0.070 C 
HETATM    9  C10 UNL     1      40.280   1.097  -9.490  1.00  0.00     0.100 A 
HETATM   10  S1  UNL     1      41.472   1.273 -10.693  1.00  0.00    -0.040 SA
HETATM   11 CL1  UNL     1      39.632  -0.374  -8.738  1.00  0.00    -0.074 Cl
ENDBRANCH   2   4
ENDBRANCH   1   2
BRANCH   1  12
HETATM   12  C5  UNL     1      41.492   4.789 -13.707  1.00  0.00     0.079 C 
HETATM   13  C6  UNL     1      40.000   4.923 -13.532  1.00  0.00     0.048 C 
HETATM   14  C7  UNL     1      41.893   4.839 -15.161  1.00  0.00     0.076 C 
HETATM   15  C8  UNL     1      43.340   5.306 -15.053  1.00  0.00     0.176 C 
HETATM   16  C9  UNL     1      43.311   6.093 -13.777  1.00  0.00     0.286 C 
HETATM   17  O3  UNL     1      42.082   5.939 -13.192  1.00  0.00    -0.347 OA
BRANCH  15  18
HETATM   18  O1  UNL     1      43.711   6.131 -16.088  1.00  0.00    -0.391 OA
ATOM     19  H1  UNL     1      43.142   6.886 -16.179  1.00  0.00     0.210 HD
ENDBRANCH  15  18
BRANCH  16  20
HETATM   20  O2  UNL     1      44.378   5.740 -12.952  1.00  0.00    -0.369 OA
ATOM     21  H2  UNL     1      45.083   6.372 -13.022  1.00  0.00     0.212 HD
ENDBRANCH  16  20
ENDBRANCH   1  12
TORSDOF 5
ENDMDL
MODEL 3
REMARK VINA RESULT: -6.164413836      3.239      3.842
REMARK  5 active torsions:
REMARK  status: ('A' for Active; 'I' for Inactive)
REMARK    1  A    between atoms: C3_5  and  N2_6 
REMARK    2  A    between atoms: N2_6  and  C4_8 
REMARK    3  A    between atoms: C4_8  and  C5_9 
REMARK    4  A    between atoms: C8_12  and  O1_13 
REMARK    5  A    between atoms: C9_15  and  O2_16 
ROOT
HETATM    1  C4  UNL     1      41.206   0.257  -9.719  1.00  0.00     0.159 C 
ENDROOT
BRANCH   1   2
HETATM    2  N2  UNL     1      42.523  -0.022 -10.184  1.00  0.00    -0.367 N 
ATOM      3  H2  UNL     1      42.695  -0.768 -10.859  1.00  0.00     0.161 HD
BRANCH   2   4
HETATM    4  C3  UNL     1      43.512   0.713  -9.716  1.00  0.00     0.146 A 
HETATM    5  N1  UNL     1      44.683   0.310  -9.231  1.00  0.00    -0.339 N 
HETATM    6  C2  UNL     1      45.539   1.204  -8.811  1.00  0.00     0.036 A 
ATOM      7  H1  UNL     1      44.910  -0.683  -9.188  1.00  0.00     0.168 HD
HETATM    8  C1  UNL     1      46.905   0.838  -8.240  1.00  0.00     0.070 C 
HETATM    9  C10 UNL     1      45.172   2.521  -8.898  1.00  0.00     0.100 A 
HETATM   10  S1  UNL     1      43.614   2.418  -9.578  1.00  0.00    -0.040 SA
HETATM   11 CL1  UNL     1      46.108   3.949  -8.413  1.00  0.00    -0.074 Cl
ENDBRANCH   2   4
ENDBRANCH   1   2
BRANCH   1  12
HETATM   12  C5  UNL     1      40.726  -0.636  -8.623  1.00  0.00     0.079 C 
HETATM   13  C6  UNL     1      41.818  -1.022  -7.658  1.00  0.00     0.048 C 
HETATM   14  C7  UNL     1      39.982  -1.842  -9.140  1.00  0.00     0.076 C 
HETATM   15  C8  UNL     1      38.646  -1.220  -9.533  1.00  0.00     0.176 C 
HETATM   16  C9  UNL     1      38.563  -0.059  -8.588  1.00  0.00     0.286 C 
HETATM   17  O3  UNL     1      39.745   0.039  -7.903  1.00  0.00    -0.347 OA
BRANCH  15  18
HETATM   18  O1  UNL     1      37.582  -2.063  -9.313  1.00  0.00    -0.391 OA
ATOM     19  H1  UNL     1      37.835  -2.979  -9.298  1.00  0.00     0.210 HD
ENDBRANCH  15  18
BRANCH  16  20
HETATM   20  O2  UNL     1      38.205   1.106  -9.266  1.00  0.00    -0.369 OA
ATOM     21  H2  UNL     1      38.414   1.037 -10.190  1.00  0.00     0.212 HD
ENDBRANCH  16  20
ENDBRANCH   1  12
TORSDOF 5
ENDMDL
MODEL 4
REMARK VINA RESULT: -6.163115176      3.950      6.745
REMARK  5 active torsions:
REMARK  status: ('A' for Active; 'I' for Inactive)
REMARK    1  A    between atoms: C3_5  and  N2_6 
REMARK    2  A    between atoms: N2_6  and  C4_8 
REMARK    3  A    between atoms: C4_8  and  C5_9 
REMARK    4  A    between atoms: C8_12  and  O1_13 
REMARK    5  A    between atoms: C9_15  and  O2_16 
ROOT
HETATM    1  C4  UNL     1      42.835   2.803 -14.318  1.00  0.00     0.159 C 
ENDROOT
BRANCH   1   2
HETATM    2  N2  UNL     1      42.117   1.636 -13.929  1.00  0.00    -0.367 N 
ATOM      3  H2  UNL     1      41.648   1.052 -14.621  1.00  0.00     0.161 HD
BRANCH   2   4
HETATM    4  C3  UNL     1      42.078   1.334 -12.646  1.00  0.00     0.146 A 
HETATM    5  N1  UNL     1      41.270   1.818 -11.708  1.00  0.00    -0.339 N 
HETATM    6  C2  UNL     1      41.391   1.387 -10.479  1.00  0.00     0.036 A 
ATOM      7  H1  UNL     1      40.566   2.518 -11.943  1.00  0.00     0.168 HD
HETATM    8  C1  UNL     1      40.511   1.884  -9.338  1.00  0.00     0.070 C 
HETATM    9  C10 UNL     1      42.357   0.448 -10.232  1.00  0.00     0.100 A 
HETATM   10  S1  UNL     1      43.049   0.226 -11.772  1.00  0.00    -0.040 SA
HETATM   11 CL1  UNL     1      42.758  -0.321  -8.683  1.00  0.00    -0.074 Cl
ENDBRANCH   2   4
ENDBRANCH   1   2
BRANCH   1  12
HETATM   12  C5  UNL     1      41.995   3.885 -14.913  1.00  0.00     0.079 C 
HETATM   13  C6  UNL     1      41.226   3.434 -16.128  1.00  0.00     0.048 C 
HETATM   14  C7  UNL     1      42.777   5.148 -15.180  1.00  0.00     0.076 C 
HETATM   15  C8  UNL     1      42.920   5.713 -13.772  1.00  0.00     0.176 C 
HETATM   16  C9  UNL     1      41.696   5.166 -13.100  1.00  0.00     0.286 C 
HETATM   17  O3  UNL     1      41.071   4.301 -13.958  1.00  0.00    -0.347 OA
BRANCH  15  18
HETATM   18  O1  UNL     1      42.879   7.086 -13.743  1.00  0.00    -0.391 OA
ATOM     19  H1  UNL     1      42.396   7.425 -12.999  1.00  0.00     0.210 HD
ENDBRANCH  15  18
BRANCH  16  20
HETATM   20  O2  UNL     1      42.017   4.605 -11.865  1.00  0.00    -0.369 OA
ATOM     21  H2  UNL     1      42.863   4.913 -11.563  1.00  0.00     0.212 HD
ENDBRANCH  16  20
ENDBRANCH   1  12
TORSDOF 5
ENDMDL
MODEL 5
REMARK VINA RESULT: -6.139755324      4.105      6.671
REMARK  5 active torsions:
REMARK  status: ('A' for Active; 'I' for Inactive)
REMARK    1  A    between atoms: C3_5  and  N2_6 
REMARK    2  A    between atoms: N2_6  and  C4_8 
REMARK    3  A    between atoms: C4_8  and  C5_9 
REMARK    4  A    between atoms: C8_12  and  O1_13 
REMARK    5  A    between atoms: C9_15  and  O2_16 
ROOT
HETATM    1  C4  UNL     1      41.864   2.073 -12.973  1.00  0.00     0.159 C 
ENDROOT
BRANCH   1   2
HETATM    2  N2  UNL     1      42.354   1.653 -11.703  1.00  0.00    -0.367 N 
ATOM      3  H2  UNL     1      43.351   1.685 -11.488  1.00  0.00     0.161 HD
BRANCH   2   4
HETATM    4  C3  UNL     1      41.480   1.222 -10.815  1.00  0.00     0.146 A 
HETATM    5  N1  UNL     1      41.223  -0.030 -10.450  1.00  0.00    -0.339 N 
HETATM    6  C2  UNL     1      40.309  -0.253  -9.542  1.00  0.00     0.036 A 
ATOM      7  H1  UNL     1      41.732  -0.806 -10.872  1.00  0.00     0.168 HD
HETATM    8  C1  UNL     1      39.945  -1.653  -9.060  1.00  0.00     0.070 C 
HETATM    9  C10 UNL     1      39.663   0.834  -9.016  1.00  0.00     0.100 A 
HETATM   10  S1  UNL     1      40.395   2.128  -9.846  1.00  0.00    -0.040 SA
HETATM   11 CL1  UNL     1      38.387   0.852  -7.781  1.00  0.00    -0.074 Cl
ENDBRANCH   2   4
ENDBRANCH   1   2
BRANCH   1  12
HETATM   12  C5  UNL     1      42.835   2.859 -13.790  1.00  0.00     0.079 C 
HETATM   13  C6  UNL     1      43.949   2.014 -14.355  1.00  0.00     0.048 C 
HETATM   14  C7  UNL     1      43.363   4.070 -13.061  1.00  0.00     0.076 C 
HETATM   15  C8  UNL     1      42.169   5.014 -13.150  1.00  0.00     0.176 C 
HETATM   16  C9  UNL     1      41.513   4.554 -14.417  1.00  0.00     0.286 C 
HETATM   17  O3  UNL     1      42.151   3.427 -14.862  1.00  0.00    -0.347 OA
BRANCH  15  18
HETATM   18  O1  UNL     1      42.541   6.330 -13.281  1.00  0.00    -0.391 OA
ATOM     19  H1  UNL     1      42.284   6.861 -12.536  1.00  0.00     0.210 HD
ENDBRANCH  15  18
BRANCH  16  20
HETATM   20  O2  UNL     1      40.140   4.391 -14.233  1.00  0.00    -0.369 OA
ATOM     21  H2  UNL     1      39.959   3.614 -13.719  1.00  0.00     0.212 HD
ENDBRANCH  16  20
ENDBRANCH   1  12
TORSDOF 5
ENDMDL
