MODEL 1
REMARK VINA RESULT: -10.679022259      0.000      0.000
REMARK  15 active torsions:
REMARK  status: ('A' for Active; 'I' for Inactive)
REMARK    1  A    between atoms: N1_3  and  C2_4 
REMARK    2  A    between atoms: C2_4  and  C3_5 
REMARK    3  A    between atoms: C3_5  and  O2_6 
REMARK    4  A    between atoms: C3_5  and  N2_8 
REMARK    5  A    between atoms: C4_9  and  C5_10 
REMARK    6  A    between atoms: C5_10  and  O3_11 
REMARK    7  A    between atoms: O3_11  and  C6_12 
REMARK    8  A    between atoms: C6_12  and  C7_13 
REMARK    9  A    between atoms: C15_21  and  C16_22 
REMARK   10  A    between atoms: C15_21  and  C23_29 
REMARK   11  A    between atoms: C16_22  and  C17_23 
REMARK   12  A    between atoms: C24_31  and  C25_32 
REMARK   13  A    between atoms: C32_39  and  O5_40 
REMARK   14  A    between atoms: N3_42  and  C33_43 
REMARK   15  A    between atoms: C33_43  and  C34_44 
ROOT
HETATM    1  N2  UNL     1      15.608  23.255  16.454  1.00  0.00     0.148 N 
HETATM    2  C4  UNL     1      15.693  22.041  17.216  1.00  0.00     0.274 C 
HETATM    3  C13 UNL     1      17.085  21.648  17.095  1.00  0.00     0.010 C 
HETATM    4  C14 UNL     1      17.801  22.612  16.640  1.00  0.00     0.020 C 
HETATM    5  C15 UNL     1      16.979  23.825  16.384  1.00  0.00     0.228 C 
ENDROOT
BRANCH   1   6
HETATM    6  C3  UNL     1      14.938  23.075  15.222  1.00  0.00     0.378 C 
BRANCH   6   7
HETATM    7  C2  UNL     1      13.588  22.311  15.388  1.00  0.00     0.197 C 
BRANCH   7   8
HETATM    8  N1  UNL     1      13.632  21.333  14.276  1.00  0.00    -0.301 N 
HETATM    9  C1  UNL     1      12.567  20.805  13.642  1.00  0.00     0.331 A 
HETATM   10  O1  UNL     1      11.377  21.100  13.954  1.00  0.00    -0.246 OA
HETATM   11  N3  UNL     1      12.916  19.959  12.674  1.00  0.00    -0.274 N 
HETATM   12  C32 UNL     1      14.258  19.937  12.682  1.00  0.00     0.162 A 
HETATM   13  C31 UNL     1      14.709  20.793  13.681  1.00  0.00     0.151 A 
BRANCH  11  14
HETATM   14  C33 UNL     1      12.017  19.205  11.785  1.00  0.00     0.174 C 
BRANCH  14  15
HETATM   15  C34 UNL     1      11.806  17.852  12.295  1.00  0.00    -0.040 A 
HETATM   16  C35 UNL     1      12.477  16.802  11.718  1.00  0.00     0.009 A 
HETATM   17  C36 UNL     1      12.276  15.533  12.209  1.00  0.00     0.001 A 
HETATM   18  C37 UNL     1      11.424  15.307  13.255  1.00  0.00     0.000 A 
HETATM   19  C38 UNL     1      10.738  16.351  13.852  1.00  0.00     0.001 A 
HETATM   20  C39 UNL     1      10.954  17.634  13.343  1.00  0.00     0.009 A 
ENDBRANCH  14  15
ENDBRANCH  11  14
BRANCH  12  21
HETATM   21  O5  UNL     1      15.047  19.183  11.832  1.00  0.00    -0.345 OA
ATOM     22  H5  UNL     1      15.123  18.236  11.828  1.00  0.00     0.219 HD
ENDBRANCH  12  21
ENDBRANCH   7   8
ENDBRANCH   6   7
BRANCH   6  23
HETATM   23  O2  UNL     1      14.403  24.315  14.790  1.00  0.00    -0.366 OA
ATOM     24  H2  UNL     1      15.221  24.797  14.744  1.00  0.00     0.212 HD
ENDBRANCH   6  23
ENDBRANCH   1   6
BRANCH   2  25
HETATM   25  C5  UNL     1      15.044  21.971  18.536  1.00  0.00     0.208 C 
BRANCH  25  26
HETATM   26  O3  UNL     1      13.855  21.240  18.551  1.00  0.00    -0.384 OA
BRANCH  26  27
HETATM   27  C6  UNL     1      14.006  19.979  17.986  1.00  0.00     0.206 C 
BRANCH  27  28
HETATM   28  C7  UNL     1      13.344  18.920  18.780  1.00  0.00    -0.035 A 
HETATM   29  C8  UNL     1      13.399  19.053  20.157  1.00  0.00     0.009 A 
HETATM   30  C9  UNL     1      12.834  18.138  21.019  1.00  0.00     0.001 A 
HETATM   31  C10 UNL     1      12.197  17.059  20.454  1.00  0.00     0.000 A 
HETATM   32  C11 UNL     1      12.127  16.902  19.064  1.00  0.00     0.001 A 
HETATM   33  C12 UNL     1      12.701  17.830  18.227  1.00  0.00     0.009 A 
ENDBRANCH  27  28
ENDBRANCH  26  27
ENDBRANCH  25  26
ENDBRANCH   2  25
BRANCH   5  34
HETATM   34  C16 UNL     1      17.146  24.601  17.673  1.00  0.00     0.033 C 
BRANCH  34  35
HETATM   35  C17 UNL     1      18.343  24.661  18.429  1.00  0.00    -0.037 A 
HETATM   36  C18 UNL     1      19.574  25.127  18.042  1.00  0.00     0.011 A 
HETATM   37  C19 UNL     1      20.691  25.048  18.831  1.00  0.00     0.001 A 
HETATM   38  C20 UNL     1      20.632  24.484  20.079  1.00  0.00     0.000 A 
HETATM   39  C21 UNL     1      19.418  24.003  20.505  1.00  0.00     0.001 A 
HETATM   40  C22 UNL     1      18.315  24.086  19.717  1.00  0.00     0.011 A 
ENDBRANCH  34  35
ENDBRANCH   5  34
BRANCH   5  41
HETATM   41  C23 UNL     1      17.342  24.454  15.120  1.00  0.00     0.203 A 
HETATM   42  O4  UNL     1      17.011  25.759  14.738  1.00  0.00    -0.367 OA
HETATM   43  C24 UNL     1      18.175  25.186  14.318  1.00  0.00     0.187 A 
BRANCH  43  44
HETATM   44  C25 UNL     1      19.377  26.004  14.416  1.00  0.00    -0.027 A 
HETATM   45  C26 UNL     1      20.577  25.434  14.755  1.00  0.00     0.010 A 
HETATM   46  C27 UNL     1      21.724  26.160  14.852  1.00  0.00     0.001 A 
HETATM   47  C28 UNL     1      21.684  27.526  14.599  1.00  0.00     0.000 A 
HETATM   48  C29 UNL     1      20.491  28.133  14.256  1.00  0.00     0.001 A 
HETATM   49  C30 UNL     1      19.366  27.357  14.172  1.00  0.00     0.010 A 
ENDBRANCH  43  44
ENDBRANCH   5  41
TORSDOF 15
ENDMDL
MODEL 2
REMARK VINA RESULT: -10.670919959      0.715      1.377
REMARK  15 active torsions:
REMARK  status: ('A' for Active; 'I' for Inactive)
REMARK    1  A    between atoms: N1_3  and  C2_4 
REMARK    2  A    between atoms: C2_4  and  C3_5 
REMARK    3  A    between atoms: C3_5  and  O2_6 
REMARK    4  A    between atoms: C3_5  and  N2_8 
REMARK    5  A    between atoms: C4_9  and  C5_10 
REMARK    6  A    between atoms: C5_10  and  O3_11 
REMARK    7  A    between atoms: O3_11  and  C6_12 
REMARK    8  A    between atoms: C6_12  and  C7_13 
REMARK    9  A    between atoms: C15_21  and  C16_22 
REMARK   10  A    between atoms: C15_21  and  C23_29 
REMARK   11  A    between atoms: C16_22  and  C17_23 
REMARK   12  A    between atoms: C24_31  and  C25_32 
REMARK   13  A    between atoms: C32_39  and  O5_40 
REMARK   14  A    between atoms: N3_42  and  C33_43 
REMARK   15  A    between atoms: C33_43  and  C34_44 
ROOT
HETATM    1  N2  UNL     1      15.536  22.917  16.692  1.00  0.00     0.148 N 
HETATM    2  C4  UNL     1      15.647  21.755  17.527  1.00  0.00     0.274 C 
HETATM    3  C13 UNL     1      17.041  21.368  17.406  1.00  0.00     0.010 C 
HETATM    4  C14 UNL     1      17.739  22.307  16.877  1.00  0.00     0.020 C 
HETATM    5  C15 UNL     1      16.899  23.494  16.560  1.00  0.00     0.228 C 
ENDROOT
BRANCH   1   6
HETATM    6  C3  UNL     1      14.847  22.653  15.486  1.00  0.00     0.378 C 
BRANCH   6   7
HETATM    7  C2  UNL     1      13.523  21.859  15.722  1.00  0.00     0.197 C 
BRANCH   7   8
HETATM    8  N1  UNL     1      13.505  20.917  14.579  1.00  0.00    -0.301 N 
HETATM    9  C1  UNL     1      12.406  20.397  13.999  1.00  0.00     0.331 A 
HETATM   10  O1  UNL     1      11.236  20.668  14.396  1.00  0.00    -0.246 OA
HETATM   11  N3  UNL     1      12.700  19.585  12.983  1.00  0.00    -0.274 N 
HETATM   12  C32 UNL     1      14.039  19.579  12.904  1.00  0.00     0.162 A 
HETATM   13  C31 UNL     1      14.546  20.408  13.899  1.00  0.00     0.151 A 
BRANCH  11  14
HETATM   14  C33 UNL     1      11.752  18.849  12.130  1.00  0.00     0.174 C 
BRANCH  14  15
HETATM   15  C34 UNL     1      11.575  17.484  12.619  1.00  0.00    -0.040 A 
HETATM   16  C35 UNL     1      10.831  17.266  13.753  1.00  0.00     0.009 A 
HETATM   17  C36 UNL     1      10.665  15.976  14.202  1.00  0.00     0.001 A 
HETATM   18  C37 UNL     1      11.227  14.919  13.541  1.00  0.00     0.000 A 
HETATM   19  C38 UNL     1      11.981  15.116  12.397  1.00  0.00     0.001 A 
HETATM   20  C39 UNL     1      12.140  16.432  11.952  1.00  0.00     0.009 A 
ENDBRANCH  14  15
ENDBRANCH  11  14
BRANCH  12  21
HETATM   21  O5  UNL     1      14.778  18.860  11.982  1.00  0.00    -0.345 OA
ATOM     22  H5  UNL     1      15.686  19.012  11.748  1.00  0.00     0.219 HD
ENDBRANCH  12  21
ENDBRANCH   7   8
ENDBRANCH   6   7
BRANCH   6  23
HETATM   23  O2  UNL     1      14.265  23.851  15.002  1.00  0.00    -0.366 OA
ATOM     24  H2  UNL     1      14.011  24.218  15.841  1.00  0.00     0.212 HD
ENDBRANCH   6  23
ENDBRANCH   1   6
BRANCH   2  25
HETATM   25  C5  UNL     1      15.023  21.763  18.861  1.00  0.00     0.208 C 
BRANCH  25  26
HETATM   26  O3  UNL     1      13.893  20.950  18.969  1.00  0.00    -0.384 OA
BRANCH  26  27
HETATM   27  C6  UNL     1      14.217  19.598  18.959  1.00  0.00     0.206 C 
BRANCH  27  28
HETATM   28  C7  UNL     1      13.094  18.750  18.500  1.00  0.00    -0.035 A 
HETATM   29  C8  UNL     1      11.999  19.410  17.969  1.00  0.00     0.009 A 
HETATM   30  C9  UNL     1      10.879  18.749  17.511  1.00  0.00     0.001 A 
HETATM   31  C10 UNL     1      10.883  17.378  17.600  1.00  0.00     0.000 A 
HETATM   32  C11 UNL     1      11.979  16.687  18.133  1.00  0.00     0.001 A 
HETATM   33  C12 UNL     1      13.083  17.372  18.584  1.00  0.00     0.009 A 
ENDBRANCH  27  28
ENDBRANCH  26  27
ENDBRANCH  25  26
ENDBRANCH   2  25
BRANCH   5  34
HETATM   34  C16 UNL     1      17.081  24.353  17.794  1.00  0.00     0.033 C 
BRANCH  34  35
HETATM   35  C17 UNL     1      18.290  24.469  18.523  1.00  0.00    -0.037 A 
HETATM   36  C18 UNL     1      19.497  24.968  18.102  1.00  0.00     0.011 A 
HETATM   37  C19 UNL     1      20.631  24.944  18.870  1.00  0.00     0.001 A 
HETATM   38  C20 UNL     1      20.615  24.406  20.130  1.00  0.00     0.000 A 
HETATM   39  C21 UNL     1      19.427  23.894  20.591  1.00  0.00     0.001 A 
HETATM   40  C22 UNL     1      18.307  23.922  19.824  1.00  0.00     0.011 A 
ENDBRANCH  34  35
ENDBRANCH   5  34
BRANCH   5  41
HETATM   41  C23 UNL     1      17.233  24.044  15.252  1.00  0.00     0.203 A 
HETATM   42  O4  UNL     1      16.853  25.306  14.781  1.00  0.00    -0.367 OA
HETATM   43  C24 UNL     1      18.035  24.747  14.394  1.00  0.00     0.187 A 
BRANCH  43  44
HETATM   44  C25 UNL     1      19.208  25.612  14.425  1.00  0.00    -0.027 A 
HETATM   45  C26 UNL     1      19.086  26.953  14.164  1.00  0.00     0.010 A 
HETATM   46  C27 UNL     1      20.154  27.796  14.188  1.00  0.00     0.001 A 
HETATM   47  C28 UNL     1      21.412  27.287  14.487  1.00  0.00     0.000 A 
HETATM   48  C29 UNL     1      21.570  25.942  14.755  1.00  0.00     0.001 A 
HETATM   49  C30 UNL     1      20.463  25.136  14.718  1.00  0.00     0.010 A 
ENDBRANCH  43  44
ENDBRANCH   5  41
TORSDOF 15
ENDMDL
MODEL 3
REMARK VINA RESULT: -10.662680581      1.920      9.518
REMARK  15 active torsions:
REMARK  status: ('A' for Active; 'I' for Inactive)
REMARK    1  A    between atoms: N1_3  and  C2_4 
REMARK    2  A    between atoms: C2_4  and  C3_5 
REMARK    3  A    between atoms: C3_5  and  O2_6 
REMARK    4  A    between atoms: C3_5  and  N2_8 
REMARK    5  A    between atoms: C4_9  and  C5_10 
REMARK    6  A    between atoms: C5_10  and  O3_11 
REMARK    7  A    between atoms: O3_11  and  C6_12 
REMARK    8  A    between atoms: C6_12  and  C7_13 
REMARK    9  A    between atoms: C15_21  and  C16_22 
REMARK   10  A    between atoms: C15_21  and  C23_29 
REMARK   11  A    between atoms: C16_22  and  C17_23 
REMARK   12  A    between atoms: C24_31  and  C25_32 
REMARK   13  A    between atoms: C32_39  and  O5_40 
REMARK   14  A    between atoms: N3_42  and  C33_43 
REMARK   15  A    between atoms: C33_43  and  C34_44 
ROOT
HETATM    1  N2  UNL     1      14.457  22.844  16.148  1.00  0.00     0.148 N 
HETATM    2  C4  UNL     1      14.789  22.951  14.755  1.00  0.00     0.274 C 
HETATM    3  C13 UNL     1      15.284  21.629  14.411  1.00  0.00     0.010 C 
HETATM    4  C14 UNL     1      14.990  20.772  15.320  1.00  0.00     0.020 C 
HETATM    5  C15 UNL     1      14.234  21.403  16.436  1.00  0.00     0.228 C 
ENDROOT
BRANCH   1   6
HETATM    6  C3  UNL     1      15.385  23.514  16.977  1.00  0.00     0.378 C 
BRANCH   6   7
HETATM    7  C2  UNL     1      15.839  24.880  16.374  1.00  0.00     0.197 C 
BRANCH   7   8
HETATM    8  N1  UNL     1      17.317  24.777  16.420  1.00  0.00    -0.301 N 
HETATM    9  C1  UNL     1      18.150  24.868  15.364  1.00  0.00     0.331 A 
HETATM   10  O1  UNL     1      17.732  25.050  14.185  1.00  0.00    -0.246 OA
HETATM   11  N3  UNL     1      19.431  24.745  15.713  1.00  0.00    -0.274 N 
HETATM   12  C32 UNL     1      19.426  24.567  17.043  1.00  0.00     0.162 A 
HETATM   13  C31 UNL     1      18.109  24.585  17.488  1.00  0.00     0.151 A 
BRANCH  11  14
HETATM   14  C33 UNL     1      20.602  24.793  14.822  1.00  0.00     0.174 C 
BRANCH  14  15
HETATM   15  C34 UNL     1      21.139  26.150  14.753  1.00  0.00    -0.040 A 
HETATM   16  C35 UNL     1      20.499  27.088  13.981  1.00  0.00     0.009 A 
HETATM   17  C36 UNL     1      21.009  28.365  13.926  1.00  0.00     0.001 A 
HETATM   18  C37 UNL     1      22.135  28.707  14.623  1.00  0.00     0.000 A 
HETATM   19  C38 UNL     1      22.796  27.777  15.407  1.00  0.00     0.001 A 
HETATM   20  C39 UNL     1      22.265  26.485  15.454  1.00  0.00     0.009 A 
ENDBRANCH  14  15
ENDBRANCH  11  14
BRANCH  12  21
HETATM   21  O5  UNL     1      20.553  24.394  17.826  1.00  0.00    -0.345 OA
ATOM     22  H5  UNL     1      21.438  24.249  17.514  1.00  0.00     0.219 HD
ENDBRANCH  12  21
ENDBRANCH   7   8
ENDBRANCH   6   7
BRANCH   6  23
HETATM   23  O2  UNL     1      14.716  24.024  18.119  1.00  0.00    -0.366 OA
ATOM     24  H2  UNL     1      13.862  24.150  17.720  1.00  0.00     0.212 HD
ENDBRANCH   6  23
ENDBRANCH   1   6
BRANCH   2  25
HETATM   25  C5  UNL     1      13.851  23.621  13.839  1.00  0.00     0.208 C 
BRANCH  25  26
HETATM   26  O3  UNL     1      13.515  22.869  12.712  1.00  0.00    -0.384 OA
BRANCH  26  27
HETATM   27  C6  UNL     1      12.165  22.536  12.687  1.00  0.00     0.206 C 
BRANCH  27  28
HETATM   28  C7  UNL     1      11.942  21.090  12.467  1.00  0.00    -0.035 A 
HETATM   29  C8  UNL     1      13.059  20.333  12.155  1.00  0.00     0.009 A 
HETATM   30  C9  UNL     1      12.999  18.977  11.916  1.00  0.00     0.001 A 
HETATM   31  C10 UNL     1      11.762  18.383  11.998  1.00  0.00     0.000 A 
HETATM   32  C11 UNL     1      10.618  19.126  12.312  1.00  0.00     0.001 A 
HETATM   33  C12 UNL     1      10.707  20.478  12.545  1.00  0.00     0.009 A 
ENDBRANCH  27  28
ENDBRANCH  26  27
ENDBRANCH  25  26
ENDBRANCH   2  25
BRANCH   5  34
HETATM   34  C16 UNL     1      12.798  21.142  16.036  1.00  0.00     0.033 C 
BRANCH  34  35
HETATM   35  C17 UNL     1      12.092  19.943  16.303  1.00  0.00    -0.037 A 
HETATM   36  C18 UNL     1      12.076  18.781  15.574  1.00  0.00     0.011 A 
HETATM   37  C19 UNL     1      11.278  17.711  15.880  1.00  0.00     0.001 A 
HETATM   38  C20 UNL     1      10.433  17.749  16.959  1.00  0.00     0.000 A 
HETATM   39  C21 UNL     1      10.417  18.896  17.716  1.00  0.00     0.001 A 
HETATM   40  C22 UNL     1      11.212  19.952  17.406  1.00  0.00     0.011 A 
ENDBRANCH  34  35
ENDBRANCH   5  34
BRANCH   5  41
HETATM   41  C23 UNL     1      14.711  20.932  17.731  1.00  0.00     0.203 A 
HETATM   42  O4  UNL     1      14.213  21.336  18.975  1.00  0.00    -0.367 OA
HETATM   43  C24 UNL     1      14.696  20.074  18.796  1.00  0.00     0.187 A 
BRANCH  43  44
HETATM   44  C25 UNL     1      13.892  18.984  19.336  1.00  0.00    -0.027 A 
HETATM   45  C26 UNL     1      13.867  17.766  18.707  1.00  0.00     0.010 A 
HETATM   46  C27 UNL     1      13.134  16.721  19.181  1.00  0.00     0.001 A 
HETATM   47  C28 UNL     1      12.385  16.889  20.340  1.00  0.00     0.000 A 
HETATM   48  C29 UNL     1      12.388  18.104  20.997  1.00  0.00     0.001 A 
HETATM   49  C30 UNL     1      13.142  19.123  20.479  1.00  0.00     0.010 A 
ENDBRANCH  43  44
ENDBRANCH   5  41
TORSDOF 15
ENDMDL
MODEL 4
REMARK VINA RESULT: -10.520587467      1.008      1.397
REMARK  15 active torsions:
REMARK  status: ('A' for Active; 'I' for Inactive)
REMARK    1  A    between atoms: N1_3  and  C2_4 
REMARK    2  A    between atoms: C2_4  and  C3_5 
REMARK    3  A    between atoms: C3_5  and  O2_6 
REMARK    4  A    between atoms: C3_5  and  N2_8 
REMARK    5  A    between atoms: C4_9  and  C5_10 
REMARK    6  A    between atoms: C5_10  and  O3_11 
REMARK    7  A    between atoms: O3_11  and  C6_12 
REMARK    8  A    between atoms: C6_12  and  C7_13 
REMARK    9  A    between atoms: C15_21  and  C16_22 
REMARK   10  A    between atoms: C15_21  and  C23_29 
REMARK   11  A    between atoms: C16_22  and  C17_23 
REMARK   12  A    between atoms: C24_31  and  C25_32 
REMARK   13  A    between atoms: C32_39  and  O5_40 
REMARK   14  A    between atoms: N3_42  and  C33_43 
REMARK   15  A    between atoms: C33_43  and  C34_44 
ROOT
HETATM    1  N2  UNL     1      15.741  23.606  16.376  1.00  0.00     0.148 N 
HETATM    2  C4  UNL     1      15.686  22.385  17.131  1.00  0.00     0.274 C 
HETATM    3  C13 UNL     1      17.039  21.865  17.053  1.00  0.00     0.010 C 
HETATM    4  C14 UNL     1      17.857  22.759  16.630  1.00  0.00     0.020 C 
HETATM    5  C15 UNL     1      17.161  24.046  16.357  1.00  0.00     0.228 C 
ENDROOT
BRANCH   1   6
HETATM    6  C3  UNL     1      15.100  23.496  15.122  1.00  0.00     0.378 C 
BRANCH   6   7
HETATM    7  C2  UNL     1      13.789  22.652  15.198  1.00  0.00     0.197 C 
BRANCH   7   8
HETATM    8  N1  UNL     1      13.754  21.990  13.872  1.00  0.00    -0.301 N 
HETATM    9  C1  UNL     1      14.308  20.801  13.567  1.00  0.00     0.331 A 
HETATM   10  O1  UNL     1      14.943  20.110  14.414  1.00  0.00    -0.246 OA
HETATM   11  N3  UNL     1      14.106  20.455  12.295  1.00  0.00    -0.274 N 
HETATM   12  C32 UNL     1      13.396  21.460  11.758  1.00  0.00     0.162 A 
HETATM   13  C31 UNL     1      13.175  22.420  12.739  1.00  0.00     0.151 A 
BRANCH  11  14
HETATM   14  C33 UNL     1      14.568  19.230  11.622  1.00  0.00     0.174 C 
BRANCH  14  15
HETATM   15  C34 UNL     1      13.638  18.129  11.865  1.00  0.00    -0.040 A 
HETATM   16  C35 UNL     1      14.008  16.850  11.530  1.00  0.00     0.009 A 
HETATM   17  C36 UNL     1      13.128  15.819  11.768  1.00  0.00     0.001 A 
HETATM   18  C37 UNL     1      11.902  16.051  12.327  1.00  0.00     0.000 A 
HETATM   19  C38 UNL     1      11.509  17.333  12.672  1.00  0.00     0.001 A 
HETATM   20  C39 UNL     1      12.414  18.369  12.426  1.00  0.00     0.009 A 
ENDBRANCH  14  15
ENDBRANCH  11  14
BRANCH  12  21
HETATM   21  O5  UNL     1      12.965  21.516  10.445  1.00  0.00    -0.345 OA
ATOM     22  H5  UNL     1      12.503  22.238  10.035  1.00  0.00     0.219 HD
ENDBRANCH  12  21
ENDBRANCH   7   8
ENDBRANCH   6   7
BRANCH   6  23
HETATM   23  O2  UNL     1      14.507  24.738  14.783  1.00  0.00    -0.366 OA
ATOM     24  H2  UNL     1      13.629  24.548  15.094  1.00  0.00     0.212 HD
ENDBRANCH   6  23
ENDBRANCH   1   6
BRANCH   2  25
HETATM   25  C5  UNL     1      14.989  22.369  18.428  1.00  0.00     0.208 C 
BRANCH  25  26
HETATM   26  O3  UNL     1      14.127  21.285  18.601  1.00  0.00    -0.384 OA
BRANCH  26  27
HETATM   27  C6  UNL     1      14.690  20.288  19.390  1.00  0.00     0.206 C 
BRANCH  27  28
HETATM   28  C7  UNL     1      13.791  19.125  19.559  1.00  0.00    -0.035 A 
HETATM   29  C8  UNL     1      13.609  18.319  18.448  1.00  0.00     0.009 A 
HETATM   30  C9  UNL     1      12.794  17.207  18.457  1.00  0.00     0.001 A 
HETATM   31  C10 UNL     1      12.149  16.916  19.636  1.00  0.00     0.000 A 
HETATM   32  C11 UNL     1      12.317  17.715  20.773  1.00  0.00     0.001 A 
HETATM   33  C12 UNL     1      13.136  18.819  20.735  1.00  0.00     0.009 A 
ENDBRANCH  27  28
ENDBRANCH  26  27
ENDBRANCH  25  26
ENDBRANCH   2  25
BRANCH   5  34
HETATM   34  C16 UNL     1      17.355  24.796  17.657  1.00  0.00     0.033 C 
BRANCH  34  35
HETATM   35  C17 UNL     1      18.546  24.780  18.426  1.00  0.00    -0.037 A 
HETATM   36  C18 UNL     1      19.779  25.283  18.101  1.00  0.00     0.011 A 
HETATM   37  C19 UNL     1      20.888  25.125  18.889  1.00  0.00     0.001 A 
HETATM   38  C20 UNL     1      20.818  24.439  20.073  1.00  0.00     0.000 A 
HETATM   39  C21 UNL     1      19.600  23.917  20.437  1.00  0.00     0.001 A 
HETATM   40  C22 UNL     1      18.506  24.078  19.650  1.00  0.00     0.011 A 
ENDBRANCH  34  35
ENDBRANCH   5  34
BRANCH   5  41
HETATM   41  C23 UNL     1      17.624  24.644  15.111  1.00  0.00     0.203 A 
HETATM   42  O4  UNL     1      17.331  25.941  14.675  1.00  0.00    -0.367 OA
HETATM   43  C24 UNL     1      18.521  25.354  14.359  1.00  0.00     0.187 A 
BRANCH  43  44
HETATM   44  C25 UNL     1      19.717  26.168  14.531  1.00  0.00    -0.027 A 
HETATM   45  C26 UNL     1      20.913  25.581  14.857  1.00  0.00     0.010 A 
HETATM   46  C27 UNL     1      22.055  26.304  15.021  1.00  0.00     0.001 A 
HETATM   47  C28 UNL     1      22.013  27.683  14.853  1.00  0.00     0.000 A 
HETATM   48  C29 UNL     1      20.825  28.305  14.524  1.00  0.00     0.001 A 
HETATM   49  C30 UNL     1      19.705  27.533  14.371  1.00  0.00     0.010 A 
ENDBRANCH  43  44
ENDBRANCH   5  41
TORSDOF 15
ENDMDL
MODEL 5
REMARK VINA RESULT: -10.393513526      1.044      1.283
REMARK  15 active torsions:
REMARK  status: ('A' for Active; 'I' for Inactive)
REMARK    1  A    between atoms: N1_3  and  C2_4 
REMARK    2  A    between atoms: C2_4  and  C3_5 
REMARK    3  A    between atoms: C3_5  and  O2_6 
REMARK    4  A    between atoms: C3_5  and  N2_8 
REMARK    5  A    between atoms: C4_9  and  C5_10 
REMARK    6  A    between atoms: C5_10  and  O3_11 
REMARK    7  A    between atoms: O3_11  and  C6_12 
REMARK    8  A    between atoms: C6_12  and  C7_13 
REMARK    9  A    between atoms: C15_21  and  C16_22 
REMARK   10  A    between atoms: C15_21  and  C23_29 
REMARK   11  A    between atoms: C16_22  and  C17_23 
REMARK   12  A    between atoms: C24_31  and  C25_32 
REMARK   13  A    between atoms: C32_39  and  O5_40 
REMARK   14  A    between atoms: N3_42  and  C33_43 
REMARK   15  A    between atoms: C33_43  and  C34_44 
ROOT
HETATM    1  N2  UNL     1      15.407  22.876  17.062  1.00  0.00     0.148 N 
HETATM    2  C4  UNL     1      15.623  21.639  17.759  1.00  0.00     0.274 C 
HETATM    3  C13 UNL     1      17.000  21.298  17.448  1.00  0.00     0.010 C 
HETATM    4  C14 UNL     1      17.624  22.301  16.945  1.00  0.00     0.020 C 
HETATM    5  C15 UNL     1      16.742  23.494  16.843  1.00  0.00     0.228 C 
ENDROOT
BRANCH   1   6
HETATM    6  C3  UNL     1      14.593  22.717  15.918  1.00  0.00     0.378 C 
BRANCH   6   7
HETATM    7  C2  UNL     1      13.788  21.380  15.945  1.00  0.00     0.197 C 
BRANCH   7   8
HETATM    8  N1  UNL     1      13.587  21.097  14.504  1.00  0.00    -0.301 N 
HETATM    9  C1  UNL     1      12.690  20.237  13.984  1.00  0.00     0.331 A 
HETATM   10  O1  UNL     1      11.906  19.555  14.705  1.00  0.00    -0.246 OA
HETATM   11  N3  UNL     1      12.732  20.198  12.652  1.00  0.00    -0.274 N 
HETATM   12  C32 UNL     1      13.694  21.065  12.298  1.00  0.00     0.162 A 
HETATM   13  C31 UNL     1      14.231  21.627  13.451  1.00  0.00     0.151 A 
BRANCH  11  14
HETATM   14  C33 UNL     1      11.900  19.375  11.760  1.00  0.00     0.174 C 
BRANCH  14  15
HETATM   15  C34 UNL     1      12.345  17.983  11.781  1.00  0.00    -0.040 A 
HETATM   16  C35 UNL     1      13.644  17.687  11.449  1.00  0.00     0.009 A 
HETATM   17  C36 UNL     1      14.055  16.375  11.478  1.00  0.00     0.001 A 
HETATM   18  C37 UNL     1      13.195  15.371  11.829  1.00  0.00     0.000 A 
HETATM   19  C38 UNL     1      11.881  15.648  12.167  1.00  0.00     0.001 A 
HETATM   20  C39 UNL     1      11.478  16.986  12.135  1.00  0.00     0.009 A 
ENDBRANCH  14  15
ENDBRANCH  11  14
BRANCH  12  21
HETATM   21  O5  UNL     1      14.077  21.340  10.998  1.00  0.00    -0.345 OA
ATOM     22  H5  UNL     1      14.945  21.594  10.709  1.00  0.00     0.219 HD
ENDBRANCH  12  21
ENDBRANCH   7   8
ENDBRANCH   6   7
BRANCH   6  23
HETATM   23  O2  UNL     1      13.489  23.604  15.997  1.00  0.00    -0.366 OA
ATOM     24  H2  UNL     1      13.790  24.238  15.356  1.00  0.00     0.212 HD
ENDBRANCH   6  23
ENDBRANCH   1   6
BRANCH   2  25
HETATM   25  C5  UNL     1      15.150  21.500  19.147  1.00  0.00     0.208 C 
BRANCH  25  26
HETATM   26  O3  UNL     1      13.993  20.731  19.282  1.00  0.00    -0.384 OA
BRANCH  26  27
HETATM   27  C6  UNL     1      14.260  19.368  19.231  1.00  0.00     0.206 C 
BRANCH  27  28
HETATM   28  C7  UNL     1      13.112  18.584  18.723  1.00  0.00    -0.035 A 
HETATM   29  C8  UNL     1      11.969  19.298  18.404  1.00  0.00     0.009 A 
HETATM   30  C9  UNL     1      10.823  18.699  17.929  1.00  0.00     0.001 A 
HETATM   31  C10 UNL     1      10.850  17.333  17.777  1.00  0.00     0.000 A 
HETATM   32  C11 UNL     1      11.993  16.589  18.091  1.00  0.00     0.001 A 
HETATM   33  C12 UNL     1      13.124  17.213  18.565  1.00  0.00     0.009 A 
ENDBRANCH  27  28
ENDBRANCH  26  27
ENDBRANCH  25  26
ENDBRANCH   2  25
BRANCH   5  34
HETATM   34  C16 UNL     1      17.048  24.229  18.130  1.00  0.00     0.033 C 
BRANCH  34  35
HETATM   35  C17 UNL     1      18.349  24.417  18.661  1.00  0.00    -0.037 A 
HETATM   36  C18 UNL     1      19.397  25.118  18.122  1.00  0.00     0.011 A 
HETATM   37  C19 UNL     1      20.647  25.153  18.682  1.00  0.00     0.001 A 
HETATM   38  C20 UNL     1      20.918  24.471  19.840  1.00  0.00     0.000 A 
HETATM   39  C21 UNL     1      19.895  23.754  20.412  1.00  0.00     0.001 A 
HETATM   40  C22 UNL     1      18.659  23.725  19.851  1.00  0.00     0.011 A 
ENDBRANCH  34  35
ENDBRANCH   5  34
BRANCH   5  41
HETATM   41  C23 UNL     1      16.923  24.179  15.569  1.00  0.00     0.203 A 
HETATM   42  O4  UNL     1      16.636  25.527  15.323  1.00  0.00    -0.367 OA
HETATM   43  C24 UNL     1      17.656  24.903  14.668  1.00  0.00     0.187 A 
BRANCH  43  44
HETATM   44  C25 UNL     1      18.919  25.625  14.587  1.00  0.00    -0.027 A 
HETATM   45  C26 UNL     1      20.108  24.961  14.751  1.00  0.00     0.010 A 
HETATM   46  C27 UNL     1      21.310  25.597  14.677  1.00  0.00     0.001 A 
HETATM   47  C28 UNL     1      21.338  26.964  14.427  1.00  0.00     0.000 A 
HETATM   48  C29 UNL     1      20.159  27.662  14.257  1.00  0.00     0.001 A 
HETATM   49  C30 UNL     1      18.977  26.976  14.341  1.00  0.00     0.010 A 
ENDBRANCH  43  44
ENDBRANCH   5  41
TORSDOF 15
ENDMDL
