MODEL 1
REMARK VINA RESULT: -5.223077323      0.000      0.000
REMARK  1 active torsions:
REMARK  status: ('A' for Active; 'I' for Inactive)
REMARK    1  A    between atoms: C2_2  and  C3_3 
ROOT
HETATM    1  C3  UNL     1       9.047   8.868   6.260  1.00  0.00     0.099 C 
HETATM    2  C4  UNL     1       7.687   9.283   6.708  1.00  0.00     0.042 C 
HETATM    3  C5  UNL     1       6.926   8.119   7.293  1.00  0.00     0.030 C 
HETATM    4  C6  UNL     1       7.749   7.226   8.152  1.00  0.00     0.233 C 
HETATM    5  N1  UNL     1       9.040   6.886   7.579  1.00  0.00    -0.066 N 
ATOM      6  H11 UNL     1       9.257   5.893   7.659  1.00  0.00     0.277 HD
ATOM      7  H12 UNL     1       9.821   7.242   8.130  1.00  0.00     0.277 HD
HETATM    8  C7  UNL     1       9.062   7.344   6.239  1.00  0.00     0.246 C 
HETATM    9  C8  UNL     1      10.304   7.067   5.473  1.00  0.00     0.200 C 
HETATM   10  C9  UNL     1      10.243   5.810   4.756  1.00  0.00     0.074 C 
HETATM   11  N2  UNL     1      10.214   4.810   4.186  1.00  0.00    -0.196 NA
HETATM   12  C10 UNL     1      10.343   8.240   4.545  1.00  0.00     0.132 C 
HETATM   13  N3  UNL     1      11.158   8.364   3.553  1.00  0.00    -0.382 N 
ATOM     14  H31 UNL     1      11.185   9.163   2.920  1.00  0.00     0.158 HD
ATOM     15  H32 UNL     1      11.874   7.694   3.270  1.00  0.00     0.158 HD
HETATM   16  O1  UNL     1       9.354   9.167   4.937  1.00  0.00    -0.325 OA
ENDROOT
BRANCH   1  17
HETATM   17  C2  UNL     1      10.108   9.421   7.176  1.00  0.00     0.036 C 
HETATM   18  C1  UNL     1       9.769  10.869   7.459  1.00  0.00     0.008 C 
ENDBRANCH   1  17
TORSDOF 1
ENDMDL
MODEL 2
REMARK VINA RESULT: -5.178448993      4.270      6.298
REMARK  1 active torsions:
REMARK  status: ('A' for Active; 'I' for Inactive)
REMARK    1  A    between atoms: C2_2  and  C3_3 
ROOT
HETATM    1  C3  UNL     1       5.522   7.422   9.342  1.00  0.00     0.099 C 
HETATM    2  C4  UNL     1       7.008   7.497   9.420  1.00  0.00     0.042 C 
HETATM    3  C5  UNL     1       7.645   7.096   8.113  1.00  0.00     0.030 C 
HETATM    4  C6  UNL     1       6.939   7.615   6.910  1.00  0.00     0.233 C 
HETATM    5  N1  UNL     1       5.497   7.456   6.961  1.00  0.00    -0.066 N 
ATOM      6  H11 UNL     1       5.109   7.096   6.089  1.00  0.00     0.277 HD
ATOM      7  H12 UNL     1       5.003   8.348   6.972  1.00  0.00     0.277 HD
HETATM    8  C7  UNL     1       5.182   6.642   8.076  1.00  0.00     0.246 C 
HETATM    9  C8  UNL     1       3.741   6.346   8.285  1.00  0.00     0.200 C 
HETATM   10  C9  UNL     1       3.326   5.127   7.623  1.00  0.00     0.074 C 
HETATM   11  N2  UNL     1       2.977   4.165   7.095  1.00  0.00    -0.196 NA
HETATM   12  C10 UNL     1       3.680   6.224   9.774  1.00  0.00     0.132 C 
HETATM   13  N3  UNL     1       2.657   5.799  10.434  1.00  0.00    -0.382 N 
ATOM     14  H31 UNL     1       2.615   5.715  11.450  1.00  0.00     0.158 HD
ATOM     15  H32 UNL     1       1.766   5.495  10.041  1.00  0.00     0.158 HD
HETATM   16  O1  UNL     1       4.912   6.644  10.320  1.00  0.00    -0.325 OA
ENDROOT
BRANCH   1  17
HETATM   17  C2  UNL     1       4.913   8.802   9.323  1.00  0.00     0.036 C 
HETATM   18  C1  UNL     1       5.749   9.689  10.220  1.00  0.00     0.008 C 
ENDBRANCH   1  17
TORSDOF 1
ENDMDL
MODEL 3
REMARK VINA RESULT: -5.113665134      3.599      5.325
REMARK  1 active torsions:
REMARK  status: ('A' for Active; 'I' for Inactive)
REMARK    1  A    between atoms: C2_2  and  C3_3 
ROOT
HETATM    1  C3  UNL     1       5.362   8.363   9.113  1.00  0.00     0.099 C 
HETATM    2  C4  UNL     1       4.030   8.029   8.534  1.00  0.00     0.042 C 
HETATM    3  C5  UNL     1       4.155   7.572   7.102  1.00  0.00     0.030 C 
HETATM    4  C6  UNL     1       5.317   6.678   6.850  1.00  0.00     0.233 C 
HETATM    5  N1  UNL     1       6.554   7.138   7.455  1.00  0.00    -0.066 N 
ATOM      6  H11 UNL     1       7.349   7.081   6.818  1.00  0.00     0.277 HD
ATOM      7  H12 UNL     1       6.904   6.500   8.169  1.00  0.00     0.277 HD
HETATM    8  C7  UNL     1       6.343   8.449   7.948  1.00  0.00     0.246 C 
HETATM    9  C8  UNL     1       7.512   9.103   8.590  1.00  0.00     0.200 C 
HETATM   10  C9  UNL     1       8.297   9.877   7.650  1.00  0.00     0.074 C 
HETATM   11  N2  UNL     1       8.937  10.489   6.914  1.00  0.00    -0.196 NA
HETATM   12  C10 UNL     1       6.841   9.970   9.607  1.00  0.00     0.132 C 
HETATM   13  N3  UNL     1       7.437  10.873  10.309  1.00  0.00    -0.382 N 
ATOM     14  H31 UNL     1       6.979  11.465  11.003  1.00  0.00     0.158 HD
ATOM     15  H32 UNL     1       8.427  11.115  10.270  1.00  0.00     0.158 HD
HETATM   16  O1  UNL     1       5.471   9.636   9.662  1.00  0.00    -0.325 OA
ENDROOT
BRANCH   1  17
HETATM   17  C2  UNL     1       5.787   7.325  10.121  1.00  0.00     0.036 C 
HETATM   18  C1  UNL     1       4.537   6.661  10.657  1.00  0.00     0.008 C 
ENDBRANCH   1  17
TORSDOF 1
ENDMDL
MODEL 4
REMARK VINA RESULT: -5.102200429      4.025      6.430
REMARK  1 active torsions:
REMARK  status: ('A' for Active; 'I' for Inactive)
REMARK    1  A    between atoms: C2_2  and  C3_3 
ROOT
HETATM    1  C3  UNL     1       5.260   8.437   9.379  1.00  0.00     0.099 C 
HETATM    2  C4  UNL     1       4.664   8.056   8.067  1.00  0.00     0.042 C 
HETATM    3  C5  UNL     1       5.678   8.161   6.955  1.00  0.00     0.030 C 
HETATM    4  C6  UNL     1       7.034   7.673   7.322  1.00  0.00     0.233 C 
HETATM    5  N1  UNL     1       7.497   8.141   8.616  1.00  0.00    -0.066 N 
ATOM      6  H11 UNL     1       8.460   8.476   8.593  1.00  0.00     0.277 HD
ATOM      7  H12 UNL     1       7.631   7.383   9.284  1.00  0.00     0.277 HD
HETATM    8  C7  UNL     1       6.588   9.124   9.080  1.00  0.00     0.246 C 
HETATM    9  C8  UNL     1       6.907   9.743  10.392  1.00  0.00     0.200 C 
HETATM   10  C9  UNL     1       7.711  10.941  10.258  1.00  0.00     0.074 C 
HETATM   11  N2  UNL     1       8.357  11.889  10.169  1.00  0.00    -0.196 NA
HETATM   12  C10 UNL     1       5.538  10.043  10.914  1.00  0.00     0.132 C 
HETATM   13  N3  UNL     1       5.292  10.749  11.966  1.00  0.00    -0.382 N 
ATOM     14  H31 UNL     1       4.359  10.954  12.322  1.00  0.00     0.158 HD
ATOM     15  H32 UNL     1       5.982  11.190  12.574  1.00  0.00     0.158 HD
HETATM   16  O1  UNL     1       4.583   9.433  10.073  1.00  0.00    -0.325 OA
ENDROOT
BRANCH   1  17
HETATM   17  C2  UNL     1       5.448   7.227  10.258  1.00  0.00     0.036 C 
HETATM   18  C1  UNL     1       4.205   6.370  10.139  1.00  0.00     0.008 C 
ENDBRANCH   1  17
TORSDOF 1
ENDMDL
MODEL 5
REMARK VINA RESULT: -5.016753289      2.377      3.979
REMARK  1 active torsions:
REMARK  status: ('A' for Active; 'I' for Inactive)
REMARK    1  A    between atoms: C2_2  and  C3_3 
ROOT
HETATM    1  C3  UNL     1       6.792   7.624   8.035  1.00  0.00     0.099 C 
HETATM    2  C4  UNL     1       6.211   7.294   9.367  1.00  0.00     0.042 C 
HETATM    3  C5  UNL     1       6.521   8.367  10.380  1.00  0.00     0.030 C 
HETATM    4  C6  UNL     1       6.416   9.752   9.848  1.00  0.00     0.233 C 
HETATM    5  N1  UNL     1       7.046   9.934   8.553  1.00  0.00    -0.066 N 
ATOM      6  H11 UNL     1       7.615  10.779   8.507  1.00  0.00     0.277 HD
ATOM      7  H12 UNL     1       6.379  10.178   7.821  1.00  0.00     0.277 HD
HETATM    8  C7  UNL     1       7.783   8.762   8.253  1.00  0.00     0.246 C 
HETATM    9  C8  UNL     1       8.522   8.766   6.965  1.00  0.00     0.200 C 
HETATM   10  C9  UNL     1       9.879   9.254   7.107  1.00  0.00     0.074 C 
HETATM   11  N2  UNL     1      10.957   9.647   7.202  1.00  0.00    -0.196 NA
HETATM   12  C10 UNL     1       8.484   7.315   6.601  1.00  0.00     0.132 C 
HETATM   13  N3  UNL     1       9.151   6.784   5.633  1.00  0.00    -0.382 N 
ATOM     14  H31 UNL     1       9.125   5.795   5.385  1.00  0.00     0.158 HD
ATOM     15  H32 UNL     1       9.782   7.268   4.994  1.00  0.00     0.158 HD
HETATM   16  O1  UNL     1       7.611   6.644   7.484  1.00  0.00    -0.325 OA
ENDROOT
BRANCH   1  17
HETATM   17  C2  UNL     1       5.712   8.008   7.056  1.00  0.00     0.036 C 
HETATM   18  C1  UNL     1       4.399   7.463   7.576  1.00  0.00     0.008 C 
ENDBRANCH   1  17
TORSDOF 1
ENDMDL
