MODEL 1
REMARK VINA RESULT: -7.549696006      0.000      0.000
REMARK  12 active torsions:
REMARK  status: ('A' for Active; 'I' for Inactive)
REMARK    1  A    between atoms: O1_2  and  C2_3 
REMARK    2  A    between atoms: C2_3  and  C3_5 
REMARK    3  A    between atoms: C3_5  and  O3_6 
REMARK    4  A    between atoms: C3_5  and  C4_8 
REMARK    5  A    between atoms: C5_9  and  N1_10 
REMARK    6  A    between atoms: N1_10  and  C6_12 
REMARK    7  A    between atoms: C6_12  and  C7_13 
REMARK    8  A    between atoms: C7_13  and  O4_14 
REMARK    9  A    between atoms: C8_17  and  C9_18 
REMARK   10  A    between atoms: C9_18  and  O6_20 
REMARK   11  A    between atoms: O6_20  and  C10_21 
REMARK   12  A    between atoms: C14_31  and  O8_32 
ROOT
HETATM    1  C4  UNL     1      26.579 134.005  18.088  1.00  0.00     0.071 A 
HETATM    2  C5  UNL     1      25.846 134.728  17.150  1.00  0.00     0.087 A 
HETATM    3  S1  UNL     1      25.364 133.537  16.020  1.00  0.00    -0.063 SA
HETATM    4  C8  UNL     1      26.077 132.164  16.727  1.00  0.00     0.116 A 
HETATM    5  C14 UNL     1      26.683 132.675  17.842  1.00  0.00     0.104 A 
ENDROOT
BRANCH   4   6
HETATM    6  C9  UNL     1      26.025 130.788  16.219  1.00  0.00     0.305 C 
HETATM    7  O5  UNL     1      25.090 130.496  15.414  1.00  0.00    -0.258 OA
BRANCH   6   8
HETATM    8  O6  UNL     1      26.898 129.843  16.558  1.00  0.00    -0.274 OA
BRANCH   8   9
HETATM    9  C10 UNL     1      26.597 128.623  17.244  1.00  0.00     0.421 C 
HETATM   10  N2  UNL     1      26.458 127.613  16.217  1.00  0.00    -0.038 N 
HETATM   11  C11 UNL     1      26.303 126.291  16.709  1.00  0.00     0.255 C 
ATOM     12  H22 UNL     1      25.692 127.851  15.586  1.00  0.00     0.280 HD
ATOM     13  H21 UNL     1      27.242 127.660  15.566  1.00  0.00     0.280 HD
HETATM   14  C12 UNL     1      27.094 125.957  17.926  1.00  0.00     0.150 C 
HETATM   15  N3  UNL     1      28.162 126.911  18.167  1.00  0.00    -0.356 N 
HETATM   16  C13 UNL     1      27.818 128.284  18.022  1.00  0.00     0.275 C 
ATOM     17  H3  UNL     1      29.103 126.615  18.424  1.00  0.00     0.162 HD
HETATM   18  O7  UNL     1      28.560 129.151  18.557  1.00  0.00    -0.269 OA
ENDBRANCH   8   9
ENDBRANCH   6   8
ENDBRANCH   4   6
BRANCH   5  19
HETATM   19  O8  UNL     1      27.390 131.813  18.695  1.00  0.00    -0.358 OA
ATOM     20  H8  UNL     1      27.047 131.545  19.539  1.00  0.00     0.217 HD
ENDBRANCH   5  19
BRANCH   2  21
HETATM   21  N1  UNL     1      25.489 136.111  17.074  1.00  0.00    -0.381 N 
ATOM     22  H1  UNL     1      25.932 136.802  17.681  1.00  0.00     0.160 HD
BRANCH  21  23
HETATM   23  C6  UNL     1      24.466 136.509  16.093  1.00  0.00     0.146 C 
BRANCH  23  24
HETATM   24  C7  UNL     1      25.077 137.507  15.159  1.00  0.00     0.183 C 
BRANCH  24  25
HETATM   25  O4  UNL     1      26.245 138.029  15.719  1.00  0.00    -0.399 OA
ATOM     26  H4  UNL     1      26.299 138.962  15.546  1.00  0.00     0.209 HD
ENDBRANCH  24  25
ENDBRANCH  23  24
ENDBRANCH  21  23
ENDBRANCH   2  21
BRANCH   1  27
HETATM   27  C3  UNL     1      27.175 134.719  19.239  1.00  0.00     0.157 C 
BRANCH  27  28
HETATM   28  C2  UNL     1      26.528 135.500  20.246  1.00  0.00     0.317 C 
HETATM   29  O2  UNL     1      26.253 136.698  20.201  1.00  0.00    -0.257 OA
BRANCH  28  30
HETATM   30  O1  UNL     1      26.129 134.869  21.472  1.00  0.00    -0.321 OA
HETATM   31  C1  UNL     1      25.352 133.696  21.396  1.00  0.00     0.213 C 
ENDBRANCH  28  30
ENDBRANCH  27  28
BRANCH  27  32
HETATM   32  O3  UNL     1      28.472 134.642  19.384  1.00  0.00    -0.355 OA
ATOM     33  H3  UNL     1      28.925 135.461  19.222  1.00  0.00     0.218 HD
ENDBRANCH  27  32
ENDBRANCH   1  27
TORSDOF 12
ENDMDL
MODEL 2
REMARK VINA RESULT: -7.512846430      2.815      8.011
REMARK  12 active torsions:
REMARK  status: ('A' for Active; 'I' for Inactive)
REMARK    1  A    between atoms: O1_2  and  C2_3 
REMARK    2  A    between atoms: C2_3  and  C3_5 
REMARK    3  A    between atoms: C3_5  and  O3_6 
REMARK    4  A    between atoms: C3_5  and  C4_8 
REMARK    5  A    between atoms: C5_9  and  N1_10 
REMARK    6  A    between atoms: N1_10  and  C6_12 
REMARK    7  A    between atoms: C6_12  and  C7_13 
REMARK    8  A    between atoms: C7_13  and  O4_14 
REMARK    9  A    between atoms: C8_17  and  C9_18 
REMARK   10  A    between atoms: C9_18  and  O6_20 
REMARK   11  A    between atoms: O6_20  and  C10_21 
REMARK   12  A    between atoms: C14_31  and  O8_32 
ROOT
HETATM    1  C4  UNL     1      28.052 127.581  17.392  1.00  0.00     0.071 A 
HETATM    2  C5  UNL     1      27.423 127.219  16.203  1.00  0.00     0.087 A 
HETATM    3  S1  UNL     1      26.917 128.717  15.551  1.00  0.00    -0.063 SA
HETATM    4  C8  UNL     1      27.492 129.767  16.760  1.00  0.00     0.116 A 
HETATM    5  C14 UNL     1      28.072 128.911  17.655  1.00  0.00     0.104 A 
ENDROOT
BRANCH   4   6
HETATM    6  C9  UNL     1      27.367 131.229  16.785  1.00  0.00     0.305 C 
HETATM    7  O5  UNL     1      26.982 131.802  15.722  1.00  0.00    -0.258 OA
BRANCH   6   8
HETATM    8  O6  UNL     1      27.635 131.974  17.855  1.00  0.00    -0.274 OA
BRANCH   8   9
HETATM    9  C10 UNL     1      26.969 133.186  18.226  1.00  0.00     0.421 C 
HETATM   10  N2  UNL     1      26.358 132.925  19.511  1.00  0.00    -0.038 N 
HETATM   11  C11 UNL     1      25.768 134.062  20.123  1.00  0.00     0.255 C 
ATOM     12  H22 UNL     1      25.676 132.169  19.434  1.00  0.00     0.280 HD
ATOM     13  H21 UNL     1      27.031 132.491  20.143  1.00  0.00     0.280 HD
HETATM   14  C12 UNL     1      26.496 135.348  19.935  1.00  0.00     0.150 C 
HETATM   15  N3  UNL     1      27.863 135.146  19.488  1.00  0.00    -0.356 N 
HETATM   16  C13 UNL     1      28.046 134.185  18.454  1.00  0.00     0.275 C 
ATOM     17  H3  UNL     1      28.645 135.662  19.890  1.00  0.00     0.162 HD
HETATM   18  O7  UNL     1      29.110 134.222  17.779  1.00  0.00    -0.269 OA
ENDBRANCH   8   9
ENDBRANCH   6   8
ENDBRANCH   4   6
BRANCH   5  19
HETATM   19  O8  UNL     1      28.669 129.432  18.815  1.00  0.00    -0.358 OA
ATOM     20  H8  UNL     1      29.578 129.710  18.833  1.00  0.00     0.217 HD
ENDBRANCH   5  19
BRANCH   2  21
HETATM   21  N1  UNL     1      27.229 125.950  15.571  1.00  0.00    -0.381 N 
ATOM     22  H1  UNL     1      27.326 125.081  16.097  1.00  0.00     0.160 HD
BRANCH  21  23
HETATM   23  C6  UNL     1      26.884 125.936  14.140  1.00  0.00     0.146 C 
BRANCH  23  24
HETATM   24  C7  UNL     1      25.638 125.123  13.968  1.00  0.00     0.183 C 
BRANCH  24  25
HETATM   25  O4  UNL     1      24.566 125.753  14.604  1.00  0.00    -0.399 OA
ATOM     26  H4  UNL     1      24.536 125.499  15.519  1.00  0.00     0.209 HD
ENDBRANCH  24  25
ENDBRANCH  23  24
ENDBRANCH  21  23
ENDBRANCH   2  21
BRANCH   1  27
HETATM   27  C3  UNL     1      28.626 126.521  18.253  1.00  0.00     0.157 C 
BRANCH  27  28
HETATM   28  C2  UNL     1      27.960 125.455  18.932  1.00  0.00     0.317 C 
HETATM   29  O2  UNL     1      27.033 124.764  18.512  1.00  0.00    -0.257 OA
BRANCH  28  30
HETATM   30  O1  UNL     1      28.377 125.104  20.260  1.00  0.00    -0.321 OA
HETATM   31  C1  UNL     1      28.017 123.837  20.759  1.00  0.00     0.213 C 
ENDBRANCH  28  30
ENDBRANCH  27  28
BRANCH  27  32
HETATM   32  O3  UNL     1      29.920 126.536  18.435  1.00  0.00    -0.355 OA
ATOM     33  H3  UNL     1      30.421 126.586  17.629  1.00  0.00     0.218 HD
ENDBRANCH  27  32
ENDBRANCH   1  27
TORSDOF 12
ENDMDL
MODEL 3
REMARK VINA RESULT: -7.367712358      1.156      1.904
REMARK  12 active torsions:
REMARK  status: ('A' for Active; 'I' for Inactive)
REMARK    1  A    between atoms: O1_2  and  C2_3 
REMARK    2  A    between atoms: C2_3  and  C3_5 
REMARK    3  A    between atoms: C3_5  and  O3_6 
REMARK    4  A    between atoms: C3_5  and  C4_8 
REMARK    5  A    between atoms: C5_9  and  N1_10 
REMARK    6  A    between atoms: N1_10  and  C6_12 
REMARK    7  A    between atoms: C6_12  and  C7_13 
REMARK    8  A    between atoms: C7_13  and  O4_14 
REMARK    9  A    between atoms: C8_17  and  C9_18 
REMARK   10  A    between atoms: C9_18  and  O6_20 
REMARK   11  A    between atoms: O6_20  and  C10_21 
REMARK   12  A    between atoms: C14_31  and  O8_32 
ROOT
HETATM    1  C4  UNL     1      26.240 133.498  17.756  1.00  0.00     0.071 A 
HETATM    2  C5  UNL     1      25.260 133.997  16.901  1.00  0.00     0.087 A 
HETATM    3  S1  UNL     1      24.826 132.637  15.958  1.00  0.00    -0.063 SA
HETATM    4  C8  UNL     1      25.864 131.473  16.637  1.00  0.00     0.116 A 
HETATM    5  C14 UNL     1      26.533 132.184  17.596  1.00  0.00     0.104 A 
ENDROOT
BRANCH   4   6
HETATM    6  C9  UNL     1      25.974 130.062  16.249  1.00  0.00     0.305 C 
HETATM    7  O5  UNL     1      25.080 129.595  15.482  1.00  0.00    -0.258 OA
BRANCH   6   8
HETATM    8  O6  UNL     1      26.954 129.259  16.657  1.00  0.00    -0.274 OA
BRANCH   8   9
HETATM    9  C10 UNL     1      26.811 128.131  17.528  1.00  0.00     0.421 C 
HETATM   10  N2  UNL     1      26.712 126.974  16.665  1.00  0.00    -0.038 N 
HETATM   11  C11 UNL     1      26.714 125.729  17.347  1.00  0.00     0.255 C 
ATOM     12  H22 UNL     1      25.891 127.048  16.063  1.00  0.00     0.280 HD
ATOM     13  H21 UNL     1      27.449 126.993  15.959  1.00  0.00     0.280 HD
HETATM   14  C12 UNL     1      27.603 125.647  18.540  1.00  0.00     0.150 C 
HETATM   15  N3  UNL     1      28.586 126.715  18.568  1.00  0.00    -0.356 N 
HETATM   16  C13 UNL     1      28.103 128.018  18.257  1.00  0.00     0.275 C 
ATOM     17  H3  UNL     1      29.565 126.543  18.797  1.00  0.00     0.162 HD
HETATM   18  O7  UNL     1      28.787 129.015  18.610  1.00  0.00    -0.269 OA
ENDBRANCH   8   9
ENDBRANCH   6   8
ENDBRANCH   4   6
BRANCH   5  19
HETATM   19  O8  UNL     1      27.499 131.535  18.382  1.00  0.00    -0.358 OA
ATOM     20  H8  UNL     1      28.294 131.174  18.007  1.00  0.00     0.217 HD
ENDBRANCH   5  19
BRANCH   2  21
HETATM   21  N1  UNL     1      24.662 135.292  16.783  1.00  0.00    -0.381 N 
ATOM     22  H1  UNL     1      24.062 135.663  17.520  1.00  0.00     0.160 HD
BRANCH  21  23
HETATM   23  C6  UNL     1      24.939 136.073  15.566  1.00  0.00     0.146 C 
BRANCH  23  24
HETATM   24  C7  UNL     1      26.314 136.654  15.687  1.00  0.00     0.183 C 
BRANCH  24  25
HETATM   25  O4  UNL     1      26.238 138.046  15.759  1.00  0.00    -0.399 OA
ATOM     26  H4  UNL     1      26.826 138.437  15.124  1.00  0.00     0.209 HD
ENDBRANCH  24  25
ENDBRANCH  23  24
ENDBRANCH  21  23
ENDBRANCH   2  21
BRANCH   1  27
HETATM   27  C3  UNL     1      26.870 134.410  18.737  1.00  0.00     0.157 C 
BRANCH  27  28
HETATM   28  C2  UNL     1      28.222 134.866  18.801  1.00  0.00     0.317 C 
HETATM   29  O2  UNL     1      28.681 135.747  19.527  1.00  0.00    -0.257 OA
BRANCH  28  30
HETATM   30  O1  UNL     1      29.204 134.264  17.945  1.00  0.00    -0.321 OA
HETATM   31  C1  UNL     1      29.375 134.793  16.651  1.00  0.00     0.213 C 
ENDBRANCH  28  30
ENDBRANCH  27  28
BRANCH  27  32
HETATM   32  O3  UNL     1      26.108 134.882  19.689  1.00  0.00    -0.355 OA
ATOM     33  H3  UNL     1      25.363 135.380  19.373  1.00  0.00     0.218 HD
ENDBRANCH  27  32
ENDBRANCH   1  27
TORSDOF 12
ENDMDL
MODEL 4
REMARK VINA RESULT: -7.281211852      2.587      7.663
REMARK  12 active torsions:
REMARK  status: ('A' for Active; 'I' for Inactive)
REMARK    1  A    between atoms: O1_2  and  C2_3 
REMARK    2  A    between atoms: C2_3  and  C3_5 
REMARK    3  A    between atoms: C3_5  and  O3_6 
REMARK    4  A    between atoms: C3_5  and  C4_8 
REMARK    5  A    between atoms: C5_9  and  N1_10 
REMARK    6  A    between atoms: N1_10  and  C6_12 
REMARK    7  A    between atoms: C6_12  and  C7_13 
REMARK    8  A    between atoms: C7_13  and  O4_14 
REMARK    9  A    between atoms: C8_17  and  C9_18 
REMARK   10  A    between atoms: C9_18  and  O6_20 
REMARK   11  A    between atoms: O6_20  and  C10_21 
REMARK   12  A    between atoms: C14_31  and  O8_32 
ROOT
HETATM    1  C4  UNL     1      28.007 128.689  16.606  1.00  0.00     0.071 A 
HETATM    2  C5  UNL     1      26.835 127.979  16.356  1.00  0.00     0.087 A 
HETATM    3  S1  UNL     1      25.628 129.191  16.366  1.00  0.00    -0.063 SA
HETATM    4  C8  UNL     1      26.593 130.557  16.680  1.00  0.00     0.116 A 
HETATM    5  C14 UNL     1      27.851 130.026  16.770  1.00  0.00     0.104 A 
ENDROOT
BRANCH   4   6
HETATM    6  C9  UNL     1      26.134 131.944  16.812  1.00  0.00     0.305 C 
HETATM    7  O5  UNL     1      24.898 132.171  16.645  1.00  0.00    -0.258 OA
BRANCH   6   8
HETATM    8  O6  UNL     1      26.941 132.965  17.093  1.00  0.00    -0.274 OA
BRANCH   8   9
HETATM    9  C10 UNL     1      26.602 134.118  17.870  1.00  0.00     0.421 C 
HETATM   10  N2  UNL     1      25.755 133.640  18.942  1.00  0.00    -0.038 N 
HETATM   11  C11 UNL     1      25.430 134.619  19.916  1.00  0.00     0.255 C 
ATOM     12  H22 UNL     1      24.906 133.219  18.563  1.00  0.00     0.280 HD
ATOM     13  H21 UNL     1      26.173 132.822  19.386  1.00  0.00     0.280 HD
HETATM   14  C12 UNL     1      26.515 135.585  20.250  1.00  0.00     0.150 C 
HETATM   15  N3  UNL     1      27.818 135.123  19.805  1.00  0.00    -0.356 N 
HETATM   16  C13 UNL     1      27.873 134.575  18.493  1.00  0.00     0.275 C 
ATOM     17  H3  UNL     1      28.645 135.188  20.398  1.00  0.00     0.162 HD
HETATM   18  O7  UNL     1      28.991 134.499  17.918  1.00  0.00    -0.269 OA
ENDBRANCH   8   9
ENDBRANCH   6   8
ENDBRANCH   4   6
BRANCH   5  19
HETATM   19  O8  UNL     1      28.938 130.877  17.029  1.00  0.00    -0.358 OA
ATOM     20  H8  UNL     1      29.485 130.776  17.800  1.00  0.00     0.217 HD
ENDBRANCH   5  19
BRANCH   2  21
HETATM   21  N1  UNL     1      26.592 126.593  16.100  1.00  0.00    -0.381 N 
ATOM     22  H1  UNL     1      26.219 125.982  16.827  1.00  0.00     0.160 HD
BRANCH  21  23
HETATM   23  C6  UNL     1      26.895 126.074  14.756  1.00  0.00     0.146 C 
BRANCH  23  24
HETATM   24  C7  UNL     1      25.672 126.233  13.907  1.00  0.00     0.183 C 
BRANCH  24  25
HETATM   25  O4  UNL     1      24.556 125.736  14.583  1.00  0.00    -0.399 OA
ATOM     26  H4  UNL     1      24.014 126.455  14.887  1.00  0.00     0.209 HD
ENDBRANCH  24  25
ENDBRANCH  23  24
ENDBRANCH  21  23
ENDBRANCH   2  21
BRANCH   1  27
HETATM   27  C3  UNL     1      29.291 127.954  16.678  1.00  0.00     0.157 C 
BRANCH  27  28
HETATM   28  C2  UNL     1      29.699 126.946  17.603  1.00  0.00     0.317 C 
HETATM   29  O2  UNL     1      30.704 126.944  18.313  1.00  0.00    -0.257 OA
BRANCH  28  30
HETATM   30  O1  UNL     1      28.882 125.776  17.768  1.00  0.00    -0.321 OA
HETATM   31  C1  UNL     1      28.281 125.554  19.022  1.00  0.00     0.213 C 
ENDBRANCH  28  30
ENDBRANCH  27  28
BRANCH  27  32
HETATM   32  O3  UNL     1      30.196 128.246  15.781  1.00  0.00    -0.355 OA
ATOM     33  H3  UNL     1      29.940 128.944  15.190  1.00  0.00     0.218 HD
ENDBRANCH  27  32
ENDBRANCH   1  27
TORSDOF 12
ENDMDL
MODEL 5
REMARK VINA RESULT: -7.275662861      3.551      5.634
REMARK  12 active torsions:
REMARK  status: ('A' for Active; 'I' for Inactive)
REMARK    1  A    between atoms: O1_2  and  C2_3 
REMARK    2  A    between atoms: C2_3  and  C3_5 
REMARK    3  A    between atoms: C3_5  and  O3_6 
REMARK    4  A    between atoms: C3_5  and  C4_8 
REMARK    5  A    between atoms: C5_9  and  N1_10 
REMARK    6  A    between atoms: N1_10  and  C6_12 
REMARK    7  A    between atoms: C6_12  and  C7_13 
REMARK    8  A    between atoms: C7_13  and  O4_14 
REMARK    9  A    between atoms: C8_17  and  C9_18 
REMARK   10  A    between atoms: C9_18  and  O6_20 
REMARK   11  A    between atoms: O6_20  and  C10_21 
REMARK   12  A    between atoms: C14_31  and  O8_32 
ROOT
HETATM    1  C4  UNL     1      27.631 129.553  16.340  1.00  0.00     0.071 A 
HETATM    2  C5  UNL     1      27.384 128.743  15.234  1.00  0.00     0.087 A 
HETATM    3  S1  UNL     1      28.029 127.229  15.699  1.00  0.00    -0.063 SA
HETATM    4  C8  UNL     1      28.594 127.622  17.255  1.00  0.00     0.116 A 
HETATM    5  C14 UNL     1      28.261 128.944  17.374  1.00  0.00     0.104 A 
ENDROOT
BRANCH   4   6
HETATM    6  C9  UNL     1      29.269 126.722  18.197  1.00  0.00     0.305 C 
HETATM    7  O5  UNL     1      30.520 126.566  18.064  1.00  0.00    -0.258 OA
BRANCH   6   8
HETATM    8  O6  UNL     1      28.641 126.070  19.173  1.00  0.00    -0.274 OA
BRANCH   8   9
HETATM    9  C10 UNL     1      27.794 124.927  19.013  1.00  0.00     0.421 C 
HETATM   10  N2  UNL     1      28.278 124.236  17.838  1.00  0.00    -0.038 N 
HETATM   11  C11 UNL     1      27.655 122.984  17.594  1.00  0.00     0.255 C 
ATOM     12  H22 UNL     1      28.202 124.836  17.016  1.00  0.00     0.280 HD
ATOM     13  H21 UNL     1      29.291 124.126  17.882  1.00  0.00     0.280 HD
HETATM   14  C12 UNL     1      27.329 122.177  18.804  1.00  0.00     0.150 C 
HETATM   15  N3  UNL     1      28.042 122.639  19.981  1.00  0.00    -0.356 N 
HETATM   16  C13 UNL     1      28.076 124.048  20.179  1.00  0.00     0.275 C 
ATOM     17  H3  UNL     1      28.493 121.992  20.628  1.00  0.00     0.162 HD
HETATM   18  O7  UNL     1      28.344 124.489  21.329  1.00  0.00    -0.269 OA
ENDBRANCH   8   9
ENDBRANCH   6   8
ENDBRANCH   4   6
BRANCH   5  19
HETATM   19  O8  UNL     1      28.580 129.627  18.559  1.00  0.00    -0.358 OA
ATOM     20  H8  UNL     1      29.422 130.050  18.686  1.00  0.00     0.217 HD
ENDBRANCH   5  19
BRANCH   2  21
HETATM   21  N1  UNL     1      26.728 128.998  13.989  1.00  0.00    -0.381 N 
ATOM     22  H1  UNL     1      27.202 129.502  13.239  1.00  0.00     0.160 HD
BRANCH  21  23
HETATM   23  C6  UNL     1      25.348 128.512  13.821  1.00  0.00     0.146 C 
BRANCH  23  24
HETATM   24  C7  UNL     1      24.415 129.644  14.119  1.00  0.00     0.183 C 
BRANCH  24  25
HETATM   25  O4  UNL     1      23.359 129.194  14.915  1.00  0.00    -0.399 OA
ATOM     26  H4  UNL     1      22.598 129.749  14.788  1.00  0.00     0.209 HD
ENDBRANCH  24  25
ENDBRANCH  23  24
ENDBRANCH  21  23
ENDBRANCH   2  21
BRANCH   1  27
HETATM   27  C3  UNL     1      27.207 130.971  16.301  1.00  0.00     0.157 C 
BRANCH  27  28
HETATM   28  C2  UNL     1      26.489 131.722  17.282  1.00  0.00     0.317 C 
HETATM   29  O2  UNL     1      25.292 132.005  17.279  1.00  0.00    -0.257 OA
BRANCH  28  30
HETATM   30  O1  UNL     1      27.192 132.230  18.426  1.00  0.00    -0.321 OA
HETATM   31  C1  UNL     1      27.584 133.582  18.422  1.00  0.00     0.213 C 
ENDBRANCH  28  30
ENDBRANCH  27  28
BRANCH  27  32
HETATM   32  O3  UNL     1      27.519 131.659  15.234  1.00  0.00    -0.355 OA
ATOM     33  H3  UNL     1      28.405 131.509  14.927  1.00  0.00     0.218 HD
ENDBRANCH  27  32
ENDBRANCH   1  27
TORSDOF 12
ENDMDL
