MODEL 1
REMARK VINA RESULT: -7.591987076      0.000      0.000
REMARK  14 active torsions:
REMARK  status: ('A' for Active; 'I' for Inactive)
REMARK    1  A    between atoms: C2_2  and  O2_4 
REMARK    2  A    between atoms: O2_4  and  C3_5 
REMARK    3  A    between atoms: C3_5  and  C4_6 
REMARK    4  A    between atoms: C4_6  and  C5_7 
REMARK    5  A    between atoms: C5_7  and  C6_8 
REMARK    6  A    between atoms: C6_8  and  C7_9 
REMARK    7  A    between atoms: C11_13  and  C12_14 
REMARK    8  A    between atoms: C13_15  and  O3_16 
REMARK    9  A    between atoms: C14_18  and  O4_19 
REMARK   10  A    between atoms: C19_25  and  C20_26 
REMARK   11  A    between atoms: C20_26  and  C21_27 
REMARK   12  A    between atoms: C21_27  and  O5_28 
REMARK   13  A    between atoms: C21_27  and  C22_30 
REMARK   14  A    between atoms: C22_30  and  O6_31 
ROOT
HETATM    1  C7  UNL     1       0.759  -7.314 -27.595  1.00  0.00    -0.005 C 
HETATM    2  C8  UNL     1      -0.306  -6.842 -28.504  1.00  0.00     0.014 C 
HETATM    3  C9  UNL     1      -1.198  -5.753 -27.961  1.00  0.00     0.014 C 
HETATM    4  C10 UNL     1      -0.409  -4.584 -27.423  1.00  0.00     0.015 C 
HETATM    5  C11 UNL     1      -2.131  -6.331 -27.013  1.00  0.00    -0.040 C 
HETATM    6  C14 UNL     1      -1.778  -7.000 -25.752  1.00  0.00     0.089 C 
HETATM    7  C15 UNL     1      -2.737  -8.189 -25.578  1.00  0.00     0.044 C 
HETATM    8  C16 UNL     1      -1.539  -8.875 -24.959  1.00  0.00     0.016 C 
HETATM    9  C17 UNL     1      -0.592  -7.790 -25.536  1.00  0.00    -0.005 C 
HETATM   10  C18 UNL     1       0.254  -7.124 -24.424  1.00  0.00     0.019 C 
HETATM   11  C19 UNL     1       0.215  -8.357 -26.593  1.00  0.00     0.004 C 
ENDROOT
BRANCH   1  12
HETATM   12  C6  UNL     1       1.874  -7.916 -28.409  1.00  0.00     0.031 C 
BRANCH  12  13
HETATM   13  C5  UNL     1       2.743  -6.955 -29.119  1.00  0.00    -0.028 C 
BRANCH  13  14
HETATM   14  C4  UNL     1       3.469  -7.320 -30.141  1.00  0.00    -0.004 C 
BRANCH  14  15
HETATM   15  C3  UNL     1       4.050  -8.659 -30.261  1.00  0.00     0.206 C 
BRANCH  15  16
HETATM   16  O2  UNL     1       5.138  -8.795 -29.379  1.00  0.00    -0.318 OA
BRANCH  16  17
HETATM   17  C2  UNL     1       5.345  -9.891 -28.596  1.00  0.00     0.255 C 
HETATM   18  C1  UNL     1       4.233 -10.716 -28.106  1.00  0.00     0.126 C 
HETATM   19  O1  UNL     1       6.519 -10.206 -28.283  1.00  0.00    -0.266 OA
ENDBRANCH  16  17
ENDBRANCH  15  16
ENDBRANCH  14  15
ENDBRANCH  13  14
ENDBRANCH  12  13
ENDBRANCH   1  12
BRANCH  11  20
HETATM   20  C20 UNL     1       1.340  -9.213 -26.196  1.00  0.00     0.039 C 
BRANCH  20  21
HETATM   21  C21 UNL     1       1.235 -10.438 -25.389  1.00  0.00     0.142 C 
BRANCH  21  22
HETATM   22  O5  UNL     1       2.341 -10.904 -24.717  1.00  0.00    -0.393 OA
ATOM     23  H5  UNL     1       2.496 -11.840 -24.664  1.00  0.00     0.210 HD
ENDBRANCH  21  22
BRANCH  21  24
HETATM   24  C22 UNL     1       0.875 -11.649 -26.295  1.00  0.00     0.195 C 
BRANCH  24  25
HETATM   25  O6  UNL     1      -0.302 -12.225 -25.893  1.00  0.00    -0.398 OA
ATOM     26  H6  UNL     1      -0.740 -12.644 -26.624  1.00  0.00     0.209 HD
ENDBRANCH  24  25
ENDBRANCH  21  24
ENDBRANCH  20  21
ENDBRANCH  11  20
BRANCH   5  27
HETATM   27  C12 UNL     1      -3.420  -6.272 -27.228  1.00  0.00     0.030 C 
HETATM   28  C13 UNL     1      -4.268  -5.952 -28.356  1.00  0.00     0.131 C 
BRANCH  28  29
HETATM   29  O3  UNL     1      -3.775  -5.609 -29.557  1.00  0.00    -0.373 OA
ATOM     30  H3  UNL     1      -4.262  -5.729 -30.364  1.00  0.00     0.216 HD
ENDBRANCH  28  29
ENDBRANCH   5  27
BRANCH   6  31
HETATM   31  O4  UNL     1      -2.083  -6.100 -24.694  1.00  0.00    -0.384 OA
ATOM     32  H4  UNL     1      -1.259  -5.752 -24.371  1.00  0.00     0.211 HD
ENDBRANCH   6  31
TORSDOF 14
ENDMDL
MODEL 2
REMARK VINA RESULT: -7.571748814      1.107      1.487
REMARK  14 active torsions:
REMARK  status: ('A' for Active; 'I' for Inactive)
REMARK    1  A    between atoms: C2_2  and  O2_4 
REMARK    2  A    between atoms: O2_4  and  C3_5 
REMARK    3  A    between atoms: C3_5  and  C4_6 
REMARK    4  A    between atoms: C4_6  and  C5_7 
REMARK    5  A    between atoms: C5_7  and  C6_8 
REMARK    6  A    between atoms: C6_8  and  C7_9 
REMARK    7  A    between atoms: C11_13  and  C12_14 
REMARK    8  A    between atoms: C13_15  and  O3_16 
REMARK    9  A    between atoms: C14_18  and  O4_19 
REMARK   10  A    between atoms: C19_25  and  C20_26 
REMARK   11  A    between atoms: C20_26  and  C21_27 
REMARK   12  A    between atoms: C21_27  and  O5_28 
REMARK   13  A    between atoms: C21_27  and  C22_30 
REMARK   14  A    between atoms: C22_30  and  O6_31 
ROOT
HETATM    1  C7  UNL     1       0.774  -7.106 -27.869  1.00  0.00    -0.005 C 
HETATM    2  C8  UNL     1      -0.353  -6.619 -28.691  1.00  0.00     0.014 C 
HETATM    3  C9  UNL     1      -1.275  -5.629 -28.022  1.00  0.00     0.014 C 
HETATM    4  C10 UNL     1      -0.523  -4.468 -27.418  1.00  0.00     0.015 C 
HETATM    5  C11 UNL     1      -2.133  -6.334 -27.091  1.00  0.00    -0.040 C 
HETATM    6  C14 UNL     1      -1.692  -7.086 -25.906  1.00  0.00     0.089 C 
HETATM    7  C15 UNL     1      -2.580  -8.335 -25.796  1.00  0.00     0.044 C 
HETATM    8  C16 UNL     1      -1.323  -9.004 -25.287  1.00  0.00     0.016 C 
HETATM    9  C17 UNL     1      -0.459  -7.825 -25.806  1.00  0.00    -0.005 C 
HETATM   10  C18 UNL     1       0.401  -7.209 -24.676  1.00  0.00     0.019 C 
HETATM   11  C19 UNL     1       0.328  -8.257 -26.939  1.00  0.00     0.004 C 
ENDROOT
BRANCH   1  12
HETATM   12  C6  UNL     1       1.881  -7.577 -28.775  1.00  0.00     0.031 C 
BRANCH  12  13
HETATM   13  C5  UNL     1       2.909  -6.570 -29.112  1.00  0.00    -0.028 C 
BRANCH  13  14
HETATM   14  C4  UNL     1       4.178  -6.798 -28.910  1.00  0.00    -0.004 C 
BRANCH  14  15
HETATM   15  C3  UNL     1       4.715  -8.143 -28.693  1.00  0.00     0.206 C 
BRANCH  15  16
HETATM   16  O2  UNL     1       5.348  -8.606 -29.862  1.00  0.00    -0.318 OA
BRANCH  16  17
HETATM   17  C2  UNL     1       4.710  -9.304 -30.843  1.00  0.00     0.255 C 
HETATM   18  C1  UNL     1       4.943  -9.032 -32.267  1.00  0.00     0.126 C 
HETATM   19  O1  UNL     1       3.899 -10.206 -30.523  1.00  0.00    -0.266 OA
ENDBRANCH  16  17
ENDBRANCH  15  16
ENDBRANCH  14  15
ENDBRANCH  13  14
ENDBRANCH  12  13
ENDBRANCH   1  12
BRANCH  11  20
HETATM   20  C20 UNL     1       1.513  -9.081 -26.661  1.00  0.00     0.039 C 
BRANCH  20  21
HETATM   21  C21 UNL     1       1.500 -10.395 -26.003  1.00  0.00     0.142 C 
BRANCH  21  22
HETATM   22  O5  UNL     1       2.254 -10.592 -24.869  1.00  0.00    -0.393 OA
ATOM     23  H5  UNL     1       2.027 -11.297 -24.274  1.00  0.00     0.210 HD
ENDBRANCH  21  22
BRANCH  21  24
HETATM   24  C22 UNL     1       2.067 -11.481 -26.960  1.00  0.00     0.195 C 
BRANCH  24  25
HETATM   25  O6  UNL     1       2.285 -10.964 -28.210  1.00  0.00    -0.398 OA
ATOM     26  H6  UNL     1       1.495 -11.002 -28.735  1.00  0.00     0.209 HD
ENDBRANCH  24  25
ENDBRANCH  21  24
ENDBRANCH  20  21
ENDBRANCH  11  20
BRANCH   5  27
HETATM   27  C12 UNL     1      -3.432  -6.327 -27.248  1.00  0.00     0.030 C 
HETATM   28  C13 UNL     1      -4.341  -6.066 -28.343  1.00  0.00     0.131 C 
BRANCH  28  29
HETATM   29  O3  UNL     1      -3.915  -5.733 -29.573  1.00  0.00    -0.373 OA
ATOM     30  H3  UNL     1      -4.491  -5.723 -30.328  1.00  0.00     0.216 HD
ENDBRANCH  28  29
ENDBRANCH   5  27
BRANCH   6  31
HETATM   31  O4  UNL     1      -1.995  -6.295 -24.764  1.00  0.00    -0.384 OA
ATOM     32  H4  UNL     1      -2.569  -6.808 -24.207  1.00  0.00     0.211 HD
ENDBRANCH   6  31
TORSDOF 14
ENDMDL
MODEL 3
REMARK VINA RESULT: -7.538585040      1.327      1.654
REMARK  14 active torsions:
REMARK  status: ('A' for Active; 'I' for Inactive)
REMARK    1  A    between atoms: C2_2  and  O2_4 
REMARK    2  A    between atoms: O2_4  and  C3_5 
REMARK    3  A    between atoms: C3_5  and  C4_6 
REMARK    4  A    between atoms: C4_6  and  C5_7 
REMARK    5  A    between atoms: C5_7  and  C6_8 
REMARK    6  A    between atoms: C6_8  and  C7_9 
REMARK    7  A    between atoms: C11_13  and  C12_14 
REMARK    8  A    between atoms: C13_15  and  O3_16 
REMARK    9  A    between atoms: C14_18  and  O4_19 
REMARK   10  A    between atoms: C19_25  and  C20_26 
REMARK   11  A    between atoms: C20_26  and  C21_27 
REMARK   12  A    between atoms: C21_27  and  O5_28 
REMARK   13  A    between atoms: C21_27  and  C22_30 
REMARK   14  A    between atoms: C22_30  and  O6_31 
ROOT
HETATM    1  C7  UNL     1       1.149  -7.600 -27.963  1.00  0.00    -0.005 C 
HETATM    2  C8  UNL     1       0.037  -7.113 -28.806  1.00  0.00     0.014 C 
HETATM    3  C9  UNL     1      -0.829  -6.040 -28.193  1.00  0.00     0.014 C 
HETATM    4  C10 UNL     1      -0.017  -4.880 -27.670  1.00  0.00     0.015 C 
HETATM    5  C11 UNL     1      -1.709  -6.643 -27.211  1.00  0.00    -0.040 C 
HETATM    6  C14 UNL     1      -1.290  -7.338 -25.985  1.00  0.00     0.089 C 
HETATM    7  C15 UNL     1      -2.235  -8.534 -25.788  1.00  0.00     0.044 C 
HETATM    8  C16 UNL     1      -1.005  -9.228 -25.247  1.00  0.00     0.016 C 
HETATM    9  C17 UNL     1      -0.092  -8.127 -25.849  1.00  0.00    -0.005 C 
HETATM   10  C18 UNL     1       0.808  -7.482 -24.767  1.00  0.00     0.019 C 
HETATM   11  C19 UNL     1       0.660  -8.668 -26.958  1.00  0.00     0.004 C 
ENDROOT
BRANCH   1  12
HETATM   12  C6  UNL     1       2.222  -8.179 -28.847  1.00  0.00     0.031 C 
BRANCH  12  13
HETATM   13  C5  UNL     1       3.357  -7.284 -29.153  1.00  0.00    -0.028 C 
BRANCH  13  14
HETATM   14  C4  UNL     1       4.587  -7.624 -28.879  1.00  0.00    -0.004 C 
BRANCH  14  15
HETATM   15  C3  UNL     1       4.961  -8.981 -28.476  1.00  0.00     0.206 C 
BRANCH  15  16
HETATM   16  O2  UNL     1       5.696  -9.606 -29.502  1.00  0.00    -0.318 OA
BRANCH  16  17
HETATM   17  C2  UNL     1       5.134 -10.377 -30.475  1.00  0.00     0.255 C 
HETATM   18  C1  UNL     1       4.904  -9.867 -31.833  1.00  0.00     0.126 C 
HETATM   19  O1  UNL     1       4.802 -11.556 -30.205  1.00  0.00    -0.266 OA
ENDBRANCH  16  17
ENDBRANCH  15  16
ENDBRANCH  14  15
ENDBRANCH  13  14
ENDBRANCH  12  13
ENDBRANCH   1  12
BRANCH  11  20
HETATM   20  C20 UNL     1       1.808  -9.527 -26.638  1.00  0.00     0.039 C 
BRANCH  20  21
HETATM   21  C21 UNL     1       1.741 -10.795 -25.898  1.00  0.00     0.142 C 
BRANCH  21  22
HETATM   22  O5  UNL     1       2.367 -10.901 -24.677  1.00  0.00    -0.393 OA
ATOM     23  H5  UNL     1       2.628 -11.757 -24.358  1.00  0.00     0.210 HD
ENDBRANCH  21  22
BRANCH  21  24
HETATM   24  C22 UNL     1       2.427 -11.929 -26.710  1.00  0.00     0.195 C 
BRANCH  24  25
HETATM   25  O6  UNL     1       2.646 -11.538 -28.005  1.00  0.00    -0.398 OA
ATOM     26  H6  UNL     1       3.441 -11.023 -28.072  1.00  0.00     0.209 HD
ENDBRANCH  24  25
ENDBRANCH  21  24
ENDBRANCH  20  21
ENDBRANCH  11  20
BRANCH   5  27
HETATM   27  C12 UNL     1      -3.008  -6.584 -27.357  1.00  0.00     0.030 C 
HETATM   28  C13 UNL     1      -4.089  -5.860 -26.724  1.00  0.00     0.131 C 
BRANCH  28  29
HETATM   29  O3  UNL     1      -3.888  -4.993 -25.718  1.00  0.00    -0.373 OA
ATOM     30  H3  UNL     1      -4.571  -4.418 -25.394  1.00  0.00     0.216 HD
ENDBRANCH  28  29
ENDBRANCH   5  27
BRANCH   6  31
HETATM   31  O4  UNL     1      -1.542  -6.463 -24.893  1.00  0.00    -0.384 OA
ATOM     32  H4  UNL     1      -0.739  -5.986 -24.719  1.00  0.00     0.211 HD
ENDBRANCH   6  31
TORSDOF 14
ENDMDL
MODEL 4
REMARK VINA RESULT: -7.509219219      2.133      6.014
REMARK  14 active torsions:
REMARK  status: ('A' for Active; 'I' for Inactive)
REMARK    1  A    between atoms: C2_2  and  O2_4 
REMARK    2  A    between atoms: O2_4  and  C3_5 
REMARK    3  A    between atoms: C3_5  and  C4_6 
REMARK    4  A    between atoms: C4_6  and  C5_7 
REMARK    5  A    between atoms: C5_7  and  C6_8 
REMARK    6  A    between atoms: C6_8  and  C7_9 
REMARK    7  A    between atoms: C11_13  and  C12_14 
REMARK    8  A    between atoms: C13_15  and  O3_16 
REMARK    9  A    between atoms: C14_18  and  O4_19 
REMARK   10  A    between atoms: C19_25  and  C20_26 
REMARK   11  A    between atoms: C20_26  and  C21_27 
REMARK   12  A    between atoms: C21_27  and  O5_28 
REMARK   13  A    between atoms: C21_27  and  C22_30 
REMARK   14  A    between atoms: C22_30  and  O6_31 
ROOT
HETATM    1  C7  UNL     1      -0.731  -8.022 -25.765  1.00  0.00    -0.005 C 
HETATM    2  C8  UNL     1       0.532  -7.364 -26.159  1.00  0.00     0.014 C 
HETATM    3  C9  UNL     1       1.217  -7.934 -27.377  1.00  0.00     0.014 C 
HETATM    4  C10 UNL     1       0.286  -8.037 -28.560  1.00  0.00     0.015 C 
HETATM    5  C11 UNL     1       1.866  -9.180 -27.017  1.00  0.00    -0.040 C 
HETATM    6  C14 UNL     1       1.196 -10.395 -26.531  1.00  0.00     0.089 C 
HETATM    7  C15 UNL     1       2.095 -11.017 -25.451  1.00  0.00     0.044 C 
HETATM    8  C16 UNL     1       0.788 -11.400 -24.792  1.00  0.00     0.016 C 
HETATM    9  C17 UNL     1       0.013 -10.416 -25.708  1.00  0.00    -0.005 C 
HETATM   10  C18 UNL     1      -1.120 -11.133 -26.482  1.00  0.00     0.019 C 
HETATM   11  C19 UNL     1      -0.460  -9.294 -24.930  1.00  0.00     0.004 C 
ENDROOT
BRANCH   1  12
HETATM   12  C6  UNL     1      -1.567  -7.054 -24.970  1.00  0.00     0.031 C 
BRANCH  12  13
HETATM   13  C5  UNL     1      -2.839  -6.638 -25.596  1.00  0.00    -0.028 C 
BRANCH  13  14
HETATM   14  C4  UNL     1      -3.057  -6.803 -26.873  1.00  0.00    -0.004 C 
BRANCH  14  15
HETATM   15  C3  UNL     1      -3.087  -5.687 -27.820  1.00  0.00     0.206 C 
BRANCH  15  16
HETATM   16  O2  UNL     1      -1.790  -5.422 -28.299  1.00  0.00    -0.318 OA
BRANCH  16  17
HETATM   17  C2  UNL     1      -1.008  -4.404 -27.841  1.00  0.00     0.255 C 
HETATM   18  C1  UNL     1      -1.361  -3.632 -26.643  1.00  0.00     0.126 C 
HETATM   19  O1  UNL     1       0.046  -4.117 -28.459  1.00  0.00    -0.266 OA
ENDBRANCH  16  17
ENDBRANCH  15  16
ENDBRANCH  14  15
ENDBRANCH  13  14
ENDBRANCH  12  13
ENDBRANCH   1  12
BRANCH  11  20
HETATM   20  C20 UNL     1      -1.633  -9.514 -24.074  1.00  0.00     0.039 C 
BRANCH  20  21
HETATM   21  C21 UNL     1      -1.607  -9.635 -22.609  1.00  0.00     0.142 C 
BRANCH  21  22
HETATM   22  O5  UNL     1      -0.426  -9.951 -21.976  1.00  0.00    -0.393 OA
ATOM     23  H5  UNL     1      -0.056  -9.343 -21.346  1.00  0.00     0.210 HD
ENDBRANCH  21  22
BRANCH  21  24
HETATM   24  C22 UNL     1      -2.538 -10.790 -22.147  1.00  0.00     0.195 C 
BRANCH  24  25
HETATM   25  O6  UNL     1      -3.659 -10.298 -21.533  1.00  0.00    -0.398 OA
ATOM     26  H6  UNL     1      -3.449  -9.944 -20.677  1.00  0.00     0.209 HD
ENDBRANCH  24  25
ENDBRANCH  21  24
ENDBRANCH  20  21
ENDBRANCH  11  20
BRANCH   5  27
HETATM   27  C12 UNL     1       3.163  -9.311 -27.128  1.00  0.00     0.030 C 
HETATM   28  C13 UNL     1       4.066  -9.879 -28.106  1.00  0.00     0.131 C 
BRANCH  28  29
HETATM   29  O3  UNL     1       3.635 -10.456 -29.239  1.00  0.00    -0.373 OA
ATOM     30  H3  UNL     1       4.004 -10.251 -30.090  1.00  0.00     0.216 HD
ENDBRANCH  28  29
ENDBRANCH   5  27
BRANCH   6  31
HETATM   31  O4  UNL     1       1.179 -11.329 -27.604  1.00  0.00    -0.384 OA
ATOM     32  H4  UNL     1       1.205 -12.199 -27.224  1.00  0.00     0.211 HD
ENDBRANCH   6  31
TORSDOF 14
ENDMDL
MODEL 5
REMARK VINA RESULT: -7.467972716      2.009      5.973
REMARK  14 active torsions:
REMARK  status: ('A' for Active; 'I' for Inactive)
REMARK    1  A    between atoms: C2_2  and  O2_4 
REMARK    2  A    between atoms: O2_4  and  C3_5 
REMARK    3  A    between atoms: C3_5  and  C4_6 
REMARK    4  A    between atoms: C4_6  and  C5_7 
REMARK    5  A    between atoms: C5_7  and  C6_8 
REMARK    6  A    between atoms: C6_8  and  C7_9 
REMARK    7  A    between atoms: C11_13  and  C12_14 
REMARK    8  A    between atoms: C13_15  and  O3_16 
REMARK    9  A    between atoms: C14_18  and  O4_19 
REMARK   10  A    between atoms: C19_25  and  C20_26 
REMARK   11  A    between atoms: C20_26  and  C21_27 
REMARK   12  A    between atoms: C21_27  and  O5_28 
REMARK   13  A    between atoms: C21_27  and  C22_30 
REMARK   14  A    between atoms: C22_30  and  O6_31 
ROOT
HETATM    1  C7  UNL     1      -0.431  -7.939 -25.964  1.00  0.00    -0.005 C 
HETATM    2  C8  UNL     1       0.685  -7.053 -26.356  1.00  0.00     0.014 C 
HETATM    3  C9  UNL     1       1.204  -7.235 -27.762  1.00  0.00     0.014 C 
HETATM    4  C10 UNL     1       0.101  -7.178 -28.790  1.00  0.00     0.015 C 
HETATM    5  C11 UNL     1       2.012  -8.438 -27.819  1.00  0.00    -0.040 C 
HETATM    6  C14 UNL     1       1.542  -9.807 -27.560  1.00  0.00     0.089 C 
HETATM    7  C15 UNL     1       2.662 -10.543 -26.807  1.00  0.00     0.044 C 
HETATM    8  C16 UNL     1       1.523 -11.230 -26.086  1.00  0.00     0.016 C 
HETATM    9  C17 UNL     1       0.521 -10.167 -26.609  1.00  0.00    -0.005 C 
HETATM   10  C18 UNL     1      -0.657 -10.823 -27.368  1.00  0.00     0.019 C 
HETATM   11  C19 UNL     1       0.088  -9.325 -25.518  1.00  0.00     0.004 C 
ENDROOT
BRANCH   1  12
HETATM   12  C6  UNL     1      -1.203  -7.294 -24.843  1.00  0.00     0.031 C 
BRANCH  12  13
HETATM   13  C5  UNL     1      -2.621  -6.993 -25.129  1.00  0.00    -0.028 C 
BRANCH  13  14
HETATM   14  C4  UNL     1      -3.088  -7.008 -26.348  1.00  0.00    -0.004 C 
BRANCH  14  15
HETATM   15  C3  UNL     1      -3.509  -5.793 -27.049  1.00  0.00     0.206 C 
BRANCH  15  16
HETATM   16  O2  UNL     1      -2.426  -5.247 -27.764  1.00  0.00    -0.318 OA
BRANCH  16  17
HETATM   17  C2  UNL     1      -1.647  -4.231 -27.299  1.00  0.00     0.255 C 
HETATM   18  C1  UNL     1      -1.940  -3.544 -26.034  1.00  0.00     0.126 C 
HETATM   19  O1  UNL     1      -0.649  -3.869 -27.968  1.00  0.00    -0.266 OA
ENDBRANCH  16  17
ENDBRANCH  15  16
ENDBRANCH  14  15
ENDBRANCH  13  14
ENDBRANCH  12  13
ENDBRANCH   1  12
BRANCH  11  20
HETATM   20  C20 UNL     1      -0.900  -9.884 -24.586  1.00  0.00     0.039 C 
BRANCH  20  21
HETATM   21  C21 UNL     1      -0.595 -10.763 -23.448  1.00  0.00     0.142 C 
BRANCH  21  22
HETATM   22  O5  UNL     1      -0.658 -12.128 -23.610  1.00  0.00    -0.393 OA
ATOM     23  H5  UNL     1      -0.236 -12.695 -22.975  1.00  0.00     0.210 HD
ENDBRANCH  21  22
BRANCH  21  24
HETATM   24  C22 UNL     1      -1.614 -10.528 -22.298  1.00  0.00     0.195 C 
BRANCH  24  25
HETATM   25  O6  UNL     1      -2.371  -9.412 -22.538  1.00  0.00    -0.398 OA
ATOM     26  H6  UNL     1      -3.269  -9.546 -22.260  1.00  0.00     0.209 HD
ENDBRANCH  24  25
ENDBRANCH  21  24
ENDBRANCH  20  21
ENDBRANCH  11  20
BRANCH   5  27
HETATM   27  C12 UNL     1       3.278  -8.374 -28.141  1.00  0.00     0.030 C 
HETATM   28  C13 UNL     1       4.042  -7.802 -29.229  1.00  0.00     0.131 C 
BRANCH  28  29
HETATM   29  O3  UNL     1       3.467  -7.139 -30.246  1.00  0.00    -0.373 OA
ATOM     30  H3  UNL     1       3.782  -6.295 -30.549  1.00  0.00     0.216 HD
ENDBRANCH  28  29
ENDBRANCH   5  27
BRANCH   6  31
HETATM   31  O4  UNL     1       1.428 -10.462 -28.818  1.00  0.00    -0.384 OA
ATOM     32  H4  UNL     1       0.919 -11.253 -28.681  1.00  0.00     0.211 HD
ENDBRANCH   6  31
TORSDOF 14
ENDMDL
