MODEL 1
REMARK VINA RESULT: -7.582382674      0.000      0.000
REMARK  16 active torsions:
REMARK  status: ('A' for Active; 'I' for Inactive)
REMARK    1  A    between atoms: C2_3  and  O1_4 
REMARK    2  A    between atoms: O1_4  and  C3_5 
REMARK    3  A    between atoms: C3_5  and  C4_7 
REMARK    4  A    between atoms: C4_7  and  C5_8 
REMARK    5  A    between atoms: C5_8  and  C6_9 
REMARK    6  A    between atoms: C6_9  and  C7_10 
REMARK    7  A    between atoms: C10_13  and  O3_14 
REMARK    8  A    between atoms: C12_17  and  O4_18 
REMARK    9  A    between atoms: C13_20  and  C14_21 
REMARK   10  A    between atoms: C14_21  and  C15_22 
REMARK   11  A    between atoms: C16_23  and  C17_24 
REMARK   12  A    between atoms: C17_24  and  C18_25 
REMARK   13  A    between atoms: C18_25  and  N2_26 
REMARK   14  A    between atoms: N2_26  and  C19_29 
REMARK   15  A    between atoms: C19_29  and  C20_30 
REMARK   16  A    between atoms: C20_30  and  O5_31 
ROOT
HETATM    1  N1  UNL     1      14.659  43.842  -6.008  1.00  0.00    -0.189 NA
HETATM    2  C1  UNL     1      14.243  43.370  -6.999  1.00  0.00     0.125 C 
HETATM    3  C2  UNL     1      13.726  42.791  -8.193  1.00  0.00     0.161 C 
HETATM    4  C21 UNL     1      12.604  43.255  -8.700  1.00  0.00    -0.035 C 
HETATM    5  C22 UNL     1      12.059  42.657  -9.944  1.00  0.00     0.038 C 
HETATM    6  C23 UNL     1      10.559  42.597  -9.958  1.00  0.00     0.004 C 
HETATM    7  C24 UNL     1       9.891  43.795  -9.359  1.00  0.00     0.001 C 
HETATM    8  C25 UNL     1      10.872  44.909  -9.058  1.00  0.00     0.004 C 
HETATM    9  C26 UNL     1      11.855  44.386  -8.044  1.00  0.00     0.038 C 
ENDROOT
BRANCH   3  10
HETATM   10  O1  UNL     1      14.403  41.759  -8.796  1.00  0.00    -0.267 OA
BRANCH  10  11
HETATM   11  C3  UNL     1      15.518  41.876  -9.589  1.00  0.00     0.264 C 
HETATM   12  O2  UNL     1      16.337  42.783  -9.320  1.00  0.00    -0.265 OA
BRANCH  11  13
HETATM   13  C4  UNL     1      15.792  40.977 -10.748  1.00  0.00     0.112 C 
BRANCH  13  14
HETATM   14  C5  UNL     1      14.778  41.277 -11.824  1.00  0.00     0.013 C 
BRANCH  14  15
HETATM   15  C6  UNL     1      13.971  40.074 -12.216  1.00  0.00     0.028 C 
BRANCH  15  16
HETATM   16  C7  UNL     1      14.706  39.114 -13.065  1.00  0.00    -0.023 C 
HETATM   17  C8  UNL     1      14.573  37.813 -13.061  1.00  0.00    -0.074 C 
HETATM   18  C9  UNL     1      15.373  36.968 -13.965  1.00  0.00     0.066 C 
HETATM   19  C13 UNL     1      13.622  37.145 -12.157  1.00  0.00     0.046 C 
HETATM   20  C10 UNL     1      14.416  36.202 -14.844  1.00  0.00     0.124 C 
HETATM   21  C11 UNL     1      13.184  35.722 -14.156  1.00  0.00     0.064 C 
HETATM   22  C12 UNL     1      13.383  35.724 -12.679  1.00  0.00     0.129 C 
BRANCH  20  23
HETATM   23  O3  UNL     1      15.060  35.101 -15.438  1.00  0.00    -0.395 OA
ATOM     24  H3  UNL     1      14.685  34.286 -15.128  1.00  0.00     0.210 HD
ENDBRANCH  20  23
BRANCH  22  25
HETATM   25  O4  UNL     1      14.400  34.857 -12.290  1.00  0.00    -0.395 OA
ATOM     26  H4  UNL     1      14.552  34.885 -11.353  1.00  0.00     0.210 HD
ENDBRANCH  22  25
BRANCH  19  27
HETATM   27  C14 UNL     1      14.116  37.008 -10.744  1.00  0.00     0.038 C 
BRANCH  27  28
HETATM   28  C15 UNL     1      13.095  37.610  -9.845  1.00  0.00    -0.030 C 
HETATM   29  C16 UNL     1      13.412  38.512  -8.922  1.00  0.00    -0.029 C 
BRANCH  29  30
HETATM   30  C17 UNL     1      12.411  39.122  -8.019  1.00  0.00     0.054 C 
BRANCH  30  31
HETATM   31  C18 UNL     1      12.231  38.259  -6.796  1.00  0.00     0.236 C 
BRANCH  31  32
HETATM   32  N2  UNL     1      11.591  39.054  -5.776  1.00  0.00    -0.073 N 
ATOM     33  H22 UNL     1      12.269  39.661  -5.317  1.00  0.00     0.277 HD
ATOM     34  H21 UNL     1      10.986  39.759  -6.198  1.00  0.00     0.277 HD
BRANCH  32  35
HETATM   35  C19 UNL     1      10.868  38.287  -4.807  1.00  0.00     0.258 C 
BRANCH  35  36
HETATM   36  C20 UNL     1       9.644  39.049  -4.373  1.00  0.00     0.191 C 
BRANCH  36  37
HETATM   37  O5  UNL     1       9.780  40.361  -4.822  1.00  0.00    -0.399 OA
ATOM     38  H5  UNL     1       8.963  40.611  -5.239  1.00  0.00     0.209 HD
ENDBRANCH  36  37
ENDBRANCH  35  36
ENDBRANCH  32  35
ENDBRANCH  31  32
ENDBRANCH  30  31
ENDBRANCH  29  30
ENDBRANCH  27  28
ENDBRANCH  19  27
ENDBRANCH  15  16
ENDBRANCH  14  15
ENDBRANCH  13  14
ENDBRANCH  11  13
ENDBRANCH  10  11
ENDBRANCH   3  10
TORSDOF 16
ENDMDL
MODEL 2
REMARK VINA RESULT: -7.311563098      2.622      7.734
REMARK  16 active torsions:
REMARK  status: ('A' for Active; 'I' for Inactive)
REMARK    1  A    between atoms: C2_3  and  O1_4 
REMARK    2  A    between atoms: O1_4  and  C3_5 
REMARK    3  A    between atoms: C3_5  and  C4_7 
REMARK    4  A    between atoms: C4_7  and  C5_8 
REMARK    5  A    between atoms: C5_8  and  C6_9 
REMARK    6  A    between atoms: C6_9  and  C7_10 
REMARK    7  A    between atoms: C10_13  and  O3_14 
REMARK    8  A    between atoms: C12_17  and  O4_18 
REMARK    9  A    between atoms: C13_20  and  C14_21 
REMARK   10  A    between atoms: C14_21  and  C15_22 
REMARK   11  A    between atoms: C16_23  and  C17_24 
REMARK   12  A    between atoms: C17_24  and  C18_25 
REMARK   13  A    between atoms: C18_25  and  N2_26 
REMARK   14  A    between atoms: N2_26  and  C19_29 
REMARK   15  A    between atoms: C19_29  and  C20_30 
REMARK   16  A    between atoms: C20_30  and  O5_31 
ROOT
HETATM    1  N1  UNL     1       9.839  37.044  -1.910  1.00  0.00    -0.189 NA
HETATM    2  C1  UNL     1       9.654  37.874  -2.721  1.00  0.00     0.125 C 
HETATM    3  C2  UNL     1       9.413  38.879  -3.699  1.00  0.00     0.161 C 
HETATM    4  C21 UNL     1       9.009  40.070  -3.313  1.00  0.00    -0.035 C 
HETATM    5  C22 UNL     1       8.757  41.124  -4.328  1.00  0.00     0.038 C 
HETATM    6  C23 UNL     1       7.599  42.012  -3.976  1.00  0.00     0.004 C 
HETATM    7  C24 UNL     1       7.504  42.348  -2.521  1.00  0.00     0.001 C 
HETATM    8  C25 UNL     1       8.722  41.892  -1.744  1.00  0.00     0.004 C 
HETATM    9  C26 UNL     1       8.795  40.392  -1.857  1.00  0.00     0.038 C 
ENDROOT
BRANCH   3  10
HETATM   10  O1  UNL     1       9.606  38.593  -5.029  1.00  0.00    -0.267 OA
BRANCH  10  11
HETATM   11  C3  UNL     1      10.810  38.584  -5.690  1.00  0.00     0.264 C 
HETATM   12  O2  UNL     1      11.392  37.487  -5.834  1.00  0.00    -0.265 OA
BRANCH  11  13
HETATM   13  C4  UNL     1      11.447  39.817  -6.239  1.00  0.00     0.112 C 
BRANCH  13  14
HETATM   14  C5  UNL     1      12.074  39.468  -7.566  1.00  0.00     0.013 C 
BRANCH  14  15
HETATM   15  C6  UNL     1      12.377  40.676  -8.403  1.00  0.00     0.028 C 
BRANCH  15  16
HETATM   16  C7  UNL     1      13.129  41.725  -7.684  1.00  0.00    -0.023 C 
HETATM   17  C8  UNL     1      14.109  42.448  -8.164  1.00  0.00    -0.074 C 
HETATM   18  C9  UNL     1      14.775  43.466  -7.334  1.00  0.00     0.066 C 
HETATM   19  C13 UNL     1      14.580  42.272  -9.547  1.00  0.00     0.046 C 
HETATM   20  C10 UNL     1      14.601  44.799  -8.016  1.00  0.00     0.124 C 
HETATM   21  C11 UNL     1      14.709  44.760  -9.502  1.00  0.00     0.064 C 
HETATM   22  C12 UNL     1      15.394  43.510  -9.936  1.00  0.00     0.129 C 
BRANCH  20  23
HETATM   23  O3  UNL     1      15.527  45.736  -7.520  1.00  0.00    -0.395 OA
ATOM     24  H3  UNL     1      16.074  46.070  -8.220  1.00  0.00     0.210 HD
ENDBRANCH  20  23
BRANCH  22  25
HETATM   25  O4  UNL     1      16.699  43.438  -9.456  1.00  0.00    -0.395 OA
ATOM     26  H4  UNL     1      17.272  42.975 -10.055  1.00  0.00     0.210 HD
ENDBRANCH  22  25
BRANCH  19  27
HETATM   27  C14 UNL     1      15.482  41.084  -9.739  1.00  0.00     0.038 C 
BRANCH  27  28
HETATM   28  C15 UNL     1      15.220  40.527 -11.092  1.00  0.00    -0.030 C 
HETATM   29  C16 UNL     1      14.459  39.453 -11.277  1.00  0.00    -0.029 C 
BRANCH  29  30
HETATM   30  C17 UNL     1      14.186  38.883 -12.616  1.00  0.00     0.054 C 
BRANCH  30  31
HETATM   31  C18 UNL     1      14.923  37.579 -12.777  1.00  0.00     0.236 C 
BRANCH  31  32
HETATM   32  N2  UNL     1      14.989  36.938 -11.485  1.00  0.00    -0.073 N 
ATOM     33  H22 UNL     1      15.907  37.075 -11.063  1.00  0.00     0.277 HD
ATOM     34  H21 UNL     1      14.411  37.438 -10.807  1.00  0.00     0.277 HD
BRANCH  32  35
HETATM   35  C19 UNL     1      14.649  35.548 -11.505  1.00  0.00     0.258 C 
BRANCH  35  36
HETATM   36  C20 UNL     1      13.444  35.337 -12.383  1.00  0.00     0.191 C 
BRANCH  36  37
HETATM   37  O5  UNL     1      13.073  33.998 -12.279  1.00  0.00    -0.399 OA
ATOM     38  H5  UNL     1      12.638  33.882 -11.442  1.00  0.00     0.209 HD
ENDBRANCH  36  37
ENDBRANCH  35  36
ENDBRANCH  32  35
ENDBRANCH  31  32
ENDBRANCH  30  31
ENDBRANCH  29  30
ENDBRANCH  27  28
ENDBRANCH  19  27
ENDBRANCH  15  16
ENDBRANCH  14  15
ENDBRANCH  13  14
ENDBRANCH  11  13
ENDBRANCH  10  11
ENDBRANCH   3  10
TORSDOF 16
ENDMDL
MODEL 3
REMARK VINA RESULT: -7.284707495      2.435      7.529
REMARK  16 active torsions:
REMARK  status: ('A' for Active; 'I' for Inactive)
REMARK    1  A    between atoms: C2_3  and  O1_4 
REMARK    2  A    between atoms: O1_4  and  C3_5 
REMARK    3  A    between atoms: C3_5  and  C4_7 
REMARK    4  A    between atoms: C4_7  and  C5_8 
REMARK    5  A    between atoms: C5_8  and  C6_9 
REMARK    6  A    between atoms: C6_9  and  C7_10 
REMARK    7  A    between atoms: C10_13  and  O3_14 
REMARK    8  A    between atoms: C12_17  and  O4_18 
REMARK    9  A    between atoms: C13_20  and  C14_21 
REMARK   10  A    between atoms: C14_21  and  C15_22 
REMARK   11  A    between atoms: C16_23  and  C17_24 
REMARK   12  A    between atoms: C17_24  and  C18_25 
REMARK   13  A    between atoms: C18_25  and  N2_26 
REMARK   14  A    between atoms: N2_26  and  C19_29 
REMARK   15  A    between atoms: C19_29  and  C20_30 
REMARK   16  A    between atoms: C20_30  and  O5_31 
ROOT
HETATM    1  N1  UNL     1      17.059  37.289 -12.935  1.00  0.00    -0.189 NA
HETATM    2  C1  UNL     1      16.040  36.941 -13.403  1.00  0.00     0.125 C 
HETATM    3  C2  UNL     1      14.806  36.530 -13.984  1.00  0.00     0.161 C 
HETATM    4  C21 UNL     1      14.811  35.954 -15.166  1.00  0.00    -0.035 C 
HETATM    5  C22 UNL     1      13.529  35.523 -15.778  1.00  0.00     0.038 C 
HETATM    6  C23 UNL     1      13.501  35.699 -17.268  1.00  0.00     0.004 C 
HETATM    7  C24 UNL     1      14.792  35.371 -17.949  1.00  0.00     0.001 C 
HETATM    8  C25 UNL     1      15.791  34.726 -17.010  1.00  0.00     0.004 C 
HETATM    9  C26 UNL     1      16.094  35.721 -15.920  1.00  0.00     0.038 C 
ENDROOT
BRANCH   3  10
HETATM   10  O1  UNL     1      13.632  36.740 -13.303  1.00  0.00    -0.267 OA
BRANCH  10  11
HETATM   11  C3  UNL     1      13.234  36.097 -12.156  1.00  0.00     0.264 C 
HETATM   12  O2  UNL     1      13.069  34.858 -12.206  1.00  0.00    -0.265 OA
BRANCH  11  13
HETATM   13  C4  UNL     1      12.994  36.806 -10.865  1.00  0.00     0.112 C 
BRANCH  13  14
HETATM   14  C5  UNL     1      14.317  36.937 -10.151  1.00  0.00     0.013 C 
BRANCH  14  15
HETATM   15  C6  UNL     1      14.450  38.233  -9.405  1.00  0.00     0.028 C 
BRANCH  15  16
HETATM   16  C7  UNL     1      14.574  39.415 -10.282  1.00  0.00    -0.023 C 
HETATM   17  C8  UNL     1      14.252  40.646  -9.979  1.00  0.00    -0.074 C 
HETATM   18  C9  UNL     1      14.429  41.736 -10.953  1.00  0.00     0.066 C 
HETATM   19  C13 UNL     1      13.703  40.988  -8.657  1.00  0.00     0.046 C 
HETATM   20  C10 UNL     1      15.373  42.744 -10.348  1.00  0.00     0.124 C 
HETATM   21  C11 UNL     1      15.186  42.978  -8.888  1.00  0.00     0.064 C 
HETATM   22  C12 UNL     1      13.841  42.501  -8.458  1.00  0.00     0.129 C 
BRANCH  20  23
HETATM   23  O3  UNL     1      15.280  43.978 -11.019  1.00  0.00    -0.395 OA
ATOM     24  H3  UNL     1      15.888  44.608 -10.649  1.00  0.00     0.210 HD
ENDBRANCH  20  23
BRANCH  22  25
HETATM   25  O4  UNL     1      12.815  43.197  -9.091  1.00  0.00    -0.395 OA
ATOM     26  H4  UNL     1      12.119  43.429  -8.488  1.00  0.00     0.210 HD
ENDBRANCH  22  25
BRANCH  19  27
HETATM   27  C14 UNL     1      12.244  40.663  -8.498  1.00  0.00     0.038 C 
BRANCH  27  28
HETATM   28  C15 UNL     1      12.066  39.996  -7.181  1.00  0.00    -0.030 C 
HETATM   29  C16 UNL     1      11.805  38.697  -7.078  1.00  0.00    -0.029 C 
BRANCH  29  30
HETATM   30  C17 UNL     1      11.625  38.016  -5.776  1.00  0.00     0.054 C 
BRANCH  30  31
HETATM   31  C18 UNL     1      10.617  38.763  -4.942  1.00  0.00     0.236 C 
BRANCH  31  32
HETATM   32  N2  UNL     1      11.077  38.762  -3.573  1.00  0.00    -0.073 N 
ATOM     33  H22 UNL     1      11.649  37.939  -3.389  1.00  0.00     0.277 HD
ATOM     34  H21 UNL     1      11.774  39.493  -3.429  1.00  0.00     0.277 HD
BRANCH  32  35
HETATM   35  C19 UNL     1      10.028  38.870  -2.606  1.00  0.00     0.258 C 
BRANCH  35  36
HETATM   36  C20 UNL     1       9.836  37.544  -1.920  1.00  0.00     0.191 C 
BRANCH  36  37
HETATM   37  O5  UNL     1       8.692  36.953  -2.452  1.00  0.00    -0.399 OA
ATOM     38  H5  UNL     1       8.117  36.731  -1.729  1.00  0.00     0.209 HD
ENDBRANCH  36  37
ENDBRANCH  35  36
ENDBRANCH  32  35
ENDBRANCH  31  32
ENDBRANCH  30  31
ENDBRANCH  29  30
ENDBRANCH  27  28
ENDBRANCH  19  27
ENDBRANCH  15  16
ENDBRANCH  14  15
ENDBRANCH  13  14
ENDBRANCH  11  13
ENDBRANCH  10  11
ENDBRANCH   3  10
TORSDOF 16
ENDMDL
MODEL 4
REMARK VINA RESULT: -7.242510431      2.228      5.877
REMARK  16 active torsions:
REMARK  status: ('A' for Active; 'I' for Inactive)
REMARK    1  A    between atoms: C2_3  and  O1_4 
REMARK    2  A    between atoms: O1_4  and  C3_5 
REMARK    3  A    between atoms: C3_5  and  C4_7 
REMARK    4  A    between atoms: C4_7  and  C5_8 
REMARK    5  A    between atoms: C5_8  and  C6_9 
REMARK    6  A    between atoms: C6_9  and  C7_10 
REMARK    7  A    between atoms: C10_13  and  O3_14 
REMARK    8  A    between atoms: C12_17  and  O4_18 
REMARK    9  A    between atoms: C13_20  and  C14_21 
REMARK   10  A    between atoms: C14_21  and  C15_22 
REMARK   11  A    between atoms: C16_23  and  C17_24 
REMARK   12  A    between atoms: C17_24  and  C18_25 
REMARK   13  A    between atoms: C18_25  and  N2_26 
REMARK   14  A    between atoms: N2_26  and  C19_29 
REMARK   15  A    between atoms: C19_29  and  C20_30 
REMARK   16  A    between atoms: C20_30  and  O5_31 
ROOT
HETATM    1  N1  UNL     1       9.792  37.041  -2.099  1.00  0.00    -0.189 NA
HETATM    2  C1  UNL     1       9.628  37.903  -2.880  1.00  0.00     0.125 C 
HETATM    3  C2  UNL     1       9.413  38.948  -3.822  1.00  0.00     0.161 C 
HETATM    4  C21 UNL     1       9.021  40.129  -3.396  1.00  0.00    -0.035 C 
HETATM    5  C22 UNL     1       8.795  41.225  -4.373  1.00  0.00     0.038 C 
HETATM    6  C23 UNL     1       7.645  42.115  -4.001  1.00  0.00     0.004 C 
HETATM    7  C24 UNL     1       7.537  42.398  -2.535  1.00  0.00     0.001 C 
HETATM    8  C25 UNL     1       8.739  41.895  -1.762  1.00  0.00     0.004 C 
HETATM    9  C26 UNL     1       8.794  40.399  -1.931  1.00  0.00     0.038 C 
ENDROOT
BRANCH   3  10
HETATM   10  O1  UNL     1       9.617  38.710  -5.160  1.00  0.00    -0.267 OA
BRANCH  10  11
HETATM   11  C3  UNL     1      10.818  38.411  -5.755  1.00  0.00     0.264 C 
HETATM   12  O2  UNL     1      11.319  37.286  -5.533  1.00  0.00    -0.265 OA
BRANCH  11  13
HETATM   13  C4  UNL     1      11.545  39.361  -6.646  1.00  0.00     0.112 C 
BRANCH  13  14
HETATM   14  C5  UNL     1      12.800  38.680  -7.133  1.00  0.00     0.013 C 
BRANCH  14  15
HETATM   15  C6  UNL     1      13.122  39.002  -8.563  1.00  0.00     0.028 C 
BRANCH  15  16
HETATM   16  C7  UNL     1      12.862  37.889  -9.498  1.00  0.00    -0.023 C 
HETATM   17  C8  UNL     1      13.435  37.697 -10.658  1.00  0.00    -0.074 C 
HETATM   18  C9  UNL     1      13.081  36.539 -11.495  1.00  0.00     0.066 C 
HETATM   19  C13 UNL     1      14.454  38.629 -11.169  1.00  0.00     0.046 C 
HETATM   20  C10 UNL     1      14.333  35.726 -11.708  1.00  0.00     0.124 C 
HETATM   21  C11 UNL     1      15.573  36.528 -11.909  1.00  0.00     0.064 C 
HETATM   22  C12 UNL     1      15.225  37.927 -12.292  1.00  0.00     0.129 C 
BRANCH  20  23
HETATM   23  O3  UNL     1      14.179  34.851 -12.799  1.00  0.00    -0.395 OA
ATOM     24  H3  UNL     1      14.145  33.949 -12.505  1.00  0.00     0.210 HD
ENDBRANCH  20  23
BRANCH  22  25
HETATM   25  O4  UNL     1      14.535  37.979 -13.499  1.00  0.00    -0.395 OA
ATOM     26  H4  UNL     1      15.037  38.420 -14.175  1.00  0.00     0.210 HD
ENDBRANCH  22  25
BRANCH  19  27
HETATM   27  C14 UNL     1      13.887  39.891 -11.759  1.00  0.00     0.038 C 
BRANCH  27  28
HETATM   28  C15 UNL     1      14.817  41.004 -11.432  1.00  0.00    -0.030 C 
HETATM   29  C16 UNL     1      15.151  41.299 -10.180  1.00  0.00    -0.029 C 
BRANCH  29  30
HETATM   30  C17 UNL     1      16.075  42.404  -9.836  1.00  0.00     0.054 C 
BRANCH  30  31
HETATM   31  C18 UNL     1      15.637  43.054  -8.549  1.00  0.00     0.236 C 
BRANCH  31  32
HETATM   32  N2  UNL     1      14.349  42.512  -8.188  1.00  0.00    -0.073 N 
ATOM     33  H22 UNL     1      13.978  41.936  -8.944  1.00  0.00     0.277 HD
ATOM     34  H21 UNL     1      14.450  41.800  -7.463  1.00  0.00     0.277 HD
BRANCH  32  35
HETATM   35  C19 UNL     1      13.391  43.498  -7.792  1.00  0.00     0.258 C 
BRANCH  35  36
HETATM   36  C20 UNL     1      14.103  44.771  -7.419  1.00  0.00     0.191 C 
BRANCH  36  37
HETATM   37  O5  UNL     1      13.909  44.982  -6.055  1.00  0.00    -0.399 OA
ATOM     38  H5  UNL     1      13.755  44.137  -5.650  1.00  0.00     0.209 HD
ENDBRANCH  36  37
ENDBRANCH  35  36
ENDBRANCH  32  35
ENDBRANCH  31  32
ENDBRANCH  30  31
ENDBRANCH  29  30
ENDBRANCH  27  28
ENDBRANCH  19  27
ENDBRANCH  15  16
ENDBRANCH  14  15
ENDBRANCH  13  14
ENDBRANCH  11  13
ENDBRANCH  10  11
ENDBRANCH   3  10
TORSDOF 16
ENDMDL
MODEL 5
REMARK VINA RESULT: -7.135838999      2.685      7.077
REMARK  16 active torsions:
REMARK  status: ('A' for Active; 'I' for Inactive)
REMARK    1  A    between atoms: C2_3  and  O1_4 
REMARK    2  A    between atoms: O1_4  and  C3_5 
REMARK    3  A    between atoms: C3_5  and  C4_7 
REMARK    4  A    between atoms: C4_7  and  C5_8 
REMARK    5  A    between atoms: C5_8  and  C6_9 
REMARK    6  A    between atoms: C6_9  and  C7_10 
REMARK    7  A    between atoms: C10_13  and  O3_14 
REMARK    8  A    between atoms: C12_17  and  O4_18 
REMARK    9  A    between atoms: C13_20  and  C14_21 
REMARK   10  A    between atoms: C14_21  and  C15_22 
REMARK   11  A    between atoms: C16_23  and  C17_24 
REMARK   12  A    between atoms: C17_24  and  C18_25 
REMARK   13  A    between atoms: C18_25  and  N2_26 
REMARK   14  A    between atoms: N2_26  and  C19_29 
REMARK   15  A    between atoms: C19_29  and  C20_30 
REMARK   16  A    between atoms: C20_30  and  O5_31 
ROOT
HETATM    1  N1  UNL     1       9.769  37.064  -2.443  1.00  0.00    -0.189 NA
HETATM    2  C1  UNL     1       9.664  37.969  -3.184  1.00  0.00     0.125 C 
HETATM    3  C2  UNL     1       9.520  39.065  -4.081  1.00  0.00     0.161 C 
HETATM    4  C21 UNL     1       9.052  40.209  -3.630  1.00  0.00    -0.035 C 
HETATM    5  C22 UNL     1       8.899  41.357  -4.559  1.00  0.00     0.038 C 
HETATM    6  C23 UNL     1       7.692  42.197  -4.261  1.00  0.00     0.004 C 
HETATM    7  C24 UNL     1       7.421  42.386  -2.801  1.00  0.00     0.001 C 
HETATM    8  C25 UNL     1       8.549  41.863  -1.934  1.00  0.00     0.004 C 
HETATM    9  C26 UNL     1       8.663  40.383  -2.185  1.00  0.00     0.038 C 
ENDROOT
BRANCH   3  10
HETATM   10  O1  UNL     1       9.872  38.915  -5.400  1.00  0.00    -0.267 OA
BRANCH  10  11
HETATM   11  C3  UNL     1      11.124  38.610  -5.875  1.00  0.00     0.264 C 
HETATM   12  O2  UNL     1      11.445  37.403  -5.951  1.00  0.00    -0.265 OA
BRANCH  11  13
HETATM   13  C4  UNL     1      12.109  39.646  -6.301  1.00  0.00     0.112 C 
BRANCH  13  14
HETATM   14  C5  UNL     1      11.347  40.782  -6.939  1.00  0.00     0.013 C 
BRANCH  14  15
HETATM   15  C6  UNL     1      11.744  41.020  -8.367  1.00  0.00     0.028 C 
BRANCH  15  16
HETATM   16  C7  UNL     1      13.074  41.645  -8.520  1.00  0.00    -0.023 C 
HETATM   17  C8  UNL     1      14.026  41.259  -9.329  1.00  0.00    -0.074 C 
HETATM   18  C9  UNL     1      15.311  41.976  -9.382  1.00  0.00     0.066 C 
HETATM   19  C13 UNL     1      13.850  40.098 -10.217  1.00  0.00     0.046 C 
HETATM   20  C10 UNL     1      15.497  42.485 -10.789  1.00  0.00     0.124 C 
HETATM   21  C11 UNL     1      15.041  41.549 -11.856  1.00  0.00     0.064 C 
HETATM   22  C12 UNL     1      14.919  40.167 -11.313  1.00  0.00     0.129 C 
BRANCH  20  23
HETATM   23  O3  UNL     1      16.843  42.816 -11.025  1.00  0.00    -0.395 OA
ATOM     24  H3  UNL     1      17.384  42.036 -11.039  1.00  0.00     0.210 HD
ENDBRANCH  20  23
BRANCH  22  25
HETATM   25  O4  UNL     1      16.141  39.673 -10.868  1.00  0.00    -0.395 OA
ATOM     26  H4  UNL     1      16.032  38.970 -10.238  1.00  0.00     0.210 HD
ENDBRANCH  22  25
BRANCH  19  27
HETATM   27  C14 UNL     1      14.021  38.772  -9.529  1.00  0.00     0.038 C 
BRANCH  27  28
HETATM   28  C15 UNL     1      13.363  37.735 -10.368  1.00  0.00    -0.030 C 
HETATM   29  C16 UNL     1      14.058  36.903 -11.135  1.00  0.00    -0.029 C 
BRANCH  29  30
HETATM   30  C17 UNL     1      13.422  35.865 -11.977  1.00  0.00     0.054 C 
BRANCH  30  31
HETATM   31  C18 UNL     1      14.017  35.892 -13.361  1.00  0.00     0.236 C 
BRANCH  31  32
HETATM   32  N2  UNL     1      14.985  36.962 -13.412  1.00  0.00    -0.073 N 
ATOM     33  H22 UNL     1      14.524  37.853 -13.594  1.00  0.00     0.277 HD
ATOM     34  H21 UNL     1      15.362  37.149 -12.483  1.00  0.00     0.277 HD
BRANCH  32  35
HETATM   35  C19 UNL     1      16.045  36.745 -14.350  1.00  0.00     0.258 C 
BRANCH  35  36
HETATM   36  C20 UNL     1      17.336  36.528 -13.608  1.00  0.00     0.191 C 
BRANCH  36  37
HETATM   37  O5  UNL     1      17.351  37.395 -12.517  1.00  0.00    -0.399 OA
ATOM     38  H5  UNL     1      17.178  36.881 -11.736  1.00  0.00     0.209 HD
ENDBRANCH  36  37
ENDBRANCH  35  36
ENDBRANCH  32  35
ENDBRANCH  31  32
ENDBRANCH  30  31
ENDBRANCH  29  30
ENDBRANCH  27  28
ENDBRANCH  19  27
ENDBRANCH  15  16
ENDBRANCH  14  15
ENDBRANCH  13  14
ENDBRANCH  11  13
ENDBRANCH  10  11
ENDBRANCH   3  10
TORSDOF 16
ENDMDL
