MODEL 1
REMARK VINA RESULT: -7.676904433      0.000      0.000
REMARK  12 active torsions:
REMARK  status: ('A' for Active; 'I' for Inactive)
REMARK    1  A    between atoms: O1_3  and  C2_4 
REMARK    2  A    between atoms: C4_6  and  O2_7 
REMARK    3  A    between atoms: C6_12  and  C7_13 
REMARK    4  A    between atoms: C7_13  and  C8_14 
REMARK    5  A    between atoms: C8_14  and  C9_15 
REMARK    6  A    between atoms: C9_15  and  C10_16 
REMARK    7  A    between atoms: C10_16  and  C11_17 
REMARK    8  A    between atoms: C11_17  and  N3_18 
REMARK       I    between atoms: N3_18  and  C12_20 
REMARK    9  A    between atoms: C13_25  and  S1_26 
REMARK   10  A    between atoms: S1_26  and  C14_27 
REMARK   11  A    between atoms: C14_27  and  C15_28 
REMARK   12  A    between atoms: C15_28  and  N6_29 
ROOT
HETATM    1  N1  UNL     1       9.883  38.045  -4.985  1.00  0.00    -0.164 NA
HETATM    2  C1  UNL     1      10.408  38.954  -5.510  1.00  0.00     0.234 C 
HETATM    3  O1  UNL     1      11.032  40.012  -6.110  1.00  0.00    -0.240 OA
ENDROOT
BRANCH   3   4
HETATM    4  C2  UNL     1      11.843  39.810  -7.227  1.00  0.00     0.092 A 
HETATM    5  C3  UNL     1      12.645  38.690  -7.272  1.00  0.00     0.077 A 
HETATM    6  C4  UNL     1      13.463  38.452  -8.360  1.00  0.00     0.096 A 
HETATM    7  C5  UNL     1      13.507  39.313  -9.426  1.00  0.00     0.077 A 
HETATM    8  N2  UNL     1      14.216  39.315 -10.592  1.00  0.00    -0.355 N 
HETATM    9  C21 UNL     1      12.715  40.437  -9.399  1.00  0.00     0.015 A 
HETATM   10  C6  UNL     1      13.916  40.394 -11.324  1.00  0.00     0.027 A 
ATOM     11  H2  UNL     1      14.881  38.593 -10.868  1.00  0.00     0.166 HD
HETATM   12  C13 UNL     1      12.969  41.098 -10.567  1.00  0.00     0.035 A 
HETATM   13  C22 UNL     1      11.886  40.677  -8.296  1.00  0.00     0.053 A 
BRANCH   6  14
HETATM   14  O2  UNL     1      14.247  37.320  -8.365  1.00  0.00    -0.358 OA
ATOM     15  H2  UNL     1      15.054  37.320  -7.863  1.00  0.00     0.217 HD
ENDBRANCH   6  14
BRANCH  10  16
HETATM   16  C7  UNL     1      14.404  40.818 -12.661  1.00  0.00     0.058 C 
BRANCH  16  17
HETATM   17  C8  UNL     1      15.107  39.767 -13.416  1.00  0.00     0.006 C 
BRANCH  17  18
HETATM   18  C9  UNL     1      14.203  38.851 -14.173  1.00  0.00     0.002 C 
BRANCH  18  19
HETATM   19  C10 UNL     1      14.616  37.398 -14.034  1.00  0.00     0.020 C 
BRANCH  19  20
HETATM   20  C11 UNL     1      15.697  37.177 -13.021  1.00  0.00     0.122 C 
BRANCH  20  21
HETATM   21  N3  UNL     1      15.409  36.000 -12.242  1.00  0.00    -0.365 N 
HETATM   22  C12 UNL     1      14.076  35.617 -11.983  1.00  0.00     0.181 C 
HETATM   23  N4  UNL     1      13.625  34.550 -12.552  1.00  0.00    -0.374 N 
HETATM   24  N5  UNL     1      13.189  36.330 -11.126  1.00  0.00    -0.064 NA
ATOM     25  H42 UNL     1      14.260  34.040 -13.166  1.00  0.00     0.158 HD
ATOM     26  H41 UNL     1      12.661  34.273 -12.365  1.00  0.00     0.158 HD
ATOM     27  H3  UNL     1      16.176  35.438 -11.875  1.00  0.00     0.162 HD
ENDBRANCH  20  21
ENDBRANCH  19  20
ENDBRANCH  18  19
ENDBRANCH  17  18
ENDBRANCH  16  17
ENDBRANCH  10  16
BRANCH  12  28
HETATM   28  S1  UNL     1      12.258  42.637 -11.107  1.00  0.00    -0.125 SA
BRANCH  28  29
HETATM   29  C14 UNL     1      13.460  43.947 -10.656  1.00  0.00     0.099 C 
BRANCH  29  30
HETATM   30  C15 UNL     1      13.920  43.830  -9.239  1.00  0.00     0.136 C 
BRANCH  30  31
HETATM   31  N6  UNL     1      15.367  43.732  -9.244  1.00  0.00    -0.351 N 
HETATM   32  C16 UNL     1      16.115  43.209 -10.363  1.00  0.00     0.126 C 
HETATM   33  C17 UNL     1      17.587  43.127  -9.955  1.00  0.00     0.020 C 
HETATM   34  C18 UNL     1      18.049  44.511  -9.545  1.00  0.00     0.011 C 
HETATM   35  C19 UNL     1      17.457  44.792  -8.180  1.00  0.00     0.103 C 
HETATM   36  C20 UNL     1      16.116  44.171  -8.094  1.00  0.00     0.219 C 
HETATM   37  O3  UNL     1      15.589  44.014  -6.942  1.00  0.00    -0.273 OA
ENDBRANCH  30  31
ENDBRANCH  29  30
ENDBRANCH  28  29
ENDBRANCH  12  28
ENDBRANCH   3   4
TORSDOF 12
ENDMDL
MODEL 2
REMARK VINA RESULT: -7.658298809      2.890      6.604
REMARK  12 active torsions:
REMARK  status: ('A' for Active; 'I' for Inactive)
REMARK    1  A    between atoms: O1_3  and  C2_4 
REMARK    2  A    between atoms: C4_6  and  O2_7 
REMARK    3  A    between atoms: C6_12  and  C7_13 
REMARK    4  A    between atoms: C7_13  and  C8_14 
REMARK    5  A    between atoms: C8_14  and  C9_15 
REMARK    6  A    between atoms: C9_15  and  C10_16 
REMARK    7  A    between atoms: C10_16  and  C11_17 
REMARK    8  A    between atoms: C11_17  and  N3_18 
REMARK       I    between atoms: N3_18  and  C12_20 
REMARK    9  A    between atoms: C13_25  and  S1_26 
REMARK   10  A    between atoms: S1_26  and  C14_27 
REMARK   11  A    between atoms: C14_27  and  C15_28 
REMARK   12  A    between atoms: C15_28  and  N6_29 
ROOT
HETATM    1  N1  UNL     1       8.369  38.488  -3.864  1.00  0.00    -0.164 NA
HETATM    2  C1  UNL     1       9.411  38.211  -4.326  1.00  0.00     0.234 C 
HETATM    3  O1  UNL     1      10.617  37.877  -4.876  1.00  0.00    -0.240 OA
ENDROOT
BRANCH   3   4
HETATM    4  C2  UNL     1      11.187  38.678  -5.866  1.00  0.00     0.092 A 
HETATM    5  C3  UNL     1      10.886  40.023  -5.887  1.00  0.00     0.077 A 
HETATM    6  C4  UNL     1      11.428  40.851  -6.850  1.00  0.00     0.096 A 
HETATM    7  C5  UNL     1      12.278  40.372  -7.813  1.00  0.00     0.077 A 
HETATM    8  N2  UNL     1      12.930  40.961  -8.857  1.00  0.00    -0.355 N 
HETATM    9  C21 UNL     1      12.590  39.032  -7.809  1.00  0.00     0.015 A 
HETATM   10  C6  UNL     1      13.651  40.060  -9.532  1.00  0.00     0.027 A 
ATOM     11  H2  UNL     1      12.875  41.952  -9.090  1.00  0.00     0.166 HD
HETATM   12  C13 UNL     1      13.433  38.844  -8.867  1.00  0.00     0.035 A 
HETATM   13  C22 UNL     1      12.040  38.193  -6.832  1.00  0.00     0.053 A 
BRANCH   6  14
HETATM   14  O2  UNL     1      11.103  42.189  -6.833  1.00  0.00    -0.358 OA
ATOM     15  H2  UNL     1      10.693  42.570  -7.600  1.00  0.00     0.217 HD
ENDBRANCH   6  14
BRANCH  10  16
HETATM   16  C7  UNL     1      14.537  40.222 -10.713  1.00  0.00     0.058 C 
BRANCH  16  17
HETATM   17  C8  UNL     1      13.860  40.725 -11.920  1.00  0.00     0.006 C 
BRANCH  17  18
HETATM   18  C9  UNL     1      13.882  42.211 -12.057  1.00  0.00     0.002 C 
BRANCH  18  19
HETATM   19  C10 UNL     1      12.495  42.785 -12.273  1.00  0.00     0.020 C 
BRANCH  19  20
HETATM   20  C11 UNL     1      11.956  43.514 -11.081  1.00  0.00     0.122 C 
BRANCH  20  21
HETATM   21  N3  UNL     1      10.702  42.933 -10.673  1.00  0.00    -0.365 N 
HETATM   22  C12 UNL     1       9.713  43.722 -10.049  1.00  0.00     0.181 C 
HETATM   23  N4  UNL     1       8.630  43.975 -10.704  1.00  0.00    -0.374 N 
HETATM   24  N5  UNL     1       9.825  44.257  -8.734  1.00  0.00    -0.064 NA
ATOM     25  H42 UNL     1       8.549  43.591 -11.646  1.00  0.00     0.158 HD
ATOM     26  H41 UNL     1       7.914  44.545 -10.253  1.00  0.00     0.158 HD
ATOM     27  H3  UNL     1      10.529  41.942 -10.837  1.00  0.00     0.162 HD
ENDBRANCH  20  21
ENDBRANCH  19  20
ENDBRANCH  18  19
ENDBRANCH  17  18
ENDBRANCH  16  17
ENDBRANCH  10  16
BRANCH  12  28
HETATM   28  S1  UNL     1      14.169  37.313  -9.395  1.00  0.00    -0.125 SA
BRANCH  28  29
HETATM   29  C14 UNL     1      13.300  36.828 -10.935  1.00  0.00     0.099 C 
BRANCH  29  30
HETATM   30  C15 UNL     1      14.056  35.796 -11.711  1.00  0.00     0.136 C 
BRANCH  30  31
HETATM   31  N6  UNL     1      14.423  36.377 -12.988  1.00  0.00    -0.351 N 
HETATM   32  C16 UNL     1      15.335  37.491 -13.111  1.00  0.00     0.126 C 
HETATM   33  C17 UNL     1      15.369  37.917 -14.580  1.00  0.00     0.020 C 
HETATM   34  C18 UNL     1      15.793  36.725 -15.415  1.00  0.00     0.011 C 
HETATM   35  C19 UNL     1      14.608  35.786 -15.486  1.00  0.00     0.103 C 
HETATM   36  C20 UNL     1      13.870  35.836 -14.204  1.00  0.00     0.219 C 
HETATM   37  O3  UNL     1      12.681  35.376 -14.166  1.00  0.00    -0.273 OA
ENDBRANCH  30  31
ENDBRANCH  29  30
ENDBRANCH  28  29
ENDBRANCH  12  28
ENDBRANCH   3   4
TORSDOF 12
ENDMDL
MODEL 3
REMARK VINA RESULT: -7.642942606      2.232      6.815
REMARK  12 active torsions:
REMARK  status: ('A' for Active; 'I' for Inactive)
REMARK    1  A    between atoms: O1_3  and  C2_4 
REMARK    2  A    between atoms: C4_6  and  O2_7 
REMARK    3  A    between atoms: C6_12  and  C7_13 
REMARK    4  A    between atoms: C7_13  and  C8_14 
REMARK    5  A    between atoms: C8_14  and  C9_15 
REMARK    6  A    between atoms: C9_15  and  C10_16 
REMARK    7  A    between atoms: C10_16  and  C11_17 
REMARK    8  A    between atoms: C11_17  and  N3_18 
REMARK       I    between atoms: N3_18  and  C12_20 
REMARK    9  A    between atoms: C13_25  and  S1_26 
REMARK   10  A    between atoms: S1_26  and  C14_27 
REMARK   11  A    between atoms: C14_27  and  C15_28 
REMARK   12  A    between atoms: C15_28  and  N6_29 
ROOT
HETATM    1  N1  UNL     1       8.378  38.483  -3.705  1.00  0.00    -0.164 NA
HETATM    2  C1  UNL     1       9.380  38.189  -4.239  1.00  0.00     0.234 C 
HETATM    3  O1  UNL     1      10.538  37.837  -4.874  1.00  0.00    -0.240 OA
ENDROOT
BRANCH   3   4
HETATM    4  C2  UNL     1      11.096  38.676  -5.840  1.00  0.00     0.092 A 
HETATM    5  C3  UNL     1      10.773  40.015  -5.822  1.00  0.00     0.077 A 
HETATM    6  C4  UNL     1      11.303  40.880  -6.759  1.00  0.00     0.096 A 
HETATM    7  C5  UNL     1      12.163  40.444  -7.734  1.00  0.00     0.077 A 
HETATM    8  N2  UNL     1      12.807  41.074  -8.758  1.00  0.00    -0.355 N 
HETATM    9  C21 UNL     1      12.497  39.110  -7.768  1.00  0.00     0.015 A 
HETATM   10  C6  UNL     1      13.545  40.205  -9.457  1.00  0.00     0.027 A 
ATOM     11  H2  UNL     1      12.736  42.071  -8.963  1.00  0.00     0.166 HD
HETATM   12  C13 UNL     1      13.346  38.967  -8.829  1.00  0.00     0.035 A 
HETATM   13  C22 UNL     1      11.959  38.233  -6.817  1.00  0.00     0.053 A 
BRANCH   6  14
HETATM   14  O2  UNL     1      10.955  42.212  -6.704  1.00  0.00    -0.358 OA
ATOM     15  H2  UNL     1      10.212  42.512  -7.214  1.00  0.00     0.217 HD
ENDBRANCH   6  14
BRANCH  10  16
HETATM   16  C7  UNL     1      14.431  40.416 -10.630  1.00  0.00     0.058 C 
BRANCH  16  17
HETATM   17  C8  UNL     1      15.090  41.733 -10.669  1.00  0.00     0.006 C 
BRANCH  17  18
HETATM   18  C9  UNL     1      16.160  41.910  -9.643  1.00  0.00     0.002 C 
BRANCH  18  19
HETATM   19  C10 UNL     1      16.759  43.303  -9.678  1.00  0.00     0.020 C 
BRANCH  19  20
HETATM   20  C11 UNL     1      16.507  44.094  -8.432  1.00  0.00     0.122 C 
BRANCH  20  21
HETATM   21  N3  UNL     1      15.126  44.500  -8.377  1.00  0.00    -0.365 N 
HETATM   22  C12 UNL     1      14.391  44.390  -7.178  1.00  0.00     0.181 C 
HETATM   23  N4  UNL     1      14.052  45.475  -6.567  1.00  0.00    -0.374 N 
HETATM   24  N5  UNL     1      13.989  43.154  -6.595  1.00  0.00    -0.064 NA
ATOM     25  H42 UNL     1      14.339  46.360  -6.985  1.00  0.00     0.158 HD
ATOM     26  H41 UNL     1      13.519  45.395  -5.700  1.00  0.00     0.158 HD
ATOM     27  H3  UNL     1      14.676  44.872  -9.213  1.00  0.00     0.162 HD
ENDBRANCH  20  21
ENDBRANCH  19  20
ENDBRANCH  18  19
ENDBRANCH  17  18
ENDBRANCH  16  17
ENDBRANCH  10  16
BRANCH  12  28
HETATM   28  S1  UNL     1      14.109  37.464  -9.399  1.00  0.00    -0.125 SA
BRANCH  28  29
HETATM   29  C14 UNL     1      13.160  36.932 -10.875  1.00  0.00     0.099 C 
BRANCH  29  30
HETATM   30  C15 UNL     1      13.943  36.005 -11.748  1.00  0.00     0.136 C 
BRANCH  30  31
HETATM   31  N6  UNL     1      14.151  36.660 -13.024  1.00  0.00    -0.351 N 
HETATM   32  C16 UNL     1      14.753  37.968 -13.147  1.00  0.00     0.126 C 
HETATM   33  C17 UNL     1      14.677  38.390 -14.616  1.00  0.00     0.020 C 
HETATM   34  C18 UNL     1      15.386  37.344 -15.453  1.00  0.00     0.011 C 
HETATM   35  C19 UNL     1      14.475  36.137 -15.524  1.00  0.00     0.103 C 
HETATM   36  C20 UNL     1      13.750  35.999 -14.240  1.00  0.00     0.219 C 
HETATM   37  O3  UNL     1      12.714  35.254 -14.202  1.00  0.00    -0.273 OA
ENDBRANCH  30  31
ENDBRANCH  29  30
ENDBRANCH  28  29
ENDBRANCH  12  28
ENDBRANCH   3   4
TORSDOF 12
ENDMDL
MODEL 4
REMARK VINA RESULT: -7.523952305      2.655      6.909
REMARK  12 active torsions:
REMARK  status: ('A' for Active; 'I' for Inactive)
REMARK    1  A    between atoms: O1_3  and  C2_4 
REMARK    2  A    between atoms: C4_6  and  O2_7 
REMARK    3  A    between atoms: C6_12  and  C7_13 
REMARK    4  A    between atoms: C7_13  and  C8_14 
REMARK    5  A    between atoms: C8_14  and  C9_15 
REMARK    6  A    between atoms: C9_15  and  C10_16 
REMARK    7  A    between atoms: C10_16  and  C11_17 
REMARK    8  A    between atoms: C11_17  and  N3_18 
REMARK       I    between atoms: N3_18  and  C12_20 
REMARK    9  A    between atoms: C13_25  and  S1_26 
REMARK   10  A    between atoms: S1_26  and  C14_27 
REMARK   11  A    between atoms: C14_27  and  C15_28 
REMARK   12  A    between atoms: C15_28  and  N6_29 
ROOT
HETATM    1  N1  UNL     1      13.100  37.448 -18.008  1.00  0.00    -0.164 NA
HETATM    2  C1  UNL     1      13.815  37.051 -17.166  1.00  0.00     0.234 C 
HETATM    3  O1  UNL     1      14.656  36.603 -16.186  1.00  0.00    -0.240 OA
ENDROOT
BRANCH   3   4
HETATM    4  C2  UNL     1      14.275  36.672 -14.845  1.00  0.00     0.092 A 
HETATM    5  C3  UNL     1      13.797  35.534 -14.232  1.00  0.00     0.077 A 
HETATM    6  C4  UNL     1      13.410  35.558 -12.906  1.00  0.00     0.096 A 
HETATM    7  C5  UNL     1      13.485  36.704 -12.157  1.00  0.00     0.077 A 
HETATM    8  N2  UNL     1      13.168  36.993 -10.862  1.00  0.00    -0.355 N 
HETATM    9  C21 UNL     1      13.959  37.850 -12.752  1.00  0.00     0.015 A 
HETATM   10  C6  UNL     1      13.415  38.278 -10.591  1.00  0.00     0.027 A 
ATOM     11  H2  UNL     1      12.794  36.320 -10.192  1.00  0.00     0.166 HD
HETATM   12  C13 UNL     1      13.914  38.815 -11.787  1.00  0.00     0.035 A 
HETATM   13  C22 UNL     1      14.352  37.825 -14.096  1.00  0.00     0.053 A 
BRANCH   6  14
HETATM   14  O2  UNL     1      12.939  34.398 -12.331  1.00  0.00    -0.358 OA
ATOM     15  H2  UNL     1      12.009  34.320 -12.154  1.00  0.00     0.217 HD
ENDBRANCH   6  14
BRANCH  10  16
HETATM   16  C7  UNL     1      13.257  39.046  -9.329  1.00  0.00     0.058 C 
BRANCH  16  17
HETATM   17  C8  UNL     1      12.792  38.247  -8.182  1.00  0.00     0.006 C 
BRANCH  17  18
HETATM   18  C9  UNL     1      12.009  39.023  -7.176  1.00  0.00     0.002 C 
BRANCH  18  19
HETATM   19  C10 UNL     1      11.635  38.181  -5.971  1.00  0.00     0.020 C 
BRANCH  19  20
HETATM   20  C11 UNL     1      10.706  38.874  -5.022  1.00  0.00     0.122 C 
BRANCH  20  21
HETATM   21  N3  UNL     1      11.174  38.713  -3.669  1.00  0.00    -0.365 N 
HETATM   22  C12 UNL     1      10.264  38.480  -2.616  1.00  0.00     0.181 C 
HETATM   23  N4  UNL     1      10.261  37.317  -2.057  1.00  0.00    -0.374 N 
HETATM   24  N5  UNL     1       9.345  39.448  -2.121  1.00  0.00    -0.064 NA
ATOM     25  H42 UNL     1      10.920  36.622  -2.412  1.00  0.00     0.158 HD
ATOM     26  H41 UNL     1       9.604  37.147  -1.296  1.00  0.00     0.158 HD
ATOM     27  H3  UNL     1      12.172  38.768  -3.471  1.00  0.00     0.162 HD
ENDBRANCH  20  21
ENDBRANCH  19  20
ENDBRANCH  18  19
ENDBRANCH  17  18
ENDBRANCH  16  17
ENDBRANCH  10  16
BRANCH  12  28
HETATM   28  S1  UNL     1      14.384  40.524 -11.952  1.00  0.00    -0.125 SA
BRANCH  28  29
HETATM   29  C14 UNL     1      15.988  40.703 -11.082  1.00  0.00     0.099 C 
BRANCH  29  30
HETATM   30  C15 UNL     1      15.954  41.784 -10.050  1.00  0.00     0.136 C 
BRANCH  30  31
HETATM   31  N6  UNL     1      17.225  42.481 -10.090  1.00  0.00    -0.351 N 
HETATM   32  C16 UNL     1      18.361  42.002 -10.844  1.00  0.00     0.126 C 
HETATM   33  C17 UNL     1      19.554  42.908 -10.534  1.00  0.00     0.020 C 
HETATM   34  C18 UNL     1      19.180  44.332 -10.893  1.00  0.00     0.011 C 
HETATM   35  C19 UNL     1      18.239  44.831  -9.816  1.00  0.00     0.103 C 
HETATM   36  C20 UNL     1      17.389  43.710  -9.356  1.00  0.00     0.219 C 
HETATM   37  O3  UNL     1      16.764  43.833  -8.250  1.00  0.00    -0.273 OA
ENDBRANCH  30  31
ENDBRANCH  29  30
ENDBRANCH  28  29
ENDBRANCH  12  28
ENDBRANCH   3   4
TORSDOF 12
ENDMDL
MODEL 5
REMARK VINA RESULT: -7.474847967      2.459      5.595
REMARK  12 active torsions:
REMARK  status: ('A' for Active; 'I' for Inactive)
REMARK    1  A    between atoms: O1_3  and  C2_4 
REMARK    2  A    between atoms: C4_6  and  O2_7 
REMARK    3  A    between atoms: C6_12  and  C7_13 
REMARK    4  A    between atoms: C7_13  and  C8_14 
REMARK    5  A    between atoms: C8_14  and  C9_15 
REMARK    6  A    between atoms: C9_15  and  C10_16 
REMARK    7  A    between atoms: C10_16  and  C11_17 
REMARK    8  A    between atoms: C11_17  and  N3_18 
REMARK       I    between atoms: N3_18  and  C12_20 
REMARK    9  A    between atoms: C13_25  and  S1_26 
REMARK   10  A    between atoms: S1_26  and  C14_27 
REMARK   11  A    between atoms: C14_27  and  C15_28 
REMARK   12  A    between atoms: C15_28  and  N6_29 
ROOT
HETATM    1  N1  UNL     1      13.641  35.999 -15.541  1.00  0.00    -0.164 NA
HETATM    2  C1  UNL     1      13.632  35.800 -14.385  1.00  0.00     0.234 C 
HETATM    3  O1  UNL     1      13.639  35.565 -13.039  1.00  0.00    -0.240 OA
ENDROOT
BRANCH   3   4
HETATM    4  C2  UNL     1      13.812  36.618 -12.140  1.00  0.00     0.092 A 
HETATM    5  C3  UNL     1      13.996  36.328 -10.805  1.00  0.00     0.077 A 
HETATM    6  C4  UNL     1      14.172  37.340  -9.882  1.00  0.00     0.096 A 
HETATM    7  C5  UNL     1      14.171  38.660 -10.255  1.00  0.00     0.077 A 
HETATM    8  N2  UNL     1      14.314  39.825  -9.559  1.00  0.00    -0.355 N 
HETATM    9  C21 UNL     1      13.988  38.969 -11.583  1.00  0.00     0.015 A 
HETATM   10  C6  UNL     1      14.230  40.877 -10.379  1.00  0.00     0.027 A 
ATOM     11  H2  UNL     1      14.463  39.884  -8.552  1.00  0.00     0.166 HD
HETATM   12  C13 UNL     1      14.025  40.332 -11.655  1.00  0.00     0.035 A 
HETATM   13  C22 UNL     1      13.810  37.942 -12.518  1.00  0.00     0.053 A 
BRANCH   6  14
HETATM   14  O2  UNL     1      14.354  37.007  -8.558  1.00  0.00    -0.358 OA
ATOM     15  H2  UNL     1      13.950  37.547  -7.890  1.00  0.00     0.217 HD
ENDBRANCH   6  14
BRANCH  10  16
HETATM   16  C7  UNL     1      14.346  42.331 -10.097  1.00  0.00     0.058 C 
BRANCH  16  17
HETATM   17  C8  UNL     1      14.874  42.654  -8.760  1.00  0.00     0.006 C 
BRANCH  17  18
HETATM   18  C9  UNL     1      13.831  43.063  -7.775  1.00  0.00     0.002 C 
BRANCH  18  19
HETATM   19  C10 UNL     1      13.513  41.956  -6.788  1.00  0.00     0.020 C 
BRANCH  19  20
HETATM   20  C11 UNL     1      12.199  41.284  -7.045  1.00  0.00     0.122 C 
BRANCH  20  21
HETATM   21  N3  UNL     1      11.999  40.215  -6.100  1.00  0.00    -0.365 N 
HETATM   22  C12 UNL     1      11.885  38.879  -6.538  1.00  0.00     0.181 C 
HETATM   23  N4  UNL     1      12.845  38.061  -6.262  1.00  0.00    -0.374 N 
HETATM   24  N5  UNL     1      10.773  38.365  -7.265  1.00  0.00    -0.064 NA
ATOM     25  H42 UNL     1      13.642  38.429  -5.741  1.00  0.00     0.158 HD
ATOM     26  H41 UNL     1      12.763  37.095  -6.578  1.00  0.00     0.158 HD
ATOM     27  H3  UNL     1      11.939  40.427  -5.104  1.00  0.00     0.162 HD
ENDBRANCH  20  21
ENDBRANCH  19  20
ENDBRANCH  18  19
ENDBRANCH  17  18
ENDBRANCH  16  17
ENDBRANCH  10  16
BRANCH  12  28
HETATM   28  S1  UNL     1      13.831  41.337 -13.110  1.00  0.00    -0.125 SA
BRANCH  28  29
HETATM   29  C14 UNL     1      15.289  40.998 -14.169  1.00  0.00     0.099 C 
BRANCH  29  30
HETATM   30  C15 UNL     1      16.306  42.092 -14.099  1.00  0.00     0.136 C 
BRANCH  30  31
HETATM   31  N6  UNL     1      16.958  42.015 -12.806  1.00  0.00    -0.351 N 
HETATM   32  C16 UNL     1      17.409  40.771 -12.226  1.00  0.00     0.126 C 
HETATM   33  C17 UNL     1      17.911  41.061 -10.810  1.00  0.00     0.020 C 
HETATM   34  C18 UNL     1      19.016  42.095 -10.896  1.00  0.00     0.011 C 
HETATM   35  C19 UNL     1      18.358  43.430 -11.173  1.00  0.00     0.103 C 
HETATM   36  C20 UNL     1      17.181  43.219 -12.046  1.00  0.00     0.219 C 
HETATM   37  O3  UNL     1      16.313  44.151 -12.135  1.00  0.00    -0.273 OA
ENDBRANCH  30  31
ENDBRANCH  29  30
ENDBRANCH  28  29
ENDBRANCH  12  28
ENDBRANCH   3   4
TORSDOF 12
ENDMDL
