MODEL 1
REMARK VINA RESULT: -6.868571878      0.000      0.000
REMARK  15 active torsions:
REMARK  status: ('A' for Active; 'I' for Inactive)
REMARK    1  A    between atoms: C4_4  and  N1_5 
REMARK    2  A    between atoms: N1_5  and  C5_7 
REMARK    3  A    between atoms: C5_7  and  C6_8 
REMARK    4  A    between atoms: C6_8  and  C7_9 
REMARK    5  A    between atoms: C7_9  and  C8_10 
REMARK    6  A    between atoms: C8_10  and  C9_11 
REMARK    7  A    between atoms: C9_11  and  C10_12 
REMARK    8  A    between atoms: C10_12  and  C11_13 
REMARK    9  A    between atoms: C11_13  and  C12_14 
REMARK   10  A    between atoms: C12_14  and  C13_15 
REMARK   11  A    between atoms: C13_15  and  C14_16 
REMARK   12  A    between atoms: C14_16  and  N2_17 
REMARK   13  A    between atoms: N2_17  and  C15_19 
REMARK   14  A    between atoms: C21_27  and  O2_28 
REMARK   15  A    between atoms: C22_32  and  N4_33 
ROOT
HETATM    1  C9  UNL     1       8.996  36.152  -1.173  1.00  0.00     0.000 C 
ENDROOT
BRANCH   1   2
HETATM    2  C8  UNL     1       9.533  36.863  -2.343  1.00  0.00     0.000 C 
BRANCH   2   3
HETATM    3  C7  UNL     1       8.805  37.864  -3.118  1.00  0.00     0.002 C 
BRANCH   3   4
HETATM    4  C6  UNL     1       9.275  38.312  -4.449  1.00  0.00     0.020 C 
BRANCH   4   5
HETATM    5  C5  UNL     1      10.801  38.609  -4.391  1.00  0.00     0.121 C 
BRANCH   5   6
HETATM    6  N1  UNL     1      11.119  39.718  -5.229  1.00  0.00    -0.376 N 
ATOM      7  H1  UNL     1      10.890  40.638  -4.855  1.00  0.00     0.161 HD
BRANCH   6   8
HETATM    8  C4  UNL     1      11.652  39.705  -6.383  1.00  0.00     0.118 A 
HETATM    9  C3  UNL     1      11.487  40.752  -7.272  1.00  0.00     0.073 A 
HETATM   10  C2  UNL     1      12.050  40.758  -8.514  1.00  0.00     0.026 A 
HETATM   11  C1  UNL     1      11.890  41.868  -9.487  1.00  0.00     0.069 C 
HETATM   12  N5  UNL     1      12.795  39.704  -8.892  1.00  0.00    -0.196 N 
HETATM   13  C22 UNL     1      12.963  38.685  -8.048  1.00  0.00     0.677 A 
ATOM     14  H5  UNL     1      13.227  39.684  -9.816  1.00  0.00     0.184 HD
HETATM   15  N3  UNL     1      12.404  38.680  -6.813  1.00  0.00    -0.177 N 
ATOM     16  H3  UNL     1      12.559  37.882  -6.198  1.00  0.00     0.185 HD
BRANCH  13  17
HETATM   17  N4  UNL     1      13.670  37.661  -8.375  1.00  0.00    -0.234 N 
ATOM     18  H42 UNL     1      14.632  37.560  -8.054  1.00  0.00     0.174 HD
ATOM     19  H41 UNL     1      13.224  36.958  -8.966  1.00  0.00     0.174 HD
ENDBRANCH  13  17
ENDBRANCH   6   8
ENDBRANCH   5   6
ENDBRANCH   4   5
ENDBRANCH   3   4
ENDBRANCH   2   3
ENDBRANCH   1   2
BRANCH   1  20
HETATM   20  C10 UNL     1       8.736  36.999   0.022  1.00  0.00     0.000 C 
BRANCH  20  21
HETATM   21  C11 UNL     1       9.885  38.015   0.214  1.00  0.00     0.000 C 
BRANCH  21  22
HETATM   22  C12 UNL     1       9.388  39.405   0.190  1.00  0.00     0.002 C 
BRANCH  22  23
HETATM   23  C13 UNL     1      10.104  40.304  -0.781  1.00  0.00     0.019 C 
BRANCH  23  24
HETATM   24  C14 UNL     1       9.241  41.432  -1.293  1.00  0.00     0.114 C 
BRANCH  24  25
HETATM   25  N2  UNL     1       9.048  41.417  -2.695  1.00  0.00    -0.413 N 
ATOM     26  H2  UNL     1       9.589  40.808  -3.308  1.00  0.00     0.153 HD
BRANCH  25  27
HETATM   27  C15 UNL     1       8.054  42.302  -3.199  1.00  0.00     0.133 C 
HETATM   28  C16 UNL     1       8.352  43.757  -3.042  1.00  0.00     0.197 C 
HETATM   29  O1  UNL     1       7.366  44.333  -3.855  1.00  0.00    -0.364 OA
HETATM   30  C17 UNL     1       7.408  43.598  -5.011  1.00  0.00     0.136 C 
HETATM   31  C18 UNL     1       6.091  43.590  -5.760  1.00  0.00     0.053 C 
HETATM   32  S1  UNL     1       8.441  44.496  -6.235  1.00  0.00    -0.129 SA
HETATM   33  C21 UNL     1       7.927  42.225  -4.722  1.00  0.00     0.187 C 
HETATM   34  C19 UNL     1       5.895  44.984  -6.272  1.00  0.00     0.014 C 
HETATM   35  C20 UNL     1       7.081  45.363  -7.119  1.00  0.00     0.077 C 
BRANCH  33  36
HETATM   36  O2  UNL     1       9.193  42.056  -5.255  1.00  0.00    -0.390 OA
ATOM     37  H2  UNL     1       9.238  42.536  -6.074  1.00  0.00     0.210 HD
ENDBRANCH  33  36
ENDBRANCH  25  27
ENDBRANCH  24  25
ENDBRANCH  23  24
ENDBRANCH  22  23
ENDBRANCH  21  22
ENDBRANCH  20  21
ENDBRANCH   1  20
TORSDOF 15
ENDMDL
MODEL 2
REMARK VINA RESULT: -6.820724525      5.109     10.025
REMARK  15 active torsions:
REMARK  status: ('A' for Active; 'I' for Inactive)
REMARK    1  A    between atoms: C4_4  and  N1_5 
REMARK    2  A    between atoms: N1_5  and  C5_7 
REMARK    3  A    between atoms: C5_7  and  C6_8 
REMARK    4  A    between atoms: C6_8  and  C7_9 
REMARK    5  A    between atoms: C7_9  and  C8_10 
REMARK    6  A    between atoms: C8_10  and  C9_11 
REMARK    7  A    between atoms: C9_11  and  C10_12 
REMARK    8  A    between atoms: C10_12  and  C11_13 
REMARK    9  A    between atoms: C11_13  and  C12_14 
REMARK   10  A    between atoms: C12_14  and  C13_15 
REMARK   11  A    between atoms: C13_15  and  C14_16 
REMARK   12  A    between atoms: C14_16  and  N2_17 
REMARK   13  A    between atoms: N2_17  and  C15_19 
REMARK   14  A    between atoms: C21_27  and  O2_28 
REMARK   15  A    between atoms: C22_32  and  N4_33 
ROOT
HETATM    1  C9  UNL     1      13.301  35.829 -13.768  1.00  0.00     0.000 C 
ENDROOT
BRANCH   1   2
HETATM    2  C8  UNL     1      13.551  35.448 -12.370  1.00  0.00     0.000 C 
BRANCH   2   3
HETATM    3  C7  UNL     1      14.109  36.333 -11.350  1.00  0.00     0.002 C 
BRANCH   3   4
HETATM    4  C6  UNL     1      13.260  37.275 -10.586  1.00  0.00     0.020 C 
BRANCH   4   5
HETATM    5  C5  UNL     1      14.101  37.940  -9.459  1.00  0.00     0.121 C 
BRANCH   5   6
HETATM    6  N1  UNL     1      13.554  37.619  -8.182  1.00  0.00    -0.376 N 
ATOM      7  H1  UNL     1      13.775  36.691  -7.824  1.00  0.00     0.161 HD
BRANCH   6   8
HETATM    8  C4  UNL     1      12.826  38.344  -7.434  1.00  0.00     0.118 A 
HETATM    9  C3  UNL     1      12.487  39.639  -7.783  1.00  0.00     0.073 A 
HETATM   10  C2  UNL     1      11.707  40.433  -6.995  1.00  0.00     0.026 A 
HETATM   11  C1  UNL     1      11.327  41.825  -7.347  1.00  0.00     0.069 C 
HETATM   12  N5  UNL     1      11.249  39.941  -5.831  1.00  0.00    -0.196 N 
HETATM   13  C22 UNL     1      11.568  38.695  -5.478  1.00  0.00     0.677 A 
ATOM     14  H5  UNL     1      10.664  40.514  -5.224  1.00  0.00     0.184 HD
HETATM   15  N3  UNL     1      12.342  37.905  -6.262  1.00  0.00    -0.177 N 
ATOM     16  H3  UNL     1      12.562  36.958  -5.955  1.00  0.00     0.185 HD
BRANCH  13  17
HETATM   17  N4  UNL     1      11.148  38.189  -4.371  1.00  0.00    -0.234 N 
ATOM     18  H42 UNL     1      10.166  38.248  -4.104  1.00  0.00     0.174 HD
ATOM     19  H41 UNL     1      11.839  37.730  -3.779  1.00  0.00     0.174 HD
ENDBRANCH  13  17
ENDBRANCH   6   8
ENDBRANCH   5   6
ENDBRANCH   4   5
ENDBRANCH   3   4
ENDBRANCH   2   3
ENDBRANCH   1   2
BRANCH   1  20
HETATM   20  C10 UNL     1      14.501  36.256 -14.535  1.00  0.00     0.000 C 
BRANCH  20  21
HETATM   21  C11 UNL     1      14.291  37.680 -15.101  1.00  0.00     0.000 C 
BRANCH  21  22
HETATM   22  C12 UNL     1      14.599  38.712 -14.091  1.00  0.00     0.002 C 
BRANCH  22  23
HETATM   23  C13 UNL     1      16.042  38.755 -13.666  1.00  0.00     0.019 C 
BRANCH  23  24
HETATM   24  C14 UNL     1      16.687  40.101 -13.891  1.00  0.00     0.114 C 
BRANCH  24  25
HETATM   25  N2  UNL     1      17.609  40.472 -12.883  1.00  0.00    -0.413 N 
ATOM     26  H2  UNL     1      18.434  39.910 -12.673  1.00  0.00     0.153 HD
BRANCH  25  27
HETATM   27  C15 UNL     1      17.319  41.675 -12.181  1.00  0.00     0.133 C 
HETATM   28  C16 UNL     1      15.942  42.219 -12.384  1.00  0.00     0.197 C 
HETATM   29  O1  UNL     1      15.880  43.198 -11.383  1.00  0.00    -0.364 OA
HETATM   30  C17 UNL     1      16.367  42.573 -10.265  1.00  0.00     0.136 C 
HETATM   31  C18 UNL     1      16.979  43.532  -9.264  1.00  0.00     0.053 C 
HETATM   32  S1  UNL     1      14.948  41.968  -9.270  1.00  0.00    -0.129 SA
HETATM   33  C21 UNL     1      17.296  41.471 -10.665  1.00  0.00     0.187 C 
HETATM   34  C19 UNL     1      15.842  44.338  -8.713  1.00  0.00     0.014 C 
HETATM   35  C20 UNL     1      14.823  43.399  -8.121  1.00  0.00     0.077 C 
BRANCH  33  36
HETATM   36  O2  UNL     1      16.734  40.234 -10.401  1.00  0.00    -0.390 OA
ATOM     37  H2  UNL     1      15.815  40.362 -10.197  1.00  0.00     0.210 HD
ENDBRANCH  33  36
ENDBRANCH  25  27
ENDBRANCH  24  25
ENDBRANCH  23  24
ENDBRANCH  22  23
ENDBRANCH  21  22
ENDBRANCH  20  21
ENDBRANCH   1  20
TORSDOF 15
ENDMDL
MODEL 3
REMARK VINA RESULT: -6.764445113      4.729      9.840
REMARK  15 active torsions:
REMARK  status: ('A' for Active; 'I' for Inactive)
REMARK    1  A    between atoms: C4_4  and  N1_5 
REMARK    2  A    between atoms: N1_5  and  C5_7 
REMARK    3  A    between atoms: C5_7  and  C6_8 
REMARK    4  A    between atoms: C6_8  and  C7_9 
REMARK    5  A    between atoms: C7_9  and  C8_10 
REMARK    6  A    between atoms: C8_10  and  C9_11 
REMARK    7  A    between atoms: C9_11  and  C10_12 
REMARK    8  A    between atoms: C10_12  and  C11_13 
REMARK    9  A    between atoms: C11_13  and  C12_14 
REMARK   10  A    between atoms: C12_14  and  C13_15 
REMARK   11  A    between atoms: C13_15  and  C14_16 
REMARK   12  A    between atoms: C14_16  and  N2_17 
REMARK   13  A    between atoms: N2_17  and  C15_19 
REMARK   14  A    between atoms: C21_27  and  O2_28 
REMARK   15  A    between atoms: C22_32  and  N4_33 
ROOT
HETATM    1  C9  UNL     1      14.170  37.795  -8.910  1.00  0.00     0.000 C 
ENDROOT
BRANCH   1   2
HETATM    2  C8  UNL     1      12.852  38.444  -8.858  1.00  0.00     0.000 C 
BRANCH   2   3
HETATM    3  C7  UNL     1      12.289  39.099  -7.680  1.00  0.00     0.002 C 
BRANCH   3   4
HETATM    4  C6  UNL     1      11.893  38.332  -6.476  1.00  0.00     0.020 C 
BRANCH   4   5
HETATM    5  C5  UNL     1      10.943  39.195  -5.597  1.00  0.00     0.121 C 
BRANCH   5   6
HETATM    6  N1  UNL     1      10.159  38.358  -4.750  1.00  0.00    -0.376 N 
ATOM      7  H1  UNL     1       9.699  37.571  -5.207  1.00  0.00     0.161 HD
BRANCH   6   8
HETATM    8  C4  UNL     1       9.962  38.467  -3.500  1.00  0.00     0.118 A 
HETATM    9  C3  UNL     1       9.569  37.388  -2.729  1.00  0.00     0.073 A 
HETATM   10  C2  UNL     1       9.352  37.484  -1.385  1.00  0.00     0.026 A 
HETATM   11  C1  UNL     1       8.931  36.342  -0.535  1.00  0.00     0.069 C 
HETATM   12  N5  UNL     1       9.527  38.674  -0.785  1.00  0.00    -0.196 N 
HETATM   13  C22 UNL     1       9.905  39.725  -1.513  1.00  0.00     0.677 A 
ATOM     14  H5  UNL     1       9.371  38.772   0.219  1.00  0.00     0.184 HD
HETATM   15  N3  UNL     1      10.120  39.629  -2.848  1.00  0.00    -0.177 N 
ATOM     16  H3  UNL     1      10.410  40.458  -3.368  1.00  0.00     0.185 HD
BRANCH  13  17
HETATM   17  N4  UNL     1      10.081  40.880  -0.973  1.00  0.00    -0.234 N 
ATOM     18  H42 UNL     1      10.622  41.605  -1.444  1.00  0.00     0.174 HD
ATOM     19  H41 UNL     1       9.657  41.034  -0.058  1.00  0.00     0.174 HD
ENDBRANCH  13  17
ENDBRANCH   6   8
ENDBRANCH   5   6
ENDBRANCH   4   5
ENDBRANCH   3   4
ENDBRANCH   2   3
ENDBRANCH   1   2
BRANCH   1  20
HETATM   20  C10 UNL     1      14.320  36.738  -9.946  1.00  0.00     0.000 C 
BRANCH  20  21
HETATM   21  C11 UNL     1      13.232  36.901 -11.033  1.00  0.00     0.000 C 
BRANCH  21  22
HETATM   22  C12 UNL     1      13.410  35.925 -12.125  1.00  0.00     0.002 C 
BRANCH  22  23
HETATM   23  C13 UNL     1      13.799  36.534 -13.445  1.00  0.00     0.019 C 
BRANCH  23  24
HETATM   24  C14 UNL     1      15.271  36.859 -13.538  1.00  0.00     0.114 C 
BRANCH  24  25
HETATM   25  N2  UNL     1      15.545  38.232 -13.741  1.00  0.00    -0.413 N 
ATOM     26  H2  UNL     1      15.462  38.670 -14.658  1.00  0.00     0.153 HD
BRANCH  25  27
HETATM   27  C15 UNL     1      15.944  38.967 -12.590  1.00  0.00     0.133 C 
HETATM   28  C16 UNL     1      17.034  39.964 -12.812  1.00  0.00     0.197 C 
HETATM   29  O1  UNL     1      16.999  40.687 -11.612  1.00  0.00    -0.364 OA
HETATM   30  C17 UNL     1      15.668  40.946 -11.410  1.00  0.00     0.136 C 
HETATM   31  C18 UNL     1      15.312  41.135  -9.949  1.00  0.00     0.053 C 
HETATM   32  S1  UNL     1      15.303  42.635 -12.028  1.00  0.00    -0.129 SA
HETATM   33  C21 UNL     1      14.840  39.898 -12.084  1.00  0.00     0.187 C 
HETATM   34  C19 UNL     1      15.958  42.421  -9.528  1.00  0.00     0.014 C 
HETATM   35  C20 UNL     1      15.472  43.527 -10.428  1.00  0.00     0.077 C 
BRANCH  33  36
HETATM   36  O2  UNL     1      14.180  40.425 -13.181  1.00  0.00    -0.390 OA
ATOM     37  H2  UNL     1      13.649  39.738 -13.567  1.00  0.00     0.210 HD
ENDBRANCH  33  36
ENDBRANCH  25  27
ENDBRANCH  24  25
ENDBRANCH  23  24
ENDBRANCH  22  23
ENDBRANCH  21  22
ENDBRANCH  20  21
ENDBRANCH   1  20
TORSDOF 15
ENDMDL
MODEL 4
REMARK VINA RESULT: -6.725901603      6.568     11.352
REMARK  15 active torsions:
REMARK  status: ('A' for Active; 'I' for Inactive)
REMARK    1  A    between atoms: C4_4  and  N1_5 
REMARK    2  A    between atoms: N1_5  and  C5_7 
REMARK    3  A    between atoms: C5_7  and  C6_8 
REMARK    4  A    between atoms: C6_8  and  C7_9 
REMARK    5  A    between atoms: C7_9  and  C8_10 
REMARK    6  A    between atoms: C8_10  and  C9_11 
REMARK    7  A    between atoms: C9_11  and  C10_12 
REMARK    8  A    between atoms: C10_12  and  C11_13 
REMARK    9  A    between atoms: C11_13  and  C12_14 
REMARK   10  A    between atoms: C12_14  and  C13_15 
REMARK   11  A    between atoms: C13_15  and  C14_16 
REMARK   12  A    between atoms: C14_16  and  N2_17 
REMARK   13  A    between atoms: N2_17  and  C15_19 
REMARK   14  A    between atoms: C21_27  and  O2_28 
REMARK   15  A    between atoms: C22_32  and  N4_33 
ROOT
HETATM    1  C9  UNL     1      12.859  40.632  -9.496  1.00  0.00     0.000 C 
ENDROOT
BRANCH   1   2
HETATM    2  C8  UNL     1      13.024  40.755  -8.040  1.00  0.00     0.000 C 
BRANCH   2   3
HETATM    3  C7  UNL     1      12.039  40.329  -7.049  1.00  0.00     0.002 C 
BRANCH   3   4
HETATM    4  C6  UNL     1      11.805  38.898  -6.748  1.00  0.00     0.020 C 
BRANCH   4   5
HETATM    5  C5  UNL     1      10.621  38.761  -5.749  1.00  0.00     0.121 C 
BRANCH   5   6
HETATM    6  N1  UNL     1      11.078  38.213  -4.515  1.00  0.00    -0.376 N 
ATOM      7  H1  UNL     1      11.928  37.652  -4.566  1.00  0.00     0.161 HD
BRANCH   6   8
HETATM    8  C4  UNL     1      10.561  38.334  -3.360  1.00  0.00     0.118 A 
HETATM    9  C3  UNL     1       9.993  37.259  -2.702  1.00  0.00     0.073 A 
HETATM   10  C2  UNL     1       9.433  37.368  -1.462  1.00  0.00     0.026 A 
HETATM   11  C1  UNL     1       8.817  36.230  -0.733  1.00  0.00     0.069 C 
HETATM   12  N5  UNL     1       9.433  38.567  -0.855  1.00  0.00    -0.196 N 
HETATM   13  C22 UNL     1       9.976  39.615  -1.476  1.00  0.00     0.677 A 
ATOM     14  H5  UNL     1       9.021  38.675   0.072  1.00  0.00     0.184 HD
HETATM   15  N3  UNL     1      10.533  39.506  -2.708  1.00  0.00    -0.177 N 
ATOM     16  H3  UNL     1      10.939  40.332  -3.147  1.00  0.00     0.185 HD
BRANCH  13  17
HETATM   17  N4  UNL     1       9.995  40.778  -0.926  1.00  0.00    -0.234 N 
ATOM     18  H42 UNL     1       9.295  41.045  -0.234  1.00  0.00     0.174 HD
ATOM     19  H41 UNL     1      10.738  41.415  -1.212  1.00  0.00     0.174 HD
ENDBRANCH  13  17
ENDBRANCH   6   8
ENDBRANCH   5   6
ENDBRANCH   4   5
ENDBRANCH   3   4
ENDBRANCH   2   3
ENDBRANCH   1   2
BRANCH   1  20
HETATM   20  C10 UNL     1      13.923  39.862 -10.194  1.00  0.00     0.000 C 
BRANCH  20  21
HETATM   21  C11 UNL     1      14.094  38.474  -9.535  1.00  0.00     0.000 C 
BRANCH  21  22
HETATM   22  C12 UNL     1      13.151  37.488 -10.099  1.00  0.00     0.002 C 
BRANCH  22  23
HETATM   23  C13 UNL     1      13.380  37.170 -11.552  1.00  0.00     0.019 C 
BRANCH  23  24
HETATM   24  C14 UNL     1      14.122  35.873 -11.765  1.00  0.00     0.114 C 
BRANCH  24  25
HETATM   25  N2  UNL     1      13.969  35.329 -13.063  1.00  0.00    -0.413 N 
ATOM     26  H2  UNL     1      13.682  34.362 -13.213  1.00  0.00     0.153 HD
BRANCH  25  27
HETATM   27  C15 UNL     1      14.239  36.211 -14.146  1.00  0.00     0.133 C 
HETATM   28  C16 UNL     1      15.590  36.068 -14.768  1.00  0.00     0.197 C 
HETATM   29  O1  UNL     1      15.445  36.838 -15.930  1.00  0.00    -0.364 OA
HETATM   30  C17 UNL     1      14.244  36.437 -16.456  1.00  0.00     0.136 C 
HETATM   31  C18 UNL     1      13.579  37.501 -17.305  1.00  0.00     0.053 C 
HETATM   32  S1  UNL     1      14.568  35.179 -17.753  1.00  0.00    -0.129 SA
HETATM   33  C21 UNL     1      13.361  35.919 -15.365  1.00  0.00     0.187 C 
HETATM   34  C19 UNL     1      14.433  37.650 -18.527  1.00  0.00     0.014 C 
HETATM   35  C20 UNL     1      14.552  36.310 -19.204  1.00  0.00     0.077 C 
BRANCH  33  36
HETATM   36  O2  UNL     1      13.204  34.548 -15.469  1.00  0.00    -0.390 OA
ATOM     37  H2  UNL     1      12.778  34.359 -16.297  1.00  0.00     0.210 HD
ENDBRANCH  33  36
ENDBRANCH  25  27
ENDBRANCH  24  25
ENDBRANCH  23  24
ENDBRANCH  22  23
ENDBRANCH  21  22
ENDBRANCH  20  21
ENDBRANCH   1  20
TORSDOF 15
ENDMDL
MODEL 5
REMARK VINA RESULT: -6.688250806      5.945     11.153
REMARK  15 active torsions:
REMARK  status: ('A' for Active; 'I' for Inactive)
REMARK    1  A    between atoms: C4_4  and  N1_5 
REMARK    2  A    between atoms: N1_5  and  C5_7 
REMARK    3  A    between atoms: C5_7  and  C6_8 
REMARK    4  A    between atoms: C6_8  and  C7_9 
REMARK    5  A    between atoms: C7_9  and  C8_10 
REMARK    6  A    between atoms: C8_10  and  C9_11 
REMARK    7  A    between atoms: C9_11  and  C10_12 
REMARK    8  A    between atoms: C10_12  and  C11_13 
REMARK    9  A    between atoms: C11_13  and  C12_14 
REMARK   10  A    between atoms: C12_14  and  C13_15 
REMARK   11  A    between atoms: C13_15  and  C14_16 
REMARK   12  A    between atoms: C14_16  and  N2_17 
REMARK   13  A    between atoms: N2_17  and  C15_19 
REMARK   14  A    between atoms: C21_27  and  O2_28 
REMARK   15  A    between atoms: C22_32  and  N4_33 
ROOT
HETATM    1  C9  UNL     1      13.888  37.871  -8.567  1.00  0.00     0.000 C 
ENDROOT
BRANCH   1   2
HETATM    2  C8  UNL     1      12.598  38.519  -8.289  1.00  0.00     0.000 C 
BRANCH   2   3
HETATM    3  C7  UNL     1      12.426  39.724  -7.481  1.00  0.00     0.002 C 
BRANCH   3   4
HETATM    4  C6  UNL     1      11.358  39.831  -6.460  1.00  0.00     0.020 C 
BRANCH   4   5
HETATM    5  C5  UNL     1      11.290  38.515  -5.635  1.00  0.00     0.121 C 
BRANCH   5   6
HETATM    6  N1  UNL     1      10.076  38.463  -4.890  1.00  0.00    -0.376 N 
ATOM      7  H1  UNL     1       9.221  38.375  -5.438  1.00  0.00     0.161 HD
BRANCH   6   8
HETATM    8  C4  UNL     1       9.924  38.512  -3.629  1.00  0.00     0.118 A 
HETATM    9  C3  UNL     1       9.575  37.393  -2.895  1.00  0.00     0.073 A 
HETATM   10  C2  UNL     1       9.407  37.423  -1.541  1.00  0.00     0.026 A 
HETATM   11  C1  UNL     1       9.033  36.237  -0.730  1.00  0.00     0.069 C 
HETATM   12  N5  UNL     1       9.587  38.587  -0.893  1.00  0.00    -0.196 N 
HETATM   13  C22 UNL     1       9.923  39.676  -1.585  1.00  0.00     0.677 A 
ATOM     14  H5  UNL     1       9.468  38.636   0.119  1.00  0.00     0.184 HD
HETATM   15  N3  UNL     1      10.090  39.645  -2.930  1.00  0.00    -0.177 N 
ATOM     16  H3  UNL     1      10.349  40.501  -3.421  1.00  0.00     0.185 HD
BRANCH  13  17
HETATM   17  N4  UNL     1      10.105  40.807  -0.998  1.00  0.00    -0.234 N 
ATOM     18  H42 UNL     1      10.089  41.681  -1.523  1.00  0.00     0.174 HD
ATOM     19  H41 UNL     1      10.262  40.788   0.009  1.00  0.00     0.174 HD
ENDBRANCH  13  17
ENDBRANCH   6   8
ENDBRANCH   5   6
ENDBRANCH   4   5
ENDBRANCH   3   4
ENDBRANCH   2   3
ENDBRANCH   1   2
BRANCH   1  20
HETATM   20  C10 UNL     1      14.353  37.955  -9.977  1.00  0.00     0.000 C 
BRANCH  20  21
HETATM   21  C11 UNL     1      14.255  36.568 -10.654  1.00  0.00     0.000 C 
BRANCH  21  22
HETATM   22  C12 UNL     1      13.244  36.563 -11.729  1.00  0.00     0.002 C 
BRANCH  22  23
HETATM   23  C13 UNL     1      13.474  35.522 -12.791  1.00  0.00     0.019 C 
BRANCH  23  24
HETATM   24  C14 UNL     1      14.140  36.074 -14.028  1.00  0.00     0.114 C 
BRANCH  24  25
HETATM   25  N2  UNL     1      15.554  36.024 -13.991  1.00  0.00    -0.413 N 
ATOM     26  H2  UNL     1      16.056  35.223 -13.608  1.00  0.00     0.153 HD
BRANCH  25  27
HETATM   27  C15 UNL     1      16.235  37.157 -14.517  1.00  0.00     0.133 C 
HETATM   28  C16 UNL     1      15.536  38.465 -14.339  1.00  0.00     0.197 C 
HETATM   29  O1  UNL     1      16.547  39.371 -14.690  1.00  0.00    -0.364 OA
HETATM   30  C17 UNL     1      17.653  38.924 -14.016  1.00  0.00     0.136 C 
HETATM   31  C18 UNL     1      18.956  39.311 -14.684  1.00  0.00     0.053 C 
HETATM   32  S1  UNL     1      17.816  39.887 -12.462  1.00  0.00    -0.129 SA
HETATM   33  C21 UNL     1      17.536  37.453 -13.767  1.00  0.00     0.187 C 
HETATM   34  C19 UNL     1      19.070  40.799 -14.540  1.00  0.00     0.014 C 
HETATM   35  C20 UNL     1      19.000  41.153 -13.078  1.00  0.00     0.077 C 
BRANCH  33  36
HETATM   36  O2  UNL     1      17.329  37.197 -12.423  1.00  0.00    -0.390 OA
ATOM     37  H2  UNL     1      16.735  36.460 -12.348  1.00  0.00     0.210 HD
ENDBRANCH  33  36
ENDBRANCH  25  27
ENDBRANCH  24  25
ENDBRANCH  23  24
ENDBRANCH  22  23
ENDBRANCH  21  22
ENDBRANCH  20  21
ENDBRANCH   1  20
TORSDOF 15
ENDMDL
