MODEL 1
REMARK VINA RESULT: -8.074002749      0.000      0.000
REMARK  16 active torsions:
REMARK  status: ('A' for Active; 'I' for Inactive)
REMARK    1  A    between atoms: C2_2  and  C3_3 
REMARK    2  A    between atoms: C3_3  and  C4_4 
REMARK    3  A    between atoms: C4_4  and  C5_5 
REMARK    4  A    between atoms: C6_7  and  C7_8 
REMARK    5  A    between atoms: C7_8  and  C8_9 
REMARK    6  A    between atoms: C10_11  and  C11_12 
REMARK    7  A    between atoms: C10_11  and  C12_15 
REMARK    8  A    between atoms: C11_12  and  O2_13 
REMARK    9  A    between atoms: C12_15  and  C13_16 
REMARK   10  A    between atoms: C13_16  and  C14_17 
REMARK   11  A    between atoms: C14_17  and  C15_18 
REMARK   12  A    between atoms: C15_18  and  C16_19 
REMARK   13  A    between atoms: C16_19  and  C17_20 
REMARK   14  A    between atoms: C20_23  and  O3_24 
REMARK   15  A    between atoms: C23_31  and  O4_32 
REMARK   16  A    between atoms: C24_34  and  O5_35 
ROOT
HETATM    1  C8  UNL     1      11.430  39.683  -6.587  1.00  0.00     0.189 C 
HETATM    2  C9  UNL     1      12.816  39.901  -7.125  1.00  0.00     0.046 C 
HETATM    3  C10 UNL     1      12.571  41.119  -8.024  1.00  0.00     0.007 C 
HETATM    4  C22 UNL     1      11.255  41.698  -7.492  1.00  0.00     0.244 C 
HETATM    5  N1  UNL     1      11.097  41.021  -6.174  1.00  0.00    -0.070 N 
ATOM      6  H11 UNL     1      11.634  41.406  -5.396  1.00  0.00     0.277 HD
ATOM      7  H12 UNL     1      10.200  41.144  -5.704  1.00  0.00     0.277 HD
ENDROOT
BRANCH   3   8
HETATM    8  C11 UNL     1      13.632  42.162  -7.818  1.00  0.00     0.175 C 
BRANCH   8   9
HETATM    9  O2  UNL     1      13.745  42.595  -6.522  1.00  0.00    -0.400 OA
ATOM     10  H2  UNL     1      14.636  42.791  -6.255  1.00  0.00     0.209 HD
ENDBRANCH   8   9
ENDBRANCH   3   8
BRANCH   3  11
HETATM   11  C12 UNL     1      12.463  40.629  -9.428  1.00  0.00     0.013 C 
BRANCH  11  12
HETATM   12  C13 UNL     1      13.296  39.425  -9.711  1.00  0.00     0.001 C 
BRANCH  12  13
HETATM   13  C14 UNL     1      14.600  39.737 -10.444  1.00  0.00     0.000 C 
BRANCH  13  14
HETATM   14  C15 UNL     1      14.527  39.477 -11.888  1.00  0.00     0.000 C 
BRANCH  14  15
HETATM   15  C16 UNL     1      13.756  38.271 -12.270  1.00  0.00     0.005 C 
BRANCH  15  16
HETATM   16  C17 UNL     1      14.347  37.293 -13.220  1.00  0.00    -0.012 C 
HETATM   17  C18 UNL     1      15.410  36.485 -12.390  1.00  0.00     0.007 C 
HETATM   18  C19 UNL     1      14.525  35.711 -11.451  1.00  0.00     0.032 C 
HETATM   19  C20 UNL     1      13.232  35.496 -12.202  1.00  0.00     0.118 C 
HETATM   20  C21 UNL     1      13.472  36.106 -13.574  1.00  0.00     0.036 C 
BRANCH  19  21
HETATM   21  O3  UNL     1      13.057  34.125 -12.410  1.00  0.00    -0.396 OA
ATOM     22  H3  UNL     1      13.644  33.843 -13.102  1.00  0.00     0.210 HD
ENDBRANCH  19  21
ENDBRANCH  15  16
ENDBRANCH  14  15
ENDBRANCH  13  14
ENDBRANCH  12  13
ENDBRANCH  11  12
ENDBRANCH   3  11
BRANCH   1  23
HETATM   23  C7  UNL     1      11.258  38.584  -5.644  1.00  0.00     0.067 C 
BRANCH  23  24
HETATM   24  C6  UNL     1      10.101  38.549  -4.727  1.00  0.00     0.155 C 
HETATM   25  O1  UNL     1       9.440  39.778  -4.853  1.00  0.00    -0.375 OA
HETATM   26  C5  UNL     1       9.032  40.215  -3.633  1.00  0.00     0.153 C 
HETATM   27  C24 UNL     1       9.222  39.119  -2.637  1.00  0.00     0.178 C 
HETATM   28  C23 UNL     1      10.445  38.412  -3.271  1.00  0.00     0.178 C 
BRANCH  26  29
HETATM   29  C4  UNL     1       7.629  40.749  -3.663  1.00  0.00     0.034 C 
BRANCH  29  30
HETATM   30  C3  UNL     1       7.600  42.258  -3.795  1.00  0.00     0.002 C 
BRANCH  30  31
HETATM   31  C2  UNL     1       6.967  42.915  -2.612  1.00  0.00    -0.004 C 
HETATM   32  C1  UNL     1       7.863  42.916  -1.402  1.00  0.00     0.005 C 
ENDBRANCH  30  31
ENDBRANCH  29  30
ENDBRANCH  26  29
BRANCH  27  33
HETATM   33  O5  UNL     1       8.136  38.246  -2.705  1.00  0.00    -0.390 OA
ATOM     34  H5  UNL     1       8.302  37.497  -2.145  1.00  0.00     0.210 HD
ENDBRANCH  27  33
BRANCH  28  35
HETATM   35  O4  UNL     1      11.596  39.102  -2.956  1.00  0.00    -0.390 OA
ATOM     36  H4  UNL     1      12.217  38.552  -2.494  1.00  0.00     0.210 HD
ENDBRANCH  28  35
ENDBRANCH  23  24
ENDBRANCH   1  23
TORSDOF 16
ENDMDL
MODEL 2
REMARK VINA RESULT: -7.920285404      1.553      2.374
REMARK  16 active torsions:
REMARK  status: ('A' for Active; 'I' for Inactive)
REMARK    1  A    between atoms: C2_2  and  C3_3 
REMARK    2  A    between atoms: C3_3  and  C4_4 
REMARK    3  A    between atoms: C4_4  and  C5_5 
REMARK    4  A    between atoms: C6_7  and  C7_8 
REMARK    5  A    between atoms: C7_8  and  C8_9 
REMARK    6  A    between atoms: C10_11  and  C11_12 
REMARK    7  A    between atoms: C10_11  and  C12_15 
REMARK    8  A    between atoms: C11_12  and  O2_13 
REMARK    9  A    between atoms: C12_15  and  C13_16 
REMARK   10  A    between atoms: C13_16  and  C14_17 
REMARK   11  A    between atoms: C14_17  and  C15_18 
REMARK   12  A    between atoms: C15_18  and  C16_19 
REMARK   13  A    between atoms: C16_19  and  C17_20 
REMARK   14  A    between atoms: C20_23  and  O3_24 
REMARK   15  A    between atoms: C23_31  and  O4_32 
REMARK   16  A    between atoms: C24_34  and  O5_35 
ROOT
HETATM    1  C8  UNL     1      11.297  39.907  -6.859  1.00  0.00     0.189 C 
HETATM    2  C9  UNL     1      12.749  40.020  -7.226  1.00  0.00     0.046 C 
HETATM    3  C10 UNL     1      12.682  41.149  -8.262  1.00  0.00     0.007 C 
HETATM    4  C22 UNL     1      11.339  41.826  -7.967  1.00  0.00     0.244 C 
HETATM    5  N1  UNL     1      10.979  41.292  -6.623  1.00  0.00    -0.070 N 
ATOM      6  H11 UNL     1      11.430  41.733  -5.821  1.00  0.00     0.277 HD
ATOM      7  H12 UNL     1      10.037  41.493  -6.290  1.00  0.00     0.277 HD
ENDROOT
BRANCH   3   8
HETATM    8  C11 UNL     1      13.757  42.168  -8.018  1.00  0.00     0.175 C 
BRANCH   8   9
HETATM    9  O2  UNL     1      13.735  42.713  -6.759  1.00  0.00    -0.400 OA
ATOM     10  H2  UNL     1      14.594  42.818  -6.367  1.00  0.00     0.209 HD
ENDBRANCH   8   9
ENDBRANCH   3   8
BRANCH   3  11
HETATM   11  C12 UNL     1      12.732  40.523  -9.615  1.00  0.00     0.013 C 
BRANCH  11  12
HETATM   12  C13 UNL     1      13.655  39.356  -9.704  1.00  0.00     0.001 C 
BRANCH  12  13
HETATM   13  C14 UNL     1      14.861  39.592 -10.613  1.00  0.00     0.000 C 
BRANCH  13  14
HETATM   14  C15 UNL     1      14.550  39.427 -12.039  1.00  0.00     0.000 C 
BRANCH  14  15
HETATM   15  C16 UNL     1      13.760  38.218 -12.373  1.00  0.00     0.005 C 
BRANCH  15  16
HETATM   16  C17 UNL     1      14.309  37.226 -13.333  1.00  0.00    -0.012 C 
HETATM   17  C18 UNL     1      15.426  36.448 -12.545  1.00  0.00     0.007 C 
HETATM   18  C19 UNL     1      14.605  35.687 -11.541  1.00  0.00     0.032 C 
HETATM   19  C20 UNL     1      13.275  35.441 -12.214  1.00  0.00     0.118 C 
HETATM   20  C21 UNL     1      13.430  36.021 -13.610  1.00  0.00     0.036 C 
BRANCH  19  21
HETATM   21  O3  UNL     1      13.105  34.063 -12.381  1.00  0.00    -0.396 OA
ATOM     22  H3  UNL     1      13.369  33.827 -13.262  1.00  0.00     0.210 HD
ENDBRANCH  19  21
ENDBRANCH  15  16
ENDBRANCH  14  15
ENDBRANCH  13  14
ENDBRANCH  12  13
ENDBRANCH  11  12
ENDBRANCH   3  11
BRANCH   1  23
HETATM   23  C7  UNL     1      10.951  38.916  -5.847  1.00  0.00     0.067 C 
BRANCH  23  24
HETATM   24  C6  UNL     1      10.372  39.328  -4.552  1.00  0.00     0.155 C 
HETATM   25  O1  UNL     1      11.051  38.617  -3.553  1.00  0.00    -0.375 OA
HETATM   26  C5  UNL     1      10.178  38.208  -2.597  1.00  0.00     0.153 C 
HETATM   27  C24 UNL     1       8.857  38.866  -2.832  1.00  0.00     0.178 C 
HETATM   28  C23 UNL     1       8.915  39.003  -4.373  1.00  0.00     0.178 C 
BRANCH  26  29
HETATM   29  C4  UNL     1      10.711  38.431  -1.211  1.00  0.00     0.034 C 
BRANCH  29  30
HETATM   30  C3  UNL     1       9.899  37.693  -0.167  1.00  0.00     0.002 C 
BRANCH  30  31
HETATM   31  C2  UNL     1       9.456  38.591   0.942  1.00  0.00    -0.004 C 
HETATM   32  C1  UNL     1       8.290  38.029   1.711  1.00  0.00     0.005 C 
ENDBRANCH  30  31
ENDBRANCH  29  30
ENDBRANCH  26  29
BRANCH  27  33
HETATM   33  O5  UNL     1       8.883  40.148  -2.282  1.00  0.00    -0.390 OA
ATOM     34  H5  UNL     1       8.999  40.782  -2.980  1.00  0.00     0.210 HD
ENDBRANCH  27  33
BRANCH  28  35
HETATM   35  O4  UNL     1       8.590  37.799  -4.960  1.00  0.00    -0.390 OA
ATOM     36  H4  UNL     1       9.074  37.080  -4.572  1.00  0.00     0.210 HD
ENDBRANCH  28  35
ENDBRANCH  23  24
ENDBRANCH   1  23
TORSDOF 16
ENDMDL
MODEL 3
REMARK VINA RESULT: -7.792044175      0.663      1.047
REMARK  16 active torsions:
REMARK  status: ('A' for Active; 'I' for Inactive)
REMARK    1  A    between atoms: C2_2  and  C3_3 
REMARK    2  A    between atoms: C3_3  and  C4_4 
REMARK    3  A    between atoms: C4_4  and  C5_5 
REMARK    4  A    between atoms: C6_7  and  C7_8 
REMARK    5  A    between atoms: C7_8  and  C8_9 
REMARK    6  A    between atoms: C10_11  and  C11_12 
REMARK    7  A    between atoms: C10_11  and  C12_15 
REMARK    8  A    between atoms: C11_12  and  O2_13 
REMARK    9  A    between atoms: C12_15  and  C13_16 
REMARK   10  A    between atoms: C13_16  and  C14_17 
REMARK   11  A    between atoms: C14_17  and  C15_18 
REMARK   12  A    between atoms: C15_18  and  C16_19 
REMARK   13  A    between atoms: C16_19  and  C17_20 
REMARK   14  A    between atoms: C20_23  and  O3_24 
REMARK   15  A    between atoms: C23_31  and  O4_32 
REMARK   16  A    between atoms: C24_34  and  O5_35 
ROOT
HETATM    1  C8  UNL     1      11.398  39.763  -6.600  1.00  0.00     0.189 C 
HETATM    2  C9  UNL     1      12.764  39.960  -7.193  1.00  0.00     0.046 C 
HETATM    3  C10 UNL     1      12.516  41.216  -8.039  1.00  0.00     0.007 C 
HETATM    4  C22 UNL     1      11.244  41.813  -7.428  1.00  0.00     0.244 C 
HETATM    5  N1  UNL     1      11.125  41.096  -6.127  1.00  0.00    -0.070 N 
ATOM      6  H11 UNL     1      11.709  41.437  -5.362  1.00  0.00     0.277 HD
ATOM      7  H12 UNL     1      10.255  41.227  -5.612  1.00  0.00     0.277 HD
ENDROOT
BRANCH   3   8
HETATM    8  C11 UNL     1      13.617  42.219  -7.847  1.00  0.00     0.175 C 
BRANCH   8   9
HETATM    9  O2  UNL     1      13.786  42.621  -6.546  1.00  0.00    -0.400 OA
ATOM     10  H2  UNL     1      14.220  43.462  -6.454  1.00  0.00     0.209 HD
ENDBRANCH   8   9
ENDBRANCH   3   8
BRANCH   3  11
HETATM   11  C12 UNL     1      12.331  40.778  -9.452  1.00  0.00     0.013 C 
BRANCH  11  12
HETATM   12  C13 UNL     1      13.094  41.593 -10.440  1.00  0.00     0.001 C 
BRANCH  12  13
HETATM   13  C14 UNL     1      13.959  40.762 -11.387  1.00  0.00     0.000 C 
BRANCH  13  14
HETATM   14  C15 UNL     1      14.858  39.836 -10.685  1.00  0.00     0.000 C 
BRANCH  14  15
HETATM   15  C16 UNL     1      14.794  38.429 -11.146  1.00  0.00     0.005 C 
BRANCH  15  16
HETATM   16  C17 UNL     1      13.548  37.921 -11.776  1.00  0.00    -0.012 C 
HETATM   17  C18 UNL     1      13.933  37.583 -13.263  1.00  0.00     0.007 C 
HETATM   18  C19 UNL     1      14.847  36.403 -13.071  1.00  0.00     0.032 C 
HETATM   19  C20 UNL     1      14.362  35.720 -11.814  1.00  0.00     0.118 C 
HETATM   20  C21 UNL     1      13.139  36.513 -11.385  1.00  0.00     0.036 C 
BRANCH  19  21
HETATM   21  O3  UNL     1      13.901  34.442 -12.147  1.00  0.00    -0.396 OA
ATOM     22  H3  UNL     1      14.610  33.958 -12.554  1.00  0.00     0.210 HD
ENDBRANCH  19  21
ENDBRANCH  15  16
ENDBRANCH  14  15
ENDBRANCH  13  14
ENDBRANCH  12  13
ENDBRANCH  11  12
ENDBRANCH   3  11
BRANCH   1  23
HETATM   23  C7  UNL     1      11.236  38.638  -5.688  1.00  0.00     0.067 C 
BRANCH  23  24
HETATM   24  C6  UNL     1      10.091  38.579  -4.756  1.00  0.00     0.155 C 
HETATM   25  O1  UNL     1       9.428  39.811  -4.842  1.00  0.00    -0.375 OA
HETATM   26  C5  UNL     1       9.037  40.216  -3.606  1.00  0.00     0.153 C 
HETATM   27  C24 UNL     1       9.241  39.095  -2.640  1.00  0.00     0.178 C 
HETATM   28  C23 UNL     1      10.455  38.405  -3.308  1.00  0.00     0.178 C 
BRANCH  26  29
HETATM   29  C4  UNL     1       7.633  40.750  -3.603  1.00  0.00     0.034 C 
BRANCH  29  30
HETATM   30  C3  UNL     1       7.590  42.226  -3.265  1.00  0.00     0.002 C 
BRANCH  30  31
HETATM   31  C2  UNL     1       8.265  42.527  -1.967  1.00  0.00    -0.004 C 
HETATM   32  C1  UNL     1       7.620  43.671  -1.231  1.00  0.00     0.005 C 
ENDBRANCH  30  31
ENDBRANCH  29  30
ENDBRANCH  26  29
BRANCH  27  33
HETATM   33  O5  UNL     1       8.153  38.224  -2.716  1.00  0.00    -0.390 OA
ATOM     34  H5  UNL     1       7.941  37.916  -1.843  1.00  0.00     0.210 HD
ENDBRANCH  27  33
BRANCH  28  35
HETATM   35  O4  UNL     1      11.610  39.088  -2.992  1.00  0.00    -0.390 OA
ATOM     36  H4  UNL     1      11.423  39.880  -2.502  1.00  0.00     0.210 HD
ENDBRANCH  28  35
ENDBRANCH  23  24
ENDBRANCH   1  23
TORSDOF 16
ENDMDL
MODEL 4
REMARK VINA RESULT: -7.738563486      3.650      6.539
REMARK  16 active torsions:
REMARK  status: ('A' for Active; 'I' for Inactive)
REMARK    1  A    between atoms: C2_2  and  C3_3 
REMARK    2  A    between atoms: C3_3  and  C4_4 
REMARK    3  A    between atoms: C4_4  and  C5_5 
REMARK    4  A    between atoms: C6_7  and  C7_8 
REMARK    5  A    between atoms: C7_8  and  C8_9 
REMARK    6  A    between atoms: C10_11  and  C11_12 
REMARK    7  A    between atoms: C10_11  and  C12_15 
REMARK    8  A    between atoms: C11_12  and  O2_13 
REMARK    9  A    between atoms: C12_15  and  C13_16 
REMARK   10  A    between atoms: C13_16  and  C14_17 
REMARK   11  A    between atoms: C14_17  and  C15_18 
REMARK   12  A    between atoms: C15_18  and  C16_19 
REMARK   13  A    between atoms: C16_19  and  C17_20 
REMARK   14  A    between atoms: C20_23  and  O3_24 
REMARK   15  A    between atoms: C23_31  and  O4_32 
REMARK   16  A    between atoms: C24_34  and  O5_35 
ROOT
HETATM    1  C8  UNL     1      14.258  37.315 -10.272  1.00  0.00     0.189 C 
HETATM    2  C9  UNL     1      13.124  37.030 -11.217  1.00  0.00     0.046 C 
HETATM    3  C10 UNL     1      13.909  36.683 -12.488  1.00  0.00     0.007 C 
HETATM    4  C22 UNL     1      15.307  36.339 -11.962  1.00  0.00     0.244 C 
HETATM    5  N1  UNL     1      15.084  36.158 -10.500  1.00  0.00    -0.070 N 
ATOM      6  H11 UNL     1      14.701  35.259 -10.205  1.00  0.00     0.277 HD
ATOM      7  H12 UNL     1      15.917  36.071  -9.919  1.00  0.00     0.277 HD
ENDROOT
BRANCH   3   8
HETATM    8  C11 UNL     1      13.361  35.445 -13.137  1.00  0.00     0.175 C 
BRANCH   8   9
HETATM    9  O2  UNL     1      13.246  34.373 -12.288  1.00  0.00    -0.400 OA
ATOM     10  H2  UNL     1      12.698  33.672 -12.622  1.00  0.00     0.209 HD
ENDBRANCH   8   9
ENDBRANCH   3   8
BRANCH   3  11
HETATM   11  C12 UNL     1      13.899  37.887 -13.367  1.00  0.00     0.013 C 
BRANCH  11  12
HETATM   12  C13 UNL     1      14.770  38.995 -12.882  1.00  0.00     0.001 C 
BRANCH  12  13
HETATM   13  C14 UNL     1      14.056  40.343 -12.787  1.00  0.00     0.000 C 
BRANCH  13  14
HETATM   14  C15 UNL     1      14.361  41.071 -11.548  1.00  0.00     0.000 C 
BRANCH  14  15
HETATM   15  C16 UNL     1      15.803  41.197 -11.233  1.00  0.00     0.005 C 
BRANCH  15  16
HETATM   16  C17 UNL     1      16.615  42.236 -11.919  1.00  0.00    -0.012 C 
HETATM   17  C18 UNL     1      17.788  42.579 -10.928  1.00  0.00     0.007 C 
HETATM   18  C19 UNL     1      18.583  41.302 -10.959  1.00  0.00     0.032 C 
HETATM   19  C20 UNL     1      18.359  40.723 -12.337  1.00  0.00     0.118 C 
HETATM   20  C21 UNL     1      17.492  41.744 -13.054  1.00  0.00     0.036 C 
BRANCH  19  21
HETATM   21  O3  UNL     1      19.580  40.700 -13.018  1.00  0.00    -0.396 OA
ATOM     22  H3  UNL     1      19.453  40.276 -13.858  1.00  0.00     0.210 HD
ENDBRANCH  19  21
ENDBRANCH  15  16
ENDBRANCH  14  15
ENDBRANCH  13  14
ENDBRANCH  12  13
ENDBRANCH  11  12
ENDBRANCH   3  11
BRANCH   1  23
HETATM   23  C7  UNL     1      13.898  37.674  -8.905  1.00  0.00     0.067 C 
BRANCH  23  24
HETATM   24  C6  UNL     1      12.900  38.730  -8.639  1.00  0.00     0.155 C 
HETATM   25  O1  UNL     1      13.606  39.929  -8.474  1.00  0.00    -0.375 OA
HETATM   26  C5  UNL     1      13.063  40.653  -7.460  1.00  0.00     0.153 C 
HETATM   27  C24 UNL     1      11.772  40.024  -7.051  1.00  0.00     0.178 C 
HETATM   28  C23 UNL     1      12.096  38.546  -7.383  1.00  0.00     0.178 C 
BRANCH  26  29
HETATM   29  C4  UNL     1      12.927  42.106  -7.812  1.00  0.00     0.034 C 
BRANCH  29  30
HETATM   30  C3  UNL     1      14.102  42.922  -7.315  1.00  0.00     0.002 C 
BRANCH  30  31
HETATM   31  C2  UNL     1      15.090  43.207  -8.399  1.00  0.00    -0.004 C 
HETATM   32  C1  UNL     1      16.220  44.087  -7.936  1.00  0.00     0.005 C 
ENDBRANCH  30  31
ENDBRANCH  29  30
ENDBRANCH  26  29
BRANCH  27  33
HETATM   33  O5  UNL     1      10.764  40.449  -7.917  1.00  0.00    -0.390 OA
ATOM     34  H5  UNL     1      10.695  41.396  -7.873  1.00  0.00     0.210 HD
ENDBRANCH  27  33
BRANCH  28  35
HETATM   35  O4  UNL     1      12.856  37.999  -6.372  1.00  0.00    -0.390 OA
ATOM     36  H4  UNL     1      12.313  37.676  -5.663  1.00  0.00     0.210 HD
ENDBRANCH  28  35
ENDBRANCH  23  24
ENDBRANCH   1  23
TORSDOF 16
ENDMDL
MODEL 5
REMARK VINA RESULT: -7.720946621      1.117      1.542
REMARK  16 active torsions:
REMARK  status: ('A' for Active; 'I' for Inactive)
REMARK    1  A    between atoms: C2_2  and  C3_3 
REMARK    2  A    between atoms: C3_3  and  C4_4 
REMARK    3  A    between atoms: C4_4  and  C5_5 
REMARK    4  A    between atoms: C6_7  and  C7_8 
REMARK    5  A    between atoms: C7_8  and  C8_9 
REMARK    6  A    between atoms: C10_11  and  C11_12 
REMARK    7  A    between atoms: C10_11  and  C12_15 
REMARK    8  A    between atoms: C11_12  and  O2_13 
REMARK    9  A    between atoms: C12_15  and  C13_16 
REMARK   10  A    between atoms: C13_16  and  C14_17 
REMARK   11  A    between atoms: C14_17  and  C15_18 
REMARK   12  A    between atoms: C15_18  and  C16_19 
REMARK   13  A    between atoms: C16_19  and  C17_20 
REMARK   14  A    between atoms: C20_23  and  O3_24 
REMARK   15  A    between atoms: C23_31  and  O4_32 
REMARK   16  A    between atoms: C24_34  and  O5_35 
ROOT
HETATM    1  C8  UNL     1      11.411  39.815  -6.708  1.00  0.00     0.189 C 
HETATM    2  C9  UNL     1      12.790  39.975  -7.283  1.00  0.00     0.046 C 
HETATM    3  C10 UNL     1      12.587  41.237  -8.131  1.00  0.00     0.007 C 
HETATM    4  C22 UNL     1      11.324  41.869  -7.536  1.00  0.00     0.244 C 
HETATM    5  N1  UNL     1      11.168  41.154  -6.237  1.00  0.00    -0.070 N 
ATOM      6  H11 UNL     1      11.751  41.479  -5.465  1.00  0.00     0.277 HD
ATOM      7  H12 UNL     1      10.295  41.309  -5.734  1.00  0.00     0.277 HD
ENDROOT
BRANCH   3   8
HETATM    8  C11 UNL     1      13.712  42.210  -7.924  1.00  0.00     0.175 C 
BRANCH   8   9
HETATM    9  O2  UNL     1      13.764  42.743  -6.661  1.00  0.00    -0.400 OA
ATOM     10  H2  UNL     1      12.977  43.210  -6.405  1.00  0.00     0.209 HD
ENDBRANCH   8   9
ENDBRANCH   3   8
BRANCH   3  11
HETATM   11  C12 UNL     1      12.409  40.806  -9.547  1.00  0.00     0.013 C 
BRANCH  11  12
HETATM   12  C13 UNL     1      13.612  41.023 -10.399  1.00  0.00     0.001 C 
BRANCH  12  13
HETATM   13  C14 UNL     1      14.021  39.794 -11.212  1.00  0.00     0.000 C 
BRANCH  13  14
HETATM   14  C15 UNL     1      13.735  38.527 -10.526  1.00  0.00     0.000 C 
BRANCH  14  15
HETATM   15  C16 UNL     1      13.292  37.423 -11.409  1.00  0.00     0.005 C 
BRANCH  15  16
HETATM   16  C17 UNL     1      14.043  36.141 -11.412  1.00  0.00    -0.012 C 
HETATM   17  C18 UNL     1      13.351  35.247 -12.505  1.00  0.00     0.007 C 
HETATM   18  C19 UNL     1      13.720  35.981 -13.765  1.00  0.00     0.032 C 
HETATM   19  C20 UNL     1      15.050  36.635 -13.474  1.00  0.00     0.118 C 
HETATM   20  C21 UNL     1      15.410  36.180 -12.069  1.00  0.00     0.036 C 
BRANCH  19  21
HETATM   21  O3  UNL     1      16.016  36.085 -14.322  1.00  0.00    -0.396 OA
ATOM     22  H3  UNL     1      16.148  36.673 -15.056  1.00  0.00     0.210 HD
ENDBRANCH  19  21
ENDBRANCH  15  16
ENDBRANCH  14  15
ENDBRANCH  13  14
ENDBRANCH  12  13
ENDBRANCH  11  12
ENDBRANCH   3  11
BRANCH   1  23
HETATM   23  C7  UNL     1      11.206  38.694  -5.799  1.00  0.00     0.067 C 
BRANCH  23  24
HETATM   24  C6  UNL     1      10.053  38.670  -4.876  1.00  0.00     0.155 C 
HETATM   25  O1  UNL     1       9.473  39.946  -4.910  1.00  0.00    -0.375 OA
HETATM   26  C5  UNL     1       9.100  40.321  -3.659  1.00  0.00     0.153 C 
HETATM   27  C24 UNL     1       9.223  39.148  -2.743  1.00  0.00     0.178 C 
HETATM   28  C23 UNL     1      10.394  38.409  -3.436  1.00  0.00     0.178 C 
BRANCH  26  29
HETATM   29  C4  UNL     1       7.735  40.947  -3.639  1.00  0.00     0.034 C 
BRANCH  29  30
HETATM   30  C3  UNL     1       7.635  42.117  -4.595  1.00  0.00     0.002 C 
BRANCH  30  31
HETATM   31  C2  UNL     1       6.275  42.736  -4.589  1.00  0.00    -0.004 C 
HETATM   32  C1  UNL     1       5.362  42.114  -3.566  1.00  0.00     0.005 C 
ENDBRANCH  30  31
ENDBRANCH  29  30
ENDBRANCH  26  29
BRANCH  27  33
HETATM   33  O5  UNL     1       8.081  38.356  -2.862  1.00  0.00    -0.390 OA
ATOM     34  H5  UNL     1       7.322  38.862  -2.597  1.00  0.00     0.210 HD
ENDBRANCH  27  33
BRANCH  28  35
HETATM   35  O4  UNL     1      11.589  38.999  -3.084  1.00  0.00    -0.390 OA
ATOM     36  H4  UNL     1      11.453  39.751  -2.520  1.00  0.00     0.210 HD
ENDBRANCH  28  35
ENDBRANCH  23  24
ENDBRANCH   1  23
TORSDOF 16
ENDMDL
