MODEL 1
REMARK VINA RESULT: -8.179281233      0.000      0.000
REMARK  9 active torsions:
REMARK  status: ('A' for Active; 'I' for Inactive)
REMARK    1  A    between atoms: C2_2  and  C3_3 
REMARK    2  A    between atoms: C3_3  and  O1_4 
REMARK    3  A    between atoms: C6_10  and  C7_11 
REMARK    4  A    between atoms: C7_11  and  C8_14 
REMARK    5  A    between atoms: C14_21  and  O4_22 
REMARK    6  A    between atoms: O4_22  and  C15_23 
REMARK    7  A    between atoms: C15_23  and  C16_25 
REMARK    8  A    between atoms: C16_25  and  N1_26 
REMARK    9  A    between atoms: C30_40  and  C31_41 
ROOT
HETATM    1  C3  UNL     1      37.435  28.464  22.434  1.00  0.00     0.067 C 
HETATM    2  C4  UNL     1      37.674  27.004  22.835  1.00  0.00     0.148 C 
HETATM    3  C5  UNL     1      36.745  26.043  22.257  1.00  0.00     0.262 C 
HETATM    4  O2  UNL     1      35.544  26.368  22.028  1.00  0.00    -0.265 OA
HETATM    5  O3  UNL     1      37.072  24.735  21.919  1.00  0.00    -0.307 OA
HETATM    6  C6  UNL     1      38.259  24.089  22.362  1.00  0.00     0.238 C 
HETATM    7  C14 UNL     1      39.183  24.183  21.107  1.00  0.00     0.167 C 
HETATM    8  C19 UNL     1      40.595  23.902  21.404  1.00  0.00     0.035 C 
HETATM    9  C20 UNL     1      41.471  25.098  21.089  1.00  0.00     0.003 C 
HETATM   10  C21 UNL     1      42.839  24.655  20.594  1.00  0.00     0.000 C 
HETATM   11  C22 UNL     1      43.919  25.058  21.545  1.00  0.00     0.000 C 
HETATM   12  C23 UNL     1      44.752  26.194  21.026  1.00  0.00     0.000 C 
HETATM   13  C24 UNL     1      44.024  27.500  21.014  1.00  0.00     0.000 C 
HETATM   14  C25 UNL     1      44.061  28.216  22.369  1.00  0.00     0.004 C 
HETATM   15  C26 UNL     1      43.933  29.689  22.073  1.00  0.00     0.027 C 
HETATM   16  C27 UNL     1      43.114  30.421  23.073  1.00  0.00    -0.031 C 
HETATM   17  C28 UNL     1      41.820  30.309  23.201  1.00  0.00    -0.030 C 
HETATM   18  C29 UNL     1      40.941  29.443  22.386  1.00  0.00     0.042 C 
HETATM   19  C30 UNL     1      39.500  30.013  22.349  1.00  0.00     0.093 C 
HETATM   20  C32 UNL     1      38.600  29.049  21.732  1.00  0.00     0.054 C 
ENDROOT
BRANCH   6  21
HETATM   21  C7  UNL     1      37.997  22.639  22.697  1.00  0.00     0.299 C 
HETATM   22  F1  UNL     1      38.684  21.786  21.813  1.00  0.00    -0.198 F 
HETATM   23  F2  UNL     1      38.393  22.317  23.963  1.00  0.00    -0.198 F 
BRANCH  21  24
HETATM   24  C8  UNL     1      36.537  22.324  22.489  1.00  0.00     0.016 A 
HETATM   25  C9  UNL     1      35.548  22.762  23.331  1.00  0.00     0.016 A 
HETATM   26  C10 UNL     1      34.206  22.458  23.101  1.00  0.00     0.043 A 
HETATM   27  C11 UNL     1      33.855  21.708  22.019  1.00  0.00     0.116 A 
HETATM   28  F3  UNL     1      32.557  21.396  21.762  1.00  0.00    -0.206 F 
HETATM   29  C12 UNL     1      34.832  21.254  21.153  1.00  0.00     0.043 A 
HETATM   30  C13 UNL     1      36.135  21.563  21.399  1.00  0.00     0.016 A 
ENDBRANCH  21  24
ENDBRANCH   6  21
BRANCH   7  31
HETATM   31  O4  UNL     1      38.606  23.402  20.085  1.00  0.00    -0.312 OA
BRANCH  31  32
HETATM   32  C15 UNL     1      38.379  23.801  18.790  1.00  0.00     0.287 C 
HETATM   33  O5  UNL     1      39.295  24.340  18.150  1.00  0.00    -0.263 OA
BRANCH  32  34
HETATM   34  C16 UNL     1      37.013  23.564  18.221  1.00  0.00     0.381 C 
BRANCH  34  35
HETATM   35  N1  UNL     1      36.096  24.529  18.800  1.00  0.00     0.089 N 
HETATM   36  C17 UNL     1      34.730  24.044  18.678  1.00  0.00     0.310 C 
HETATM   37  C18 UNL     1      36.284  25.865  18.355  1.00  0.00     0.310 C 
ENDBRANCH  34  35
ENDBRANCH  32  34
ENDBRANCH  31  32
ENDBRANCH   7  31
BRANCH   1  38
HETATM   38  C2  UNL     1      36.750  29.225  23.492  1.00  0.00     0.034 C 
HETATM   39  C1  UNL     1      35.275  29.272  23.532  1.00  0.00     0.008 C 
ENDBRANCH   1  38
BRANCH   1  40
HETATM   40  O1  UNL     1      36.453  28.380  21.377  1.00  0.00    -0.389 OA
ATOM     41  H1  UNL     1      36.864  27.820  20.729  1.00  0.00     0.210 HD
ENDBRANCH   1  40
BRANCH  19  42
HETATM   42  C31 UNL     1      39.677  31.263  21.497  1.00  0.00     0.177 C 
HETATM   43  O6  UNL     1      39.530  32.414  21.983  1.00  0.00    -0.648 OA
HETATM   44  O7  UNL     1      40.003  31.176  20.157  1.00  0.00    -0.648 OA
ENDBRANCH  19  42
TORSDOF 9
ENDMDL
MODEL 2
REMARK VINA RESULT: -8.064009638      1.016      1.510
REMARK  9 active torsions:
REMARK  status: ('A' for Active; 'I' for Inactive)
REMARK    1  A    between atoms: C2_2  and  C3_3 
REMARK    2  A    between atoms: C3_3  and  O1_4 
REMARK    3  A    between atoms: C6_10  and  C7_11 
REMARK    4  A    between atoms: C7_11  and  C8_14 
REMARK    5  A    between atoms: C14_21  and  O4_22 
REMARK    6  A    between atoms: O4_22  and  C15_23 
REMARK    7  A    between atoms: C15_23  and  C16_25 
REMARK    8  A    between atoms: C16_25  and  N1_26 
REMARK    9  A    between atoms: C30_40  and  C31_41 
ROOT
HETATM    1  C3  UNL     1      37.415  28.502  22.445  1.00  0.00     0.067 C 
HETATM    2  C4  UNL     1      37.668  27.040  22.829  1.00  0.00     0.148 C 
HETATM    3  C5  UNL     1      36.752  26.076  22.235  1.00  0.00     0.262 C 
HETATM    4  O2  UNL     1      35.548  26.391  22.005  1.00  0.00    -0.265 OA
HETATM    5  O3  UNL     1      37.094  24.775  21.882  1.00  0.00    -0.307 OA
HETATM    6  C6  UNL     1      38.287  24.137  22.323  1.00  0.00     0.238 C 
HETATM    7  C14 UNL     1      39.215  24.256  21.073  1.00  0.00     0.167 C 
HETATM    8  C19 UNL     1      40.629  23.987  21.373  1.00  0.00     0.035 C 
HETATM    9  C20 UNL     1      41.493  25.197  21.076  1.00  0.00     0.003 C 
HETATM   10  C21 UNL     1      42.868  24.774  20.582  1.00  0.00     0.000 C 
HETATM   11  C22 UNL     1      43.939  25.177  21.543  1.00  0.00     0.000 C 
HETATM   12  C23 UNL     1      44.762  26.329  21.041  1.00  0.00     0.000 C 
HETATM   13  C24 UNL     1      44.020  27.627  21.043  1.00  0.00     0.000 C 
HETATM   14  C25 UNL     1      44.043  28.326  22.406  1.00  0.00     0.004 C 
HETATM   15  C26 UNL     1      43.901  29.801  22.127  1.00  0.00     0.027 C 
HETATM   16  C27 UNL     1      43.069  30.512  23.133  1.00  0.00    -0.031 C 
HETATM   17  C28 UNL     1      41.776  30.384  23.254  1.00  0.00    -0.030 C 
HETATM   18  C29 UNL     1      40.910  29.519  22.424  1.00  0.00     0.042 C 
HETATM   19  C30 UNL     1      39.463  30.073  22.389  1.00  0.00     0.093 C 
HETATM   20  C32 UNL     1      38.576  29.108  21.755  1.00  0.00     0.054 C 
ENDROOT
BRANCH   6  21
HETATM   21  C7  UNL     1      38.039  22.680  22.638  1.00  0.00     0.299 C 
HETATM   22  F1  UNL     1      38.698  21.846  21.716  1.00  0.00    -0.198 F 
HETATM   23  F2  UNL     1      38.478  22.335  23.884  1.00  0.00    -0.198 F 
BRANCH  21  24
HETATM   24  C8  UNL     1      36.574  22.365  22.474  1.00  0.00     0.016 A 
HETATM   25  C9  UNL     1      35.611  22.791  23.351  1.00  0.00     0.016 A 
HETATM   26  C10 UNL     1      34.263  22.488  23.160  1.00  0.00     0.043 A 
HETATM   27  C11 UNL     1      33.879  21.750  22.081  1.00  0.00     0.116 A 
HETATM   28  F3  UNL     1      32.574  21.438  21.862  1.00  0.00    -0.206 F 
HETATM   29  C12 UNL     1      34.829  21.307  21.179  1.00  0.00     0.043 A 
HETATM   30  C13 UNL     1      36.138  21.616  21.387  1.00  0.00     0.016 A 
ENDBRANCH  21  24
ENDBRANCH   6  21
BRANCH   7  31
HETATM   31  O4  UNL     1      38.650  23.482  20.039  1.00  0.00    -0.312 OA
BRANCH  31  32
HETATM   32  C15 UNL     1      38.153  23.957  18.850  1.00  0.00     0.287 C 
HETATM   33  O5  UNL     1      37.059  23.543  18.438  1.00  0.00    -0.263 OA
BRANCH  32  34
HETATM   34  C16 UNL     1      38.981  24.959  18.104  1.00  0.00     0.381 C 
BRANCH  34  35
HETATM   35  N1  UNL     1      39.696  24.274  17.044  1.00  0.00     0.089 N 
HETATM   36  C17 UNL     1      40.977  23.797  17.541  1.00  0.00     0.310 C 
HETATM   37  C18 UNL     1      39.775  24.994  15.821  1.00  0.00     0.310 C 
ENDBRANCH  34  35
ENDBRANCH  32  34
ENDBRANCH  31  32
ENDBRANCH   7  31
BRANCH   1  38
HETATM   38  C2  UNL     1      36.717  29.241  23.510  1.00  0.00     0.034 C 
HETATM   39  C1  UNL     1      35.242  29.292  23.529  1.00  0.00     0.008 C 
ENDBRANCH   1  38
BRANCH   1  40
HETATM   40  O1  UNL     1      36.438  28.420  21.383  1.00  0.00    -0.389 OA
ATOM     41  H1  UNL     1      35.771  29.046  21.639  1.00  0.00     0.210 HD
ENDBRANCH   1  40
BRANCH  19  42
HETATM   42  C31 UNL     1      39.631  31.336  21.553  1.00  0.00     0.177 C 
HETATM   43  O6  UNL     1      39.898  31.278  20.325  1.00  0.00    -0.648 OA
HETATM   44  O7  UNL     1      39.499  32.591  22.116  1.00  0.00    -0.648 OA
ENDBRANCH  19  42
TORSDOF 9
ENDMDL
MODEL 3
REMARK VINA RESULT: -8.017783455      2.531      4.052
REMARK  9 active torsions:
REMARK  status: ('A' for Active; 'I' for Inactive)
REMARK    1  A    between atoms: C2_2  and  C3_3 
REMARK    2  A    between atoms: C3_3  and  O1_4 
REMARK    3  A    between atoms: C6_10  and  C7_11 
REMARK    4  A    between atoms: C7_11  and  C8_14 
REMARK    5  A    between atoms: C14_21  and  O4_22 
REMARK    6  A    between atoms: O4_22  and  C15_23 
REMARK    7  A    between atoms: C15_23  and  C16_25 
REMARK    8  A    between atoms: C16_25  and  N1_26 
REMARK    9  A    between atoms: C30_40  and  C31_41 
ROOT
HETATM    1  C3  UNL     1      40.999  25.396  23.450  1.00  0.00     0.067 C 
HETATM    2  C4  UNL     1      40.415  24.126  22.822  1.00  0.00     0.148 C 
HETATM    3  C5  UNL     1      38.971  23.979  22.952  1.00  0.00     0.262 C 
HETATM    4  O2  UNL     1      38.369  24.424  23.971  1.00  0.00    -0.265 OA
HETATM    5  O3  UNL     1      38.154  23.361  22.012  1.00  0.00    -0.307 OA
HETATM    6  C6  UNL     1      38.656  22.545  20.960  1.00  0.00     0.238 C 
HETATM    7  C14 UNL     1      38.601  23.507  19.731  1.00  0.00     0.167 C 
HETATM    8  C19 UNL     1      39.389  23.030  18.586  1.00  0.00     0.035 C 
HETATM    9  C20 UNL     1      40.491  24.007  18.231  1.00  0.00     0.003 C 
HETATM   10  C21 UNL     1      40.743  24.022  16.731  1.00  0.00     0.000 C 
HETATM   11  C22 UNL     1      42.110  23.515  16.403  1.00  0.00     0.000 C 
HETATM   12  C23 UNL     1      43.045  24.610  15.976  1.00  0.00     0.000 C 
HETATM   13  C24 UNL     1      43.450  25.510  17.099  1.00  0.00     0.000 C 
HETATM   14  C25 UNL     1      44.623  24.955  17.915  1.00  0.00     0.004 C 
HETATM   15  C26 UNL     1      45.333  26.149  18.500  1.00  0.00     0.027 C 
HETATM   16  C27 UNL     1      45.842  25.915  19.876  1.00  0.00    -0.031 C 
HETATM   17  C28 UNL     1      45.091  25.809  20.939  1.00  0.00    -0.030 C 
HETATM   18  C29 UNL     1      43.615  25.900  20.969  1.00  0.00     0.042 C 
HETATM   19  C30 UNL     1      43.129  26.372  22.363  1.00  0.00     0.093 C 
HETATM   20  C32 UNL     1      41.681  26.251  22.452  1.00  0.00     0.054 C 
ENDROOT
BRANCH   6  21
HETATM   21  C7  UNL     1      37.754  21.356  20.718  1.00  0.00     0.299 C 
HETATM   22  F1  UNL     1      37.404  21.258  19.358  1.00  0.00    -0.198 F 
HETATM   23  F2  UNL     1      38.342  20.176  21.072  1.00  0.00    -0.198 F 
BRANCH  21  24
HETATM   24  C8  UNL     1      36.448  21.551  21.446  1.00  0.00     0.016 A 
HETATM   25  C9  UNL     1      36.346  21.572  22.812  1.00  0.00     0.016 A 
HETATM   26  C10 UNL     1      35.120  21.764  23.450  1.00  0.00     0.043 A 
HETATM   27  C11 UNL     1      33.989  21.934  22.710  1.00  0.00     0.116 A 
HETATM   28  F3  UNL     1      32.778  22.126  23.298  1.00  0.00    -0.206 F 
HETATM   29  C12 UNL     1      34.062  21.917  21.330  1.00  0.00     0.043 A 
HETATM   30  C13 UNL     1      35.270  21.728  20.731  1.00  0.00     0.016 A 
ENDBRANCH  21  24
ENDBRANCH   6  21
BRANCH   7  31
HETATM   31  O4  UNL     1      37.247  23.795  19.466  1.00  0.00    -0.312 OA
BRANCH  31  32
HETATM   32  C15 UNL     1      36.696  25.046  19.331  1.00  0.00     0.287 C 
HETATM   33  O5  UNL     1      37.108  25.800  18.436  1.00  0.00    -0.263 OA
BRANCH  32  34
HETATM   34  C16 UNL     1      35.617  25.436  20.295  1.00  0.00     0.381 C 
BRANCH  34  35
HETATM   35  N1  UNL     1      36.235  25.846  21.542  1.00  0.00     0.089 N 
HETATM   36  C17 UNL     1      35.386  25.466  22.661  1.00  0.00     0.310 C 
HETATM   37  C18 UNL     1      36.668  27.199  21.572  1.00  0.00     0.310 C 
ENDBRANCH  34  35
ENDBRANCH  32  34
ENDBRANCH  31  32
ENDBRANCH   7  31
BRANCH   1  38
HETATM   38  C2  UNL     1      41.632  25.130  24.753  1.00  0.00     0.034 C 
HETATM   39  C1  UNL     1      40.883  25.371  26.002  1.00  0.00     0.008 C 
ENDBRANCH   1  38
BRANCH   1  40
HETATM   40  O1  UNL     1      39.837  26.187  23.786  1.00  0.00    -0.389 OA
ATOM     41  H1  UNL     1      39.167  25.540  23.969  1.00  0.00     0.210 HD
ENDBRANCH   1  40
BRANCH  19  42
HETATM   42  C31 UNL     1      43.588  27.824  22.381  1.00  0.00     0.177 C 
HETATM   43  O6  UNL     1      42.868  28.745  21.916  1.00  0.00    -0.648 OA
HETATM   44  O7  UNL     1      44.815  28.181  22.907  1.00  0.00    -0.648 OA
ENDBRANCH  19  42
TORSDOF 9
ENDMDL
MODEL 4
REMARK VINA RESULT: -7.866195046      2.922      4.769
REMARK  9 active torsions:
REMARK  status: ('A' for Active; 'I' for Inactive)
REMARK    1  A    between atoms: C2_2  and  C3_3 
REMARK    2  A    between atoms: C3_3  and  O1_4 
REMARK    3  A    between atoms: C6_10  and  C7_11 
REMARK    4  A    between atoms: C7_11  and  C8_14 
REMARK    5  A    between atoms: C14_21  and  O4_22 
REMARK    6  A    between atoms: O4_22  and  C15_23 
REMARK    7  A    between atoms: C15_23  and  C16_25 
REMARK    8  A    between atoms: C16_25  and  N1_26 
REMARK    9  A    between atoms: C30_40  and  C31_41 
ROOT
HETATM    1  C3  UNL     1      40.684  25.046  23.331  1.00  0.00     0.067 C 
HETATM    2  C4  UNL     1      39.877  23.958  22.613  1.00  0.00     0.148 C 
HETATM    3  C5  UNL     1      38.432  24.053  22.770  1.00  0.00     0.262 C 
HETATM    4  O2  UNL     1      37.931  24.504  23.841  1.00  0.00    -0.265 OA
HETATM    5  O3  UNL     1      37.507  23.674  21.805  1.00  0.00    -0.307 OA
HETATM    6  C6  UNL     1      37.843  22.880  20.673  1.00  0.00     0.238 C 
HETATM    7  C14 UNL     1      37.943  23.943  19.533  1.00  0.00     0.167 C 
HETATM    8  C19 UNL     1      38.620  23.439  18.329  1.00  0.00     0.035 C 
HETATM    9  C20 UNL     1      39.872  24.237  18.028  1.00  0.00     0.003 C 
HETATM   10  C21 UNL     1      40.103  24.342  16.528  1.00  0.00     0.000 C 
HETATM   11  C22 UNL     1      41.355  23.636  16.120  1.00  0.00     0.000 C 
HETATM   12  C23 UNL     1      42.463  24.585  15.761  1.00  0.00     0.000 C 
HETATM   13  C24 UNL     1      43.034  25.296  16.945  1.00  0.00     0.000 C 
HETATM   14  C25 UNL     1      44.102  24.476  17.677  1.00  0.00     0.004 C 
HETATM   15  C26 UNL     1      45.019  25.471  18.342  1.00  0.00     0.027 C 
HETATM   16  C27 UNL     1      45.496  25.030  19.679  1.00  0.00    -0.031 C 
HETATM   17  C28 UNL     1      44.751  24.962  20.749  1.00  0.00    -0.030 C 
HETATM   18  C29 UNL     1      43.315  25.306  20.829  1.00  0.00     0.042 C 
HETATM   19  C30 UNL     1      42.938  25.729  22.271  1.00  0.00     0.093 C 
HETATM   20  C32 UNL     1      41.492  25.855  22.390  1.00  0.00     0.054 C 
ENDROOT
BRANCH   6  21
HETATM   21  C7  UNL     1      36.743  21.892  20.356  1.00  0.00     0.299 C 
HETATM   22  F1  UNL     1      35.547  22.247  21.006  1.00  0.00    -0.198 F 
HETATM   23  F2  UNL     1      36.475  21.825  19.019  1.00  0.00    -0.198 F 
BRANCH  21  24
HETATM   24  C8  UNL     1      37.102  20.536  20.906  1.00  0.00     0.016 A 
HETATM   25  C9  UNL     1      37.493  20.331  22.203  1.00  0.00     0.016 A 
HETATM   26  C10 UNL     1      37.808  19.059  22.680  1.00  0.00     0.043 A 
HETATM   27  C11 UNL     1      37.732  17.984  21.846  1.00  0.00     0.116 A 
HETATM   28  F3  UNL     1      38.029  16.729  22.277  1.00  0.00    -0.206 F 
HETATM   29  C12 UNL     1      37.340  18.160  20.532  1.00  0.00     0.043 A 
HETATM   30  C13 UNL     1      37.038  19.412  20.091  1.00  0.00     0.016 A 
ENDBRANCH  21  24
ENDBRANCH   6  21
BRANCH   7  31
HETATM   31  O4  UNL     1      36.657  24.484  19.332  1.00  0.00    -0.312 OA
BRANCH  31  32
HETATM   32  C15 UNL     1      36.279  25.783  19.572  1.00  0.00     0.287 C 
HETATM   33  O5  UNL     1      36.219  26.585  18.627  1.00  0.00    -0.263 OA
BRANCH  32  34
HETATM   34  C16 UNL     1      35.964  26.162  20.987  1.00  0.00     0.381 C 
BRANCH  34  35
HETATM   35  N1  UNL     1      36.657  27.398  21.301  1.00  0.00     0.089 N 
HETATM   36  C17 UNL     1      38.093  27.169  21.311  1.00  0.00     0.310 C 
HETATM   37  C18 UNL     1      36.166  28.076  22.450  1.00  0.00     0.310 C 
ENDBRANCH  34  35
ENDBRANCH  32  34
ENDBRANCH  31  32
ENDBRANCH   7  31
BRANCH   1  38
HETATM   38  C2  UNL     1      41.277  24.559  24.587  1.00  0.00     0.034 C 
HETATM   39  C1  UNL     1      41.032  25.283  25.850  1.00  0.00     0.008 C 
ENDBRANCH   1  38
BRANCH   1  40
HETATM   40  O1  UNL     1      39.683  25.994  23.765  1.00  0.00    -0.389 OA
ATOM     41  H1  UNL     1      39.097  25.475  24.303  1.00  0.00     0.210 HD
ENDBRANCH   1  40
BRANCH  19  42
HETATM   42  C31 UNL     1      43.645  27.072  22.400  1.00  0.00     0.177 C 
HETATM   43  O6  UNL     1      44.714  27.189  23.053  1.00  0.00    -0.648 OA
HETATM   44  O7  UNL     1      43.134  28.211  21.808  1.00  0.00    -0.648 OA
ENDBRANCH  19  42
TORSDOF 9
ENDMDL
MODEL 5
REMARK VINA RESULT: -7.825028247      0.708      1.173
REMARK  9 active torsions:
REMARK  status: ('A' for Active; 'I' for Inactive)
REMARK    1  A    between atoms: C2_2  and  C3_3 
REMARK    2  A    between atoms: C3_3  and  O1_4 
REMARK    3  A    between atoms: C6_10  and  C7_11 
REMARK    4  A    between atoms: C7_11  and  C8_14 
REMARK    5  A    between atoms: C14_21  and  O4_22 
REMARK    6  A    between atoms: O4_22  and  C15_23 
REMARK    7  A    between atoms: C15_23  and  C16_25 
REMARK    8  A    between atoms: C16_25  and  N1_26 
REMARK    9  A    between atoms: C30_40  and  C31_41 
ROOT
HETATM    1  C3  UNL     1      37.675  28.916  22.476  1.00  0.00     0.067 C 
HETATM    2  C4  UNL     1      37.809  27.507  23.066  1.00  0.00     0.148 C 
HETATM    3  C5  UNL     1      36.755  26.575  22.688  1.00  0.00     0.262 C 
HETATM    4  O2  UNL     1      35.575  26.986  22.488  1.00  0.00    -0.265 OA
HETATM    5  O3  UNL     1      36.935  25.207  22.521  1.00  0.00    -0.307 OA
HETATM    6  C6  UNL     1      38.088  24.511  22.980  1.00  0.00     0.238 C 
HETATM    7  C14 UNL     1      38.921  24.339  21.670  1.00  0.00     0.167 C 
HETATM    8  C19 UNL     1      40.320  23.960  21.919  1.00  0.00     0.035 C 
HETATM    9  C20 UNL     1      41.275  25.008  21.384  1.00  0.00     0.003 C 
HETATM   10  C21 UNL     1      42.558  24.365  20.877  1.00  0.00     0.000 C 
HETATM   11  C22 UNL     1      43.737  24.783  21.694  1.00  0.00     0.000 C 
HETATM   12  C23 UNL     1      44.630  25.748  20.968  1.00  0.00     0.000 C 
HETATM   13  C24 UNL     1      44.026  27.106  20.814  1.00  0.00     0.000 C 
HETATM   14  C25 UNL     1      44.228  27.993  22.048  1.00  0.00     0.004 C 
HETATM   15  C26 UNL     1      44.214  29.417  21.553  1.00  0.00     0.027 C 
HETATM   16  C27 UNL     1      43.541  30.358  22.486  1.00  0.00    -0.031 C 
HETATM   17  C28 UNL     1      42.255  30.395  22.706  1.00  0.00    -0.030 C 
HETATM   18  C29 UNL     1      41.243  29.520  22.077  1.00  0.00     0.042 C 
HETATM   19  C30 UNL     1      39.862  30.222  22.047  1.00  0.00     0.093 C 
HETATM   20  C32 UNL     1      38.834  29.279  21.629  1.00  0.00     0.054 C 
ENDROOT
BRANCH   6  21
HETATM   21  C7  UNL     1      37.719  23.154  23.533  1.00  0.00     0.299 C 
HETATM   22  F1  UNL     1      38.615  22.166  23.082  1.00  0.00    -0.198 F 
HETATM   23  F2  UNL     1      37.736  23.126  24.898  1.00  0.00    -0.198 F 
BRANCH  21  24
HETATM   24  C8  UNL     1      36.372  22.735  22.999  1.00  0.00     0.016 A 
HETATM   25  C9  UNL     1      36.214  21.786  22.024  1.00  0.00     0.016 A 
HETATM   26  C10 UNL     1      34.950  21.418  21.561  1.00  0.00     0.043 A 
HETATM   27  C11 UNL     1      33.838  22.008  22.082  1.00  0.00     0.116 A 
HETATM   28  F3  UNL     1      32.591  21.672  21.657  1.00  0.00    -0.206 F 
HETATM   29  C12 UNL     1      33.968  22.969  23.067  1.00  0.00     0.043 A 
HETATM   30  C13 UNL     1      35.212  23.311  23.502  1.00  0.00     0.016 A 
ENDBRANCH  21  24
ENDBRANCH   6  21
BRANCH   7  31
HETATM   31  O4  UNL     1      38.201  23.488  20.807  1.00  0.00    -0.312 OA
BRANCH  31  32
HETATM   32  C15 UNL     1      38.221  23.522  19.434  1.00  0.00     0.287 C 
HETATM   33  O5  UNL     1      39.303  23.670  18.844  1.00  0.00    -0.263 OA
BRANCH  32  34
HETATM   34  C16 UNL     1      36.912  23.383  18.718  1.00  0.00     0.381 C 
BRANCH  34  35
HETATM   35  N1  UNL     1      36.002  24.399  19.213  1.00  0.00     0.089 N 
HETATM   36  C17 UNL     1      34.650  24.113  18.759  1.00  0.00     0.310 C 
HETATM   37  C18 UNL     1      36.426  25.736  18.983  1.00  0.00     0.310 C 
ENDBRANCH  34  35
ENDBRANCH  32  34
ENDBRANCH  31  32
ENDBRANCH   7  31
BRANCH   1  38
HETATM   38  C2  UNL     1      37.142  29.879  23.454  1.00  0.00     0.034 C 
HETATM   39  C1  UNL     1      37.922  30.214  24.662  1.00  0.00     0.008 C 
ENDBRANCH   1  38
BRANCH   1  40
HETATM   40  O1  UNL     1      36.614  28.788  21.503  1.00  0.00    -0.389 OA
ATOM     41  H1  UNL     1      36.395  27.864  21.526  1.00  0.00     0.210 HD
ENDBRANCH   1  40
BRANCH  19  42
HETATM   42  C31 UNL     1      40.089  31.320  21.016  1.00  0.00     0.177 C 
HETATM   43  O6  UNL     1      40.305  31.049  19.806  1.00  0.00    -0.648 OA
HETATM   44  O7  UNL     1      40.072  32.654  21.375  1.00  0.00    -0.648 OA
ENDBRANCH  19  42
TORSDOF 9
ENDMDL
