MODEL 1
REMARK VINA RESULT: -7.243108214      0.000      0.000
REMARK  14 active torsions:
REMARK  status: ('A' for Active; 'I' for Inactive)
REMARK       I    between atoms: C2_2  and  N1_4 
REMARK    1  A    between atoms: N1_4  and  C3_6 
REMARK    2  A    between atoms: C3_6  and  C4_7 
REMARK    3  A    between atoms: C3_6  and  C8_11 
REMARK    4  A    between atoms: C4_7  and  C5_8 
REMARK    5  A    between atoms: C8_11  and  N2_12 
REMARK    6  A    between atoms: C8_11  and  C23_34 
REMARK    7  A    between atoms: N2_12  and  C9_14 
REMARK    8  A    between atoms: C9_14  and  C10_15 
REMARK       I    between atoms: N3_19  and  C14_20 
REMARK    9  A    between atoms: C14_20  and  C15_22 
REMARK   10  A    between atoms: C15_22  and  N4_23 
REMARK   11  A    between atoms: N4_23  and  C16_24 
REMARK       I    between atoms: C23_34  and  N6_36 
REMARK   12  A    between atoms: N6_36  and  C24_38 
REMARK   13  A    between atoms: C24_38  and  C25_39 
REMARK   14  A    between atoms: C24_38  and  C26_42 
ROOT
HETATM    1  C8  UNL     1       5.635   7.095  23.372  1.00  0.00     0.192 C 
ENDROOT
BRANCH   1   2
HETATM    2  C3  UNL     1       4.789   8.173  22.653  1.00  0.00     0.116 C 
BRANCH   2   3
HETATM    3  N1  UNL     1       5.652   8.955  21.784  1.00  0.00    -0.354 N 
HETATM    4  C2  UNL     1       5.226   9.311  20.474  1.00  0.00     0.214 C 
HETATM    5  C1  UNL     1       6.045  10.103  19.527  1.00  0.00     0.117 C 
HETATM    6  O1  UNL     1       4.091   8.929  20.101  1.00  0.00    -0.274 OA
ATOM      7  H1  UNL     1       6.570   9.250  22.115  1.00  0.00     0.162 HD
ENDBRANCH   2   3
BRANCH   2   8
HETATM    8  C4  UNL     1       4.105   8.949  23.705  1.00  0.00     0.031 C 
BRANCH   8   9
HETATM    9  C5  UNL     1       2.640   9.154  23.581  1.00  0.00    -0.021 C 
HETATM   10  C6  UNL     1       2.194  10.404  22.918  1.00  0.00     0.009 C 
HETATM   11  C7  UNL     1       1.928   7.971  22.956  1.00  0.00     0.009 C 
ENDBRANCH   8   9
ENDBRANCH   2   8
ENDBRANCH   1   2
BRANCH   1  12
HETATM   12  N2  UNL     1       5.184   5.808  23.090  1.00  0.00    -0.406 N 
ATOM     13  H2  UNL     1       5.361   5.067  23.767  1.00  0.00     0.154 HD
BRANCH  12  14
HETATM   14  C9  UNL     1       4.497   5.494  21.912  1.00  0.00     0.140 C 
BRANCH  14  15
HETATM   15  C10 UNL     1       3.888   4.082  22.018  1.00  0.00     0.104 C 
HETATM   16  C11 UNL     1       2.384   4.123  22.089  1.00  0.00     0.028 C 
HETATM   17  C12 UNL     1       1.920   4.007  20.667  1.00  0.00     0.022 C 
HETATM   18  C13 UNL     1       3.153   3.759  19.842  1.00  0.00     0.127 C 
HETATM   19  N3  UNL     1       4.140   3.353  20.801  1.00  0.00    -0.341 N 
HETATM   20  C14 UNL     1       5.215   2.394  20.586  1.00  0.00     0.267 C 
HETATM   21  O2  UNL     1       5.970   2.250  21.559  1.00  0.00    -0.267 OA
BRANCH  20  22
HETATM   22  C15 UNL     1       5.322   1.711  19.320  1.00  0.00     0.278 C 
BRANCH  22  23
HETATM   23  N4  UNL     1       6.355   2.001  18.393  1.00  0.00    -0.015 N 
HETATM   24  C19 UNL     1       6.020   3.239  17.697  1.00  0.00     0.247 C 
HETATM   25  C20 UNL     1       5.431   3.042  16.334  1.00  0.00     0.056 C 
HETATM   26  C21 UNL     1       4.411   1.947  16.225  1.00  0.00     0.236 C 
HETATM   27  N5  UNL     1       4.940   0.786  16.861  1.00  0.00    -0.050 N 
HETATM   28  C22 UNL     1       6.299   0.968  17.333  1.00  0.00     0.474 C 
ATOM     29  H52 UNL     1       4.330   0.475  17.617  1.00  0.00     0.279 HD
ATOM     30  H51 UNL     1       4.873  -0.027  16.249  1.00  0.00     0.279 HD
BRANCH  23  31
HETATM   31  C16 UNL     1       7.676   2.002  18.901  1.00  0.00     0.190 C 
HETATM   32  C17 UNL     1       8.591   0.941  18.250  1.00  0.00     0.040 C 
HETATM   33  C18 UNL     1       8.451   3.278  18.806  1.00  0.00     0.040 C 
ENDBRANCH  23  31
ENDBRANCH  22  23
ENDBRANCH  20  22
ENDBRANCH  14  15
ENDBRANCH  12  14
ENDBRANCH   1  12
BRANCH   1  34
HETATM   34  C23 UNL     1       7.063   7.387  23.245  1.00  0.00     0.242 C 
HETATM   35  O3  UNL     1       7.737   6.848  22.295  1.00  0.00    -0.271 OA
HETATM   36  N6  UNL     1       7.797   8.243  24.111  1.00  0.00    -0.346 N 
ATOM     37  H6  UNL     1       7.322   8.713  24.880  1.00  0.00     0.163 HD
BRANCH  36  38
HETATM   38  C24 UNL     1       9.228   8.453  23.904  1.00  0.00     0.177 C 
BRANCH  38  39
HETATM   39  C25 UNL     1       9.496   9.695  23.137  1.00  0.00     0.254 C 
HETATM   40  N7  UNL     1       8.601  10.120  22.136  1.00  0.00    -0.060 NA
HETATM   41  O4  UNL     1      10.518  10.424  23.336  1.00  0.00    -0.275 OA
ENDBRANCH  38  39
BRANCH  38  42
HETATM   42  C26 UNL     1       9.947   8.443  25.247  1.00  0.00     0.009 C 
HETATM   43  C27 UNL     1       9.342   7.358  26.147  1.00  0.00     0.012 C 
HETATM   44  C28 UNL     1      11.413   8.135  25.134  1.00  0.00     0.012 C 
ENDBRANCH  38  42
ENDBRANCH  36  38
ENDBRANCH   1  34
TORSDOF 14
ENDMDL
MODEL 2
REMARK VINA RESULT: -7.239176927      1.174      1.476
REMARK  14 active torsions:
REMARK  status: ('A' for Active; 'I' for Inactive)
REMARK       I    between atoms: C2_2  and  N1_4 
REMARK    1  A    between atoms: N1_4  and  C3_6 
REMARK    2  A    between atoms: C3_6  and  C4_7 
REMARK    3  A    between atoms: C3_6  and  C8_11 
REMARK    4  A    between atoms: C4_7  and  C5_8 
REMARK    5  A    between atoms: C8_11  and  N2_12 
REMARK    6  A    between atoms: C8_11  and  C23_34 
REMARK    7  A    between atoms: N2_12  and  C9_14 
REMARK    8  A    between atoms: C9_14  and  C10_15 
REMARK       I    between atoms: N3_19  and  C14_20 
REMARK    9  A    between atoms: C14_20  and  C15_22 
REMARK   10  A    between atoms: C15_22  and  N4_23 
REMARK   11  A    between atoms: N4_23  and  C16_24 
REMARK       I    between atoms: C23_34  and  N6_36 
REMARK   12  A    between atoms: N6_36  and  C24_38 
REMARK   13  A    between atoms: C24_38  and  C25_39 
REMARK   14  A    between atoms: C24_38  and  C26_42 
ROOT
HETATM    1  C8  UNL     1       5.767   6.989  23.493  1.00  0.00     0.192 C 
ENDROOT
BRANCH   1   2
HETATM    2  C3  UNL     1       4.879   8.209  23.151  1.00  0.00     0.116 C 
BRANCH   2   3
HETATM    3  N1  UNL     1       5.551   9.022  22.152  1.00  0.00    -0.354 N 
HETATM    4  C2  UNL     1       5.244   8.869  20.771  1.00  0.00     0.214 C 
HETATM    5  C1  UNL     1       5.883   9.657  19.692  1.00  0.00     0.117 C 
HETATM    6  O1  UNL     1       4.383   8.015  20.451  1.00  0.00    -0.274 OA
ATOM      7  H1  UNL     1       6.247   9.708  22.443  1.00  0.00     0.162 HD
ENDBRANCH   2   3
BRANCH   2   8
HETATM    8  C4  UNL     1       4.597   8.901  24.424  1.00  0.00     0.031 C 
BRANCH   8   9
HETATM    9  C5  UNL     1       3.184   9.217  24.749  1.00  0.00    -0.021 C 
HETATM   10  C6  UNL     1       2.411   9.957  23.720  1.00  0.00     0.009 C 
HETATM   11  C7  UNL     1       2.393   8.003  25.196  1.00  0.00     0.009 C 
ENDBRANCH   8   9
ENDBRANCH   2   8
ENDBRANCH   1   2
BRANCH   1  12
HETATM   12  N2  UNL     1       5.286   5.818  22.911  1.00  0.00    -0.406 N 
ATOM     13  H2  UNL     1       5.956   5.126  22.577  1.00  0.00     0.154 HD
BRANCH  12  14
HETATM   14  C9  UNL     1       3.920   5.556  22.768  1.00  0.00     0.140 C 
BRANCH  14  15
HETATM   15  C10 UNL     1       3.692   4.048  22.547  1.00  0.00     0.104 C 
HETATM   16  C11 UNL     1       2.267   3.649  22.825  1.00  0.00     0.028 C 
HETATM   17  C12 UNL     1       1.565   3.753  21.503  1.00  0.00     0.022 C 
HETATM   18  C13 UNL     1       2.628   4.064  20.486  1.00  0.00     0.127 C 
HETATM   19  N3  UNL     1       3.855   3.733  21.151  1.00  0.00    -0.341 N 
HETATM   20  C14 UNL     1       5.059   3.193  20.531  1.00  0.00     0.267 C 
HETATM   21  O2  UNL     1       6.007   3.037  21.314  1.00  0.00    -0.267 OA
BRANCH  20  22
HETATM   22  C15 UNL     1       5.064   2.891  19.120  1.00  0.00     0.278 C 
BRANCH  22  23
HETATM   23  N4  UNL     1       6.042   3.419  18.242  1.00  0.00    -0.015 N 
HETATM   24  C19 UNL     1       6.410   4.754  18.705  1.00  0.00     0.247 C 
HETATM   25  C20 UNL     1       5.748   5.871  17.958  1.00  0.00     0.056 C 
HETATM   26  C21 UNL     1       4.290   5.673  17.662  1.00  0.00     0.236 C 
HETATM   27  N5  UNL     1       4.123   4.364  17.122  1.00  0.00    -0.050 N 
HETATM   28  C22 UNL     1       5.379   3.663  16.939  1.00  0.00     0.474 C 
ATOM     29  H52 UNL     1       3.479   3.815  17.691  1.00  0.00     0.279 HD
ATOM     30  H51 UNL     1       3.593   4.395  16.251  1.00  0.00     0.279 HD
BRANCH  23  31
HETATM   31  C16 UNL     1       7.168   2.601  17.987  1.00  0.00     0.190 C 
HETATM   32  C17 UNL     1       8.455   3.080  18.693  1.00  0.00     0.040 C 
HETATM   33  C18 UNL     1       7.062   1.151  18.338  1.00  0.00     0.040 C 
ENDBRANCH  23  31
ENDBRANCH  22  23
ENDBRANCH  20  22
ENDBRANCH  14  15
ENDBRANCH  12  14
ENDBRANCH   1  12
BRANCH   1  34
HETATM   34  C23 UNL     1       7.184   7.321  23.345  1.00  0.00     0.242 C 
HETATM   35  O3  UNL     1       7.841   6.860  22.344  1.00  0.00    -0.271 OA
HETATM   36  N6  UNL     1       7.924   8.137  24.244  1.00  0.00    -0.346 N 
ATOM     37  H6  UNL     1       7.462   8.546  25.055  1.00  0.00     0.163 HD
BRANCH  36  38
HETATM   38  C24 UNL     1       9.344   8.393  24.011  1.00  0.00     0.177 C 
BRANCH  38  39
HETATM   39  C25 UNL     1       9.559   9.651  23.254  1.00  0.00     0.254 C 
HETATM   40  N7  UNL     1       8.609  10.083  22.308  1.00  0.00    -0.060 NA
HETATM   41  O4  UNL     1      10.582  10.388  23.413  1.00  0.00    -0.275 OA
ENDBRANCH  38  39
BRANCH  38  42
HETATM   42  C26 UNL     1      10.090   8.390  25.340  1.00  0.00     0.009 C 
HETATM   43  C27 UNL     1       9.496   7.317  26.261  1.00  0.00     0.012 C 
HETATM   44  C28 UNL     1      11.551   8.070  25.200  1.00  0.00     0.012 C 
ENDBRANCH  38  42
ENDBRANCH  36  38
ENDBRANCH   1  34
TORSDOF 14
ENDMDL
MODEL 3
REMARK VINA RESULT: -7.168571711      1.030      1.602
REMARK  14 active torsions:
REMARK  status: ('A' for Active; 'I' for Inactive)
REMARK       I    between atoms: C2_2  and  N1_4 
REMARK    1  A    between atoms: N1_4  and  C3_6 
REMARK    2  A    between atoms: C3_6  and  C4_7 
REMARK    3  A    between atoms: C3_6  and  C8_11 
REMARK    4  A    between atoms: C4_7  and  C5_8 
REMARK    5  A    between atoms: C8_11  and  N2_12 
REMARK    6  A    between atoms: C8_11  and  C23_34 
REMARK    7  A    between atoms: N2_12  and  C9_14 
REMARK    8  A    between atoms: C9_14  and  C10_15 
REMARK       I    between atoms: N3_19  and  C14_20 
REMARK    9  A    between atoms: C14_20  and  C15_22 
REMARK   10  A    between atoms: C15_22  and  N4_23 
REMARK   11  A    between atoms: N4_23  and  C16_24 
REMARK       I    between atoms: C23_34  and  N6_36 
REMARK   12  A    between atoms: N6_36  and  C24_38 
REMARK   13  A    between atoms: C24_38  and  C25_39 
REMARK   14  A    between atoms: C24_38  and  C26_42 
ROOT
HETATM    1  C8  UNL     1       5.717   7.012  23.587  1.00  0.00     0.192 C 
ENDROOT
BRANCH   1   2
HETATM    2  C3  UNL     1       4.848   8.212  23.141  1.00  0.00     0.116 C 
BRANCH   2   3
HETATM    3  N1  UNL     1       5.551   8.951  22.107  1.00  0.00    -0.354 N 
HETATM    4  C2  UNL     1       5.327   8.662  20.732  1.00  0.00     0.214 C 
HETATM    5  C1  UNL     1       6.002   9.368  19.619  1.00  0.00     0.117 C 
HETATM    6  O1  UNL     1       4.509   7.754  20.449  1.00  0.00    -0.274 OA
ATOM      7  H1  UNL     1       6.211   9.684  22.369  1.00  0.00     0.162 HD
ENDBRANCH   2   3
BRANCH   2   8
HETATM    8  C4  UNL     1       4.540   8.989  24.357  1.00  0.00     0.031 C 
BRANCH   8   9
HETATM    9  C5  UNL     1       3.118   9.311  24.637  1.00  0.00    -0.021 C 
HETATM   10  C6  UNL     1       2.349   9.954  23.543  1.00  0.00     0.009 C 
HETATM   11  C7  UNL     1       2.337   8.128  25.174  1.00  0.00     0.009 C 
ENDBRANCH   8   9
ENDBRANCH   2   8
ENDBRANCH   1   2
BRANCH   1  12
HETATM   12  N2  UNL     1       5.220   5.803  23.106  1.00  0.00    -0.406 N 
ATOM     13  H2  UNL     1       5.874   5.046  22.911  1.00  0.00     0.154 HD
BRANCH  12  14
HETATM   14  C9  UNL     1       3.856   5.589  22.880  1.00  0.00     0.140 C 
BRANCH  14  15
HETATM   15  C10 UNL     1       3.585   4.085  22.679  1.00  0.00     0.104 C 
HETATM   16  C11 UNL     1       2.121   3.755  22.817  1.00  0.00     0.028 C 
HETATM   17  C12 UNL     1       1.565   3.846  21.427  1.00  0.00     0.022 C 
HETATM   18  C13 UNL     1       2.740   4.079  20.518  1.00  0.00     0.127 C 
HETATM   19  N3  UNL     1       3.876   3.718  21.316  1.00  0.00    -0.341 N 
HETATM   20  C14 UNL     1       5.112   3.109  20.841  1.00  0.00     0.267 C 
HETATM   21  O2  UNL     1       5.967   2.938  21.722  1.00  0.00    -0.267 OA
BRANCH  20  22
HETATM   22  C15 UNL     1       5.249   2.762  19.447  1.00  0.00     0.278 C 
BRANCH  22  23
HETATM   23  N4  UNL     1       6.041   3.527  18.556  1.00  0.00    -0.015 N 
HETATM   24  C19 UNL     1       5.681   3.166  17.188  1.00  0.00     0.247 C 
HETATM   25  C20 UNL     1       6.626   2.205  16.534  1.00  0.00     0.056 C 
HETATM   26  C21 UNL     1       7.091   1.069  17.397  1.00  0.00     0.236 C 
HETATM   27  N5  UNL     1       7.502   1.607  18.651  1.00  0.00    -0.050 N 
HETATM   28  C22 UNL     1       7.439   3.055  18.693  1.00  0.00     0.474 C 
ATOM     29  H52 UNL     1       6.968   1.197  19.416  1.00  0.00     0.279 HD
ATOM     30  H51 UNL     1       8.434   1.276  18.901  1.00  0.00     0.279 HD
BRANCH  23  31
HETATM   31  C16 UNL     1       6.054   4.926  18.764  1.00  0.00     0.190 C 
HETATM   32  C17 UNL     1       7.452   5.491  19.101  1.00  0.00     0.040 C 
HETATM   33  C18 UNL     1       5.554   5.794  17.653  1.00  0.00     0.040 C 
ENDBRANCH  23  31
ENDBRANCH  22  23
ENDBRANCH  20  22
ENDBRANCH  14  15
ENDBRANCH  12  14
ENDBRANCH   1  12
BRANCH   1  34
HETATM   34  C23 UNL     1       7.139   7.309  23.414  1.00  0.00     0.242 C 
HETATM   35  O3  UNL     1       7.783   6.776  22.441  1.00  0.00    -0.271 OA
HETATM   36  N6  UNL     1       7.898   8.165  24.259  1.00  0.00    -0.346 N 
ATOM     37  H6  UNL     1       7.446   8.631  25.045  1.00  0.00     0.163 HD
BRANCH  36  38
HETATM   38  C24 UNL     1       9.320   8.381  24.006  1.00  0.00     0.177 C 
BRANCH  38  39
HETATM   39  C25 UNL     1       9.558   9.614  23.215  1.00  0.00     0.254 C 
HETATM   40  N7  UNL     1       8.635  10.015  22.229  1.00  0.00    -0.060 NA
HETATM   41  O4  UNL     1      10.576  10.357  23.380  1.00  0.00    -0.275 OA
ENDBRANCH  38  39
BRANCH  38  42
HETATM   42  C26 UNL     1      10.080   8.393  25.327  1.00  0.00     0.009 C 
HETATM   43  C27 UNL     1       9.497   7.329  26.266  1.00  0.00     0.012 C 
HETATM   44  C28 UNL     1      11.540   8.074  25.176  1.00  0.00     0.012 C 
ENDBRANCH  38  42
ENDBRANCH  36  38
ENDBRANCH   1  34
TORSDOF 14
ENDMDL
MODEL 4
REMARK VINA RESULT: -7.161884445      1.566      3.452
REMARK  14 active torsions:
REMARK  status: ('A' for Active; 'I' for Inactive)
REMARK       I    between atoms: C2_2  and  N1_4 
REMARK    1  A    between atoms: N1_4  and  C3_6 
REMARK    2  A    between atoms: C3_6  and  C4_7 
REMARK    3  A    between atoms: C3_6  and  C8_11 
REMARK    4  A    between atoms: C4_7  and  C5_8 
REMARK    5  A    between atoms: C8_11  and  N2_12 
REMARK    6  A    between atoms: C8_11  and  C23_34 
REMARK    7  A    between atoms: N2_12  and  C9_14 
REMARK    8  A    between atoms: C9_14  and  C10_15 
REMARK       I    between atoms: N3_19  and  C14_20 
REMARK    9  A    between atoms: C14_20  and  C15_22 
REMARK   10  A    between atoms: C15_22  and  N4_23 
REMARK   11  A    between atoms: N4_23  and  C16_24 
REMARK       I    between atoms: C23_34  and  N6_36 
REMARK   12  A    between atoms: N6_36  and  C24_38 
REMARK   13  A    between atoms: C24_38  and  C25_39 
REMARK   14  A    between atoms: C24_38  and  C26_42 
ROOT
HETATM    1  C8  UNL     1       5.270   7.036  22.683  1.00  0.00     0.192 C 
ENDROOT
BRANCH   1   2
HETATM    2  C3  UNL     1       5.317   7.612  24.118  1.00  0.00     0.116 C 
BRANCH   2   3
HETATM    3  N1  UNL     1       6.541   7.174  24.767  1.00  0.00    -0.354 N 
HETATM    4  C2  UNL     1       7.731   7.945  24.660  1.00  0.00     0.214 C 
HETATM    5  C1  UNL     1       9.018   7.569  25.290  1.00  0.00     0.117 C 
HETATM    6  O1  UNL     1       7.686   9.006  23.992  1.00  0.00    -0.274 OA
ATOM      7  H1  UNL     1       6.547   6.306  25.303  1.00  0.00     0.162 HD
ENDBRANCH   2   3
BRANCH   2   8
HETATM    8  C4  UNL     1       4.074   7.185  24.790  1.00  0.00     0.031 C 
BRANCH   8   9
HETATM    9  C5  UNL     1       3.088   8.230  25.162  1.00  0.00    -0.021 C 
HETATM   10  C6  UNL     1       3.631   9.561  25.532  1.00  0.00     0.009 C 
HETATM   11  C7  UNL     1       1.990   8.403  24.131  1.00  0.00     0.009 C 
ENDBRANCH   8   9
ENDBRANCH   2   8
ENDBRANCH   1   2
BRANCH   1  12
HETATM   12  N2  UNL     1       4.234   6.118  22.525  1.00  0.00    -0.406 N 
ATOM     13  H2  UNL     1       3.471   6.120  23.201  1.00  0.00     0.154 HD
BRANCH  12  14
HETATM   14  C9  UNL     1       4.201   5.195  21.475  1.00  0.00     0.140 C 
BRANCH  14  15
HETATM   15  C10 UNL     1       4.468   3.775  22.012  1.00  0.00     0.104 C 
HETATM   16  C11 UNL     1       3.289   3.235  22.779  1.00  0.00     0.028 C 
HETATM   17  C12 UNL     1       2.469   2.491  21.766  1.00  0.00     0.022 C 
HETATM   18  C13 UNL     1       3.266   2.501  20.491  1.00  0.00     0.127 C 
HETATM   19  N3  UNL     1       4.592   2.855  20.910  1.00  0.00    -0.341 N 
HETATM   20  C14 UNL     1       5.841   2.390  20.322  1.00  0.00     0.267 C 
HETATM   21  O2  UNL     1       6.858   2.881  20.833  1.00  0.00    -0.267 OA
BRANCH  20  22
HETATM   22  C15 UNL     1       5.811   1.436  19.240  1.00  0.00     0.278 C 
BRANCH  22  23
HETATM   23  N4  UNL     1       6.522   1.645  18.033  1.00  0.00    -0.015 N 
HETATM   24  C19 UNL     1       6.592   3.080  17.777  1.00  0.00     0.247 C 
HETATM   25  C20 UNL     1       5.592   3.579  16.780  1.00  0.00     0.056 C 
HETATM   26  C21 UNL     1       4.207   3.017  16.919  1.00  0.00     0.236 C 
HETATM   27  N5  UNL     1       4.316   1.602  17.053  1.00  0.00    -0.050 N 
HETATM   28  C22 UNL     1       5.681   1.126  16.930  1.00  0.00     0.474 C 
ATOM     29  H52 UNL     1       3.898   1.285  17.927  1.00  0.00     0.279 HD
ATOM     30  H51 UNL     1       3.703   1.125  16.392  1.00  0.00     0.279 HD
BRANCH  23  31
HETATM   31  C16 UNL     1       7.783   1.011  17.925  1.00  0.00     0.190 C 
HETATM   32  C17 UNL     1       8.081   0.459  16.514  1.00  0.00     0.040 C 
HETATM   33  C18 UNL     1       8.993   1.817  18.279  1.00  0.00     0.040 C 
ENDBRANCH  23  31
ENDBRANCH  22  23
ENDBRANCH  20  22
ENDBRANCH  14  15
ENDBRANCH  12  14
ENDBRANCH   1  12
BRANCH   1  34
HETATM   34  C23 UNL     1       5.427   8.101  21.692  1.00  0.00     0.242 C 
HETATM   35  O3  UNL     1       4.442   8.886  21.445  1.00  0.00    -0.271 OA
HETATM   36  N6  UNL     1       6.615   8.352  20.952  1.00  0.00    -0.346 N 
ATOM     37  H6  UNL     1       7.440   7.773  21.106  1.00  0.00     0.163 HD
BRANCH  36  38
HETATM   38  C24 UNL     1       6.660   9.434  19.971  1.00  0.00     0.177 C 
BRANCH  38  39
HETATM   39  C25 UNL     1       7.922  10.208  20.065  1.00  0.00     0.254 C 
HETATM   40  N7  UNL     1       7.928  11.593  19.805  1.00  0.00    -0.060 NA
HETATM   41  O4  UNL     1       9.036   9.681  20.378  1.00  0.00    -0.275 OA
ENDBRANCH  38  39
BRANCH  38  42
HETATM   42  C26 UNL     1       6.437   8.869  18.574  1.00  0.00     0.009 C 
HETATM   43  C27 UNL     1       6.425   7.336  18.634  1.00  0.00     0.012 C 
HETATM   44  C28 UNL     1       5.126   9.282  17.968  1.00  0.00     0.012 C 
ENDBRANCH  38  42
ENDBRANCH  36  38
ENDBRANCH   1  34
TORSDOF 14
ENDMDL
MODEL 5
REMARK VINA RESULT: -7.047718041      1.703      3.707
REMARK  14 active torsions:
REMARK  status: ('A' for Active; 'I' for Inactive)
REMARK       I    between atoms: C2_2  and  N1_4 
REMARK    1  A    between atoms: N1_4  and  C3_6 
REMARK    2  A    between atoms: C3_6  and  C4_7 
REMARK    3  A    between atoms: C3_6  and  C8_11 
REMARK    4  A    between atoms: C4_7  and  C5_8 
REMARK    5  A    between atoms: C8_11  and  N2_12 
REMARK    6  A    between atoms: C8_11  and  C23_34 
REMARK    7  A    between atoms: N2_12  and  C9_14 
REMARK    8  A    between atoms: C9_14  and  C10_15 
REMARK       I    between atoms: N3_19  and  C14_20 
REMARK    9  A    between atoms: C14_20  and  C15_22 
REMARK   10  A    between atoms: C15_22  and  N4_23 
REMARK   11  A    between atoms: N4_23  and  C16_24 
REMARK       I    between atoms: C23_34  and  N6_36 
REMARK   12  A    between atoms: N6_36  and  C24_38 
REMARK   13  A    between atoms: C24_38  and  C25_39 
REMARK   14  A    between atoms: C24_38  and  C26_42 
ROOT
HETATM    1  C8  UNL     1       4.836   6.971  22.759  1.00  0.00     0.192 C 
ENDROOT
BRANCH   1   2
HETATM    2  C3  UNL     1       5.048   7.571  24.170  1.00  0.00     0.116 C 
BRANCH   2   3
HETATM    3  N1  UNL     1       6.310   7.089  24.708  1.00  0.00    -0.354 N 
HETATM    4  C2  UNL     1       7.475   7.903  24.655  1.00  0.00     0.214 C 
HETATM    5  C1  UNL     1       8.796   7.486  25.179  1.00  0.00     0.117 C 
HETATM    6  O1  UNL     1       7.376   9.039  24.133  1.00  0.00    -0.274 OA
ATOM      7  H1  UNL     1       6.359   6.160  25.126  1.00  0.00     0.162 HD
ENDBRANCH   2   3
BRANCH   2   8
HETATM    8  C4  UNL     1       3.859   7.215  24.968  1.00  0.00     0.031 C 
BRANCH   8   9
HETATM    9  C5  UNL     1       3.082   8.315  25.591  1.00  0.00    -0.021 C 
HETATM   10  C6  UNL     1       3.601   9.692  25.401  1.00  0.00     0.009 C 
HETATM   11  C7  UNL     1       1.610   8.277  25.231  1.00  0.00     0.009 C 
ENDBRANCH   8   9
ENDBRANCH   2   8
ENDBRANCH   1   2
BRANCH   1  12
HETATM   12  N2  UNL     1       3.620   6.300  22.658  1.00  0.00    -0.406 N 
ATOM     13  H2  UNL     1       2.843   6.602  23.246  1.00  0.00     0.154 HD
BRANCH  12  14
HETATM   14  C9  UNL     1       3.424   5.228  21.781  1.00  0.00     0.140 C 
BRANCH  14  15
HETATM   15  C10 UNL     1       4.084   3.956  22.347  1.00  0.00     0.104 C 
HETATM   16  C11 UNL     1       3.133   3.164  23.205  1.00  0.00     0.028 C 
HETATM   17  C12 UNL     1       2.487   2.183  22.271  1.00  0.00     0.022 C 
HETATM   18  C13 UNL     1       3.184   2.339  20.948  1.00  0.00     0.127 C 
HETATM   19  N3  UNL     1       4.389   3.048  21.270  1.00  0.00    -0.341 N 
HETATM   20  C14 UNL     1       5.684   2.899  20.619  1.00  0.00     0.267 C 
HETATM   21  O2  UNL     1       6.560   3.664  21.047  1.00  0.00    -0.267 OA
BRANCH  20  22
HETATM   22  C15 UNL     1       5.850   1.918  19.573  1.00  0.00     0.278 C 
BRANCH  22  23
HETATM   23  N4  UNL     1       5.984   2.286  18.212  1.00  0.00    -0.015 N 
HETATM   24  C19 UNL     1       6.171   1.074  17.420  1.00  0.00     0.247 C 
HETATM   25  C20 UNL     1       7.595   0.796  17.045  1.00  0.00     0.056 C 
HETATM   26  C21 UNL     1       8.603   1.014  18.135  1.00  0.00     0.236 C 
HETATM   27  N5  UNL     1       8.341   2.282  18.731  1.00  0.00    -0.050 N 
HETATM   28  C22 UNL     1       7.271   3.006  18.073  1.00  0.00     0.474 C 
ATOM     29  H52 UNL     1       8.155   2.184  19.729  1.00  0.00     0.279 HD
ATOM     30  H51 UNL     1       9.190   2.846  18.774  1.00  0.00     0.279 HD
BRANCH  23  31
HETATM   31  C16 UNL     1       4.979   3.131  17.684  1.00  0.00     0.190 C 
HETATM   32  C17 UNL     1       5.504   4.508  17.224  1.00  0.00     0.040 C 
HETATM   33  C18 UNL     1       4.188   2.620  16.521  1.00  0.00     0.040 C 
ENDBRANCH  23  31
ENDBRANCH  22  23
ENDBRANCH  20  22
ENDBRANCH  14  15
ENDBRANCH  12  14
ENDBRANCH   1  12
BRANCH   1  34
HETATM   34  C23 UNL     1       5.197   7.940  21.725  1.00  0.00     0.242 C 
HETATM   35  O3  UNL     1       4.278   8.638  21.163  1.00  0.00    -0.271 OA
HETATM   36  N6  UNL     1       6.521   8.186  21.269  1.00  0.00    -0.346 N 
ATOM     37  H6  UNL     1       7.301   7.675  21.680  1.00  0.00     0.163 HD
BRANCH  36  38
HETATM   38  C24 UNL     1       6.770   9.167  20.215  1.00  0.00     0.177 C 
BRANCH  38  39
HETATM   39  C25 UNL     1       7.919  10.047  20.543  1.00  0.00     0.254 C 
HETATM   40  N7  UNL     1       8.014  11.334  19.978  1.00  0.00    -0.060 NA
HETATM   41  O4  UNL     1       8.854   9.699  21.330  1.00  0.00    -0.275 OA
ENDBRANCH  38  39
BRANCH  38  42
HETATM   42  C26 UNL     1       6.958   8.452  18.883  1.00  0.00     0.009 C 
HETATM   43  C27 UNL     1       7.437   7.016  19.133  1.00  0.00     0.012 C 
HETATM   44  C28 UNL     1       5.691   8.346  18.082  1.00  0.00     0.012 C 
ENDBRANCH  38  42
ENDBRANCH  36  38
ENDBRANCH   1  34
TORSDOF 14
ENDMDL
