MODEL 1
REMARK VINA RESULT: -8.359285921      0.000      0.000
REMARK  10 active torsions:
REMARK  status: ('A' for Active; 'I' for Inactive)
REMARK    1  A    between atoms: C3_3  and  N1_4 
REMARK    2  A    between atoms: N2_7  and  C6_8 
REMARK    3  A    between atoms: C6_8  and  C7_9 
REMARK    4  A    between atoms: C8_10  and  C9_11 
REMARK    5  A    between atoms: C9_11  and  N3_12 
REMARK    6  A    between atoms: N3_12  and  C10_13 
REMARK    7  A    between atoms: C10_13  and  C11_14 
REMARK    8  A    between atoms: C12_15  and  C13_16 
REMARK    9  A    between atoms: C13_16  and  C14_17 
REMARK   10  A    between atoms: C22_29  and  O1_30 
ROOT
HETATM    1  C1  UNL     1     -15.150 -17.846  28.711  1.00  0.00     0.013 C 
HETATM    2  C2  UNL     1     -16.207 -18.125  29.220  1.00  0.00    -0.089 C 
HETATM    3  C3  UNL     1     -17.479 -18.454  29.860  1.00  0.00     0.332 C 
ENDROOT
BRANCH   3   4
HETATM    4  N1  UNL     1     -18.044 -19.665  29.415  1.00  0.00    -0.030 N 
HETATM    5  C4  UNL     1     -19.291 -20.029  30.059  1.00  0.00     0.268 C 
HETATM    6  C5  UNL     1     -19.363 -21.524  29.822  1.00  0.00     0.268 C 
HETATM    7  N2  UNL     1     -18.121 -21.847  29.150  1.00  0.00    -0.030 N 
HETATM    8  C23 UNL     1     -18.200 -21.357  27.812  1.00  0.00     0.268 C 
HETATM    9  C25 UNL     1     -17.229 -20.844  29.760  1.00  0.00     0.475 C 
HETATM   10  C24 UNL     1     -18.192 -19.833  28.005  1.00  0.00     0.268 C 
BRANCH   7  11
HETATM   11  C6  UNL     1     -17.678 -23.168  29.331  1.00  0.00     0.333 C 
BRANCH  11  12
HETATM   12  C7  UNL     1     -17.638 -23.917  28.078  1.00  0.00    -0.077 C 
HETATM   13  C8  UNL     1     -17.625 -24.550  27.038  1.00  0.00    -0.077 C 
BRANCH  13  14
HETATM   14  C9  UNL     1     -17.636 -25.309  25.779  1.00  0.00     0.335 C 
BRANCH  14  15
HETATM   15  N3  UNL     1     -18.551 -24.760  24.811  1.00  0.00    -0.021 N 
HETATM   16  C20 UNL     1     -19.952 -24.864  25.162  1.00  0.00     0.247 C 
HETATM   17  C21 UNL     1     -20.215 -25.938  24.158  1.00  0.00     0.090 C 
HETATM   18  C22 UNL     1     -18.816 -25.595  23.669  1.00  0.00     0.326 C 
BRANCH  15  19
HETATM   19  C10 UNL     1     -18.165 -23.400  24.469  1.00  0.00     0.335 C 
BRANCH  19  20
HETATM   20  C11 UNL     1     -16.815 -23.421  23.887  1.00  0.00    -0.078 C 
HETATM   21  C12 UNL     1     -15.708 -23.422  23.395  1.00  0.00    -0.099 C 
BRANCH  21  22
HETATM   22  C13 UNL     1     -14.366 -23.422  22.773  1.00  0.00     0.152 C 
BRANCH  22  23
HETATM   23  C14 UNL     1     -14.216 -24.647  21.954  1.00  0.00     0.039 A 
HETATM   24  N4  UNL     1     -15.155 -25.057  21.082  1.00  0.00    -0.367 N 
HETATM   25  C15 UNL     1     -15.013 -26.168  20.343  1.00  0.00     0.096 A 
ATOM     26  H4  UNL     1     -16.005 -24.502  20.978  1.00  0.00     0.165 HD
HETATM   27  C16 UNL     1     -13.861 -26.932  20.476  1.00  0.00    -0.021 A 
HETATM   28  C17 UNL     1     -13.688 -28.159  19.671  1.00  0.00     0.052 C 
HETATM   29  C18 UNL     1     -12.896 -26.511  21.374  1.00  0.00     0.073 A 
HETATM   30  N5  UNL     1     -11.687 -27.256  21.555  1.00  0.00    -0.100 NA
HETATM   31  C19 UNL     1     -13.038 -25.370  22.134  1.00  0.00     0.059 A 
HETATM   32 BR1  UNL     1     -11.693 -24.822  23.356  1.00  0.00    -0.047 Br
ENDBRANCH  22  23
ENDBRANCH  21  22
ENDBRANCH  19  20
ENDBRANCH  15  19
BRANCH  18  33
HETATM   33  O1  UNL     1     -18.899 -24.900  22.465  1.00  0.00    -0.369 OA
ATOM     34  H1  UNL     1     -18.433 -24.072  22.463  1.00  0.00     0.212 HD
ENDBRANCH  18  33
ENDBRANCH  14  15
ENDBRANCH  13  14
ENDBRANCH  11  12
ENDBRANCH   7  11
ENDBRANCH   3   4
TORSDOF 10
ENDMDL
MODEL 2
REMARK VINA RESULT: -8.275445161      4.167      9.367
REMARK  10 active torsions:
REMARK  status: ('A' for Active; 'I' for Inactive)
REMARK    1  A    between atoms: C3_3  and  N1_4 
REMARK    2  A    between atoms: N2_7  and  C6_8 
REMARK    3  A    between atoms: C6_8  and  C7_9 
REMARK    4  A    between atoms: C8_10  and  C9_11 
REMARK    5  A    between atoms: C9_11  and  N3_12 
REMARK    6  A    between atoms: N3_12  and  C10_13 
REMARK    7  A    between atoms: C10_13  and  C11_14 
REMARK    8  A    between atoms: C12_15  and  C13_16 
REMARK    9  A    between atoms: C13_16  and  C14_17 
REMARK   10  A    between atoms: C22_29  and  O1_30 
ROOT
HETATM    1  C1  UNL     1     -13.847 -28.326  19.901  1.00  0.00     0.013 C 
HETATM    2  C2  UNL     1     -13.311 -27.527  20.629  1.00  0.00    -0.089 C 
HETATM    3  C3  UNL     1     -12.659 -26.578  21.529  1.00  0.00     0.332 C 
ENDROOT
BRANCH   3   4
HETATM    4  N1  UNL     1     -13.269 -25.308  21.559  1.00  0.00    -0.030 N 
HETATM    5  C4  UNL     1     -12.349 -24.191  21.650  1.00  0.00     0.268 C 
HETATM    6  C5  UNL     1     -13.226 -23.084  22.199  1.00  0.00     0.268 C 
HETATM    7  N2  UNL     1     -14.508 -23.715  22.433  1.00  0.00    -0.030 N 
HETATM    8  C23 UNL     1     -15.126 -23.946  21.167  1.00  0.00     0.268 C 
HETATM    9  C25 UNL     1     -14.066 -25.079  22.777  1.00  0.00     0.475 C 
HETATM   10  C24 UNL     1     -14.230 -25.027  20.541  1.00  0.00     0.268 C 
BRANCH   7  11
HETATM   11  C6  UNL     1     -15.289 -23.115  23.435  1.00  0.00     0.333 C 
BRANCH  11  12
HETATM   12  C7  UNL     1     -16.676 -23.568  23.405  1.00  0.00    -0.077 C 
HETATM   13  C8  UNL     1     -17.839 -23.927  23.390  1.00  0.00    -0.077 C 
BRANCH  13  14
HETATM   14  C9  UNL     1     -19.252 -24.335  23.370  1.00  0.00     0.335 C 
BRANCH  14  15
HETATM   15  N3  UNL     1     -19.695 -24.726  22.055  1.00  0.00    -0.021 N 
HETATM   16  C20 UNL     1     -20.894 -25.538  22.028  1.00  0.00     0.247 C 
HETATM   17  C21 UNL     1     -20.147 -26.782  21.670  1.00  0.00     0.090 C 
HETATM   18  C22 UNL     1     -18.982 -25.826  21.464  1.00  0.00     0.326 C 
BRANCH  15  19
HETATM   19  C10 UNL     1     -19.797 -23.558  21.193  1.00  0.00     0.335 C 
BRANCH  19  20
HETATM   20  C11 UNL     1     -20.892 -22.703  21.675  1.00  0.00    -0.078 C 
HETATM   21  C12 UNL     1     -21.787 -21.984  22.061  1.00  0.00    -0.099 C 
BRANCH  21  22
HETATM   22  C13 UNL     1     -22.864 -21.088  22.534  1.00  0.00     0.152 C 
BRANCH  22  23
HETATM   23  C14 UNL     1     -22.485 -20.540  23.857  1.00  0.00     0.039 A 
HETATM   24  N4  UNL     1     -21.842 -21.267  24.787  1.00  0.00    -0.367 N 
HETATM   25  C15 UNL     1     -21.502 -20.765  25.984  1.00  0.00     0.096 A 
ATOM     26  H4  UNL     1     -21.603 -22.236  24.576  1.00  0.00     0.165 HD
HETATM   27  C16 UNL     1     -21.821 -19.447  26.286  1.00  0.00    -0.021 A 
HETATM   28  C17 UNL     1     -21.456 -18.877  27.598  1.00  0.00     0.052 C 
HETATM   29  C18 UNL     1     -22.484 -18.699  25.328  1.00  0.00     0.073 A 
HETATM   30  N5  UNL     1     -22.841 -17.335  25.580  1.00  0.00    -0.100 NA
HETATM   31  C19 UNL     1     -22.834 -19.212  24.099  1.00  0.00     0.059 A 
HETATM   32 BR1  UNL     1     -23.744 -18.156  22.809  1.00  0.00    -0.047 Br
ENDBRANCH  22  23
ENDBRANCH  21  22
ENDBRANCH  19  20
ENDBRANCH  15  19
BRANCH  18  33
HETATM   33  O1  UNL     1     -18.736 -25.676  20.101  1.00  0.00    -0.369 OA
ATOM     34  H1  UNL     1     -19.081 -26.380  19.565  1.00  0.00     0.212 HD
ENDBRANCH  18  33
ENDBRANCH  14  15
ENDBRANCH  13  14
ENDBRANCH  11  12
ENDBRANCH   7  11
ENDBRANCH   3   4
TORSDOF 10
ENDMDL
MODEL 3
REMARK VINA RESULT: -8.233345499      3.590      5.928
REMARK  10 active torsions:
REMARK  status: ('A' for Active; 'I' for Inactive)
REMARK    1  A    between atoms: C3_3  and  N1_4 
REMARK    2  A    between atoms: N2_7  and  C6_8 
REMARK    3  A    between atoms: C6_8  and  C7_9 
REMARK    4  A    between atoms: C8_10  and  C9_11 
REMARK    5  A    between atoms: C9_11  and  N3_12 
REMARK    6  A    between atoms: N3_12  and  C10_13 
REMARK    7  A    between atoms: C10_13  and  C11_14 
REMARK    8  A    between atoms: C12_15  and  C13_16 
REMARK    9  A    between atoms: C13_16  and  C14_17 
REMARK   10  A    between atoms: C22_29  and  O1_30 
ROOT
HETATM    1  C1  UNL     1     -18.105 -33.234  29.566  1.00  0.00     0.013 C 
HETATM    2  C2  UNL     1     -17.867 -32.181  29.028  1.00  0.00    -0.089 C 
HETATM    3  C3  UNL     1     -17.560 -30.916  28.363  1.00  0.00     0.332 C 
ENDROOT
BRANCH   3   4
HETATM    4  N1  UNL     1     -17.707 -29.786  29.191  1.00  0.00    -0.030 N 
HETATM    5  C4  UNL     1     -19.052 -29.250  29.259  1.00  0.00     0.268 C 
HETATM    6  C5  UNL     1     -18.819 -27.826  29.720  1.00  0.00     0.268 C 
HETATM    7  N2  UNL     1     -17.377 -27.693  29.780  1.00  0.00    -0.030 N 
HETATM    8  C23 UNL     1     -16.912 -28.424  30.915  1.00  0.00     0.268 C 
HETATM    9  C25 UNL     1     -16.988 -28.602  28.687  1.00  0.00     0.475 C 
HETATM   10  C24 UNL     1     -17.186 -29.882  30.518  1.00  0.00     0.268 C 
BRANCH   7  11
HETATM   11  C6  UNL     1     -16.897 -26.383  29.611  1.00  0.00     0.333 C 
BRANCH  11  12
HETATM   12  C7  UNL     1     -16.824 -25.995  28.206  1.00  0.00    -0.077 C 
HETATM   13  C8  UNL     1     -16.782 -25.659  27.037  1.00  0.00    -0.077 C 
BRANCH  13  14
HETATM   14  C9  UNL     1     -16.742 -25.231  25.631  1.00  0.00     0.335 C 
BRANCH  14  15
HETATM   15  N3  UNL     1     -17.959 -24.581  25.215  1.00  0.00    -0.021 N 
HETATM   16  C20 UNL     1     -19.031 -24.605  26.189  1.00  0.00     0.247 C 
HETATM   17  C21 UNL     1     -19.821 -25.615  25.423  1.00  0.00     0.090 C 
HETATM   18  C22 UNL     1     -18.797 -25.347  24.331  1.00  0.00     0.326 C 
BRANCH  15  19
HETATM   19  C10 UNL     1     -17.673 -23.237  24.738  1.00  0.00     0.335 C 
BRANCH  19  20
HETATM   20  C11 UNL     1     -16.405 -23.255  23.995  1.00  0.00    -0.078 C 
HETATM   21  C12 UNL     1     -15.364 -23.288  23.375  1.00  0.00    -0.099 C 
BRANCH  21  22
HETATM   22  C13 UNL     1     -14.091 -23.351  22.624  1.00  0.00     0.152 C 
BRANCH  22  23
HETATM   23  C14 UNL     1     -14.048 -24.619  21.859  1.00  0.00     0.039 A 
HETATM   24  N4  UNL     1     -15.056 -25.023  21.065  1.00  0.00    -0.367 N 
HETATM   25  C15 UNL     1     -15.010 -26.173  20.376  1.00  0.00     0.096 A 
ATOM     26  H4  UNL     1     -15.885 -24.434  20.984  1.00  0.00     0.165 HD
HETATM   27  C16 UNL     1     -13.888 -26.984  20.478  1.00  0.00    -0.021 A 
HETATM   28  C17 UNL     1     -13.820 -28.254  19.726  1.00  0.00     0.052 C 
HETATM   29  C18 UNL     1     -12.851 -26.569  21.296  1.00  0.00     0.073 A 
HETATM   30  N5  UNL     1     -11.669 -27.362  21.442  1.00  0.00    -0.100 NA
HETATM   31  C19 UNL     1     -12.895 -25.389  22.005  1.00  0.00     0.059 A 
HETATM   32 BR1  UNL     1     -11.454 -24.849  23.117  1.00  0.00    -0.047 Br
ENDBRANCH  22  23
ENDBRANCH  21  22
ENDBRANCH  19  20
ENDBRANCH  15  19
BRANCH  18  33
HETATM   33  O1  UNL     1     -19.383 -24.597  23.314  1.00  0.00    -0.369 OA
ATOM     34  H1  UNL     1     -19.144 -24.877  22.439  1.00  0.00     0.212 HD
ENDBRANCH  18  33
ENDBRANCH  14  15
ENDBRANCH  13  14
ENDBRANCH  11  12
ENDBRANCH   7  11
ENDBRANCH   3   4
TORSDOF 10
ENDMDL
MODEL 4
REMARK VINA RESULT: -8.097423492      2.963      5.876
REMARK  10 active torsions:
REMARK  status: ('A' for Active; 'I' for Inactive)
REMARK    1  A    between atoms: C3_3  and  N1_4 
REMARK    2  A    between atoms: N2_7  and  C6_8 
REMARK    3  A    between atoms: C6_8  and  C7_9 
REMARK    4  A    between atoms: C8_10  and  C9_11 
REMARK    5  A    between atoms: C9_11  and  N3_12 
REMARK    6  A    between atoms: N3_12  and  C10_13 
REMARK    7  A    between atoms: C10_13  and  C11_14 
REMARK    8  A    between atoms: C12_15  and  C13_16 
REMARK    9  A    between atoms: C13_16  and  C14_17 
REMARK   10  A    between atoms: C22_29  and  O1_30 
ROOT
HETATM    1  C1  UNL     1     -16.938 -20.121  29.414  1.00  0.00     0.013 C 
HETATM    2  C2  UNL     1     -17.414 -21.218  29.567  1.00  0.00    -0.089 C 
HETATM    3  C3  UNL     1     -17.977 -22.551  29.773  1.00  0.00     0.332 C 
ENDROOT
BRANCH   3   4
HETATM    4  N1  UNL     1     -18.175 -23.277  28.582  1.00  0.00    -0.030 N 
HETATM    5  C4  UNL     1     -19.050 -24.426  28.706  1.00  0.00     0.268 C 
HETATM    6  C5  UNL     1     -18.655 -25.274  27.514  1.00  0.00     0.268 C 
HETATM    7  N2  UNL     1     -17.555 -24.556  26.904  1.00  0.00    -0.030 N 
HETATM    8  C23 UNL     1     -18.087 -23.403  26.251  1.00  0.00     0.268 C 
HETATM    9  C25 UNL     1     -16.951 -23.942  28.100  1.00  0.00     0.475 C 
HETATM   10  C24 UNL     1     -18.560 -22.533  27.426  1.00  0.00     0.268 C 
BRANCH   7  11
HETATM   11  C6  UNL     1     -16.658 -25.356  26.176  1.00  0.00     0.333 C 
BRANCH  11  12
HETATM   12  C7  UNL     1     -16.236 -24.725  24.929  1.00  0.00    -0.077 C 
HETATM   13  C8  UNL     1     -15.898 -24.215  23.877  1.00  0.00    -0.077 C 
BRANCH  13  14
HETATM   14  C9  UNL     1     -15.512 -23.604  22.596  1.00  0.00     0.335 C 
BRANCH  14  15
HETATM   15  N3  UNL     1     -14.402 -24.280  21.973  1.00  0.00    -0.021 N 
HETATM   16  C20 UNL     1     -13.603 -25.097  22.861  1.00  0.00     0.247 C 
HETATM   17  C21 UNL     1     -12.458 -24.137  22.857  1.00  0.00     0.090 C 
HETATM   18  C22 UNL     1     -13.238 -23.468  21.736  1.00  0.00     0.326 C 
BRANCH  15  19
HETATM   19  C10 UNL     1     -14.856 -25.014  20.802  1.00  0.00     0.335 C 
BRANCH  19  20
HETATM   20  C11 UNL     1     -16.244 -25.447  21.019  1.00  0.00    -0.078 C 
HETATM   21  C12 UNL     1     -17.394 -25.787  21.190  1.00  0.00    -0.099 C 
BRANCH  21  22
HETATM   22  C13 UNL     1     -18.804 -26.180  21.405  1.00  0.00     0.152 C 
BRANCH  22  23
HETATM   23  C14 UNL     1     -19.637 -24.957  21.474  1.00  0.00     0.039 A 
HETATM   24  N4  UNL     1     -19.745 -24.093  20.449  1.00  0.00    -0.367 N 
HETATM   25  C15 UNL     1     -20.501 -22.987  20.519  1.00  0.00     0.096 A 
ATOM     26  H4  UNL     1     -19.233 -24.285  19.588  1.00  0.00     0.165 HD
HETATM   27  C16 UNL     1     -21.202 -22.713  21.686  1.00  0.00    -0.021 A 
HETATM   28  C17 UNL     1     -22.040 -21.500  21.781  1.00  0.00     0.052 C 
HETATM   29  C18 UNL     1     -21.090 -23.602  22.741  1.00  0.00     0.073 A 
HETATM   30  N5  UNL     1     -21.789 -23.374  23.970  1.00  0.00    -0.100 NA
HETATM   31  C19 UNL     1     -20.315 -24.739  22.673  1.00  0.00     0.059 A 
HETATM   32 BR1  UNL     1     -20.185 -25.937  24.139  1.00  0.00    -0.047 Br
ENDBRANCH  22  23
ENDBRANCH  21  22
ENDBRANCH  19  20
ENDBRANCH  15  19
BRANCH  18  33
HETATM   33  O1  UNL     1     -12.612 -23.716  20.517  1.00  0.00    -0.369 OA
ATOM     34  H1  UNL     1     -12.283 -22.937  20.085  1.00  0.00     0.212 HD
ENDBRANCH  18  33
ENDBRANCH  14  15
ENDBRANCH  13  14
ENDBRANCH  11  12
ENDBRANCH   7  11
ENDBRANCH   3   4
TORSDOF 10
ENDMDL
MODEL 5
REMARK VINA RESULT: -8.086721889      3.654      5.171
REMARK  10 active torsions:
REMARK  status: ('A' for Active; 'I' for Inactive)
REMARK    1  A    between atoms: C3_3  and  N1_4 
REMARK    2  A    between atoms: N2_7  and  C6_8 
REMARK    3  A    between atoms: C6_8  and  C7_9 
REMARK    4  A    between atoms: C8_10  and  C9_11 
REMARK    5  A    between atoms: C9_11  and  N3_12 
REMARK    6  A    between atoms: N3_12  and  C10_13 
REMARK    7  A    between atoms: C10_13  and  C11_14 
REMARK    8  A    between atoms: C12_15  and  C13_16 
REMARK    9  A    between atoms: C13_16  and  C14_17 
REMARK   10  A    between atoms: C22_29  and  O1_30 
ROOT
HETATM    1  C1  UNL     1     -19.334 -30.198  28.457  1.00  0.00     0.013 C 
HETATM    2  C2  UNL     1     -18.818 -29.361  29.155  1.00  0.00    -0.089 C 
HETATM    3  C3  UNL     1     -18.208 -28.352  30.019  1.00  0.00     0.332 C 
ENDROOT
BRANCH   3   4
HETATM    4  N1  UNL     1     -17.876 -27.156  29.353  1.00  0.00    -0.030 N 
HETATM    5  C4  UNL     1     -18.945 -26.583  28.559  1.00  0.00     0.268 C 
HETATM    6  C5  UNL     1     -18.196 -25.698  27.584  1.00  0.00     0.268 C 
HETATM    7  N2  UNL     1     -16.797 -25.933  27.878  1.00  0.00    -0.030 N 
HETATM    8  C23 UNL     1     -16.490 -25.290  29.115  1.00  0.00     0.268 C 
HETATM    9  C25 UNL     1     -16.856 -27.343  28.305  1.00  0.00     0.475 C 
HETATM   10  C24 UNL     1     -17.282 -26.121  30.137  1.00  0.00     0.268 C 
BRANCH   7  11
HETATM   11  C6  UNL     1     -15.921 -25.715  26.800  1.00  0.00     0.333 C 
BRANCH  11  12
HETATM   12  C7  UNL     1     -16.576 -25.051  25.677  1.00  0.00    -0.077 C 
HETATM   13  C8  UNL     1     -17.138 -24.513  24.741  1.00  0.00    -0.077 C 
BRANCH  13  14
HETATM   14  C9  UNL     1     -17.839 -23.873  23.618  1.00  0.00     0.335 C 
BRANCH  14  15
HETATM   15  N3  UNL     1     -19.131 -24.458  23.367  1.00  0.00    -0.021 N 
HETATM   16  C20 UNL     1     -20.053 -23.619  22.630  1.00  0.00     0.247 C 
HETATM   17  C21 UNL     1     -20.896 -23.341  23.831  1.00  0.00     0.090 C 
HETATM   18  C22 UNL     1     -20.049 -24.429  24.474  1.00  0.00     0.326 C 
BRANCH  15  19
HETATM   19  C10 UNL     1     -18.977 -25.774  22.765  1.00  0.00     0.335 C 
BRANCH  19  20
HETATM   20  C11 UNL     1     -17.785 -25.768  21.905  1.00  0.00    -0.078 C 
HETATM   21  C12 UNL     1     -16.797 -25.781  21.204  1.00  0.00    -0.099 C 
BRANCH  21  22
HETATM   22  C13 UNL     1     -15.577 -25.804  20.367  1.00  0.00     0.152 C 
BRANCH  22  23
HETATM   23  C14 UNL     1     -14.394 -25.620  21.240  1.00  0.00     0.039 A 
HETATM   24  N4  UNL     1     -14.284 -24.600  22.109  1.00  0.00    -0.367 N 
HETATM   25  C15 UNL     1     -13.209 -24.438  22.896  1.00  0.00     0.096 A 
ATOM     26  H4  UNL     1     -15.046 -23.924  22.173  1.00  0.00     0.165 HD
HETATM   27  C16 UNL     1     -12.166 -25.351  22.819  1.00  0.00    -0.021 A 
HETATM   28  C17 UNL     1     -10.974 -25.190  23.677  1.00  0.00     0.052 C 
HETATM   29  C18 UNL     1     -12.278 -26.401  21.923  1.00  0.00     0.073 A 
HETATM   30  N5  UNL     1     -11.235 -27.373  21.797  1.00  0.00    -0.100 NA
HETATM   31  C19 UNL     1     -13.380 -26.569  21.114  1.00  0.00     0.059 A 
HETATM   32 BR1  UNL     1     -13.502 -28.021  19.897  1.00  0.00    -0.047 Br
ENDBRANCH  22  23
ENDBRANCH  21  22
ENDBRANCH  19  20
ENDBRANCH  15  19
BRANCH  18  33
HETATM   33  O1  UNL     1     -20.807 -25.589  24.614  1.00  0.00    -0.369 OA
ATOM     34  H1  UNL     1     -21.154 -25.722  25.489  1.00  0.00     0.212 HD
ENDBRANCH  18  33
ENDBRANCH  14  15
ENDBRANCH  13  14
ENDBRANCH  11  12
ENDBRANCH   7  11
ENDBRANCH   3   4
TORSDOF 10
ENDMDL
