MODEL 1
REMARK VINA RESULT: -7.403986571      0.000      0.000
REMARK  10 active torsions:
REMARK  status: ('A' for Active; 'I' for Inactive)
REMARK    1  A    between atoms: C3_4  and  O2_5 
REMARK    2  A    between atoms: O2_5  and  C4_6 
REMARK    3  A    between atoms: C4_6  and  C5_7 
REMARK    4  A    between atoms: C5_7  and  O3_8 
REMARK    5  A    between atoms: C6_10  and  N1_11 
REMARK    6  A    between atoms: C8_17  and  N2_18 
REMARK    7  A    between atoms: C9_22  and  C10_23 
REMARK    8  A    between atoms: C10_23  and  C11_24 
REMARK    9  A    between atoms: C13_28  and  N4_29 
REMARK   10  A    between atoms: C14_35  and  O7_36 
ROOT
HETATM    1  C5  UNL     1       4.282  -6.047  17.467  1.00  0.00     0.137 C 
HETATM    2  C6  UNL     1       5.316  -5.028  17.237  1.00  0.00     0.248 C 
HETATM    3  C7  UNL     1       6.686  -5.715  17.292  1.00  0.00     0.207 C 
HETATM    4  O4  UNL     1       6.590  -7.107  17.321  1.00  0.00    -0.354 OA
HETATM    5  C8  UNL     1       5.816  -7.523  16.177  1.00  0.00     0.352 C 
HETATM    6  C9  UNL     1       4.421  -7.310  16.606  1.00  0.00     0.018 C 
ENDROOT
BRANCH   1   7
HETATM    7  C4  UNL     1       2.909  -5.702  17.851  1.00  0.00     0.218 C 
BRANCH   7   8
HETATM    8  O2  UNL     1       2.482  -4.550  18.286  1.00  0.00    -0.336 OA
BRANCH   8   9
HETATM    9  C3  UNL     1       1.854  -3.560  17.726  1.00  0.00     0.415 C 
HETATM   10  O1  UNL     1       0.442  -3.597  17.781  1.00  0.00    -0.329 OA
HETATM   11  C2  UNL     1       0.181  -2.324  17.272  1.00  0.00     0.178 C 
HETATM   12  C1  UNL     1      -1.226  -2.164  16.784  1.00  0.00     0.045 C 
HETATM   13  C14 UNL     1       1.190  -2.274  16.127  1.00  0.00     0.291 C 
HETATM   14  O6  UNL     1       2.008  -3.410  16.338  1.00  0.00    -0.306 OA
BRANCH  13  15
HETATM   15  O7  UNL     1       0.595  -2.290  14.892  1.00  0.00    -0.368 OA
ATOM     16  H7  UNL     1       1.207  -2.120  14.186  1.00  0.00     0.212 HD
ENDBRANCH  13  15
ENDBRANCH   8   9
ENDBRANCH   7   8
ENDBRANCH   1   7
BRANCH   1  17
HETATM   17  O3  UNL     1       4.792  -6.592  18.765  1.00  0.00    -0.381 OA
ATOM     18  H3  UNL     1       5.521  -6.003  18.921  1.00  0.00     0.211 HD
ENDBRANCH   1  17
BRANCH   2  19
HETATM   19  N1  UNL     1       5.268  -4.131  16.169  1.00  0.00    -0.070 N 
ATOM     20  H13 UNL     1       5.351  -4.674  15.310  1.00  0.00     0.274 HD
ATOM     21  H12 UNL     1       4.314  -3.775  16.111  1.00  0.00     0.274 HD
ATOM     22  H11 UNL     1       5.899  -3.333  16.089  1.00  0.00     0.274 HD
ENDBRANCH   2  19
BRANCH   6  23
HETATM   23  C10 UNL     1       3.282  -7.671  15.815  1.00  0.00     0.066 C 
BRANCH  23  24
HETATM   24  C11 UNL     1       3.098  -8.373  14.744  1.00  0.00     0.140 C 
HETATM   25  N3  UNL     1       3.856  -9.398  14.102  1.00  0.00    -0.367 N 
HETATM   26  C12 UNL     1       2.883 -10.373  13.562  1.00  0.00     0.183 C 
ATOM     27  H3  UNL     1       4.872  -9.448  14.031  1.00  0.00     0.161 HD
HETATM   28  C13 UNL     1       1.820  -9.417  13.088  1.00  0.00     0.344 C 
HETATM   29  O5  UNL     1       1.976  -8.281  13.858  1.00  0.00    -0.301 OA
BRANCH  28  30
HETATM   30  N4  UNL     1       2.056  -9.194  11.672  1.00  0.00    -0.051 N 
ATOM     31  H43 UNL     1       2.542  -8.318  11.478  1.00  0.00     0.277 HD
ATOM     32  H42 UNL     1       2.759  -9.821  11.278  1.00  0.00     0.277 HD
ATOM     33  H41 UNL     1       1.150  -9.263  11.208  1.00  0.00     0.277 HD
ENDBRANCH  28  30
ENDBRANCH  23  24
ENDBRANCH   6  23
BRANCH   5  34
HETATM   34  N2  UNL     1       6.313  -6.784  15.063  1.00  0.00    -0.049 N 
ATOM     35  H23 UNL     1       6.793  -5.925  15.330  1.00  0.00     0.277 HD
ATOM     36  H22 UNL     1       7.105  -7.232  14.601  1.00  0.00     0.277 HD
ATOM     37  H21 UNL     1       5.519  -6.627  14.443  1.00  0.00     0.277 HD
ENDBRANCH   5  34
TORSDOF 10
ENDMDL
MODEL 2
REMARK VINA RESULT: -7.402394327      3.839      7.432
REMARK  10 active torsions:
REMARK  status: ('A' for Active; 'I' for Inactive)
REMARK    1  A    between atoms: C3_4  and  O2_5 
REMARK    2  A    between atoms: O2_5  and  C4_6 
REMARK    3  A    between atoms: C4_6  and  C5_7 
REMARK    4  A    between atoms: C5_7  and  O3_8 
REMARK    5  A    between atoms: C6_10  and  N1_11 
REMARK    6  A    between atoms: C8_17  and  N2_18 
REMARK    7  A    between atoms: C9_22  and  C10_23 
REMARK    8  A    between atoms: C10_23  and  C11_24 
REMARK    9  A    between atoms: C13_28  and  N4_29 
REMARK   10  A    between atoms: C14_35  and  O7_36 
ROOT
HETATM    1  C5  UNL     1      -1.468  -1.638  18.528  1.00  0.00     0.137 C 
HETATM    2  C6  UNL     1      -1.234  -0.187  18.561  1.00  0.00     0.248 C 
HETATM    3  C7  UNL     1      -1.809   0.361  19.873  1.00  0.00     0.207 C 
HETATM    4  O4  UNL     1      -2.189  -0.649  20.758  1.00  0.00    -0.354 OA
HETATM    5  C8  UNL     1      -1.045  -1.501  20.977  1.00  0.00     0.352 C 
HETATM    6  C9  UNL     1      -1.042  -2.387  19.799  1.00  0.00     0.018 C 
ENDROOT
BRANCH   1   7
HETATM    7  C4  UNL     1      -1.392  -2.419  17.288  1.00  0.00     0.218 C 
BRANCH   7   8
HETATM    8  O2  UNL     1      -0.586  -2.218  16.283  1.00  0.00    -0.336 OA
BRANCH   8   9
HETATM    9  C3  UNL     1       0.594  -2.672  15.980  1.00  0.00     0.415 C 
HETATM   10  O1  UNL     1       0.822  -4.046  16.219  1.00  0.00    -0.329 OA
HETATM   11  C2  UNL     1       2.069  -4.160  15.603  1.00  0.00     0.178 C 
HETATM   12  C1  UNL     1       2.823  -5.383  16.027  1.00  0.00     0.045 C 
HETATM   13  C14 UNL     1       2.737  -2.879  16.098  1.00  0.00     0.291 C 
HETATM   14  O6  UNL     1       1.682  -2.149  16.696  1.00  0.00    -0.306 OA
BRANCH  13  15
HETATM   15  O7  UNL     1       3.761  -3.119  16.977  1.00  0.00    -0.368 OA
ATOM     16  H7  UNL     1       4.578  -2.711  16.712  1.00  0.00     0.212 HD
ENDBRANCH  13  15
ENDBRANCH   8   9
ENDBRANCH   7   8
ENDBRANCH   1   7
BRANCH   1  17
HETATM   17  O3  UNL     1      -2.949  -1.630  18.747  1.00  0.00    -0.381 OA
ATOM     18  H3  UNL     1      -3.223  -1.075  18.026  1.00  0.00     0.211 HD
ENDBRANCH   1  17
BRANCH   2  19
HETATM   19  N1  UNL     1       0.013   0.383  18.306  1.00  0.00    -0.070 N 
ATOM     20  H13 UNL     1       0.421   0.641  19.205  1.00  0.00     0.274 HD
ATOM     21  H12 UNL     1       0.633  -0.364  17.991  1.00  0.00     0.274 HD
ATOM     22  H11 UNL     1       0.142   1.174  17.673  1.00  0.00     0.274 HD
ENDBRANCH   2  19
BRANCH   6  23
HETATM   23  C10 UNL     1      -0.121  -3.471  19.621  1.00  0.00     0.066 C 
BRANCH  23  24
HETATM   24  C11 UNL     1       1.166  -3.595  19.664  1.00  0.00     0.140 C 
HETATM   25  N3  UNL     1       2.241  -2.657  19.619  1.00  0.00    -0.367 N 
HETATM   26  C12 UNL     1       3.283  -3.159  20.542  1.00  0.00     0.183 C 
ATOM     27  H3  UNL     1       2.283  -1.806  19.059  1.00  0.00     0.161 HD
HETATM   28  C13 UNL     1       3.176  -4.633  20.250  1.00  0.00     0.344 C 
HETATM   29  O5  UNL     1       1.891  -4.824  19.780  1.00  0.00    -0.301 OA
BRANCH  28  30
HETATM   30  N4  UNL     1       4.203  -4.941  19.269  1.00  0.00    -0.051 N 
ATOM     31  H43 UNL     1       4.226  -4.282  18.490  1.00  0.00     0.277 HD
ATOM     32  H42 UNL     1       5.150  -4.771  19.610  1.00  0.00     0.277 HD
ATOM     33  H41 UNL     1       4.049  -5.906  18.974  1.00  0.00     0.277 HD
ENDBRANCH  28  30
ENDBRANCH  23  24
ENDBRANCH   6  23
BRANCH   5  34
HETATM   34  N2  UNL     1       0.068  -0.634  21.189  1.00  0.00    -0.049 N 
ATOM     35  H23 UNL     1       0.955  -1.033  20.883  1.00  0.00     0.277 HD
ATOM     36  H22 UNL     1       0.073   0.176  20.570  1.00  0.00     0.277 HD
ATOM     37  H21 UNL     1       0.056  -0.387  22.179  1.00  0.00     0.277 HD
ENDBRANCH   5  34
TORSDOF 10
ENDMDL
MODEL 3
REMARK VINA RESULT: -7.318350188      2.533      6.202
REMARK  10 active torsions:
REMARK  status: ('A' for Active; 'I' for Inactive)
REMARK    1  A    between atoms: C3_4  and  O2_5 
REMARK    2  A    between atoms: O2_5  and  C4_6 
REMARK    3  A    between atoms: C4_6  and  C5_7 
REMARK    4  A    between atoms: C5_7  and  O3_8 
REMARK    5  A    between atoms: C6_10  and  N1_11 
REMARK    6  A    between atoms: C8_17  and  N2_18 
REMARK    7  A    between atoms: C9_22  and  C10_23 
REMARK    8  A    between atoms: C10_23  and  C11_24 
REMARK    9  A    between atoms: C13_28  and  N4_29 
REMARK   10  A    between atoms: C14_35  and  O7_36 
ROOT
HETATM    1  C5  UNL     1       3.881  -7.141  16.454  1.00  0.00     0.137 C 
HETATM    2  C6  UNL     1       4.836  -7.389  17.543  1.00  0.00     0.248 C 
HETATM    3  C7  UNL     1       6.210  -6.870  17.102  1.00  0.00     0.207 C 
HETATM    4  O4  UNL     1       6.152  -6.125  15.923  1.00  0.00    -0.354 OA
HETATM    5  C8  UNL     1       5.201  -5.058  16.119  1.00  0.00     0.352 C 
HETATM    6  C9  UNL     1       3.897  -5.710  15.899  1.00  0.00     0.018 C 
ENDROOT
BRANCH   1   7
HETATM    7  C4  UNL     1       2.587  -7.828  16.370  1.00  0.00     0.218 C 
BRANCH   7   8
HETATM    8  O2  UNL     1       2.359  -9.014  15.881  1.00  0.00    -0.336 OA
BRANCH   8   9
HETATM    9  C3  UNL     1       1.898  -9.437  14.741  1.00  0.00     0.415 C 
HETATM   10  O1  UNL     1       2.440 -10.646  14.252  1.00  0.00    -0.329 OA
HETATM   11  C2  UNL     1       1.579 -10.837  13.170  1.00  0.00     0.178 C 
HETATM   12  C1  UNL     1       2.114 -11.803  12.157  1.00  0.00     0.045 C 
HETATM   13  C14 UNL     1       1.510  -9.414  12.620  1.00  0.00     0.291 C 
HETATM   14  O6  UNL     1       2.135  -8.628  13.618  1.00  0.00    -0.306 OA
BRANCH  13  15
HETATM   15  O7  UNL     1       2.125  -9.285  11.402  1.00  0.00    -0.368 OA
ATOM     16  H7  UNL     1       2.195  -8.381  11.118  1.00  0.00     0.212 HD
ENDBRANCH  13  15
ENDBRANCH   8   9
ENDBRANCH   7   8
ENDBRANCH   1   7
BRANCH   1  17
HETATM   17  O3  UNL     1       4.620  -7.830  15.348  1.00  0.00    -0.381 OA
ATOM     18  H3  UNL     1       4.569  -8.730  15.647  1.00  0.00     0.211 HD
ENDBRANCH   1  17
BRANCH   2  19
HETATM   19  N1  UNL     1       4.585  -7.026  18.866  1.00  0.00    -0.070 N 
ATOM     20  H13 UNL     1       5.011  -6.113  19.019  1.00  0.00     0.274 HD
ATOM     21  H12 UNL     1       3.589  -6.817  18.942  1.00  0.00     0.274 HD
ATOM     22  H11 UNL     1       4.835  -7.618  19.660  1.00  0.00     0.274 HD
ENDBRANCH   2  19
BRANCH   6  23
HETATM   23  C10 UNL     1       2.646  -5.010  15.903  1.00  0.00     0.066 C 
BRANCH  23  24
HETATM   24  C11 UNL     1       2.172  -3.989  16.541  1.00  0.00     0.140 C 
HETATM   25  N3  UNL     1       2.004  -2.614  16.201  1.00  0.00    -0.367 N 
HETATM   26  C12 UNL     1       0.731  -2.176  16.815  1.00  0.00     0.183 C 
ATOM     27  H3  UNL     1       2.638  -2.043  15.642  1.00  0.00     0.161 HD
HETATM   28  C13 UNL     1       0.824  -2.918  18.122  1.00  0.00     0.344 C 
HETATM   29  O5  UNL     1       1.651  -3.997  17.875  1.00  0.00    -0.301 OA
BRANCH  28  30
HETATM   30  N4  UNL     1       1.365  -1.986  19.097  1.00  0.00    -0.051 N 
ATOM     31  H43 UNL     1       2.374  -2.072  19.219  1.00  0.00     0.277 HD
ATOM     32  H42 UNL     1       1.356  -1.017  18.775  1.00  0.00     0.277 HD
ATOM     33  H41 UNL     1       0.842  -2.127  19.961  1.00  0.00     0.277 HD
ENDBRANCH  28  30
ENDBRANCH  23  24
ENDBRANCH   6  23
BRANCH   5  34
HETATM   34  N2  UNL     1       5.482  -4.497  17.400  1.00  0.00    -0.049 N 
ATOM     35  H23 UNL     1       6.399  -4.055  17.455  1.00  0.00     0.277 HD
ATOM     36  H22 UNL     1       4.928  -3.666  17.608  1.00  0.00     0.277 HD
ATOM     37  H21 UNL     1       5.354  -5.248  18.078  1.00  0.00     0.277 HD
ENDBRANCH   5  34
TORSDOF 10
ENDMDL
MODEL 4
REMARK VINA RESULT: -7.261813592      1.037      1.135
REMARK  10 active torsions:
REMARK  status: ('A' for Active; 'I' for Inactive)
REMARK    1  A    between atoms: C3_4  and  O2_5 
REMARK    2  A    between atoms: O2_5  and  C4_6 
REMARK    3  A    between atoms: C4_6  and  C5_7 
REMARK    4  A    between atoms: C5_7  and  O3_8 
REMARK    5  A    between atoms: C6_10  and  N1_11 
REMARK    6  A    between atoms: C8_17  and  N2_18 
REMARK    7  A    between atoms: C9_22  and  C10_23 
REMARK    8  A    between atoms: C10_23  and  C11_24 
REMARK    9  A    between atoms: C13_28  and  N4_29 
REMARK   10  A    between atoms: C14_35  and  O7_36 
ROOT
HETATM    1  C5  UNL     1       4.263  -5.979  17.365  1.00  0.00     0.137 C 
HETATM    2  C6  UNL     1       5.428  -5.089  17.255  1.00  0.00     0.248 C 
HETATM    3  C7  UNL     1       6.695  -5.949  17.334  1.00  0.00     0.207 C 
HETATM    4  O4  UNL     1       6.424  -7.316  17.266  1.00  0.00    -0.354 OA
HETATM    5  C8  UNL     1       5.673  -7.561  16.059  1.00  0.00     0.352 C 
HETATM    6  C9  UNL     1       4.293  -7.196  16.430  1.00  0.00     0.018 C 
ENDROOT
BRANCH   1   7
HETATM    7  C4  UNL     1       2.922  -5.483  17.700  1.00  0.00     0.218 C 
BRANCH   7   8
HETATM    8  O2  UNL     1       2.605  -4.277  18.079  1.00  0.00    -0.336 OA
BRANCH   8   9
HETATM    9  C3  UNL     1       1.882  -3.335  17.549  1.00  0.00     0.415 C 
HETATM   10  O1  UNL     1       0.481  -3.481  17.656  1.00  0.00    -0.329 OA
HETATM   11  C2  UNL     1       0.103  -2.230  17.167  1.00  0.00     0.178 C 
HETATM   12  C1  UNL     1      -1.329  -2.176  16.731  1.00  0.00     0.045 C 
HETATM   13  C14 UNL     1       1.063  -2.097  15.985  1.00  0.00     0.291 C 
HETATM   14  O6  UNL     1       1.972  -3.168  16.158  1.00  0.00    -0.306 OA
BRANCH  13  15
HETATM   15  O7  UNL     1       0.425  -2.153  14.773  1.00  0.00    -0.368 OA
ATOM     16  H7  UNL     1      -0.505  -2.331  14.854  1.00  0.00     0.212 HD
ENDBRANCH  13  15
ENDBRANCH   8   9
ENDBRANCH   7   8
ENDBRANCH   1   7
BRANCH   1  17
HETATM   17  O3  UNL     1       4.623  -6.661  18.648  1.00  0.00    -0.381 OA
ATOM     18  H3  UNL     1       4.021  -6.229  19.243  1.00  0.00     0.211 HD
ENDBRANCH   1  17
BRANCH   2  19
HETATM   19  N1  UNL     1       5.555  -4.132  16.248  1.00  0.00    -0.070 N 
ATOM     20  H13 UNL     1       4.629  -3.738  16.083  1.00  0.00     0.274 HD
ATOM     21  H12 UNL     1       6.063  -3.339  16.642  1.00  0.00     0.274 HD
ATOM     22  H11 UNL     1       5.968  -4.338  15.338  1.00  0.00     0.274 HD
ENDBRANCH   2  19
BRANCH   6  23
HETATM   23  C10 UNL     1       3.165  -7.360  15.560  1.00  0.00     0.066 C 
BRANCH  23  24
HETATM   24  C11 UNL     1       2.555  -8.373  15.036  1.00  0.00     0.140 C 
HETATM   25  N3  UNL     1       1.824  -8.556  13.824  1.00  0.00    -0.367 N 
HETATM   26  C12 UNL     1       2.138  -9.917  13.338  1.00  0.00     0.183 C 
ATOM     27  H3  UNL     1       1.204  -7.879  13.379  1.00  0.00     0.161 HD
HETATM   28  C13 UNL     1       2.163 -10.646  14.656  1.00  0.00     0.344 C 
HETATM   29  O5  UNL     1       2.458  -9.685  15.603  1.00  0.00    -0.301 OA
BRANCH  28  30
HETATM   30  N4  UNL     1       0.850 -11.245  14.829  1.00  0.00    -0.051 N 
ATOM     31  H43 UNL     1       0.424 -11.542  13.951  1.00  0.00     0.277 HD
ATOM     32  H42 UNL     1       0.882 -12.162  15.274  1.00  0.00     0.277 HD
ATOM     33  H41 UNL     1       0.283 -10.569  15.342  1.00  0.00     0.277 HD
ENDBRANCH  28  30
ENDBRANCH  23  24
ENDBRANCH   6  23
BRANCH   5  34
HETATM   34  N2  UNL     1       6.323  -6.827  15.024  1.00  0.00    -0.049 N 
ATOM     35  H23 UNL     1       5.790  -6.019  14.705  1.00  0.00     0.277 HD
ATOM     36  H22 UNL     1       7.146  -6.317  15.345  1.00  0.00     0.277 HD
ATOM     37  H21 UNL     1       6.527  -7.495  14.281  1.00  0.00     0.277 HD
ENDBRANCH   5  34
TORSDOF 10
ENDMDL
MODEL 5
REMARK VINA RESULT: -7.249001176      5.340      8.522
REMARK  10 active torsions:
REMARK  status: ('A' for Active; 'I' for Inactive)
REMARK    1  A    between atoms: C3_4  and  O2_5 
REMARK    2  A    between atoms: O2_5  and  C4_6 
REMARK    3  A    between atoms: C4_6  and  C5_7 
REMARK    4  A    between atoms: C5_7  and  O3_8 
REMARK    5  A    between atoms: C6_10  and  N1_11 
REMARK    6  A    between atoms: C8_17  and  N2_18 
REMARK    7  A    between atoms: C9_22  and  C10_23 
REMARK    8  A    between atoms: C10_23  and  C11_24 
REMARK    9  A    between atoms: C13_28  and  N4_29 
REMARK   10  A    between atoms: C14_35  and  O7_36 
ROOT
HETATM    1  C5  UNL     1      -0.051  -3.226  19.837  1.00  0.00     0.137 C 
HETATM    2  C6  UNL     1       1.411  -3.089  19.893  1.00  0.00     0.248 C 
HETATM    3  C7  UNL     1       1.996  -3.680  18.605  1.00  0.00     0.207 C 
HETATM    4  O4  UNL     1       1.017  -3.978  17.655  1.00  0.00    -0.354 OA
HETATM    5  C8  UNL     1       0.258  -2.776  17.409  1.00  0.00     0.352 C 
HETATM    6  C9  UNL     1      -0.694  -2.731  18.534  1.00  0.00     0.018 C 
ENDROOT
BRANCH   1   7
HETATM    7  C4  UNL     1      -0.898  -3.116  21.031  1.00  0.00     0.218 C 
BRANCH   7   8
HETATM    8  O2  UNL     1      -1.199  -2.027  21.681  1.00  0.00    -0.336 OA
BRANCH   8   9
HETATM    9  C3  UNL     1      -0.604  -1.355  22.622  1.00  0.00     0.415 C 
HETATM   10  O1  UNL     1      -1.428  -0.540  23.431  1.00  0.00    -0.329 OA
HETATM   11  C2  UNL     1      -0.481  -0.173  24.388  1.00  0.00     0.178 C 
HETATM   12  C1  UNL     1      -0.881   1.036  25.177  1.00  0.00     0.045 C 
HETATM   13  C14 UNL     1       0.723   0.105  23.490  1.00  0.00     0.291 C 
HETATM   14  O6  UNL     1       0.328  -0.385  22.222  1.00  0.00    -0.306 OA
BRANCH  13  15
HETATM   15  O7  UNL     1       1.058   1.434  23.447  1.00  0.00    -0.368 OA
ATOM     16  H7  UNL     1       1.980   1.587  23.613  1.00  0.00     0.212 HD
ENDBRANCH  13  15
ENDBRANCH   8   9
ENDBRANCH   7   8
ENDBRANCH   1   7
BRANCH   1  17
HETATM   17  O3  UNL     1      -0.128  -4.701  19.591  1.00  0.00    -0.381 OA
ATOM     18  H3  UNL     1       0.393  -5.021  20.318  1.00  0.00     0.211 HD
ENDBRANCH   1  17
BRANCH   2  19
HETATM   19  N1  UNL     1       2.047  -1.887  20.204  1.00  0.00    -0.070 N 
ATOM     20  H13 UNL     1       2.307  -1.442  19.324  1.00  0.00     0.274 HD
ATOM     21  H12 UNL     1       1.337  -1.251  20.569  1.00  0.00     0.274 HD
ATOM     22  H11 UNL     1       2.855  -1.833  20.826  1.00  0.00     0.274 HD
ENDBRANCH   2  19
BRANCH   6  23
HETATM   23  C10 UNL     1      -1.724  -1.743  18.666  1.00  0.00     0.066 C 
BRANCH  23  24
HETATM   24  C11 UNL     1      -1.747  -0.452  18.753  1.00  0.00     0.140 C 
HETATM   25  N3  UNL     1      -2.254   0.454  19.733  1.00  0.00    -0.367 N 
HETATM   26  C12 UNL     1      -1.301   1.584  19.801  1.00  0.00     0.183 C 
ATOM     27  H3  UNL     1      -3.107   0.344  20.279  1.00  0.00     0.161 HD
HETATM   28  C13 UNL     1      -0.973   1.714  18.337  1.00  0.00     0.344 C 
HETATM   29  O5  UNL     1      -1.215   0.467  17.793  1.00  0.00    -0.301 OA
BRANCH  28  30
HETATM   30  N4  UNL     1      -1.836   2.755  17.805  1.00  0.00    -0.051 N 
ATOM     31  H43 UNL     1      -2.617   2.390  17.260  1.00  0.00     0.277 HD
ATOM     32  H42 UNL     1      -2.387   3.226  18.522  1.00  0.00     0.277 HD
ATOM     33  H41 UNL     1      -1.238   3.391  17.275  1.00  0.00     0.277 HD
ENDBRANCH  28  30
ENDBRANCH  23  24
ENDBRANCH   6  23
BRANCH   5  34
HETATM   34  N2  UNL     1       1.207  -1.721  17.269  1.00  0.00    -0.049 N 
ATOM     35  H23 UNL     1       2.128  -2.042  16.972  1.00  0.00     0.277 HD
ATOM     36  H22 UNL     1       1.021  -1.113  16.470  1.00  0.00     0.277 HD
ATOM     37  H21 UNL     1       1.220  -1.224  18.159  1.00  0.00     0.277 HD
ENDBRANCH   5  34
TORSDOF 10
ENDMDL
