MODEL 1
REMARK VINA RESULT: -9.200566061      0.000      0.000
REMARK  8 active torsions:
REMARK  status: ('A' for Active; 'I' for Inactive)
REMARK    1  A    between atoms: C2_2  and  C3_3 
REMARK    2  A    between atoms: C8_10  and  O1_11 
REMARK    3  A    between atoms: N1_13  and  C9_14 
REMARK    4  A    between atoms: C9_14  and  C10_15 
REMARK    5  A    between atoms: N2_20  and  C15_21 
REMARK    6  A    between atoms: C15_21  and  C16_22 
REMARK    7  A    between atoms: C21_28  and  O2_29 
REMARK    8  A    between atoms: C23_31  and  O3_32 
ROOT
HETATM    1  C9  UNL     1      24.039 -29.301   2.775  1.00  0.00     0.110 C 
ENDROOT
BRANCH   1   2
HETATM    2  N1  UNL     1      24.872 -28.127   2.651  1.00  0.00    -0.284 N 
HETATM    3  C8  UNL     1      25.716 -27.676   3.590  1.00  0.00     0.157 A 
HETATM    4  C7  UNL     1      26.340 -26.519   3.135  1.00  0.00     0.029 A 
HETATM    5  C3  UNL     1      27.487 -25.658   3.596  1.00  0.00     0.042 C 
HETATM    6  C6  UNL     1      25.872 -26.248   1.913  1.00  0.00     0.055 A 
HETATM    7  C4  UNL     1      27.630 -25.473   5.029  1.00  0.00     0.032 C 
HETATM    8  S1  UNL     1      27.070 -24.117   2.688  1.00  0.00    -0.102 SA
HETATM    9  C5  UNL     1      26.350 -25.021   1.275  1.00  0.00     0.084 C 
HETATM   10  S2  UNL     1      26.300 -24.490  -0.235  1.00  0.00    -0.071 SA
HETATM   11  C23 UNL     1      24.950 -27.263   1.608  1.00  0.00     0.161 A 
BRANCH   3  12
HETATM   12  O1  UNL     1      25.919 -28.287   4.829  1.00  0.00    -0.345 OA
ATOM     13  H1  UNL     1      26.707 -28.740   5.107  1.00  0.00     0.219 HD
ENDBRANCH   3  12
BRANCH   5  14
HETATM   14  C2  UNL     1      28.761 -26.160   2.895  1.00  0.00     0.021 C 
HETATM   15  C1  UNL     1      29.800 -26.667   3.818  1.00  0.00     0.007 C 
ENDBRANCH   5  14
BRANCH  11  16
HETATM   16  O3  UNL     1      24.233 -27.337   0.423  1.00  0.00    -0.345 OA
ATOM     17  H3  UNL     1      24.123 -28.131  -0.088  1.00  0.00     0.219 HD
ENDBRANCH  11  16
ENDBRANCH   1   2
BRANCH   1  18
HETATM   18  C10 UNL     1      24.626 -30.547   2.338  1.00  0.00     0.262 C 
HETATM   19  C11 UNL     1      24.888 -30.636   0.872  1.00  0.00     0.041 C 
HETATM   20  C12 UNL     1      25.960 -31.766   0.799  1.00  0.00     0.004 C 
HETATM   21  C13 UNL     1      25.229 -33.018   1.215  1.00  0.00     0.030 C 
HETATM   22  C14 UNL     1      24.454 -32.862   2.508  1.00  0.00     0.273 C 
HETATM   23  N2  UNL     1      23.686 -31.694   2.579  1.00  0.00     0.102 N 
BRANCH  23  24
HETATM   24  C15 UNL     1      23.022 -31.469   3.808  1.00  0.00     0.318 C 
BRANCH  24  25
HETATM   25  C16 UNL     1      23.328 -32.397   4.903  1.00  0.00     0.042 A 
HETATM   26  C17 UNL     1      24.523 -32.190   5.624  1.00  0.00     0.127 A 
HETATM   27  F1  UNL     1      25.207 -31.052   5.417  1.00  0.00    -0.205 F 
HETATM   28  C18 UNL     1      24.925 -33.170   6.501  1.00  0.00     0.043 A 
HETATM   29  C19 UNL     1      24.221 -34.325   6.692  1.00  0.00     0.006 A 
HETATM   30  C20 UNL     1      23.061 -34.515   5.983  1.00  0.00     0.037 A 
HETATM   31  C21 UNL     1      22.610 -33.556   5.093  1.00  0.00     0.079 A 
BRANCH  31  32
HETATM   32  O2  UNL     1      21.429 -33.794   4.386  1.00  0.00    -0.355 OA
HETATM   33  C22 UNL     1      21.395 -34.476   3.144  1.00  0.00     0.210 C 
ENDBRANCH  31  32
ENDBRANCH  24  25
ENDBRANCH  23  24
ENDBRANCH   1  18
TORSDOF 8
ENDMDL
MODEL 2
REMARK VINA RESULT: -9.136720836      1.385      1.976
REMARK  8 active torsions:
REMARK  status: ('A' for Active; 'I' for Inactive)
REMARK    1  A    between atoms: C2_2  and  C3_3 
REMARK    2  A    between atoms: C8_10  and  O1_11 
REMARK    3  A    between atoms: N1_13  and  C9_14 
REMARK    4  A    between atoms: C9_14  and  C10_15 
REMARK    5  A    between atoms: N2_20  and  C15_21 
REMARK    6  A    between atoms: C15_21  and  C16_22 
REMARK    7  A    between atoms: C21_28  and  O2_29 
REMARK    8  A    between atoms: C23_31  and  O3_32 
ROOT
HETATM    1  C9  UNL     1      23.904 -29.500   2.693  1.00  0.00     0.110 C 
ENDROOT
BRANCH   1   2
HETATM    2  N1  UNL     1      24.746 -28.329   2.630  1.00  0.00    -0.284 N 
HETATM    3  C8  UNL     1      25.581 -27.924   3.599  1.00  0.00     0.157 A 
HETATM    4  C7  UNL     1      26.219 -26.753   3.202  1.00  0.00     0.029 A 
HETATM    5  C3  UNL     1      27.366 -25.922   3.715  1.00  0.00     0.042 C 
HETATM    6  C6  UNL     1      25.770 -26.427   1.987  1.00  0.00     0.055 A 
HETATM    7  C4  UNL     1      27.490 -25.800   5.156  1.00  0.00     0.032 C 
HETATM    8  S1  UNL     1      26.972 -24.341   2.868  1.00  0.00    -0.102 SA
HETATM    9  C5  UNL     1      26.265 -25.178   1.408  1.00  0.00     0.084 C 
HETATM   10  S2  UNL     1      26.240 -24.582  -0.078  1.00  0.00    -0.071 SA
HETATM   11  C23 UNL     1      24.845 -27.421   1.627  1.00  0.00     0.161 A 
BRANCH   3  12
HETATM   12  O1  UNL     1      25.763 -28.589   4.813  1.00  0.00    -0.345 OA
ATOM     13  H1  UNL     1      26.577 -28.654   5.299  1.00  0.00     0.219 HD
ENDBRANCH   3  12
BRANCH   5  14
HETATM   14  C2  UNL     1      28.646 -26.404   3.010  1.00  0.00     0.021 C 
HETATM   15  C1  UNL     1      29.785 -26.644   3.923  1.00  0.00     0.007 C 
ENDBRANCH   5  14
BRANCH  11  16
HETATM   16  O3  UNL     1      24.143 -27.439   0.429  1.00  0.00    -0.345 OA
ATOM     17  H3  UNL     1      23.879 -28.230  -0.025  1.00  0.00     0.219 HD
ENDBRANCH  11  16
ENDBRANCH   1   2
BRANCH   1  18
HETATM   18  C10 UNL     1      24.456 -30.711   2.132  1.00  0.00     0.262 C 
HETATM   19  C11 UNL     1      24.994 -30.574   0.747  1.00  0.00     0.041 C 
HETATM   20  C12 UNL     1      25.957 -31.795   0.646  1.00  0.00     0.004 C 
HETATM   21  C13 UNL     1      25.053 -33.003   0.673  1.00  0.00     0.030 C 
HETATM   22  C14 UNL     1      24.055 -32.982   1.813  1.00  0.00     0.273 C 
HETATM   23  N2  UNL     1      23.391 -31.760   1.972  1.00  0.00     0.102 N 
BRANCH  23  24
HETATM   24  C15 UNL     1      22.519 -31.676   3.083  1.00  0.00     0.318 C 
BRANCH  24  25
HETATM   25  C16 UNL     1      22.536 -32.802   4.024  1.00  0.00     0.042 A 
HETATM   26  C17 UNL     1      21.430 -33.678   4.018  1.00  0.00     0.127 A 
HETATM   27  F1  UNL     1      20.529 -33.564   3.028  1.00  0.00    -0.205 F 
HETATM   28  C18 UNL     1      21.333 -34.601   5.033  1.00  0.00     0.043 A 
HETATM   29  C19 UNL     1      22.255 -34.695   6.037  1.00  0.00     0.006 A 
HETATM   30  C20 UNL     1      23.326 -33.836   6.032  1.00  0.00     0.037 A 
HETATM   31  C21 UNL     1      23.472 -32.893   5.029  1.00  0.00     0.079 A 
BRANCH  31  32
HETATM   32  O2  UNL     1      24.572 -32.034   5.067  1.00  0.00    -0.355 OA
HETATM   33  C22 UNL     1      25.698 -32.254   5.899  1.00  0.00     0.210 C 
ENDBRANCH  31  32
ENDBRANCH  24  25
ENDBRANCH  23  24
ENDBRANCH   1  18
TORSDOF 8
ENDMDL
MODEL 3
REMARK VINA RESULT: -7.827804003      3.401      7.698
REMARK  8 active torsions:
REMARK  status: ('A' for Active; 'I' for Inactive)
REMARK    1  A    between atoms: C2_2  and  C3_3 
REMARK    2  A    between atoms: C8_10  and  O1_11 
REMARK    3  A    between atoms: N1_13  and  C9_14 
REMARK    4  A    between atoms: C9_14  and  C10_15 
REMARK    5  A    between atoms: N2_20  and  C15_21 
REMARK    6  A    between atoms: C15_21  and  C16_22 
REMARK    7  A    between atoms: C21_28  and  O2_29 
REMARK    8  A    between atoms: C23_31  and  O3_32 
ROOT
HETATM    1  C9  UNL     1      24.163 -28.594   3.165  1.00  0.00     0.110 C 
ENDROOT
BRANCH   1   2
HETATM    2  N1  UNL     1      23.801 -29.945   3.522  1.00  0.00    -0.284 N 
HETATM    3  C8  UNL     1      22.864 -30.682   2.907  1.00  0.00     0.157 A 
HETATM    4  C7  UNL     1      22.772 -31.925   3.524  1.00  0.00     0.029 A 
HETATM    5  C3  UNL     1      22.088 -33.233   3.222  1.00  0.00     0.042 C 
HETATM    6  C6  UNL     1      23.650 -31.953   4.532  1.00  0.00     0.055 A 
HETATM    7  C4  UNL     1      20.771 -33.156   2.616  1.00  0.00     0.032 C 
HETATM    8  S1  UNL     1      22.086 -33.950   4.913  1.00  0.00    -0.102 SA
HETATM    9  C5  UNL     1      23.667 -33.157   5.365  1.00  0.00     0.084 C 
HETATM   10  S2  UNL     1      24.716 -33.726   6.432  1.00  0.00    -0.071 SA
HETATM   11  C23 UNL     1      24.298 -30.707   4.528  1.00  0.00     0.161 A 
BRANCH   3  12
HETATM   12  O1  UNL     1      22.106 -30.247   1.818  1.00  0.00    -0.345 OA
ATOM     13  H1  UNL     1      22.406 -30.181   0.918  1.00  0.00     0.219 HD
ENDBRANCH   3  12
BRANCH   5  14
HETATM   14  C2  UNL     1      23.086 -34.117   2.453  1.00  0.00     0.021 C 
HETATM   15  C1  UNL     1      23.622 -33.494   1.223  1.00  0.00     0.007 C 
ENDBRANCH   5  14
BRANCH  11  16
HETATM   16  O3  UNL     1      25.282 -30.335   5.433  1.00  0.00    -0.345 OA
ATOM     17  H3  UNL     1      25.952 -29.685   5.259  1.00  0.00     0.219 HD
ENDBRANCH  11  16
ENDBRANCH   1   2
BRANCH   1  18
HETATM   18  C10 UNL     1      25.044 -28.450   2.029  1.00  0.00     0.262 C 
HETATM   19  C11 UNL     1      25.735 -29.704   1.607  1.00  0.00     0.041 C 
HETATM   20  C12 UNL     1      26.129 -29.381   0.134  1.00  0.00     0.004 C 
HETATM   21  C13 UNL     1      27.170 -28.294   0.242  1.00  0.00     0.030 C 
HETATM   22  C14 UNL     1      26.745 -27.141   1.129  1.00  0.00     0.273 C 
HETATM   23  N2  UNL     1      26.189 -27.532   2.352  1.00  0.00     0.102 N 
BRANCH  23  24
HETATM   24  C15 UNL     1      25.697 -26.484   3.165  1.00  0.00     0.318 C 
BRANCH  24  25
HETATM   25  C16 UNL     1      26.586 -25.997   4.227  1.00  0.00     0.042 A 
HETATM   26  C17 UNL     1      26.545 -26.659   5.472  1.00  0.00     0.127 A 
HETATM   27  F1  UNL     1      25.861 -27.813   5.561  1.00  0.00    -0.205 F 
HETATM   28  C18 UNL     1      27.207 -26.083   6.531  1.00  0.00     0.043 A 
HETATM   29  C19 UNL     1      27.889 -24.905   6.424  1.00  0.00     0.006 A 
HETATM   30  C20 UNL     1      27.920 -24.270   5.207  1.00  0.00     0.037 A 
HETATM   31  C21 UNL     1      27.275 -24.812   4.109  1.00  0.00     0.079 A 
BRANCH  31  32
HETATM   32  O2  UNL     1      27.325 -24.128   2.892  1.00  0.00    -0.355 OA
HETATM   33  C22 UNL     1      28.478 -24.100   2.068  1.00  0.00     0.210 C 
ENDBRANCH  31  32
ENDBRANCH  24  25
ENDBRANCH  23  24
ENDBRANCH   1  18
TORSDOF 8
ENDMDL
MODEL 4
REMARK VINA RESULT: -7.825593459      1.607      2.520
REMARK  8 active torsions:
REMARK  status: ('A' for Active; 'I' for Inactive)
REMARK    1  A    between atoms: C2_2  and  C3_3 
REMARK    2  A    between atoms: C8_10  and  O1_11 
REMARK    3  A    between atoms: N1_13  and  C9_14 
REMARK    4  A    between atoms: C9_14  and  C10_15 
REMARK    5  A    between atoms: N2_20  and  C15_21 
REMARK    6  A    between atoms: C15_21  and  C16_22 
REMARK    7  A    between atoms: C21_28  and  O2_29 
REMARK    8  A    between atoms: C23_31  and  O3_32 
ROOT
HETATM    1  C9  UNL     1      24.322 -29.562   2.073  1.00  0.00     0.110 C 
ENDROOT
BRANCH   1   2
HETATM    2  N1  UNL     1      25.172 -28.578   2.700  1.00  0.00    -0.284 N 
HETATM    3  C8  UNL     1      26.073 -27.816   2.062  1.00  0.00     0.157 A 
HETATM    4  C7  UNL     1      26.718 -26.994   2.981  1.00  0.00     0.029 A 
HETATM    5  C3  UNL     1      27.657 -25.818   2.904  1.00  0.00     0.042 C 
HETATM    6  C6  UNL     1      26.221 -27.256   4.193  1.00  0.00     0.055 A 
HETATM    7  C4  UNL     1      28.653 -25.847   1.849  1.00  0.00     0.032 C 
HETATM    8  S1  UNL     1      28.366 -25.910   4.596  1.00  0.00    -0.102 SA
HETATM    9  C5  UNL     1      26.817 -26.544   5.324  1.00  0.00     0.084 C 
HETATM   10  S2  UNL     1      26.348 -26.323   6.839  1.00  0.00    -0.071 SA
HETATM   11  C23 UNL     1      25.246 -28.251   4.015  1.00  0.00     0.161 A 
BRANCH   3  12
HETATM   12  O1  UNL     1      26.313 -27.860   0.687  1.00  0.00    -0.345 OA
ATOM     13  H1  UNL     1      25.981 -27.247   0.042  1.00  0.00     0.219 HD
ENDBRANCH   3  12
BRANCH   5  14
HETATM   14  C2  UNL     1      26.806 -24.537   2.935  1.00  0.00     0.021 C 
HETATM   15  C1  UNL     1      27.500 -23.365   3.513  1.00  0.00     0.007 C 
ENDBRANCH   5  14
BRANCH  11  16
HETATM   16  O3  UNL     1      24.498 -28.807   5.044  1.00  0.00    -0.345 OA
ATOM     17  H3  UNL     1      23.598 -29.095   4.956  1.00  0.00     0.219 HD
ENDBRANCH  11  16
ENDBRANCH   1   2
BRANCH   1  18
HETATM   18  C10 UNL     1      24.891 -30.879   1.902  1.00  0.00     0.262 C 
HETATM   19  C11 UNL     1      25.480 -31.138   0.556  1.00  0.00     0.041 C 
HETATM   20  C12 UNL     1      26.444 -32.330   0.843  1.00  0.00     0.004 C 
HETATM   21  C13 UNL     1      25.538 -33.486   1.182  1.00  0.00     0.030 C 
HETATM   22  C14 UNL     1      24.498 -33.149   2.232  1.00  0.00     0.273 C 
HETATM   23  N2  UNL     1      23.831 -31.939   2.012  1.00  0.00     0.102 N 
BRANCH  23  24
HETATM   24  C15 UNL     1      22.920 -31.547   3.020  1.00  0.00     0.318 C 
BRANCH  24  25
HETATM   25  C16 UNL     1      22.657 -32.521   4.087  1.00  0.00     0.042 A 
HETATM   26  C17 UNL     1      23.590 -32.607   5.142  1.00  0.00     0.127 A 
HETATM   27  F1  UNL     1      24.546 -31.667   5.228  1.00  0.00    -0.205 F 
HETATM   28  C18 UNL     1      23.470 -33.654   6.025  1.00  0.00     0.043 A 
HETATM   29  C19 UNL     1      22.496 -34.606   5.915  1.00  0.00     0.006 A 
HETATM   30  C20 UNL     1      21.595 -34.512   4.884  1.00  0.00     0.037 A 
HETATM   31  C21 UNL     1      21.670 -33.473   3.971  1.00  0.00     0.079 A 
BRANCH  31  32
HETATM   32  O2  UNL     1      20.738 -33.421   2.932  1.00  0.00    -0.355 OA
HETATM   33  C22 UNL     1      20.919 -34.091   1.697  1.00  0.00     0.210 C 
ENDBRANCH  31  32
ENDBRANCH  24  25
ENDBRANCH  23  24
ENDBRANCH   1  18
TORSDOF 8
ENDMDL
MODEL 5
REMARK VINA RESULT: -7.752252880      3.487      7.678
REMARK  8 active torsions:
REMARK  status: ('A' for Active; 'I' for Inactive)
REMARK    1  A    between atoms: C2_2  and  C3_3 
REMARK    2  A    between atoms: C8_10  and  O1_11 
REMARK    3  A    between atoms: N1_13  and  C9_14 
REMARK    4  A    between atoms: C9_14  and  C10_15 
REMARK    5  A    between atoms: N2_20  and  C15_21 
REMARK    6  A    between atoms: C15_21  and  C16_22 
REMARK    7  A    between atoms: C21_28  and  O2_29 
REMARK    8  A    between atoms: C23_31  and  O3_32 
ROOT
HETATM    1  C9  UNL     1      24.898 -28.239   3.262  1.00  0.00     0.110 C 
ENDROOT
BRANCH   1   2
HETATM    2  N1  UNL     1      24.219 -29.491   3.499  1.00  0.00    -0.284 N 
HETATM    3  C8  UNL     1      23.084 -29.880   2.901  1.00  0.00     0.157 A 
HETATM    4  C7  UNL     1      22.711 -31.132   3.381  1.00  0.00     0.029 A 
HETATM    5  C3  UNL     1      21.691 -32.173   3.003  1.00  0.00     0.042 C 
HETATM    6  C6  UNL     1      23.616 -31.514   4.287  1.00  0.00     0.055 A 
HETATM    7  C4  UNL     1      20.402 -31.687   2.544  1.00  0.00     0.032 C 
HETATM    8  S1  UNL     1      21.614 -33.087   4.594  1.00  0.00    -0.102 SA
HETATM    9  C5  UNL     1      23.374 -32.784   4.973  1.00  0.00     0.084 C 
HETATM   10  S2  UNL     1      24.307 -33.736   5.860  1.00  0.00    -0.071 SA
HETATM   11  C23 UNL     1      24.566 -30.482   4.358  1.00  0.00     0.161 A 
BRANCH   3  12
HETATM   12  O1  UNL     1      22.395 -29.126   1.948  1.00  0.00    -0.345 OA
ATOM     13  H1  UNL     1      21.561 -28.690   2.076  1.00  0.00     0.219 HD
ENDBRANCH   3  12
BRANCH   5  14
HETATM   14  C2  UNL     1      22.368 -33.168   2.044  1.00  0.00     0.021 C 
HETATM   15  C1  UNL     1      21.483 -34.259   1.581  1.00  0.00     0.007 C 
ENDBRANCH   5  14
BRANCH  11  16
HETATM   16  O3  UNL     1      25.671 -30.493   5.197  1.00  0.00    -0.345 OA
ATOM     17  H3  UNL     1      25.808 -29.881   5.911  1.00  0.00     0.219 HD
ENDBRANCH  11  16
ENDBRANCH   1   2
BRANCH   1  18
HETATM   18  C10 UNL     1      25.487 -28.072   1.953  1.00  0.00     0.262 C 
HETATM   19  C11 UNL     1      26.193 -29.275   1.424  1.00  0.00     0.041 C 
HETATM   20  C12 UNL     1      26.218 -28.993  -0.109  1.00  0.00     0.004 C 
HETATM   21  C13 UNL     1      27.139 -27.809  -0.269  1.00  0.00     0.030 C 
HETATM   22  C14 UNL     1      26.804 -26.657   0.656  1.00  0.00     0.273 C 
HETATM   23  N2  UNL     1      26.574 -27.035   1.984  1.00  0.00     0.102 N 
BRANCH  23  24
HETATM   24  C15 UNL     1      26.169 -25.997   2.856  1.00  0.00     0.318 C 
BRANCH  24  25
HETATM   25  C16 UNL     1      27.076 -25.670   3.962  1.00  0.00     0.042 A 
HETATM   26  C17 UNL     1      28.312 -26.349   4.020  1.00  0.00     0.127 A 
HETATM   27  F1  UNL     1      28.682 -27.094   2.965  1.00  0.00    -0.205 F 
HETATM   28  C18 UNL     1      29.070 -26.213   5.159  1.00  0.00     0.043 A 
HETATM   29  C19 UNL     1      28.672 -25.458   6.226  1.00  0.00     0.006 A 
HETATM   30  C20 UNL     1      27.467 -24.803   6.158  1.00  0.00     0.037 A 
HETATM   31  C21 UNL     1      26.669 -24.904   5.031  1.00  0.00     0.079 A 
BRANCH  31  32
HETATM   32  O2  UNL     1      25.447 -24.228   5.008  1.00  0.00    -0.355 OA
HETATM   33  C22 UNL     1      25.102 -23.221   5.943  1.00  0.00     0.210 C 
ENDBRANCH  31  32
ENDBRANCH  24  25
ENDBRANCH  23  24
ENDBRANCH   1  18
TORSDOF 8
ENDMDL
