MODEL 1
REMARK VINA RESULT: -6.162441086      0.000      0.000
REMARK  5 active torsions:
REMARK  status: ('A' for Active; 'I' for Inactive)
REMARK    1  A    between atoms: C2_2  and  N1_3 
REMARK    2  A    between atoms: N1_3  and  C3_5 
REMARK    3  A    between atoms: C4_8  and  N3_9 
REMARK       I    between atoms: N3_9  and  C5_11 
REMARK    4  A    between atoms: C7_19  and  N8_20 
REMARK    5  A    between atoms: N8_20  and  C8_22 
ROOT
HETATM    1  N3  UNL     1      35.894 -32.770 -13.088  1.00  0.00    -0.162 N 
ATOM      2  H3  UNL     1      35.684 -33.556 -12.472  1.00  0.00     0.187 HD
HETATM    3  C5  UNL     1      36.719 -31.762 -12.576  1.00  0.00     0.215 C 
HETATM    4  N4  UNL     1      36.149 -30.543 -12.162  1.00  0.00    -0.062 NA
HETATM    5  N5  UNL     1      37.975 -31.938 -12.483  1.00  0.00    -0.267 N 
ATOM      6  H5  UNL     1      38.568 -31.197 -12.109  1.00  0.00     0.180 HD
HETATM    7  C6  UNL     1      38.544 -33.147 -12.893  1.00  0.00     0.184 C 
HETATM    8  N6  UNL     1      39.006 -34.174 -13.236  1.00  0.00    -0.172 NA
ENDROOT
BRANCH   1   9
HETATM    9  C4  UNL     1      35.382 -32.794 -14.254  1.00  0.00     0.713 A 
HETATM   10  N2  UNL     1      35.389 -31.750 -15.091  1.00  0.00    -0.021 N 
HETATM   11  C3  UNL     1      34.834 -31.834 -16.312  1.00  0.00     0.707 A 
ATOM     12  H2  UNL     1      35.824 -30.874 -14.798  1.00  0.00     0.203 HD
HETATM   13  N9  UNL     1      34.251 -33.006 -16.703  1.00  0.00    -0.021 N 
HETATM   14  C7  UNL     1      34.220 -34.080 -15.898  1.00  0.00     0.707 A 
ATOM     15  H9  UNL     1      33.828 -33.067 -17.630  1.00  0.00     0.203 HD
HETATM   16  N7  UNL     1      34.805 -33.921 -14.671  1.00  0.00    -0.021 N 
ATOM     17  H7  UNL     1      34.800 -34.717 -14.033  1.00  0.00     0.203 HD
BRANCH  11  18
HETATM   18  N1  UNL     1      34.834 -30.829 -17.132  1.00  0.00    -0.225 N 
ATOM     19  H1  UNL     1      35.340 -29.971 -16.912  1.00  0.00     0.177 HD
BRANCH  18  20
HETATM   20  C2  UNL     1      34.095 -30.961 -18.366  1.00  0.00     0.133 C 
HETATM   21  C1  UNL     1      34.943 -30.640 -19.557  1.00  0.00     0.027 C 
ENDBRANCH  18  20
ENDBRANCH  11  18
BRANCH  14  22
HETATM   22  N8  UNL     1      33.689 -35.204 -16.208  1.00  0.00    -0.217 N 
ATOM     23  H8  UNL     1      33.087 -35.630 -15.503  1.00  0.00     0.178 HD
BRANCH  22  24
HETATM   24  C8  UNL     1      33.845 -35.929 -17.427  1.00  0.00     0.036 C 
HETATM   25  C9  UNL     1      33.180 -35.152 -18.552  1.00  0.00     0.038 C 
HETATM   26  C10 UNL     1      35.298 -36.237 -17.715  1.00  0.00     0.038 C 
HETATM   27  C11 UNL     1      33.161 -37.307 -17.327  1.00  0.00     0.038 C 
ENDBRANCH  22  24
ENDBRANCH  14  22
ENDBRANCH   1   9
TORSDOF 5
ENDMDL
MODEL 2
REMARK VINA RESULT: -6.036995848      2.135      4.069
REMARK  5 active torsions:
REMARK  status: ('A' for Active; 'I' for Inactive)
REMARK    1  A    between atoms: C2_2  and  N1_3 
REMARK    2  A    between atoms: N1_3  and  C3_5 
REMARK    3  A    between atoms: C4_8  and  N3_9 
REMARK       I    between atoms: N3_9  and  C5_11 
REMARK    4  A    between atoms: C7_19  and  N8_20 
REMARK    5  A    between atoms: N8_20  and  C8_22 
ROOT
HETATM    1  N3  UNL     1      34.176 -31.621 -15.169  1.00  0.00    -0.162 N 
ATOM      2  H3  UNL     1      33.522 -31.337 -14.438  1.00  0.00     0.187 HD
HETATM    3  C5  UNL     1      35.396 -30.939 -15.231  1.00  0.00     0.215 C 
HETATM    4  N4  UNL     1      35.597 -29.966 -16.228  1.00  0.00    -0.062 NA
HETATM    5  N5  UNL     1      36.323 -31.192 -14.397  1.00  0.00    -0.267 N 
ATOM      6  H5  UNL     1      37.209 -30.691 -14.451  1.00  0.00     0.180 HD
HETATM    7  C6  UNL     1      36.127 -32.158 -13.406  1.00  0.00     0.184 C 
HETATM    8  N6  UNL     1      35.942 -32.969 -12.573  1.00  0.00    -0.172 NA
ENDROOT
BRANCH   1   9
HETATM    9  C4  UNL     1      33.808 -32.564 -15.942  1.00  0.00     0.713 A 
HETATM   10  N2  UNL     1      34.452 -33.733 -16.049  1.00  0.00    -0.021 N 
HETATM   11  C3  UNL     1      34.017 -34.693 -16.882  1.00  0.00     0.707 A 
ATOM     12  H2  UNL     1      35.289 -33.897 -15.489  1.00  0.00     0.203 HD
HETATM   13  N9  UNL     1      32.897 -34.471 -17.633  1.00  0.00    -0.021 N 
HETATM   14  C7  UNL     1      32.217 -33.315 -17.559  1.00  0.00     0.707 A 
ATOM     15  H9  UNL     1      32.569 -35.201 -18.265  1.00  0.00     0.203 HD
HETATM   16  N7  UNL     1      32.719 -32.384 -16.689  1.00  0.00    -0.021 N 
ATOM     17  H7  UNL     1      32.227 -31.494 -16.607  1.00  0.00     0.203 HD
BRANCH  11  18
HETATM   18  N1  UNL     1      34.633 -35.829 -16.995  1.00  0.00    -0.225 N 
ATOM     19  H1  UNL     1      35.159 -36.220 -16.215  1.00  0.00     0.177 HD
BRANCH  18  20
HETATM   20  C2  UNL     1      34.552 -36.521 -18.260  1.00  0.00     0.133 C 
HETATM   21  C1  UNL     1      35.894 -36.998 -18.719  1.00  0.00     0.027 C 
ENDBRANCH  18  20
ENDBRANCH  11  18
BRANCH  14  22
HETATM   22  N8  UNL     1      31.163 -33.049 -18.235  1.00  0.00    -0.217 N 
ATOM     23  H8  UNL     1      30.284 -33.035 -17.717  1.00  0.00     0.178 HD
BRANCH  22  24
HETATM   24  C8  UNL     1      31.077 -32.770 -19.632  1.00  0.00     0.036 C 
HETATM   25  C9  UNL     1      32.281 -31.939 -20.045  1.00  0.00     0.038 C 
HETATM   26  C10 UNL     1      30.938 -34.035 -20.450  1.00  0.00     0.038 C 
HETATM   27  C11 UNL     1      29.804 -31.957 -19.943  1.00  0.00     0.038 C 
ENDBRANCH  22  24
ENDBRANCH  14  22
ENDBRANCH   1   9
TORSDOF 5
ENDMDL
MODEL 3
REMARK VINA RESULT: -5.991084711      2.344      6.301
REMARK  5 active torsions:
REMARK  status: ('A' for Active; 'I' for Inactive)
REMARK    1  A    between atoms: C2_2  and  N1_3 
REMARK    2  A    between atoms: N1_3  and  C3_5 
REMARK    3  A    between atoms: C4_8  and  N3_9 
REMARK       I    between atoms: N3_9  and  C5_11 
REMARK    4  A    between atoms: C7_19  and  N8_20 
REMARK    5  A    between atoms: N8_20  and  C8_22 
ROOT
HETATM    1  N3  UNL     1      32.276 -32.325 -17.741  1.00  0.00    -0.162 N 
ATOM      2  H3  UNL     1      31.758 -31.485 -17.480  1.00  0.00     0.187 HD
HETATM    3  C5  UNL     1      32.600 -32.480 -19.093  1.00  0.00     0.215 C 
HETATM    4  N4  UNL     1      31.863 -33.384 -19.883  1.00  0.00    -0.062 NA
HETATM    5  N5  UNL     1      33.550 -31.814 -19.612  1.00  0.00    -0.267 N 
ATOM      6  H5  UNL     1      33.779 -31.935 -20.599  1.00  0.00     0.180 HD
HETATM    7  C6  UNL     1      34.283 -30.916 -18.831  1.00  0.00     0.184 C 
HETATM    8  N6  UNL     1      34.885 -30.158 -18.161  1.00  0.00    -0.172 NA
ENDROOT
BRANCH   1   9
HETATM    9  C4  UNL     1      32.571 -33.137 -16.805  1.00  0.00     0.713 A 
HETATM   10  N2  UNL     1      32.164 -34.413 -16.772  1.00  0.00    -0.021 N 
HETATM   11  C3  UNL     1      32.507 -35.225 -15.759  1.00  0.00     0.707 A 
ATOM     12  H2  UNL     1      31.584 -34.774 -17.530  1.00  0.00     0.203 HD
HETATM   13  N9  UNL     1      33.283 -34.740 -14.744  1.00  0.00    -0.021 N 
HETATM   14  C7  UNL     1      33.715 -33.469 -14.734  1.00  0.00     0.707 A 
ATOM     15  H9  UNL     1      33.541 -35.359 -13.975  1.00  0.00     0.203 HD
HETATM   16  N7  UNL     1      33.327 -32.700 -15.799  1.00  0.00    -0.021 N 
ATOM     17  H7  UNL     1      33.638 -31.729 -15.824  1.00  0.00     0.203 HD
BRANCH  11  18
HETATM   18  N1  UNL     1      32.119 -36.462 -15.716  1.00  0.00    -0.225 N 
ATOM     19  H1  UNL     1      32.357 -37.114 -16.463  1.00  0.00     0.177 HD
BRANCH  18  20
HETATM   20  C2  UNL     1      31.338 -36.889 -14.577  1.00  0.00     0.133 C 
HETATM   21  C1  UNL     1      30.629 -38.179 -14.844  1.00  0.00     0.027 C 
ENDBRANCH  18  20
ENDBRANCH  11  18
BRANCH  14  22
HETATM   22  N8  UNL     1      34.443 -32.958 -13.813  1.00  0.00    -0.217 N 
ATOM     23  H8  UNL     1      34.016 -32.877 -12.890  1.00  0.00     0.178 HD
BRANCH  22  24
HETATM   24  C8  UNL     1      35.785 -32.487 -13.930  1.00  0.00     0.036 C 
HETATM   25  C9  UNL     1      36.636 -33.575 -14.565  1.00  0.00     0.038 C 
HETATM   26  C10 UNL     1      35.857 -31.179 -14.687  1.00  0.00     0.038 C 
HETATM   27  C11 UNL     1      36.370 -32.171 -12.539  1.00  0.00     0.038 C 
ENDBRANCH  22  24
ENDBRANCH  14  22
ENDBRANCH   1   9
TORSDOF 5
ENDMDL
MODEL 4
REMARK VINA RESULT: -5.974529035      2.209      4.478
REMARK  5 active torsions:
REMARK  status: ('A' for Active; 'I' for Inactive)
REMARK    1  A    between atoms: C2_2  and  N1_3 
REMARK    2  A    between atoms: N1_3  and  C3_5 
REMARK    3  A    between atoms: C4_8  and  N3_9 
REMARK       I    between atoms: N3_9  and  C5_11 
REMARK    4  A    between atoms: C7_19  and  N8_20 
REMARK    5  A    between atoms: N8_20  and  C8_22 
ROOT
HETATM    1  N3  UNL     1      34.037 -31.547 -15.163  1.00  0.00    -0.162 N 
ATOM      2  H3  UNL     1      33.524 -31.146 -14.377  1.00  0.00     0.187 HD
HETATM    3  C5  UNL     1      35.319 -31.043 -15.410  1.00  0.00     0.215 C 
HETATM    4  N4  UNL     1      35.518 -30.147 -16.478  1.00  0.00    -0.062 NA
HETATM    5  N5  UNL     1      36.302 -31.387 -14.680  1.00  0.00    -0.267 N 
ATOM      6  H5  UNL     1      37.233 -31.015 -14.869  1.00  0.00     0.180 HD
HETATM    7  C6  UNL     1      36.107 -32.276 -13.620  1.00  0.00     0.184 C 
HETATM    8  N6  UNL     1      35.924 -33.020 -12.726  1.00  0.00    -0.172 NA
ENDROOT
BRANCH   1   9
HETATM    9  C4  UNL     1      33.453 -32.460 -15.832  1.00  0.00     0.713 A 
HETATM   10  N2  UNL     1      33.356 -33.732 -15.426  1.00  0.00    -0.021 N 
HETATM   11  C3  UNL     1      32.726 -34.654 -16.174  1.00  0.00     0.707 A 
ATOM     12  H2  UNL     1      33.767 -34.007 -14.534  1.00  0.00     0.203 HD
HETATM   13  N9  UNL     1      32.177 -34.285 -17.370  1.00  0.00    -0.021 N 
HETATM   14  C7  UNL     1      32.249 -33.021 -17.818  1.00  0.00     0.707 A 
ATOM     15  H9  UNL     1      31.700 -34.987 -17.936  1.00  0.00     0.203 HD
HETATM   16  N7  UNL     1      32.904 -32.137 -17.003  1.00  0.00    -0.021 N 
ATOM     17  H7  UNL     1      32.977 -31.168 -17.312  1.00  0.00     0.203 HD
BRANCH  11  18
HETATM   18  N1  UNL     1      32.626 -35.889 -15.792  1.00  0.00    -0.225 N 
ATOM     19  H1  UNL     1      33.216 -36.615 -16.199  1.00  0.00     0.177 HD
BRANCH  18  20
HETATM   20  C2  UNL     1      31.653 -36.207 -14.772  1.00  0.00     0.133 C 
HETATM   21  C1  UNL     1      31.352 -37.672 -14.730  1.00  0.00     0.027 C 
ENDBRANCH  18  20
ENDBRANCH  11  18
BRANCH  14  22
HETATM   22  N8  UNL     1      31.754 -32.615 -18.927  1.00  0.00    -0.217 N 
ATOM     23  H8  UNL     1      30.747 -32.457 -18.942  1.00  0.00     0.178 HD
BRANCH  22  24
HETATM   24  C8  UNL     1      32.452 -32.361 -20.145  1.00  0.00     0.036 C 
HETATM   25  C9  UNL     1      32.485 -30.860 -20.391  1.00  0.00     0.038 C 
HETATM   26  C10 UNL     1      33.833 -32.978 -20.141  1.00  0.00     0.038 C 
HETATM   27  C11 UNL     1      31.726 -33.025 -21.333  1.00  0.00     0.038 C 
ENDBRANCH  22  24
ENDBRANCH  14  22
ENDBRANCH   1   9
TORSDOF 5
ENDMDL
MODEL 5
REMARK VINA RESULT: -5.928654801      1.648      4.067
REMARK  5 active torsions:
REMARK  status: ('A' for Active; 'I' for Inactive)
REMARK    1  A    between atoms: C2_2  and  N1_3 
REMARK    2  A    between atoms: N1_3  and  C3_5 
REMARK    3  A    between atoms: C4_8  and  N3_9 
REMARK       I    between atoms: N3_9  and  C5_11 
REMARK    4  A    between atoms: C7_19  and  N8_20 
REMARK    5  A    between atoms: N8_20  and  C8_22 
ROOT
HETATM    1  N3  UNL     1      36.697 -32.346 -14.793  1.00  0.00    -0.162 N 
ATOM      2  H3  UNL     1      37.108 -31.522 -15.233  1.00  0.00     0.187 HD
HETATM    3  C5  UNL     1      37.460 -32.993 -13.815  1.00  0.00     0.215 C 
HETATM    4  N4  UNL     1      38.116 -34.198 -14.132  1.00  0.00    -0.062 NA
HETATM    5  N5  UNL     1      37.565 -32.504 -12.645  1.00  0.00    -0.267 N 
ATOM      6  H5  UNL     1      38.123 -32.984 -11.939  1.00  0.00     0.180 HD
HETATM    7  C6  UNL     1      36.915 -31.308 -12.328  1.00  0.00     0.184 C 
HETATM    8  N6  UNL     1      36.367 -30.297 -12.079  1.00  0.00    -0.172 NA
ENDROOT
BRANCH   1   9
HETATM    9  C4  UNL     1      35.535 -32.693 -15.183  1.00  0.00     0.713 A 
HETATM   10  N2  UNL     1      34.828 -33.684 -14.626  1.00  0.00    -0.021 N 
HETATM   11  C3  UNL     1      33.605 -34.005 -15.079  1.00  0.00     0.707 A 
ATOM     12  H2  UNL     1      35.225 -34.205 -13.843  1.00  0.00     0.203 HD
HETATM   13  N9  UNL     1      33.075 -33.309 -16.128  1.00  0.00    -0.021 N 
HETATM   14  C7  UNL     1      33.746 -32.306 -16.719  1.00  0.00     0.707 A 
ATOM     15  H9  UNL     1      32.147 -33.555 -16.472  1.00  0.00     0.203 HD
HETATM   16  N7  UNL     1      34.985 -32.035 -16.203  1.00  0.00    -0.021 N 
ATOM     17  H7  UNL     1      35.523 -31.279 -16.627  1.00  0.00     0.203 HD
BRANCH  11  18
HETATM   18  N1  UNL     1      32.911 -34.964 -14.548  1.00  0.00    -0.225 N 
ATOM     19  H1  UNL     1      32.898 -35.106 -13.538  1.00  0.00     0.177 HD
BRANCH  18  20
HETATM   20  C2  UNL     1      32.157 -35.824 -15.430  1.00  0.00     0.133 C 
HETATM   21  C1  UNL     1      31.418 -36.883 -14.673  1.00  0.00     0.027 C 
ENDBRANCH  18  20
ENDBRANCH  11  18
BRANCH  14  22
HETATM   22  N8  UNL     1      33.303 -31.618 -17.704  1.00  0.00    -0.217 N 
ATOM     23  H8  UNL     1      32.696 -30.832 -17.469  1.00  0.00     0.178 HD
BRANCH  22  24
HETATM   24  C8  UNL     1      33.561 -31.825 -19.092  1.00  0.00     0.036 C 
HETATM   25  C9  UNL     1      34.460 -30.708 -19.599  1.00  0.00     0.038 C 
HETATM   26  C10 UNL     1      34.136 -33.199 -19.357  1.00  0.00     0.038 C 
HETATM   27  C11 UNL     1      32.246 -31.785 -19.897  1.00  0.00     0.038 C 
ENDBRANCH  22  24
ENDBRANCH  14  22
ENDBRANCH   1   9
TORSDOF 5
ENDMDL
