MODEL 1
REMARK VINA RESULT: -3.814431514      0.000      0.000
REMARK  6 active torsions:
REMARK  status: ('A' for Active; 'I' for Inactive)
REMARK    1  A    between atoms: C2_2  and  O1_3 
REMARK    2  A    between atoms: C3_5  and  O2_6 
REMARK    3  A    between atoms: C4_8  and  O3_9 
REMARK    4  A    between atoms: C5_11  and  C6_12 
REMARK    5  A    between atoms: C6_12  and  N1_13 
REMARK    6  A    between atoms: C12_20  and  C13_21 
ROOT
HETATM    1  C1  UNL     1      34.513 -33.391 -19.843  1.00  0.00     0.051 C 
HETATM    2  C2  UNL     1      33.169 -33.452 -19.203  1.00  0.00     0.116 C 
HETATM    3  C3  UNL     1      32.852 -32.273 -18.336  1.00  0.00     0.185 C 
HETATM    4  C4  UNL     1      32.943 -32.586 -16.853  1.00  0.00     0.182 C 
HETATM    5  C5  UNL     1      33.957 -33.647 -16.587  1.00  0.00     0.247 C 
HETATM    6  N2  UNL     1      33.641 -34.889 -17.237  1.00  0.00    -0.055 N 
HETATM    7  C10 UNL     1      34.923 -35.564 -17.480  1.00  0.00     0.273 C 
HETATM    8  C11 UNL     1      32.906 -35.811 -16.387  1.00  0.00     0.273 C 
HETATM    9  C12 UNL     1      32.891 -34.715 -18.445  1.00  0.00     0.264 C 
ENDROOT
BRANCH   5  10
HETATM   10  C6  UNL     1      34.310 -33.819 -15.161  1.00  0.00     0.272 C 
BRANCH  10  11
HETATM   11  N1  UNL     1      35.505 -33.205 -14.687  1.00  0.00    -0.076 N 
HETATM   12  C7  UNL     1      35.771 -31.884 -15.206  1.00  0.00     0.271 C 
HETATM   13  C8  UNL     1      36.679 -34.035 -14.786  1.00  0.00     0.271 C 
HETATM   14  C9  UNL     1      35.319 -32.984 -13.228  1.00  0.00     0.271 C 
ENDBRANCH  10  11
ENDBRANCH   5  10
BRANCH   4  15
HETATM   15  O3  UNL     1      31.660 -32.896 -16.415  1.00  0.00    -0.391 OA
ATOM     16  H3  UNL     1      31.301 -32.113 -16.015  1.00  0.00     0.210 HD
ENDBRANCH   4  15
BRANCH   3  17
HETATM   17  O2  UNL     1      33.783 -31.265 -18.651  1.00  0.00    -0.390 OA
ATOM     18  H2  UNL     1      33.814 -30.671 -17.909  1.00  0.00     0.210 HD
ENDBRANCH   3  17
BRANCH   9  19
HETATM   19  C13 UNL     1      32.954 -35.919 -19.325  1.00  0.00     0.089 C 
HETATM   20  N3  UNL     1      31.892 -36.406 -19.828  1.00  0.00    -0.409 N 
ATOM     21  H32 UNL     1      30.999 -35.959 -19.619  1.00  0.00     0.155 HD
ATOM     22  H31 UNL     1      31.935 -37.229 -20.428  1.00  0.00     0.155 HD
ENDBRANCH   9  19
BRANCH   2  23
HETATM   23  O1  UNL     1      32.218 -33.423 -20.254  1.00  0.00    -0.385 OA
ATOM     24  H1  UNL     1      31.842 -32.550 -20.257  1.00  0.00     0.210 HD
ENDBRANCH   2  23
TORSDOF 6
ENDMDL
MODEL 2
REMARK VINA RESULT: -3.628294264      4.907      7.095
REMARK  6 active torsions:
REMARK  status: ('A' for Active; 'I' for Inactive)
REMARK    1  A    between atoms: C2_2  and  O1_3 
REMARK    2  A    between atoms: C3_5  and  O2_6 
REMARK    3  A    between atoms: C4_8  and  O3_9 
REMARK    4  A    between atoms: C5_11  and  C6_12 
REMARK    5  A    between atoms: C6_12  and  N1_13 
REMARK    6  A    between atoms: C12_20  and  C13_21 
ROOT
HETATM    1  C1  UNL     1      32.298 -40.719 -16.811  1.00  0.00     0.051 C 
HETATM    2  C2  UNL     1      33.102 -39.578 -16.295  1.00  0.00     0.116 C 
HETATM    3  C3  UNL     1      32.655 -38.240 -16.796  1.00  0.00     0.185 C 
HETATM    4  C4  UNL     1      33.576 -37.666 -17.859  1.00  0.00     0.182 C 
HETATM    5  C5  UNL     1      34.222 -38.751 -18.655  1.00  0.00     0.247 C 
HETATM    6  N2  UNL     1      35.037 -39.617 -17.847  1.00  0.00    -0.055 N 
HETATM    7  C10 UNL     1      35.039 -40.924 -18.519  1.00  0.00     0.273 C 
HETATM    8  C11 UNL     1      36.436 -39.226 -17.820  1.00  0.00     0.273 C 
HETATM    9  C12 UNL     1      34.582 -39.713 -16.492  1.00  0.00     0.264 C 
ENDROOT
BRANCH   5  10
HETATM   10  C6  UNL     1      34.912 -38.290 -19.879  1.00  0.00     0.272 C 
BRANCH  10  11
HETATM   11  N1  UNL     1      34.226 -38.414 -21.122  1.00  0.00    -0.076 N 
HETATM   12  C7  UNL     1      33.993 -37.176 -21.827  1.00  0.00     0.271 C 
HETATM   13  C8  UNL     1      33.017 -39.196 -21.058  1.00  0.00     0.271 C 
HETATM   14  C9  UNL     1      35.124 -39.178 -22.029  1.00  0.00     0.271 C 
ENDBRANCH  10  11
ENDBRANCH   5  10
BRANCH   4  15
HETATM   15  O3  UNL     1      34.469 -36.814 -17.220  1.00  0.00    -0.391 OA
ATOM     16  H3  UNL     1      35.170 -36.628 -17.832  1.00  0.00     0.210 HD
ENDBRANCH   4  15
BRANCH   3  17
HETATM   17  O2  UNL     1      31.370 -38.411 -17.345  1.00  0.00    -0.390 OA
ATOM     18  H2  UNL     1      31.234 -37.702 -17.964  1.00  0.00     0.210 HD
ENDBRANCH   3  17
BRANCH   9  19
HETATM   19  C13 UNL     1      35.131 -40.916 -15.800  1.00  0.00     0.089 C 
HETATM   20  N3  UNL     1      35.559 -40.832 -14.604  1.00  0.00    -0.409 N 
ATOM     21  H32 UNL     1      35.520 -39.930 -14.130  1.00  0.00     0.155 HD
ATOM     22  H31 UNL     1      35.933 -41.654 -14.131  1.00  0.00     0.155 HD
ENDBRANCH   9  19
BRANCH   2  23
HETATM   23  O1  UNL     1      32.909 -39.547 -14.891  1.00  0.00    -0.385 OA
ATOM     24  H1  UNL     1      32.235 -38.898 -14.723  1.00  0.00     0.210 HD
ENDBRANCH   2  23
TORSDOF 6
ENDMDL
MODEL 3
REMARK VINA RESULT: -3.562883829      4.419      7.194
REMARK  6 active torsions:
REMARK  status: ('A' for Active; 'I' for Inactive)
REMARK    1  A    between atoms: C2_2  and  O1_3 
REMARK    2  A    between atoms: C3_5  and  O2_6 
REMARK    3  A    between atoms: C4_8  and  O3_9 
REMARK    4  A    between atoms: C5_11  and  C6_12 
REMARK    5  A    between atoms: C6_12  and  N1_13 
REMARK    6  A    between atoms: C12_20  and  C13_21 
ROOT
HETATM    1  C1  UNL     1      35.249 -40.979 -17.221  1.00  0.00     0.051 C 
HETATM    2  C2  UNL     1      34.812 -39.777 -16.460  1.00  0.00     0.116 C 
HETATM    3  C3  UNL     1      33.349 -39.754 -16.142  1.00  0.00     0.185 C 
HETATM    4  C4  UNL     1      32.568 -38.783 -17.011  1.00  0.00     0.182 C 
HETATM    5  C5  UNL     1      33.195 -38.641 -18.357  1.00  0.00     0.247 C 
HETATM    6  N2  UNL     1      34.535 -38.126 -18.291  1.00  0.00    -0.055 N 
HETATM    7  C10 UNL     1      35.236 -38.652 -19.470  1.00  0.00     0.273 C 
HETATM    8  C11 UNL     1      34.603 -36.683 -18.447  1.00  0.00     0.273 C 
HETATM    9  C12 UNL     1      35.207 -38.467 -17.073  1.00  0.00     0.264 C 
ENDROOT
BRANCH   5  10
HETATM   10  C6  UNL     1      32.359 -37.940 -19.355  1.00  0.00     0.272 C 
BRANCH  10  11
HETATM   11  N1  UNL     1      31.602 -38.728 -20.270  1.00  0.00    -0.076 N 
HETATM   12  C7  UNL     1      30.170 -38.560 -20.196  1.00  0.00     0.271 C 
HETATM   13  C8  UNL     1      31.949 -40.127 -20.276  1.00  0.00     0.271 C 
HETATM   14  C9  UNL     1      31.949 -38.247 -21.634  1.00  0.00     0.271 C 
ENDBRANCH  10  11
ENDBRANCH   5  10
BRANCH   4  15
HETATM   15  O3  UNL     1      32.453 -37.593 -16.303  1.00  0.00    -0.391 OA
ATOM     16  H3  UNL     1      32.431 -36.887 -16.938  1.00  0.00     0.210 HD
ENDBRANCH   4  15
BRANCH   3  17
HETATM   17  O2  UNL     1      32.858 -41.056 -16.353  1.00  0.00    -0.390 OA
ATOM     18  H2  UNL     1      31.946 -41.058 -16.086  1.00  0.00     0.210 HD
ENDBRANCH   3  17
BRANCH   9  19
HETATM   19  C13 UNL     1      36.689 -38.331 -17.192  1.00  0.00     0.089 C 
HETATM   20  N3  UNL     1      37.339 -37.614 -16.365  1.00  0.00    -0.409 N 
ATOM     21  H32 UNL     1      36.829 -37.136 -15.622  1.00  0.00     0.155 HD
ATOM     22  H31 UNL     1      38.351 -37.520 -16.447  1.00  0.00     0.155 HD
ENDBRANCH   9  19
BRANCH   2  23
HETATM   23  O1  UNL     1      35.477 -39.825 -15.208  1.00  0.00    -0.385 OA
ATOM     24  H1  UNL     1      35.070 -40.526 -14.711  1.00  0.00     0.210 HD
ENDBRANCH   2  23
TORSDOF 6
ENDMDL
MODEL 4
REMARK VINA RESULT: -3.454286014      2.534      4.293
REMARK  6 active torsions:
REMARK  status: ('A' for Active; 'I' for Inactive)
REMARK    1  A    between atoms: C2_2  and  O1_3 
REMARK    2  A    between atoms: C3_5  and  O2_6 
REMARK    3  A    between atoms: C4_8  and  O3_9 
REMARK    4  A    between atoms: C5_11  and  C6_12 
REMARK    5  A    between atoms: C6_12  and  N1_13 
REMARK    6  A    between atoms: C12_20  and  C13_21 
ROOT
HETATM    1  C1  UNL     1      33.635 -32.501 -16.909  1.00  0.00     0.051 C 
HETATM    2  C2  UNL     1      32.673 -33.613 -17.140  1.00  0.00     0.116 C 
HETATM    3  C3  UNL     1      33.053 -34.898 -16.473  1.00  0.00     0.185 C 
HETATM    4  C4  UNL     1      33.599 -35.931 -17.443  1.00  0.00     0.182 C 
HETATM    5  C5  UNL     1      34.293 -35.279 -18.591  1.00  0.00     0.247 C 
HETATM    6  N2  UNL     1      33.417 -34.437 -19.359  1.00  0.00    -0.055 N 
HETATM    7  C10 UNL     1      34.266 -33.395 -19.955  1.00  0.00     0.273 C 
HETATM    8  C11 UNL     1      32.825 -35.114 -20.500  1.00  0.00     0.273 C 
HETATM    9  C12 UNL     1      32.352 -33.877 -18.580  1.00  0.00     0.264 C 
ENDROOT
BRANCH   5  10
HETATM   10  C6  UNL     1      35.090 -36.197 -19.433  1.00  0.00     0.272 C 
BRANCH  10  11
HETATM   11  N1  UNL     1      35.937 -37.139 -18.781  1.00  0.00    -0.076 N 
HETATM   12  C7  UNL     1      35.492 -38.512 -18.832  1.00  0.00     0.271 C 
HETATM   13  C8  UNL     1      36.307 -36.775 -17.437  1.00  0.00     0.271 C 
HETATM   14  C9  UNL     1      37.219 -37.152 -19.536  1.00  0.00     0.271 C 
ENDBRANCH  10  11
ENDBRANCH   5  10
BRANCH   4  15
HETATM   15  O3  UNL     1      32.544 -36.760 -17.806  1.00  0.00    -0.391 OA
ATOM     16  H3  UNL     1      32.827 -37.656 -17.668  1.00  0.00     0.210 HD
ENDBRANCH   4  15
BRANCH   3  17
HETATM   17  O2  UNL     1      34.043 -34.594 -15.520  1.00  0.00    -0.390 OA
ATOM     18  H2  UNL     1      34.883 -34.793 -15.916  1.00  0.00     0.210 HD
ENDBRANCH   3  17
BRANCH   9  19
HETATM   19  C13 UNL     1      31.736 -32.690 -19.243  1.00  0.00     0.089 C 
HETATM   20  N3  UNL     1      30.474 -32.527 -19.229  1.00  0.00    -0.409 N 
ATOM     21  H32 UNL     1      29.894 -33.220 -18.757  1.00  0.00     0.155 HD
ATOM     22  H31 UNL     1      30.053 -31.715 -19.681  1.00  0.00     0.155 HD
ENDBRANCH   9  19
BRANCH   2  23
HETATM   23  O1  UNL     1      31.447 -33.219 -16.546  1.00  0.00    -0.385 OA
ATOM     24  H1  UNL     1      30.868 -32.969 -17.257  1.00  0.00     0.210 HD
ENDBRANCH   2  23
TORSDOF 6
ENDMDL
MODEL 5
REMARK VINA RESULT: -3.356560008      2.461      3.640
REMARK  6 active torsions:
REMARK  status: ('A' for Active; 'I' for Inactive)
REMARK    1  A    between atoms: C2_2  and  O1_3 
REMARK    2  A    between atoms: C3_5  and  O2_6 
REMARK    3  A    between atoms: C4_8  and  O3_9 
REMARK    4  A    between atoms: C5_11  and  C6_12 
REMARK    5  A    between atoms: C6_12  and  N1_13 
REMARK    6  A    between atoms: C12_20  and  C13_21 
ROOT
HETATM    1  C1  UNL     1      31.341 -30.902 -20.753  1.00  0.00     0.051 C 
HETATM    2  C2  UNL     1      31.453 -32.369 -20.977  1.00  0.00     0.116 C 
HETATM    3  C3  UNL     1      30.846 -33.202 -19.891  1.00  0.00     0.185 C 
HETATM    4  C4  UNL     1      31.883 -33.839 -18.982  1.00  0.00     0.182 C 
HETATM    5  C5  UNL     1      33.107 -32.991 -18.884  1.00  0.00     0.247 C 
HETATM    6  N2  UNL     1      33.753 -32.805 -20.155  1.00  0.00    -0.055 N 
HETATM    7  C10 UNL     1      34.447 -31.511 -20.077  1.00  0.00     0.273 C 
HETATM    8  C11 UNL     1      34.813 -33.766 -20.406  1.00  0.00     0.273 C 
HETATM    9  C12 UNL     1      32.842 -32.857 -21.259  1.00  0.00     0.264 C 
ENDROOT
BRANCH   5  10
HETATM   10  C6  UNL     1      34.048 -33.389 -17.815  1.00  0.00     0.272 C 
BRANCH  10  11
HETATM   11  N1  UNL     1      33.962 -32.717 -16.561  1.00  0.00    -0.076 N 
HETATM   12  C7  UNL     1      32.655 -32.716 -15.948  1.00  0.00     0.271 C 
HETATM   13  C8  UNL     1      34.525 -31.391 -16.558  1.00  0.00     0.271 C 
HETATM   14  C9  UNL     1      34.803 -33.488 -15.607  1.00  0.00     0.271 C 
ENDBRANCH  10  11
ENDBRANCH   5  10
BRANCH   4  15
HETATM   15  O3  UNL     1      32.113 -35.126 -19.452  1.00  0.00    -0.391 OA
ATOM     16  H3  UNL     1      32.938 -35.419 -19.084  1.00  0.00     0.210 HD
ENDBRANCH   4  15
BRANCH   3  17
HETATM   17  O2  UNL     1      30.026 -32.351 -19.126  1.00  0.00    -0.390 OA
ATOM     18  H2  UNL     1      29.418 -32.904 -18.648  1.00  0.00     0.210 HD
ENDBRANCH   3  17
BRANCH   9  19
HETATM   19  C13 UNL     1      33.414 -32.234 -22.489  1.00  0.00     0.089 C 
HETATM   20  N3  UNL     1      33.305 -32.814 -23.616  1.00  0.00    -0.409 N 
ATOM     21  H32 UNL     1      32.821 -33.710 -23.663  1.00  0.00     0.155 HD
ATOM     22  H31 UNL     1      33.696 -32.388 -24.456  1.00  0.00     0.155 HD
ENDBRANCH   9  19
BRANCH   2  23
HETATM   23  O1  UNL     1      30.705 -32.659 -22.147  1.00  0.00    -0.385 OA
ATOM     24  H1  UNL     1      29.788 -32.596 -21.906  1.00  0.00     0.210 HD
ENDBRANCH   2  23
TORSDOF 6
ENDMDL
