MODEL 1
REMARK VINA RESULT: -6.797193968      0.000      0.000
REMARK  5 active torsions:
REMARK  status: ('A' for Active; 'I' for Inactive)
REMARK    1  A    between atoms: C3_7  and  O1_8 
REMARK    2  A    between atoms: C5_11  and  N3_12 
REMARK    3  A    between atoms: N3_12  and  C6_14 
REMARK    4  A    between atoms: N4_18  and  C10_19 
REMARK    5  A    between atoms: C10_19  and  C11_20 
ROOT
HETATM    1  C11 UNL     1      30.443 -12.563 -15.955  1.00  0.00     0.154 C 
HETATM    2  C12 UNL     1      30.411 -13.972 -16.370  1.00  0.00     0.060 C 
HETATM    3  N5  UNL     1      30.402 -15.077 -16.706  1.00  0.00    -0.197 NA
ENDROOT
BRANCH   1   4
HETATM    4  C10 UNL     1      29.683 -12.449 -14.669  1.00  0.00     0.286 C 
BRANCH   4   5
HETATM    5  N4  UNL     1      28.389 -11.887 -14.905  1.00  0.00     0.089 N 
HETATM    6  C9  UNL     1      27.301 -12.730 -14.530  1.00  0.00     0.275 C 
HETATM    7  C8  UNL     1      26.722 -13.502 -15.696  1.00  0.00     0.060 C 
HETATM    8  C6  UNL     1      26.076 -12.507 -16.639  1.00  0.00     0.030 C 
HETATM    9  C7  UNL     1      26.354 -12.849 -18.082  1.00  0.00     0.038 C 
HETATM   10  C14 UNL     1      26.711 -11.124 -16.399  1.00  0.00     0.060 C 
HETATM   11  C13 UNL     1      28.196 -11.335 -16.204  1.00  0.00     0.275 C 
BRANCH   8  12
HETATM   12  N3  UNL     1      24.712 -12.382 -16.311  1.00  0.00    -0.379 N 
ATOM     13  H3  UNL     1      24.539 -11.805 -15.489  1.00  0.00     0.160 HD
BRANCH  12  14
HETATM   14  C5  UNL     1      23.665 -12.844 -16.837  1.00  0.00     0.056 A 
HETATM   15  C2  UNL     1      22.855 -11.954 -17.536  1.00  0.00     0.048 A 
HETATM   16  C1  UNL     1      23.215 -10.502 -17.659  1.00  0.00     0.072 C 
HETATM   17  N1  UNL     1      21.738 -12.414 -18.105  1.00  0.00    -0.301 N 
HETATM   18  N2  UNL     1      21.331 -13.669 -18.056  1.00  0.00    -0.280 N 
ATOM     19  H1  UNL     1      21.157 -11.747 -18.614  1.00  0.00     0.186 HD
HETATM   20  C3  UNL     1      22.090 -14.556 -17.388  1.00  0.00     0.156 A 
ATOM     21  H2  UNL     1      20.465 -13.959 -18.512  1.00  0.00     0.189 HD
HETATM   22  C4  UNL     1      23.257 -14.157 -16.776  1.00  0.00     0.088 A 
BRANCH  20  23
HETATM   23  O1  UNL     1      21.708 -15.909 -17.301  1.00  0.00    -0.345 OA
ATOM     24  H1  UNL     1      22.209 -16.522 -16.776  1.00  0.00     0.219 HD
ENDBRANCH  20  23
ENDBRANCH  12  14
ENDBRANCH   8  12
ENDBRANCH   4   5
ENDBRANCH   1   4
TORSDOF 5
ENDMDL
MODEL 2
REMARK VINA RESULT: -6.691316292      1.627      1.952
REMARK  5 active torsions:
REMARK  status: ('A' for Active; 'I' for Inactive)
REMARK    1  A    between atoms: C3_7  and  O1_8 
REMARK    2  A    between atoms: C5_11  and  N3_12 
REMARK    3  A    between atoms: N3_12  and  C6_14 
REMARK    4  A    between atoms: N4_18  and  C10_19 
REMARK    5  A    between atoms: C10_19  and  C11_20 
ROOT
HETATM    1  C11 UNL     1      29.215 -12.127 -14.381  1.00  0.00     0.154 C 
HETATM    2  C12 UNL     1      30.258 -11.776 -15.353  1.00  0.00     0.060 C 
HETATM    3  N5  UNL     1      31.084 -11.487 -16.107  1.00  0.00    -0.197 NA
ENDROOT
BRANCH   1   4
HETATM    4  C10 UNL     1      28.858 -13.566 -14.592  1.00  0.00     0.286 C 
BRANCH   4   5
HETATM    5  N4  UNL     1      27.536 -13.678 -15.125  1.00  0.00     0.089 N 
HETATM    6  C9  UNL     1      27.481 -14.105 -16.485  1.00  0.00     0.275 C 
HETATM    7  C8  UNL     1      27.331 -12.957 -17.459  1.00  0.00     0.060 C 
HETATM    8  C6  UNL     1      25.966 -12.334 -17.240  1.00  0.00     0.030 C 
HETATM    9  C7  UNL     1      26.026 -10.829 -17.307  1.00  0.00     0.038 C 
HETATM   10  C14 UNL     1      25.496 -12.679 -15.814  1.00  0.00     0.060 C 
HETATM   11  C13 UNL     1      26.695 -12.551 -14.899  1.00  0.00     0.275 C 
BRANCH   8  12
HETATM   12  N3  UNL     1      25.042 -12.930 -18.119  1.00  0.00    -0.379 N 
ATOM     13  H3  UNL     1      25.214 -12.718 -19.102  1.00  0.00     0.160 HD
BRANCH  12  14
HETATM   14  C5  UNL     1      24.045 -13.675 -17.929  1.00  0.00     0.056 A 
HETATM   15  C2  UNL     1      22.785 -13.121 -18.134  1.00  0.00     0.048 A 
HETATM   16  C1  UNL     1      22.622 -11.693 -18.565  1.00  0.00     0.072 C 
HETATM   17  N1  UNL     1      21.708 -13.886 -17.941  1.00  0.00    -0.301 N 
HETATM   18  N2  UNL     1      21.742 -15.151 -17.563  1.00  0.00    -0.280 N 
ATOM     19  H1  UNL     1      20.793 -13.463 -18.097  1.00  0.00     0.186 HD
HETATM   20  C3  UNL     1      22.943 -15.718 -17.356  1.00  0.00     0.156 A 
ATOM     21  H2  UNL     1      20.881 -15.683 -17.432  1.00  0.00     0.189 HD
HETATM   22  C4  UNL     1      24.100 -14.993 -17.535  1.00  0.00     0.088 A 
BRANCH  20  23
HETATM   23  O1  UNL     1      23.043 -17.064 -16.952  1.00  0.00    -0.345 OA
ATOM     24  H1  UNL     1      23.329 -17.734 -17.562  1.00  0.00     0.219 HD
ENDBRANCH  20  23
ENDBRANCH  12  14
ENDBRANCH   8  12
ENDBRANCH   4   5
ENDBRANCH   1   4
TORSDOF 5
ENDMDL
MODEL 3
REMARK VINA RESULT: -6.239198012      1.896      2.665
REMARK  5 active torsions:
REMARK  status: ('A' for Active; 'I' for Inactive)
REMARK    1  A    between atoms: C3_7  and  O1_8 
REMARK    2  A    between atoms: C5_11  and  N3_12 
REMARK    3  A    between atoms: N3_12  and  C6_14 
REMARK    4  A    between atoms: N4_18  and  C10_19 
REMARK    5  A    between atoms: C10_19  and  C11_20 
ROOT
HETATM    1  C11 UNL     1      29.553 -11.748 -14.523  1.00  0.00     0.154 C 
HETATM    2  C12 UNL     1      30.616 -11.567 -15.520  1.00  0.00     0.060 C 
HETATM    3  N5  UNL     1      31.457 -11.408 -16.296  1.00  0.00    -0.197 NA
ENDROOT
BRANCH   1   4
HETATM    4  C10 UNL     1      29.312 -13.219 -14.375  1.00  0.00     0.286 C 
BRANCH   4   5
HETATM    5  N4  UNL     1      28.046 -13.575 -14.937  1.00  0.00     0.089 N 
HETATM    6  C9  UNL     1      28.117 -14.136 -16.247  1.00  0.00     0.275 C 
HETATM    7  C8  UNL     1      27.851 -13.123 -17.338  1.00  0.00     0.060 C 
HETATM    8  C6  UNL     1      26.403 -12.689 -17.229  1.00  0.00     0.030 C 
HETATM    9  C7  UNL     1      26.251 -11.204 -17.450  1.00  0.00     0.038 C 
HETATM   10  C14 UNL     1      25.920 -12.958 -15.792  1.00  0.00     0.060 C 
HETATM   11  C13 UNL     1      27.043 -12.567 -14.856  1.00  0.00     0.275 C 
BRANCH   8  12
HETATM   12  N3  UNL     1      25.616 -13.497 -18.072  1.00  0.00    -0.379 N 
ATOM     13  H3  UNL     1      26.042 -13.680 -18.981  1.00  0.00     0.160 HD
BRANCH  12  14
HETATM   14  C5  UNL     1      24.488 -14.038 -17.923  1.00  0.00     0.056 A 
HETATM   15  C2  UNL     1      24.448 -15.428 -17.875  1.00  0.00     0.048 A 
HETATM   16  C1  UNL     1      25.698 -16.249 -17.996  1.00  0.00     0.072 C 
HETATM   17  N1  UNL     1      23.267 -16.031 -17.716  1.00  0.00    -0.301 N 
HETATM   18  N2  UNL     1      22.112 -15.402 -17.600  1.00  0.00    -0.280 N 
ATOM     19  H1  UNL     1      23.258 -17.051 -17.683  1.00  0.00     0.186 HD
HETATM   20  C3  UNL     1      22.114 -14.059 -17.643  1.00  0.00     0.156 A 
ATOM     21  H2  UNL     1      21.242 -15.922 -17.482  1.00  0.00     0.189 HD
HETATM   22  C4  UNL     1      23.293 -13.366 -17.803  1.00  0.00     0.088 A 
BRANCH  20  23
HETATM   23  O1  UNL     1      20.913 -13.333 -17.524  1.00  0.00    -0.345 OA
ATOM     24  H1  UNL     1      20.738 -12.806 -16.753  1.00  0.00     0.219 HD
ENDBRANCH  20  23
ENDBRANCH  12  14
ENDBRANCH   8  12
ENDBRANCH   4   5
ENDBRANCH   1   4
TORSDOF 5
ENDMDL
MODEL 4
REMARK VINA RESULT: -6.183774415      2.111      3.275
REMARK  5 active torsions:
REMARK  status: ('A' for Active; 'I' for Inactive)
REMARK    1  A    between atoms: C3_7  and  O1_8 
REMARK    2  A    between atoms: C5_11  and  N3_12 
REMARK    3  A    between atoms: N3_12  and  C6_14 
REMARK    4  A    between atoms: N4_18  and  C10_19 
REMARK    5  A    between atoms: C10_19  and  C11_20 
ROOT
HETATM    1  C11 UNL     1      29.322 -11.874 -15.940  1.00  0.00     0.154 C 
HETATM    2  C12 UNL     1      29.410 -12.185 -14.507  1.00  0.00     0.060 C 
HETATM    3  N5  UNL     1      29.496 -12.428 -13.381  1.00  0.00    -0.197 NA
ENDROOT
BRANCH   1   4
HETATM    4  C10 UNL     1      27.944 -11.352 -16.210  1.00  0.00     0.286 C 
BRANCH   4   5
HETATM    5  N4  UNL     1      27.047 -12.433 -16.477  1.00  0.00     0.089 N 
HETATM    6  C9  UNL     1      26.760 -12.636 -17.859  1.00  0.00     0.275 C 
HETATM    7  C8  UNL     1      25.459 -11.995 -18.293  1.00  0.00     0.060 C 
HETATM    8  C6  UNL     1      24.326 -12.722 -17.596  1.00  0.00     0.030 C 
HETATM    9  C7  UNL     1      23.265 -11.764 -17.116  1.00  0.00     0.038 C 
HETATM   10  C14 UNL     1      24.887 -13.406 -16.335  1.00  0.00     0.060 C 
HETATM   11  C13 UNL     1      25.858 -12.441 -15.691  1.00  0.00     0.275 C 
BRANCH   8  12
HETATM   12  N3  UNL     1      23.858 -13.754 -18.434  1.00  0.00    -0.379 N 
ATOM     13  H3  UNL     1      23.834 -13.501 -19.422  1.00  0.00     0.160 HD
BRANCH  12  14
HETATM   14  C5  UNL     1      23.464 -14.927 -18.201  1.00  0.00     0.056 A 
HETATM   15  C2  UNL     1      24.131 -15.965 -18.844  1.00  0.00     0.048 A 
HETATM   16  C1  UNL     1      25.274 -15.696 -19.778  1.00  0.00     0.072 C 
HETATM   17  N1  UNL     1      23.737 -17.220 -18.617  1.00  0.00    -0.301 N 
HETATM   18  N2  UNL     1      22.745 -17.563 -17.815  1.00  0.00    -0.280 N 
ATOM     19  H1  UNL     1      24.238 -17.967 -19.096  1.00  0.00     0.186 HD
HETATM   20  C3  UNL     1      22.078 -16.584 -17.178  1.00  0.00     0.156 A 
ATOM     21  H2  UNL     1      22.491 -18.542 -17.683  1.00  0.00     0.189 HD
HETATM   22  C4  UNL     1      22.427 -15.265 -17.361  1.00  0.00     0.088 A 
BRANCH  20  23
HETATM   23  O1  UNL     1      21.011 -16.888 -16.310  1.00  0.00    -0.345 OA
ATOM     24  H1  UNL     1      20.497 -16.196 -15.912  1.00  0.00     0.219 HD
ENDBRANCH  20  23
ENDBRANCH  12  14
ENDBRANCH   8  12
ENDBRANCH   4   5
ENDBRANCH   1   4
TORSDOF 5
ENDMDL
MODEL 5
REMARK VINA RESULT: -6.166891162      1.962      2.666
REMARK  5 active torsions:
REMARK  status: ('A' for Active; 'I' for Inactive)
REMARK    1  A    between atoms: C3_7  and  O1_8 
REMARK    2  A    between atoms: C5_11  and  N3_12 
REMARK    3  A    between atoms: N3_12  and  C6_14 
REMARK    4  A    between atoms: N4_18  and  C10_19 
REMARK    5  A    between atoms: C10_19  and  C11_20 
ROOT
HETATM    1  C11 UNL     1      30.916 -13.648 -17.525  1.00  0.00     0.154 C 
HETATM    2  C12 UNL     1      31.153 -14.644 -18.578  1.00  0.00     0.060 C 
HETATM    3  N5  UNL     1      31.350 -15.415 -19.415  1.00  0.00    -0.197 NA
ENDROOT
BRANCH   1   4
HETATM    4  C10 UNL     1      30.525 -14.384 -16.280  1.00  0.00     0.286 C 
BRANCH   4   5
HETATM    5  N4  UNL     1      29.162 -14.109 -15.948  1.00  0.00     0.089 N 
HETATM    6  C9  UNL     1      28.283 -15.225 -16.081  1.00  0.00     0.275 C 
HETATM    7  C8  UNL     1      27.530 -15.230 -17.393  1.00  0.00     0.060 C 
HETATM    8  C6  UNL     1      26.582 -14.046 -17.392  1.00  0.00     0.030 C 
HETATM    9  C7  UNL     1      26.548 -13.362 -18.735  1.00  0.00     0.038 C 
HETATM   10  C14 UNL     1      27.111 -13.000 -16.393  1.00  0.00     0.060 C 
HETATM   11  C13 UNL     1      28.615 -12.941 -16.552  1.00  0.00     0.275 C 
BRANCH   8  12
HETATM   12  N3  UNL     1      25.327 -14.462 -16.906  1.00  0.00    -0.379 N 
ATOM     13  H3  UNL     1      25.372 -15.284 -16.304  1.00  0.00     0.160 HD
BRANCH  12  14
HETATM   14  C5  UNL     1      24.161 -14.017 -17.071  1.00  0.00     0.056 A 
HETATM   15  C2  UNL     1      23.248 -14.842 -17.719  1.00  0.00     0.048 A 
HETATM   16  C1  UNL     1      23.638 -16.208 -18.204  1.00  0.00     0.072 C 
HETATM   17  N1  UNL     1      22.002 -14.399 -17.908  1.00  0.00    -0.301 N 
HETATM   18  N2  UNL     1      21.559 -13.217 -17.521  1.00  0.00    -0.280 N 
ATOM     19  H1  UNL     1      21.347 -15.018 -18.385  1.00  0.00     0.186 HD
HETATM   20  C3  UNL     1      22.416 -12.394 -16.891  1.00  0.00     0.156 A 
ATOM     21  H2  UNL     1      20.594 -12.936 -17.695  1.00  0.00     0.189 HD
HETATM   22  C4  UNL     1      23.716 -12.782 -16.659  1.00  0.00     0.088 A 
BRANCH  20  23
HETATM   23  O1  UNL     1      22.000 -11.120 -16.455  1.00  0.00    -0.345 OA
ATOM     24  H1  UNL     1      21.767 -10.971 -15.546  1.00  0.00     0.219 HD
ENDBRANCH  20  23
ENDBRANCH  12  14
ENDBRANCH   8  12
ENDBRANCH   4   5
ENDBRANCH   1   4
TORSDOF 5
ENDMDL
