MODEL 1
REMARK VINA RESULT: -9.259856824      0.000      0.000
REMARK  9 active torsions:
REMARK  status: ('A' for Active; 'I' for Inactive)
REMARK    1  A    between atoms: C2_2  and  C21_27 
REMARK    2  A    between atoms: C3_3  and  C4_4 
REMARK    3  A    between atoms: C4_4  and  C5_5 
REMARK    4  A    between atoms: C18_19  and  O2_20 
REMARK    5  A    between atoms: C19_23  and  O4_24 
REMARK    6  A    between atoms: C21_27  and  C22_29 
REMARK    7  A    between atoms: C22_29  and  C23_30 
REMARK    8  A    between atoms: C23_30  and  C24_31 
REMARK    9  A    between atoms: C24_31  and  C25_32 
ROOT
HETATM    1  C5  UNL     1       0.082  24.624 -10.515  1.00  0.00    -0.008 C 
HETATM    2  C6  UNL     1      -0.145  24.060 -11.870  1.00  0.00     0.018 C 
HETATM    3  C7  UNL     1       1.539  24.905 -10.234  1.00  0.00     0.026 C 
HETATM    4  C8  UNL     1       2.453  23.962 -10.970  1.00  0.00     0.014 C 
HETATM    5  C9  UNL     1       1.588  24.758  -8.742  1.00  0.00     0.165 C 
HETATM    6  O1  UNL     1       0.239  24.738  -8.309  1.00  0.00    -0.373 OA
HETATM    7  C10 UNL     1      -0.425  24.002  -9.329  1.00  0.00     0.144 C 
HETATM    8  C11 UNL     1      -0.236  22.571  -8.970  1.00  0.00     0.019 C 
HETATM    9  C12 UNL     1      -0.987  22.466  -7.619  1.00  0.00     0.017 C 
HETATM   10  C13 UNL     1      -2.434  22.156  -7.934  1.00  0.00     0.001 C 
HETATM   11  C14 UNL     1      -2.434  20.650  -8.208  1.00  0.00     0.000 C 
HETATM   12  C15 UNL     1      -1.591  20.442  -9.422  1.00  0.00     0.001 C 
HETATM   13  C16 UNL     1      -0.819  21.600  -9.915  1.00  0.00     0.017 C 
HETATM   14  C17 UNL     1       1.192  22.332  -8.602  1.00  0.00     0.025 A 
HETATM   15  C18 UNL     1       1.962  21.224  -8.304  1.00  0.00     0.193 A 
HETATM   16  O3  UNL     1       3.208  21.607  -8.031  1.00  0.00    -0.264 OA
HETATM   17  C19 UNL     1       3.331  22.904  -8.126  1.00  0.00     0.195 A 
HETATM   18  C20 UNL     1       2.102  23.391  -8.478  1.00  0.00     0.041 A 
ENDROOT
BRANCH   1  19
HETATM   19  C4  UNL     1      -0.579  26.010 -10.532  1.00  0.00     0.040 C 
BRANCH  19  20
HETATM   20  C3  UNL     1      -1.971  25.999 -10.950  1.00  0.00    -0.015 C 
HETATM   21  C2  UNL     1      -2.516  26.813 -11.823  1.00  0.00    -0.020 C 
HETATM   22  C1  UNL     1      -1.752  27.884 -12.513  1.00  0.00     0.052 C 
BRANCH  21  23
HETATM   23  C21 UNL     1      -3.954  26.661 -12.136  1.00  0.00     0.154 C 
HETATM   24  O5  UNL     1      -4.678  25.965 -11.392  1.00  0.00    -0.293 OA
BRANCH  23  25
HETATM   25  C22 UNL     1      -4.520  27.321 -13.309  1.00  0.00     0.083 C 
BRANCH  25  26
HETATM   26  C23 UNL     1      -5.960  27.678 -13.112  1.00  0.00     0.008 C 
BRANCH  26  27
HETATM   27  C24 UNL     1      -6.316  29.078 -13.495  1.00  0.00     0.004 C 
BRANCH  27  28
HETATM   28  C25 UNL     1      -5.120  29.666 -14.232  1.00  0.00    -0.023 C 
HETATM   29  C26 UNL     1      -4.374  30.671 -13.395  1.00  0.00     0.009 C 
HETATM   30  C27 UNL     1      -5.622  30.313 -15.501  1.00  0.00     0.009 C 
ENDBRANCH  27  28
ENDBRANCH  26  27
ENDBRANCH  25  26
ENDBRANCH  23  25
ENDBRANCH  21  23
ENDBRANCH  19  20
ENDBRANCH   1  19
BRANCH  17  31
HETATM   31  O4  UNL     1       4.497  23.616  -7.903  1.00  0.00    -0.340 OA
ATOM     32  H4  UNL     1       4.733  24.430  -8.331  1.00  0.00     0.220 HD
ENDBRANCH  17  31
BRANCH  15  33
HETATM   33  O2  UNL     1       1.597  19.907  -8.268  1.00  0.00    -0.340 OA
ATOM     34  H2  UNL     1       2.136  19.142  -8.103  1.00  0.00     0.220 HD
ENDBRANCH  15  33
TORSDOF 9
ENDMDL
MODEL 2
REMARK VINA RESULT: -9.168793308      0.989      1.191
REMARK  9 active torsions:
REMARK  status: ('A' for Active; 'I' for Inactive)
REMARK    1  A    between atoms: C2_2  and  C21_27 
REMARK    2  A    between atoms: C3_3  and  C4_4 
REMARK    3  A    between atoms: C4_4  and  C5_5 
REMARK    4  A    between atoms: C18_19  and  O2_20 
REMARK    5  A    between atoms: C19_23  and  O4_24 
REMARK    6  A    between atoms: C21_27  and  C22_29 
REMARK    7  A    between atoms: C22_29  and  C23_30 
REMARK    8  A    between atoms: C23_30  and  C24_31 
REMARK    9  A    between atoms: C24_31  and  C25_32 
ROOT
HETATM    1  C5  UNL     1      -0.451  24.799 -10.823  1.00  0.00    -0.008 C 
HETATM    2  C6  UNL     1      -0.970  24.249 -12.101  1.00  0.00     0.018 C 
HETATM    3  C7  UNL     1       1.026  25.110 -10.875  1.00  0.00     0.026 C 
HETATM    4  C8  UNL     1       1.766  24.199 -11.817  1.00  0.00     0.014 C 
HETATM    5  C9  UNL     1       1.416  24.943  -9.436  1.00  0.00     0.165 C 
HETATM    6  O1  UNL     1       0.202  24.884  -8.708  1.00  0.00    -0.373 OA
HETATM    7  C10 UNL     1      -0.662  24.148  -9.565  1.00  0.00     0.144 C 
HETATM    8  C11 UNL     1      -0.369  22.717  -9.286  1.00  0.00     0.019 C 
HETATM    9  C12 UNL     1      -0.790  22.575  -7.802  1.00  0.00     0.017 C 
HETATM   10  C13 UNL     1      -2.265  22.236  -7.785  1.00  0.00     0.001 C 
HETATM   11  C14 UNL     1      -2.298  20.735  -8.081  1.00  0.00     0.000 C 
HETATM   12  C15 UNL     1      -1.749  20.563  -9.459  1.00  0.00     0.001 C 
HETATM   13  C16 UNL     1      -1.133  21.746 -10.092  1.00  0.00     0.017 C 
HETATM   14  C17 UNL     1       1.110  22.506  -9.257  1.00  0.00     0.025 A 
HETATM   15  C18 UNL     1       1.949  21.412  -9.163  1.00  0.00     0.193 A 
HETATM   16  O3  UNL     1       3.217  21.821  -9.173  1.00  0.00    -0.264 OA
HETATM   17  C19 UNL     1       3.289  23.122  -9.268  1.00  0.00     0.195 A 
HETATM   18  C20 UNL     1       2.003  23.584  -9.323  1.00  0.00     0.041 A 
ENDROOT
BRANCH   1  19
HETATM   19  C4  UNL     1      -1.126  26.169 -10.662  1.00  0.00     0.040 C 
BRANCH  19  20
HETATM   20  C3  UNL     1      -2.427  26.268 -11.300  1.00  0.00    -0.015 C 
HETATM   21  C2  UNL     1      -2.766  27.142 -12.220  1.00  0.00    -0.020 C 
HETATM   22  C1  UNL     1      -1.829  28.171 -12.738  1.00  0.00     0.052 C 
BRANCH  21  23
HETATM   23  C21 UNL     1      -4.141  27.101 -12.766  1.00  0.00     0.154 C 
HETATM   24  O5  UNL     1      -4.829  26.067 -12.631  1.00  0.00    -0.293 OA
BRANCH  23  25
HETATM   25  C22 UNL     1      -4.685  28.265 -13.460  1.00  0.00     0.083 C 
BRANCH  25  26
HETATM   26  C23 UNL     1      -6.177  28.328 -13.366  1.00  0.00     0.008 C 
BRANCH  26  27
HETATM   27  C24 UNL     1      -6.761  29.689 -13.567  1.00  0.00     0.004 C 
BRANCH  27  28
HETATM   28  C25 UNL     1      -7.251  29.765 -15.006  1.00  0.00    -0.023 C 
HETATM   29  C26 UNL     1      -7.037  31.129 -15.609  1.00  0.00     0.009 C 
HETATM   30  C27 UNL     1      -8.719  29.411 -15.022  1.00  0.00     0.009 C 
ENDBRANCH  27  28
ENDBRANCH  26  27
ENDBRANCH  25  26
ENDBRANCH  23  25
ENDBRANCH  21  23
ENDBRANCH  19  20
ENDBRANCH   1  19
BRANCH  17  31
HETATM   31  O4  UNL     1       4.461  23.857  -9.302  1.00  0.00    -0.340 OA
ATOM     32  H4  UNL     1       5.262  23.635  -8.842  1.00  0.00     0.220 HD
ENDBRANCH  17  31
BRANCH  15  33
HETATM   33  O2  UNL     1       1.628  20.087  -9.071  1.00  0.00    -0.340 OA
ATOM     34  H2  UNL     1       2.059  19.339  -9.466  1.00  0.00     0.220 HD
ENDBRANCH  15  33
TORSDOF 9
ENDMDL
MODEL 3
REMARK VINA RESULT: -8.953409510      0.864      1.136
REMARK  9 active torsions:
REMARK  status: ('A' for Active; 'I' for Inactive)
REMARK    1  A    between atoms: C2_2  and  C21_27 
REMARK    2  A    between atoms: C3_3  and  C4_4 
REMARK    3  A    between atoms: C4_4  and  C5_5 
REMARK    4  A    between atoms: C18_19  and  O2_20 
REMARK    5  A    between atoms: C19_23  and  O4_24 
REMARK    6  A    between atoms: C21_27  and  C22_29 
REMARK    7  A    between atoms: C22_29  and  C23_30 
REMARK    8  A    between atoms: C23_30  and  C24_31 
REMARK    9  A    between atoms: C24_31  and  C25_32 
ROOT
HETATM    1  C5  UNL     1      -0.083  24.659 -10.573  1.00  0.00    -0.008 C 
HETATM    2  C6  UNL     1      -0.307  24.092 -11.927  1.00  0.00     0.018 C 
HETATM    3  C7  UNL     1       1.369  24.969 -10.300  1.00  0.00     0.026 C 
HETATM    4  C8  UNL     1       2.298  24.046 -11.041  1.00  0.00     0.014 C 
HETATM    5  C9  UNL     1       1.429  24.822  -8.808  1.00  0.00     0.165 C 
HETATM    6  O1  UNL     1       0.083  24.773  -8.368  1.00  0.00    -0.373 OA
HETATM    7  C10 UNL     1      -0.571  24.025  -9.385  1.00  0.00     0.144 C 
HETATM    8  C11 UNL     1      -0.351  22.597  -9.030  1.00  0.00     0.019 C 
HETATM    9  C12 UNL     1      -1.092  22.476  -7.674  1.00  0.00     0.017 C 
HETATM   10  C13 UNL     1      -2.535  22.137  -7.981  1.00  0.00     0.001 C 
HETATM   11  C14 UNL     1      -2.505  20.631  -8.258  1.00  0.00     0.000 C 
HETATM   12  C15 UNL     1      -1.664  20.442  -9.477  1.00  0.00     0.001 C 
HETATM   13  C16 UNL     1      -0.919  21.616  -9.972  1.00  0.00     0.017 C 
HETATM   14  C17 UNL     1       1.084  22.387  -8.669  1.00  0.00     0.025 A 
HETATM   15  C18 UNL     1       1.878  21.295  -8.377  1.00  0.00     0.193 A 
HETATM   16  O3  UNL     1       3.117  21.703  -8.111  1.00  0.00    -0.264 OA
HETATM   17  C19 UNL     1       3.213  23.003  -8.204  1.00  0.00     0.195 A 
HETATM   18  C20 UNL     1       1.972  23.464  -8.549  1.00  0.00     0.041 A 
ENDROOT
BRANCH   1  19
HETATM   19  C4  UNL     1      -0.773  26.031 -10.584  1.00  0.00     0.040 C 
BRANCH  19  20
HETATM   20  C3  UNL     1      -1.874  26.135 -11.526  1.00  0.00    -0.015 C 
HETATM   21  C2  UNL     1      -2.081  27.128 -12.359  1.00  0.00    -0.020 C 
HETATM   22  C1  UNL     1      -1.184  28.309 -12.443  1.00  0.00     0.052 C 
BRANCH  21  23
HETATM   23  C21 UNL     1      -3.257  27.072 -13.255  1.00  0.00     0.154 C 
HETATM   24  O5  UNL     1      -3.183  27.561 -14.402  1.00  0.00    -0.293 OA
BRANCH  23  25
HETATM   25  C22 UNL     1      -4.495  26.450 -12.795  1.00  0.00     0.083 C 
BRANCH  25  26
HETATM   26  C23 UNL     1      -5.556  27.463 -12.499  1.00  0.00     0.008 C 
BRANCH  26  27
HETATM   27  C24 UNL     1      -6.404  27.842 -13.670  1.00  0.00     0.004 C 
BRANCH  27  28
HETATM   28  C25 UNL     1      -6.754  29.315 -13.520  1.00  0.00    -0.023 C 
HETATM   29  C26 UNL     1      -7.825  29.747 -14.486  1.00  0.00     0.009 C 
HETATM   30  C27 UNL     1      -5.496  30.122 -13.740  1.00  0.00     0.009 C 
ENDBRANCH  27  28
ENDBRANCH  26  27
ENDBRANCH  25  26
ENDBRANCH  23  25
ENDBRANCH  21  23
ENDBRANCH  19  20
ENDBRANCH   1  19
BRANCH  17  31
HETATM   31  O4  UNL     1       4.365  23.737  -7.986  1.00  0.00    -0.340 OA
ATOM     32  H4  UNL     1       4.913  24.114  -8.665  1.00  0.00     0.220 HD
ENDBRANCH  17  31
BRANCH  15  33
HETATM   33  O2  UNL     1       1.540  19.971  -8.341  1.00  0.00    -0.340 OA
ATOM     34  H2  UNL     1       2.013  19.244  -7.954  1.00  0.00     0.220 HD
ENDBRANCH  15  33
TORSDOF 9
ENDMDL
MODEL 4
REMARK VINA RESULT: -8.874547895      1.179      1.505
REMARK  9 active torsions:
REMARK  status: ('A' for Active; 'I' for Inactive)
REMARK    1  A    between atoms: C2_2  and  C21_27 
REMARK    2  A    between atoms: C3_3  and  C4_4 
REMARK    3  A    between atoms: C4_4  and  C5_5 
REMARK    4  A    between atoms: C18_19  and  O2_20 
REMARK    5  A    between atoms: C19_23  and  O4_24 
REMARK    6  A    between atoms: C21_27  and  C22_29 
REMARK    7  A    between atoms: C22_29  and  C23_30 
REMARK    8  A    between atoms: C23_30  and  C24_31 
REMARK    9  A    between atoms: C24_31  and  C25_32 
ROOT
HETATM    1  C5  UNL     1      -0.313  24.749 -10.585  1.00  0.00    -0.008 C 
HETATM    2  C6  UNL     1      -0.879  24.305 -11.884  1.00  0.00     0.018 C 
HETATM    3  C7  UNL     1       1.176  24.998 -10.648  1.00  0.00     0.026 C 
HETATM    4  C8  UNL     1       1.857  24.118 -11.661  1.00  0.00     0.014 C 
HETATM    5  C9  UNL     1       1.583  24.722  -9.230  1.00  0.00     0.165 C 
HETATM    6  O1  UNL     1       0.381  24.670  -8.483  1.00  0.00    -0.373 OA
HETATM    7  C10 UNL     1      -0.530  24.028  -9.366  1.00  0.00     0.144 C 
HETATM    8  C11 UNL     1      -0.297  22.571  -9.185  1.00  0.00     0.019 C 
HETATM    9  C12 UNL     1      -0.697  22.353  -7.704  1.00  0.00     0.017 C 
HETATM   10  C13 UNL     1      -2.185  22.078  -7.678  1.00  0.00     0.001 C 
HETATM   11  C14 UNL     1      -2.290  20.601  -8.068  1.00  0.00     0.000 C 
HETATM   12  C15 UNL     1      -1.775  20.495  -9.465  1.00  0.00     0.001 C 
HETATM   13  C16 UNL     1      -1.117  21.688 -10.034  1.00  0.00     0.017 C 
HETATM   14  C17 UNL     1       1.171  22.294  -9.200  1.00  0.00     0.025 A 
HETATM   15  C18 UNL     1       1.962  21.161  -9.193  1.00  0.00     0.193 A 
HETATM   16  O3  UNL     1       3.247  21.513  -9.203  1.00  0.00    -0.264 OA
HETATM   17  C19 UNL     1       3.376  22.813  -9.217  1.00  0.00     0.195 A 
HETATM   18  C20 UNL     1       2.111  23.334  -9.215  1.00  0.00     0.041 A 
ENDROOT
BRANCH   1  19
HETATM   19  C4  UNL     1      -0.922  26.134 -10.323  1.00  0.00     0.040 C 
BRANCH  19  20
HETATM   20  C3  UNL     1      -1.229  26.885 -11.529  1.00  0.00    -0.015 C 
HETATM   21  C2  UNL     1      -2.429  27.087 -12.022  1.00  0.00    -0.020 C 
HETATM   22  C1  UNL     1      -3.662  26.555 -11.387  1.00  0.00     0.052 C 
BRANCH  21  23
HETATM   23  C21 UNL     1      -2.562  27.880 -13.264  1.00  0.00     0.154 C 
HETATM   24  O5  UNL     1      -1.621  28.614 -13.633  1.00  0.00    -0.293 OA
BRANCH  23  25
HETATM   25  C22 UNL     1      -3.790  27.803 -14.051  1.00  0.00     0.083 C 
BRANCH  25  26
HETATM   26  C23 UNL     1      -4.701  28.960 -13.784  1.00  0.00     0.008 C 
BRANCH  26  27
HETATM   27  C24 UNL     1      -6.140  28.597 -13.607  1.00  0.00     0.004 C 
BRANCH  27  28
HETATM   28  C25 UNL     1      -6.970  29.738 -14.178  1.00  0.00    -0.023 C 
HETATM   29  C26 UNL     1      -8.272  29.257 -14.761  1.00  0.00     0.009 C 
HETATM   30  C27 UNL     1      -6.147  30.432 -15.238  1.00  0.00     0.009 C 
ENDBRANCH  27  28
ENDBRANCH  26  27
ENDBRANCH  25  26
ENDBRANCH  23  25
ENDBRANCH  21  23
ENDBRANCH  19  20
ENDBRANCH   1  19
BRANCH  17  31
HETATM   31  O4  UNL     1       4.579  23.497  -9.229  1.00  0.00    -0.340 OA
ATOM     32  H4  UNL     1       4.681  24.425  -9.404  1.00  0.00     0.220 HD
ENDBRANCH  17  31
BRANCH  15  33
HETATM   33  O2  UNL     1       1.584  19.848  -9.178  1.00  0.00    -0.340 OA
ATOM     34  H2  UNL     1       1.033  19.378  -9.792  1.00  0.00     0.220 HD
ENDBRANCH  15  33
TORSDOF 9
ENDMDL
MODEL 5
REMARK VINA RESULT: -8.704670613      1.888      4.136
REMARK  9 active torsions:
REMARK  status: ('A' for Active; 'I' for Inactive)
REMARK    1  A    between atoms: C2_2  and  C21_27 
REMARK    2  A    between atoms: C3_3  and  C4_4 
REMARK    3  A    between atoms: C4_4  and  C5_5 
REMARK    4  A    between atoms: C18_19  and  O2_20 
REMARK    5  A    between atoms: C19_23  and  O4_24 
REMARK    6  A    between atoms: C21_27  and  C22_29 
REMARK    7  A    between atoms: C22_29  and  C23_30 
REMARK    8  A    between atoms: C23_30  and  C24_31 
REMARK    9  A    between atoms: C24_31  and  C25_32 
ROOT
HETATM    1  C5  UNL     1       0.879  23.638  -9.621  1.00  0.00    -0.008 C 
HETATM    2  C6  UNL     1       0.580  24.983  -9.067  1.00  0.00     0.018 C 
HETATM    3  C7  UNL     1       0.853  22.552  -8.571  1.00  0.00     0.026 C 
HETATM    4  C8  UNL     1       1.252  23.064  -7.214  1.00  0.00     0.014 C 
HETATM    5  C9  UNL     1       1.812  21.555  -9.152  1.00  0.00     0.165 C 
HETATM    6  O1  UNL     1       2.027  21.956 -10.493  1.00  0.00    -0.373 OA
HETATM    7  C10 UNL     1       2.043  23.376 -10.415  1.00  0.00     0.144 C 
HETATM    8  C11 UNL     1       3.434  23.736 -10.033  1.00  0.00     0.019 C 
HETATM    9  C12 UNL     1       4.253  23.227 -11.246  1.00  0.00     0.017 C 
HETATM   10  C13 UNL     1       4.285  24.346 -12.265  1.00  0.00     0.001 C 
HETATM   11  C14 UNL     1       5.378  25.283 -11.744  1.00  0.00     0.000 C 
HETATM   12  C15 UNL     1       4.898  25.802 -10.429  1.00  0.00     0.001 C 
HETATM   13  C16 UNL     1       3.689  25.177  -9.857  1.00  0.00     0.017 C 
HETATM   14  C17 UNL     1       3.885  22.861  -8.909  1.00  0.00     0.025 A 
HETATM   15  C18 UNL     1       4.995  22.804  -8.087  1.00  0.00     0.193 A 
HETATM   16  O3  UNL     1       4.872  21.782  -7.242  1.00  0.00    -0.264 OA
HETATM   17  C19 UNL     1       3.749  21.144  -7.439  1.00  0.00     0.195 A 
HETATM   18  C20 UNL     1       3.108  21.782  -8.465  1.00  0.00     0.041 A 
ENDROOT
BRANCH   1  19
HETATM   19  C4  UNL     1      -0.299  23.304 -10.548  1.00  0.00     0.040 C 
BRANCH  19  20
HETATM   20  C3  UNL     1      -1.104  24.455 -10.922  1.00  0.00    -0.015 C 
HETATM   21  C2  UNL     1      -2.416  24.507 -10.917  1.00  0.00    -0.020 C 
HETATM   22  C1  UNL     1      -3.267  23.358 -10.516  1.00  0.00     0.052 C 
BRANCH  21  23
HETATM   23  C21 UNL     1      -3.079  25.765 -11.328  1.00  0.00     0.154 C 
HETATM   24  O5  UNL     1      -2.422  26.827 -11.360  1.00  0.00    -0.293 OA
BRANCH  23  25
HETATM   25  C22 UNL     1      -4.492  25.759 -11.692  1.00  0.00     0.083 C 
BRANCH  25  26
HETATM   26  C23 UNL     1      -4.756  26.554 -12.932  1.00  0.00     0.008 C 
BRANCH  26  27
HETATM   27  C24 UNL     1      -5.920  27.487 -12.843  1.00  0.00     0.004 C 
BRANCH  27  28
HETATM   28  C25 UNL     1      -5.684  28.607 -13.846  1.00  0.00    -0.023 C 
HETATM   29  C26 UNL     1      -4.326  29.238 -13.684  1.00  0.00     0.009 C 
HETATM   30  C27 UNL     1      -6.768  29.642 -13.659  1.00  0.00     0.009 C 
ENDBRANCH  27  28
ENDBRANCH  26  27
ENDBRANCH  25  26
ENDBRANCH  23  25
ENDBRANCH  21  23
ENDBRANCH  19  20
ENDBRANCH   1  19
BRANCH  17  31
HETATM   31  O4  UNL     1       3.324  20.035  -6.728  1.00  0.00    -0.340 OA
ATOM     32  H4  UNL     1       3.442  19.132  -6.997  1.00  0.00     0.220 HD
ENDBRANCH  17  31
BRANCH  15  33
HETATM   33  O2  UNL     1       6.093  23.618  -8.067  1.00  0.00    -0.340 OA
ATOM     34  H2  UNL     1       6.377  24.254  -8.712  1.00  0.00     0.220 HD
ENDBRANCH  15  33
TORSDOF 9
ENDMDL
