MODEL 1
REMARK VINA RESULT: -10.340489102      0.000      0.000
REMARK  10 active torsions:
REMARK  status: ('A' for Active; 'I' for Inactive)
REMARK    1  A    between atoms: C6_6  and  C8_8 
REMARK    2  A    between atoms: C8_8  and  O1_9 
REMARK    3  A    between atoms: O1_9  and  C9_10 
REMARK    4  A    between atoms: C9_10  and  C10_12 
REMARK    5  A    between atoms: C10_12  and  C11_13 
REMARK    6  A    between atoms: C11_13  and  C12_14 
REMARK    7  A    between atoms: C12_14  and  C13_15 
REMARK    8  A    between atoms: C13_15  and  C14_16 
REMARK    9  A    between atoms: C18_20  and  O3_21 
REMARK   10  A    between atoms: C19_24  and  O5_25 
ROOT
HETATM    1  C9  UNL     1      -2.808  26.740 -12.436  1.00  0.00     0.258 C 
HETATM    2  O2  UNL     1      -2.273  27.474 -13.289  1.00  0.00    -0.265 OA
ENDROOT
BRANCH   1   3
HETATM    3  O1  UNL     1      -2.223  26.614 -11.255  1.00  0.00    -0.321 OA
BRANCH   3   4
HETATM    4  C8  UNL     1      -1.232  26.072 -10.557  1.00  0.00     0.188 C 
BRANCH   4   5
HETATM    5  C6  UNL     1      -1.040  24.605 -10.359  1.00  0.00    -0.018 C 
HETATM    6  C5  UNL     1      -0.259  24.215  -9.153  1.00  0.00     0.004 C 
HETATM    7  C4  UNL     1       1.156  24.757  -9.204  1.00  0.00     0.010 C 
HETATM    8  C25 UNL     1      -0.266  22.725  -8.904  1.00  0.00    -0.036 C 
HETATM    9  C3  UNL     1       1.989  24.273  -8.033  1.00  0.00     0.034 C 
HETATM   10  C2  UNL     1       2.056  22.783  -8.036  1.00  0.00    -0.088 C 
HETATM   11  C1  UNL     1       2.863  22.091  -7.283  1.00  0.00     0.014 C 
HETATM   12  C27 UNL     1       1.134  22.102  -8.963  1.00  0.00     0.042 C 
HETATM   13  C24 UNL     1      -1.121  21.922  -9.811  1.00  0.00     0.010 C 
HETATM   14  C26 UNL     1      -0.730  22.483  -7.473  1.00  0.00     0.016 C 
HETATM   15  C23 UNL     1      -2.438  22.528 -10.162  1.00  0.00     0.002 C 
HETATM   16  C22 UNL     1      -2.439  24.026 -10.174  1.00  0.00     0.012 C 
HETATM   17  C7  UNL     1      -0.425  24.065 -11.645  1.00  0.00     0.018 C 
ENDBRANCH   4   5
ENDBRANCH   3   4
ENDBRANCH   1   3
BRANCH   1  18
HETATM   18  C10 UNL     1      -4.092  26.040 -12.808  1.00  0.00     0.111 C 
BRANCH  18  19
HETATM   19  C11 UNL     1      -5.256  26.813 -12.263  1.00  0.00     0.010 C 
BRANCH  19  20
HETATM   20  C12 UNL     1      -6.011  27.655 -13.203  1.00  0.00     0.001 C 
BRANCH  20  21
HETATM   21  C13 UNL     1      -5.490  28.963 -13.631  1.00  0.00     0.005 C 
BRANCH  21  22
HETATM   22  C14 UNL     1      -6.382  29.973 -14.246  1.00  0.00    -0.010 C 
HETATM   23  C15 UNL     1      -5.661  30.457 -15.526  1.00  0.00     0.009 C 
HETATM   24  C16 UNL     1      -6.350  31.745 -15.989  1.00  0.00     0.044 C 
HETATM   25  C17 UNL     1      -7.786  31.409 -16.309  1.00  0.00     0.011 A 
HETATM   26  C18 UNL     1      -8.724  31.934 -17.171  1.00  0.00     0.192 A 
HETATM   27  C20 UNL     1      -8.389  30.375 -15.665  1.00  0.00     0.012 A 
HETATM   28  O4  UNL     1      -9.827  31.236 -17.037  1.00  0.00    -0.264 OA
HETATM   29  C19 UNL     1      -9.671  30.287 -16.140  1.00  0.00     0.192 A 
HETATM   30  C21 UNL     1      -7.731  29.512 -14.622  1.00  0.00     0.049 C 
BRANCH  26  31
HETATM   31  O3  UNL     1      -8.512  33.025 -18.034  1.00  0.00    -0.340 OA
ATOM     32  H3  UNL     1      -9.151  33.372 -18.644  1.00  0.00     0.220 HD
ENDBRANCH  26  31
BRANCH  29  33
HETATM   33  O5  UNL     1     -10.688  29.395 -15.797  1.00  0.00    -0.340 OA
ATOM     34  H5  UNL     1     -10.526  28.584 -15.330  1.00  0.00     0.220 HD
ENDBRANCH  29  33
ENDBRANCH  21  22
ENDBRANCH  20  21
ENDBRANCH  19  20
ENDBRANCH  18  19
ENDBRANCH   1  18
TORSDOF 10
ENDMDL
MODEL 2
REMARK VINA RESULT: -10.323061900      1.953      3.378
REMARK  10 active torsions:
REMARK  status: ('A' for Active; 'I' for Inactive)
REMARK    1  A    between atoms: C6_6  and  C8_8 
REMARK    2  A    between atoms: C8_8  and  O1_9 
REMARK    3  A    between atoms: O1_9  and  C9_10 
REMARK    4  A    between atoms: C9_10  and  C10_12 
REMARK    5  A    between atoms: C10_12  and  C11_13 
REMARK    6  A    between atoms: C11_13  and  C12_14 
REMARK    7  A    between atoms: C12_14  and  C13_15 
REMARK    8  A    between atoms: C13_15  and  C14_16 
REMARK    9  A    between atoms: C18_20  and  O3_21 
REMARK   10  A    between atoms: C19_24  and  O5_25 
ROOT
HETATM    1  C9  UNL     1      -2.889  25.527 -11.323  1.00  0.00     0.258 C 
HETATM    2  O2  UNL     1      -2.320  26.606 -11.579  1.00  0.00    -0.265 OA
ENDROOT
BRANCH   1   3
HETATM    3  O1  UNL     1      -2.142  24.465 -11.060  1.00  0.00    -0.321 OA
BRANCH   3   4
HETATM    4  C8  UNL     1      -2.065  23.141 -11.028  1.00  0.00     0.188 C 
BRANCH   4   5
HETATM    5  C6  UNL     1      -1.818  22.337  -9.795  1.00  0.00    -0.018 C 
HETATM    6  C5  UNL     1      -2.096  20.879  -9.910  1.00  0.00     0.004 C 
HETATM    7  C4  UNL     1      -3.555  20.611 -10.226  1.00  0.00     0.010 C 
HETATM    8  C25 UNL     1      -1.646  20.097  -8.698  1.00  0.00    -0.036 C 
HETATM    9  C3  UNL     1      -3.867  19.128 -10.236  1.00  0.00     0.034 C 
HETATM   10  C2  UNL     1      -3.557  18.532  -8.904  1.00  0.00    -0.088 C 
HETATM   11  C1  UNL     1      -3.914  17.330  -8.545  1.00  0.00     0.014 C 
HETATM   12  C27 UNL     1      -2.801  19.393  -7.977  1.00  0.00     0.042 C 
HETATM   13  C24 UNL     1      -0.916  20.870  -7.664  1.00  0.00     0.010 C 
HETATM   14  C26 UNL     1      -0.744  18.963  -9.171  1.00  0.00     0.016 C 
HETATM   15  C23 UNL     1       0.049  21.884  -8.178  1.00  0.00     0.002 C 
HETATM   16  C22 UNL     1      -0.327  22.472  -9.504  1.00  0.00     0.012 C 
HETATM   17  C7  UNL     1      -2.622  22.992  -8.677  1.00  0.00     0.018 C 
ENDBRANCH   4   5
ENDBRANCH   3   4
ENDBRANCH   1   3
BRANCH   1  18
HETATM   18  C10 UNL     1      -4.398  25.502 -11.332  1.00  0.00     0.111 C 
BRANCH  18  19
HETATM   19  C11 UNL     1      -4.893  25.881 -12.696  1.00  0.00     0.010 C 
BRANCH  19  20
HETATM   20  C12 UNL     1      -5.686  27.115 -12.812  1.00  0.00     0.001 C 
BRANCH  20  21
HETATM   21  C13 UNL     1      -5.108  28.330 -13.407  1.00  0.00     0.005 C 
BRANCH  21  22
HETATM   22  C14 UNL     1      -5.979  29.415 -13.918  1.00  0.00    -0.010 C 
HETATM   23  C15 UNL     1      -5.244  30.014 -15.139  1.00  0.00     0.009 C 
HETATM   24  C16 UNL     1      -5.907  31.355 -15.469  1.00  0.00     0.044 C 
HETATM   25  C17 UNL     1      -7.348  31.081 -15.827  1.00  0.00     0.011 A 
HETATM   26  C18 UNL     1      -8.271  31.708 -16.633  1.00  0.00     0.192 A 
HETATM   27  C20 UNL     1      -7.972  29.997 -15.294  1.00  0.00     0.012 A 
HETATM   28  O4  UNL     1      -9.387  31.021 -16.574  1.00  0.00    -0.264 OA
HETATM   29  C19 UNL     1      -9.253  29.982 -15.780  1.00  0.00     0.192 A 
HETATM   30  C21 UNL     1      -7.334  29.019 -14.343  1.00  0.00     0.049 C 
BRANCH  26  31
HETATM   31  O3  UNL     1      -8.036  32.878 -17.378  1.00  0.00    -0.340 OA
ATOM     32  H3  UNL     1      -7.944  33.751 -17.013  1.00  0.00     0.220 HD
ENDBRANCH  26  31
BRANCH  29  33
HETATM   33  O5  UNL     1     -10.287  29.078 -15.533  1.00  0.00    -0.340 OA
ATOM     34  H5  UNL     1     -10.523  28.791 -14.660  1.00  0.00     0.220 HD
ENDBRANCH  29  33
ENDBRANCH  21  22
ENDBRANCH  20  21
ENDBRANCH  19  20
ENDBRANCH  18  19
ENDBRANCH   1  18
TORSDOF 10
ENDMDL
MODEL 3
REMARK VINA RESULT: -10.244723162      1.390      2.350
REMARK  10 active torsions:
REMARK  status: ('A' for Active; 'I' for Inactive)
REMARK    1  A    between atoms: C6_6  and  C8_8 
REMARK    2  A    between atoms: C8_8  and  O1_9 
REMARK    3  A    between atoms: O1_9  and  C9_10 
REMARK    4  A    between atoms: C9_10  and  C10_12 
REMARK    5  A    between atoms: C10_12  and  C11_13 
REMARK    6  A    between atoms: C11_13  and  C12_14 
REMARK    7  A    between atoms: C12_14  and  C13_15 
REMARK    8  A    between atoms: C13_15  and  C14_16 
REMARK    9  A    between atoms: C18_20  and  O3_21 
REMARK   10  A    between atoms: C19_24  and  O5_25 
ROOT
HETATM    1  C9  UNL     1      -4.368  25.269 -11.711  1.00  0.00     0.258 C 
HETATM    2  O2  UNL     1      -4.981  24.893 -12.729  1.00  0.00    -0.265 OA
ENDROOT
BRANCH   1   3
HETATM    3  O1  UNL     1      -4.159  24.393 -10.740  1.00  0.00    -0.321 OA
BRANCH   3   4
HETATM    4  C8  UNL     1      -3.738  23.178 -10.409  1.00  0.00     0.188 C 
BRANCH   4   5
HETATM    5  C6  UNL     1      -2.381  22.870  -9.870  1.00  0.00    -0.018 C 
HETATM    6  C5  UNL     1      -1.306  23.830 -10.245  1.00  0.00     0.004 C 
HETATM    7  C4  UNL     1      -1.094  23.874 -11.746  1.00  0.00     0.010 C 
HETATM    8  C25 UNL     1      -0.008  23.574  -9.515  1.00  0.00    -0.036 C 
HETATM    9  C3  UNL     1       0.071  24.767 -12.125  1.00  0.00     0.034 C 
HETATM   10  C2  UNL     1       1.325  24.269 -11.487  1.00  0.00    -0.088 C 
HETATM   11  C1  UNL     1       2.516  24.701 -11.791  1.00  0.00     0.014 C 
HETATM   12  C27 UNL     1       1.150  23.228 -10.458  1.00  0.00     0.042 C 
HETATM   13  C24 UNL     1      -0.044  22.507  -8.486  1.00  0.00     0.010 C 
HETATM   14  C26 UNL     1       0.424  24.871  -8.842  1.00  0.00     0.016 C 
HETATM   15  C23 UNL     1      -1.279  22.457  -7.652  1.00  0.00     0.002 C 
HETATM   16  C22 UNL     1      -2.513  22.939  -8.352  1.00  0.00     0.012 C 
HETATM   17  C7  UNL     1      -2.054  21.442 -10.295  1.00  0.00     0.018 C 
ENDBRANCH   4   5
ENDBRANCH   3   4
ENDBRANCH   1   3
BRANCH   1  18
HETATM   18  C10 UNL     1      -3.906  26.704 -11.651  1.00  0.00     0.111 C 
BRANCH  18  19
HETATM   19  C11 UNL     1      -3.556  27.171 -13.033  1.00  0.00     0.010 C 
BRANCH  19  20
HETATM   20  C12 UNL     1      -4.305  28.316 -13.573  1.00  0.00     0.001 C 
BRANCH  20  21
HETATM   21  C13 UNL     1      -5.774  28.359 -13.500  1.00  0.00     0.005 C 
BRANCH  21  22
HETATM   22  C14 UNL     1      -6.530  29.500 -14.069  1.00  0.00    -0.010 C 
HETATM   23  C15 UNL     1      -5.691  30.016 -15.261  1.00  0.00     0.009 C 
HETATM   24  C16 UNL     1      -6.228  31.399 -15.643  1.00  0.00     0.044 C 
HETATM   25  C17 UNL     1      -7.667  31.233 -16.067  1.00  0.00     0.011 A 
HETATM   26  C18 UNL     1      -8.499  31.917 -16.926  1.00  0.00     0.192 A 
HETATM   27  C20 UNL     1      -8.401  30.213 -15.550  1.00  0.00     0.012 A 
HETATM   28  O4  UNL     1      -9.667  31.321 -16.912  1.00  0.00    -0.264 OA
HETATM   29  C19 UNL     1      -9.655  30.290 -16.097  1.00  0.00     0.192 A 
HETATM   30  C21 UNL     1      -7.890  29.205 -14.554  1.00  0.00     0.049 C 
BRANCH  26  31
HETATM   31  O3  UNL     1      -8.134  33.050 -17.676  1.00  0.00    -0.340 OA
ATOM     32  H3  UNL     1      -7.829  33.873 -17.312  1.00  0.00     0.220 HD
ENDBRANCH  26  31
BRANCH  29  33
HETATM   33  O5  UNL     1     -10.769  29.476 -15.888  1.00  0.00    -0.340 OA
ATOM     34  H5  UNL     1     -11.355  29.584 -15.149  1.00  0.00     0.220 HD
ENDBRANCH  29  33
ENDBRANCH  21  22
ENDBRANCH  20  21
ENDBRANCH  19  20
ENDBRANCH  18  19
ENDBRANCH   1  18
TORSDOF 10
ENDMDL
MODEL 4
REMARK VINA RESULT: -10.145850651      0.992      2.372
REMARK  10 active torsions:
REMARK  status: ('A' for Active; 'I' for Inactive)
REMARK    1  A    between atoms: C6_6  and  C8_8 
REMARK    2  A    between atoms: C8_8  and  O1_9 
REMARK    3  A    between atoms: O1_9  and  C9_10 
REMARK    4  A    between atoms: C9_10  and  C10_12 
REMARK    5  A    between atoms: C10_12  and  C11_13 
REMARK    6  A    between atoms: C11_13  and  C12_14 
REMARK    7  A    between atoms: C12_14  and  C13_15 
REMARK    8  A    between atoms: C13_15  and  C14_16 
REMARK    9  A    between atoms: C18_20  and  O3_21 
REMARK   10  A    between atoms: C19_24  and  O5_25 
ROOT
HETATM    1  C9  UNL     1      -2.301  26.386 -12.492  1.00  0.00     0.258 C 
HETATM    2  O2  UNL     1      -2.093  27.267 -13.348  1.00  0.00    -0.265 OA
ENDROOT
BRANCH   1   3
HETATM    3  O1  UNL     1      -1.401  25.428 -12.338  1.00  0.00    -0.321 OA
BRANCH   3   4
HETATM    4  C8  UNL     1      -0.217  25.082 -11.847  1.00  0.00     0.188 C 
BRANCH   4   5
HETATM    5  C6  UNL     1       0.013  24.595 -10.455  1.00  0.00    -0.018 C 
HETATM    6  C5  UNL     1      -0.363  23.178 -10.199  1.00  0.00     0.004 C 
HETATM    7  C4  UNL     1      -1.845  22.942 -10.420  1.00  0.00     0.010 C 
HETATM    8  C25 UNL     1       0.071  22.691  -8.836  1.00  0.00    -0.036 C 
HETATM    9  C3  UNL     1      -2.253  21.529 -10.056  1.00  0.00     0.034 C 
HETATM   10  C2  UNL     1      -1.944  21.262  -8.621  1.00  0.00    -0.088 C 
HETATM   11  C1  UNL     1      -2.368  20.216  -7.969  1.00  0.00     0.014 C 
HETATM   12  C27 UNL     1      -1.106  22.271  -7.948  1.00  0.00     0.042 C 
HETATM   13  C24 UNL     1       0.880  23.643  -8.037  1.00  0.00     0.010 C 
HETATM   14  C26 UNL     1       0.882  21.414  -9.021  1.00  0.00     0.016 C 
HETATM   15  C23 UNL     1       1.893  24.427  -8.799  1.00  0.00     0.002 C 
HETATM   16  C22 UNL     1       1.517  24.692 -10.225  1.00  0.00     0.012 C 
HETATM   17  C7  UNL     1      -0.714  25.562  -9.526  1.00  0.00     0.018 C 
ENDBRANCH   4   5
ENDBRANCH   3   4
ENDBRANCH   1   3
BRANCH   1  18
HETATM   18  C10 UNL     1      -3.574  26.469 -11.685  1.00  0.00     0.111 C 
BRANCH  18  19
HETATM   19  C11 UNL     1      -4.746  26.179 -12.574  1.00  0.00     0.010 C 
BRANCH  19  20
HETATM   20  C12 UNL     1      -5.659  27.292 -12.879  1.00  0.00     0.001 C 
BRANCH  20  21
HETATM   21  C13 UNL     1      -5.172  28.505 -13.555  1.00  0.00     0.005 C 
BRANCH  21  22
HETATM   22  C14 UNL     1      -6.119  29.539 -14.036  1.00  0.00    -0.010 C 
HETATM   23  C15 UNL     1      -5.441  30.200 -15.259  1.00  0.00     0.009 C 
HETATM   24  C16 UNL     1      -6.193  31.501 -15.559  1.00  0.00     0.044 C 
HETATM   25  C17 UNL     1      -7.619  31.141 -15.899  1.00  0.00     0.011 A 
HETATM   26  C18 UNL     1      -8.594  31.719 -16.682  1.00  0.00     0.192 A 
HETATM   27  C20 UNL     1      -8.165  30.013 -15.374  1.00  0.00     0.012 A 
HETATM   28  O4  UNL     1      -9.663  30.962 -16.617  1.00  0.00    -0.264 OA
HETATM   29  C19 UNL     1      -9.450  29.923 -15.840  1.00  0.00     0.192 A 
HETATM   30  C21 UNL     1      -7.452  29.064 -14.447  1.00  0.00     0.049 C 
BRANCH  26  31
HETATM   31  O3  UNL     1      -8.444  32.912 -17.413  1.00  0.00    -0.340 OA
ATOM     32  H3  UNL     1      -8.417  33.785 -17.038  1.00  0.00     0.220 HD
ENDBRANCH  26  31
BRANCH  29  33
HETATM   33  O5  UNL     1     -10.421  28.952 -15.592  1.00  0.00    -0.340 OA
ATOM     34  H5  UNL     1     -10.296  28.034 -15.799  1.00  0.00     0.220 HD
ENDBRANCH  29  33
ENDBRANCH  21  22
ENDBRANCH  20  21
ENDBRANCH  19  20
ENDBRANCH  18  19
ENDBRANCH   1  18
TORSDOF 10
ENDMDL
MODEL 5
REMARK VINA RESULT: -10.144681152      1.427      2.804
REMARK  10 active torsions:
REMARK  status: ('A' for Active; 'I' for Inactive)
REMARK    1  A    between atoms: C6_6  and  C8_8 
REMARK    2  A    between atoms: C8_8  and  O1_9 
REMARK    3  A    between atoms: O1_9  and  C9_10 
REMARK    4  A    between atoms: C9_10  and  C10_12 
REMARK    5  A    between atoms: C10_12  and  C11_13 
REMARK    6  A    between atoms: C11_13  and  C12_14 
REMARK    7  A    between atoms: C12_14  and  C13_15 
REMARK    8  A    between atoms: C13_15  and  C14_16 
REMARK    9  A    between atoms: C18_20  and  O3_21 
REMARK   10  A    between atoms: C19_24  and  O5_25 
ROOT
HETATM    1  C9  UNL     1      -4.185  25.694 -11.940  1.00  0.00     0.258 C 
HETATM    2  O2  UNL     1      -5.000  25.358 -12.822  1.00  0.00    -0.265 OA
ENDROOT
BRANCH   1   3
HETATM    3  O1  UNL     1      -3.976  24.870 -10.925  1.00  0.00    -0.321 OA
BRANCH   3   4
HETATM    4  C8  UNL     1      -3.730  23.625 -10.536  1.00  0.00     0.188 C 
BRANCH   4   5
HETATM    5  C6  UNL     1      -2.418  23.146 -10.009  1.00  0.00    -0.018 C 
HETATM    6  C5  UNL     1      -1.251  24.025 -10.293  1.00  0.00     0.004 C 
HETATM    7  C4  UNL     1      -1.008  24.169 -11.783  1.00  0.00     0.010 C 
HETATM    8  C25 UNL     1       0.003  23.589  -9.573  1.00  0.00    -0.036 C 
HETATM    9  C3  UNL     1       0.243  24.973 -12.075  1.00  0.00     0.034 C 
HETATM   10  C2  UNL     1       1.432  24.309 -11.467  1.00  0.00    -0.088 C 
HETATM   11  C1  UNL     1       2.664  24.648 -11.722  1.00  0.00     0.014 C 
HETATM   12  C27 UNL     1       1.140  23.210 -10.528  1.00  0.00     0.042 C 
HETATM   13  C24 UNL     1      -0.153  22.452  -8.634  1.00  0.00     0.010 C 
HETATM   14  C26 UNL     1       0.544  24.781  -8.791  1.00  0.00     0.016 C 
HETATM   15  C23 UNL     1      -1.402  22.453  -7.820  1.00  0.00     0.002 C 
HETATM   16  C22 UNL     1      -2.571  23.105  -8.492  1.00  0.00     0.012 C 
HETATM   17  C7  UNL     1      -2.220  21.732 -10.545  1.00  0.00     0.018 C 
ENDBRANCH   4   5
ENDBRANCH   3   4
ENDBRANCH   1   3
BRANCH   1  18
HETATM   18  C10 UNL     1      -3.489  27.025 -12.088  1.00  0.00     0.111 C 
BRANCH  18  19
HETATM   19  C11 UNL     1      -3.612  27.495 -13.507  1.00  0.00     0.010 C 
BRANCH  19  20
HETATM   20  C12 UNL     1      -3.293  28.903 -13.786  1.00  0.00     0.001 C 
BRANCH  20  21
HETATM   21  C13 UNL     1      -4.347  29.930 -13.784  1.00  0.00     0.005 C 
BRANCH  21  22
HETATM   22  C14 UNL     1      -5.557  29.779 -14.626  1.00  0.00    -0.010 C 
HETATM   23  C15 UNL     1      -6.728  29.518 -13.649  1.00  0.00     0.009 C 
HETATM   24  C16 UNL     1      -7.909  28.992 -14.470  1.00  0.00     0.044 C 
HETATM   25  C17 UNL     1      -8.300  30.067 -15.456  1.00  0.00     0.011 A 
HETATM   26  C18 UNL     1      -9.478  30.416 -16.077  1.00  0.00     0.192 A 
HETATM   27  C20 UNL     1      -7.358  30.943 -15.894  1.00  0.00     0.012 A 
HETATM   28  O4  UNL     1      -9.236  31.451 -16.845  1.00  0.00    -0.264 OA
HETATM   29  C19 UNL     1      -7.972  31.803 -16.766  1.00  0.00     0.192 A 
HETATM   30  C21 UNL     1      -5.912  30.932 -15.473  1.00  0.00     0.049 C 
BRANCH  26  31
HETATM   31  O3  UNL     1     -10.711  29.761 -15.902  1.00  0.00    -0.340 OA
ATOM     32  H3  UNL     1     -11.539  30.045 -16.273  1.00  0.00     0.220 HD
ENDBRANCH  26  31
BRANCH  29  33
HETATM   33  O5  UNL     1      -7.438  32.876 -17.481  1.00  0.00    -0.340 OA
ATOM     34  H5  UNL     1      -7.059  33.638 -17.060  1.00  0.00     0.220 HD
ENDBRANCH  29  33
ENDBRANCH  21  22
ENDBRANCH  20  21
ENDBRANCH  19  20
ENDBRANCH  18  19
ENDBRANCH   1  18
TORSDOF 10
ENDMDL
