MODEL 1
REMARK VINA RESULT: -5.002516698      0.000      0.000
REMARK  0 active torsions:
REMARK  status: ('A' for Active; 'I' for Inactive)
ROOT
HETATM    1  C1  UNL     1      30.789   2.770 -13.254  1.00  0.00     0.005 C 
HETATM    2  C2  UNL     1      30.302   3.374 -14.587  1.00  0.00     0.005 C 
HETATM    3  C3  UNL     1      28.856   2.976 -14.507  1.00  0.00    -0.014 C 
HETATM    4  C4  UNL     1      28.517   3.422 -13.075  1.00  0.00     0.009 C 
HETATM    5  C5  UNL     1      29.473   2.310 -12.709  1.00  0.00    -0.014 C 
HETATM    6  C6  UNL     1      28.907   1.588 -13.942  1.00  0.00     0.009 C 
ENDROOT
TORSDOF 0
ENDMDL
MODEL 2
REMARK VINA RESULT: -5.001817093      0.038      1.889
REMARK  0 active torsions:
REMARK  status: ('A' for Active; 'I' for Inactive)
ROOT
HETATM    1  C1  UNL     1      30.313   3.354 -14.598  1.00  0.00     0.005 C 
HETATM    2  C2  UNL     1      30.814   2.730 -13.279  1.00  0.00     0.005 C 
HETATM    3  C3  UNL     1      29.494   2.287 -12.717  1.00  0.00    -0.014 C 
HETATM    4  C4  UNL     1      28.887   1.580 -13.939  1.00  0.00     0.009 C 
HETATM    5  C5  UNL     1      28.867   2.983 -14.500  1.00  0.00    -0.014 C 
HETATM    6  C6  UNL     1      28.572   3.420 -13.056  1.00  0.00     0.009 C 
ENDROOT
TORSDOF 0
ENDMDL
MODEL 3
REMARK VINA RESULT: -4.790922162      0.702      1.405
REMARK  0 active torsions:
REMARK  status: ('A' for Active; 'I' for Inactive)
ROOT
HETATM    1  C1  UNL     1      29.616   3.332 -12.483  1.00  0.00     0.005 C 
HETATM    2  C2  UNL     1      30.845   2.901 -13.309  1.00  0.00     0.005 C 
HETATM    3  C3  UNL     1      30.135   2.365 -14.519  1.00  0.00    -0.014 C 
HETATM    4  C4  UNL     1      29.147   3.509 -14.800  1.00  0.00     0.009 C 
HETATM    5  C5  UNL     1      28.545   3.052 -13.491  1.00  0.00    -0.014 C 
HETATM    6  C6  UNL     1      28.957   1.641 -13.939  1.00  0.00     0.009 C 
ENDROOT
TORSDOF 0
ENDMDL
MODEL 4
REMARK VINA RESULT: -4.787507748      0.726      1.033
REMARK  0 active torsions:
REMARK  status: ('A' for Active; 'I' for Inactive)
ROOT
HETATM    1  C1  UNL     1      30.411   2.880 -14.709  1.00  0.00     0.005 C 
HETATM    2  C2  UNL     1      29.047   3.520 -15.036  1.00  0.00     0.005 C 
HETATM    3  C3  UNL     1      28.268   3.025 -13.851  1.00  0.00    -0.014 C 
HETATM    4  C4  UNL     1      29.238   3.371 -12.709  1.00  0.00     0.009 C 
HETATM    5  C5  UNL     1      30.086   2.306 -13.365  1.00  0.00    -0.014 C 
HETATM    6  C6  UNL     1      28.750   1.615 -13.681  1.00  0.00     0.009 C 
ENDROOT
TORSDOF 0
ENDMDL
MODEL 5
REMARK VINA RESULT: -4.772167123      0.710      1.742
REMARK  0 active torsions:
REMARK  status: ('A' for Active; 'I' for Inactive)
ROOT
HETATM    1  C1  UNL     1      30.804   2.897 -13.283  1.00  0.00     0.005 C 
HETATM    2  C2  UNL     1      29.560   3.349 -12.490  1.00  0.00     0.005 C 
HETATM    3  C3  UNL     1      28.509   3.057 -13.522  1.00  0.00    -0.014 C 
HETATM    4  C4  UNL     1      28.910   1.633 -13.941  1.00  0.00     0.009 C 
HETATM    5  C5  UNL     1      30.122   2.345 -14.496  1.00  0.00    -0.014 C 
HETATM    6  C6  UNL     1      29.149   3.494 -14.806  1.00  0.00     0.009 C 
ENDROOT
TORSDOF 0
ENDMDL
