MODEL 1
REMARK VINA RESULT: -7.395407906      0.000      0.000
REMARK  12 active torsions:
REMARK  status: ('A' for Active; 'I' for Inactive)
REMARK    1  A    between atoms: C2_2  and  C3_3 
REMARK    2  A    between atoms: C3_3  and  S1_4 
REMARK    3  A    between atoms: S1_4  and  N1_7 
REMARK    4  A    between atoms: C6_11  and  C7_12 
REMARK    5  A    between atoms: C7_12  and  N2_13 
REMARK    6  A    between atoms: N2_13  and  C8_14 
REMARK    7  A    between atoms: N2_13  and  C17_30 
REMARK    8  A    between atoms: C8_14  and  O4_15 
REMARK    9  A    between atoms: C8_14  and  C9_17 
REMARK   10  A    between atoms: C11_20  and  N3_21 
REMARK   11  A    between atoms: N3_21  and  C12_23 
REMARK   12  A    between atoms: C12_23  and  C13_24 
ROOT
HETATM    1  N2  UNL     1      64.395  50.327 129.739  1.00  0.00    -0.349 N 
ENDROOT
BRANCH   1   2
HETATM    2  C7  UNL     1      63.975  51.205 128.622  1.00  0.00     0.159 C 
BRANCH   2   3
HETATM    3  C6  UNL     1      63.504  50.542 127.408  1.00  0.00     0.153 C 
HETATM    4  O3  UNL     1      64.149  49.288 127.335  1.00  0.00    -0.382 OA
HETATM    5  C5  UNL     1      64.142  48.756 126.071  1.00  0.00     0.183 C 
HETATM    6  C4  UNL     1      62.872  49.032 125.297  1.00  0.00     0.133 C 
HETATM    7  N1  UNL     1      62.753  50.435 125.093  1.00  0.00    -0.206 NA
HETATM    8  C20 UNL     1      63.534  51.194 126.087  1.00  0.00     0.141 C 
BRANCH   7   9
HETATM    9  S1  UNL     1      61.161  51.032 125.000  1.00  0.00     0.211 S 
HETATM   10  O1  UNL     1      61.179  52.491 125.328  1.00  0.00    -0.211 OA
HETATM   11  O2  UNL     1      60.304  50.360 126.051  1.00  0.00    -0.211 OA
BRANCH   9  12
HETATM   12  C3  UNL     1      60.395  50.797 123.449  1.00  0.00     0.157 C 
BRANCH  12  13
HETATM   13  C2  UNL     1      59.197  51.681 123.225  1.00  0.00     0.012 C 
HETATM   14  C1  UNL     1      59.450  52.760 122.207  1.00  0.00     0.006 C 
ENDBRANCH  12  13
ENDBRANCH   9  12
ENDBRANCH   7   9
ENDBRANCH   2   3
ENDBRANCH   1   2
BRANCH   1  15
HETATM   15  C8  UNL     1      63.353  49.670 130.401  1.00  0.00     0.166 C 
BRANCH  15  16
HETATM   16  O4  UNL     1      63.136  48.455 129.946  1.00  0.00    -0.344 OA
ATOM     17  H4  UNL     1      63.295  47.779 130.594  1.00  0.00     0.219 HD
ENDBRANCH  15  16
BRANCH  15  18
HETATM   18  C9  UNL     1      62.460  50.059 131.490  1.00  0.00     0.092 A 
HETATM   19  C10 UNL     1      62.224  51.426 131.707  1.00  0.00     0.087 A 
HETATM   20  S2  UNL     1      61.244  51.430 133.099  1.00  0.00    -0.064 SA
HETATM   21  C11 UNL     1      61.162  49.766 133.358  1.00  0.00     0.144 A 
HETATM   22  N4  UNL     1      61.891  49.259 132.365  1.00  0.00    -0.333 N 
ATOM     23  H4  UNL     1      62.007  48.250 132.282  1.00  0.00     0.168 HD
BRANCH  21  24
HETATM   24  N3  UNL     1      60.525  49.131 134.319  1.00  0.00    -0.370 N 
ATOM     25  H3  UNL     1      59.565  48.812 134.182  1.00  0.00     0.161 HD
BRANCH  24  26
HETATM   26  C12 UNL     1      61.200  48.895 135.561  1.00  0.00     0.130 C 
BRANCH  26  27
HETATM   27  C13 UNL     1      60.511  49.565 136.733  1.00  0.00    -0.035 C 
HETATM   28  C14 UNL     1      61.088  50.944 136.937  1.00  0.00     0.016 C 
HETATM   29  C15 UNL     1      59.036  49.711 136.414  1.00  0.00     0.016 C 
HETATM   30  C16 UNL     1      60.633  48.779 137.995  1.00  0.00     0.016 C 
ENDBRANCH  26  27
ENDBRANCH  24  26
ENDBRANCH  21  24
ENDBRANCH  15  18
ENDBRANCH   1  15
BRANCH   1  31
HETATM   31  C17 UNL     1      65.767  50.252 130.123  1.00  0.00     0.134 C 
HETATM   32  C18 UNL     1      66.093  49.625 131.417  1.00  0.00     0.195 C 
HETATM   33  O5  UNL     1      67.053  50.640 131.616  1.00  0.00    -0.387 OA
HETATM   34  C19 UNL     1      66.109  51.515 131.036  1.00  0.00     0.195 C 
ENDBRANCH   1  31
TORSDOF 12
ENDMDL
MODEL 2
REMARK VINA RESULT: -7.316453697      2.865      4.369
REMARK  12 active torsions:
REMARK  status: ('A' for Active; 'I' for Inactive)
REMARK    1  A    between atoms: C2_2  and  C3_3 
REMARK    2  A    between atoms: C3_3  and  S1_4 
REMARK    3  A    between atoms: S1_4  and  N1_7 
REMARK    4  A    between atoms: C6_11  and  C7_12 
REMARK    5  A    between atoms: C7_12  and  N2_13 
REMARK    6  A    between atoms: N2_13  and  C8_14 
REMARK    7  A    between atoms: N2_13  and  C17_30 
REMARK    8  A    between atoms: C8_14  and  O4_15 
REMARK    9  A    between atoms: C8_14  and  C9_17 
REMARK   10  A    between atoms: C11_20  and  N3_21 
REMARK   11  A    between atoms: N3_21  and  C12_23 
REMARK   12  A    between atoms: C12_23  and  C13_24 
ROOT
HETATM    1  N2  UNL     1      63.937  52.921 131.200  1.00  0.00    -0.349 N 
ENDROOT
BRANCH   1   2
HETATM    2  C7  UNL     1      65.333  52.568 131.546  1.00  0.00     0.159 C 
BRANCH   2   3
HETATM    3  C6  UNL     1      65.831  51.290 131.042  1.00  0.00     0.153 C 
HETATM    4  O3  UNL     1      66.969  50.951 131.804  1.00  0.00    -0.382 OA
HETATM    5  C5  UNL     1      67.774  50.029 131.183  1.00  0.00     0.183 C 
HETATM    6  C4  UNL     1      67.013  48.983 130.399  1.00  0.00     0.133 C 
HETATM    7  N1  UNL     1      66.316  49.619 129.335  1.00  0.00    -0.206 NA
HETATM    8  C20 UNL     1      66.100  51.052 129.612  1.00  0.00     0.141 C 
BRANCH   7   9
HETATM    9  S1  UNL     1      64.861  48.876 128.859  1.00  0.00     0.211 S 
HETATM   10  O1  UNL     1      63.934  48.846 130.032  1.00  0.00    -0.211 OA
HETATM   11  O2  UNL     1      65.127  47.435 128.479  1.00  0.00    -0.211 OA
BRANCH   9  12
HETATM   12  C3  UNL     1      64.065  49.650 127.513  1.00  0.00     0.157 C 
BRANCH  12  13
HETATM   13  C2  UNL     1      63.171  48.729 126.726  1.00  0.00     0.012 C 
HETATM   14  C1  UNL     1      63.151  49.051 125.255  1.00  0.00     0.006 C 
ENDBRANCH  12  13
ENDBRANCH   9  12
ENDBRANCH   7   9
ENDBRANCH   2   3
ENDBRANCH   1   2
BRANCH   1  15
HETATM   15  C8  UNL     1      63.014  51.878 131.327  1.00  0.00     0.166 C 
BRANCH  15  16
HETATM   16  O4  UNL     1      62.533  51.470 130.172  1.00  0.00    -0.344 OA
ATOM     17  H4  UNL     1      61.710  51.003 130.254  1.00  0.00     0.219 HD
ENDBRANCH  15  16
BRANCH  15  18
HETATM   18  C9  UNL     1      62.478  51.153 132.477  1.00  0.00     0.092 A 
HETATM   19  C10 UNL     1      61.529  50.144 132.251  1.00  0.00     0.087 A 
HETATM   20  S2  UNL     1      61.108  49.653 133.825  1.00  0.00    -0.064 SA
HETATM   21  C11 UNL     1      62.107  50.697 134.694  1.00  0.00     0.144 A 
HETATM   22  N4  UNL     1      62.734  51.391 133.745  1.00  0.00    -0.333 N 
ATOM     23  H4  UNL     1      63.413  52.107 134.001  1.00  0.00     0.168 HD
BRANCH  21  24
HETATM   24  N3  UNL     1      62.229  50.794 136.001  1.00  0.00    -0.370 N 
ATOM     25  H3  UNL     1      62.952  50.270 136.494  1.00  0.00     0.161 HD
BRANCH  24  26
HETATM   26  C12 UNL     1      61.331  51.647 136.720  1.00  0.00     0.130 C 
BRANCH  26  27
HETATM   27  C13 UNL     1      60.356  50.870 137.581  1.00  0.00    -0.035 C 
HETATM   28  C14 UNL     1      60.186  51.567 138.909  1.00  0.00     0.016 C 
HETATM   29  C15 UNL     1      59.008  50.840 136.887  1.00  0.00     0.016 C 
HETATM   30  C16 UNL     1      60.787  49.460 137.808  1.00  0.00     0.016 C 
ENDBRANCH  26  27
ENDBRANCH  24  26
ENDBRANCH  21  24
ENDBRANCH  15  18
ENDBRANCH   1  15
BRANCH   1  31
HETATM   31  C17 UNL     1      63.621  54.221 130.706  1.00  0.00     0.134 C 
HETATM   32  C18 UNL     1      64.041  54.563 129.333  1.00  0.00     0.195 C 
HETATM   33  O5  UNL     1      64.396  55.843 129.809  1.00  0.00    -0.387 OA
HETATM   34  C19 UNL     1      64.871  55.180 130.961  1.00  0.00     0.195 C 
ENDBRANCH   1  31
TORSDOF 12
ENDMDL
MODEL 3
REMARK VINA RESULT: -7.305291265      1.878      2.543
REMARK  12 active torsions:
REMARK  status: ('A' for Active; 'I' for Inactive)
REMARK    1  A    between atoms: C2_2  and  C3_3 
REMARK    2  A    between atoms: C3_3  and  S1_4 
REMARK    3  A    between atoms: S1_4  and  N1_7 
REMARK    4  A    between atoms: C6_11  and  C7_12 
REMARK    5  A    between atoms: C7_12  and  N2_13 
REMARK    6  A    between atoms: N2_13  and  C8_14 
REMARK    7  A    between atoms: N2_13  and  C17_30 
REMARK    8  A    between atoms: C8_14  and  O4_15 
REMARK    9  A    between atoms: C8_14  and  C9_17 
REMARK   10  A    between atoms: C11_20  and  N3_21 
REMARK   11  A    between atoms: N3_21  and  C12_23 
REMARK   12  A    between atoms: C12_23  and  C13_24 
ROOT
HETATM    1  N2  UNL     1      65.415  50.446 130.452  1.00  0.00    -0.349 N 
ENDROOT
BRANCH   1   2
HETATM    2  C7  UNL     1      65.643  50.922 129.068  1.00  0.00     0.159 C 
BRANCH   2   3
HETATM    3  C6  UNL     1      64.454  51.207 128.268  1.00  0.00     0.153 C 
HETATM    4  O3  UNL     1      64.093  52.549 128.511  1.00  0.00    -0.382 OA
HETATM    5  C5  UNL     1      62.790  52.821 128.182  1.00  0.00     0.183 C 
HETATM    6  C4  UNL     1      62.304  52.088 126.951  1.00  0.00     0.133 C 
HETATM    7  N1  UNL     1      62.320  50.690 127.210  1.00  0.00    -0.206 NA
HETATM    8  C20 UNL     1      63.252  50.354 128.303  1.00  0.00     0.141 C 
BRANCH   7   9
HETATM    9  S1  UNL     1      62.600  49.694 125.858  1.00  0.00     0.211 S 
HETATM   10  O1  UNL     1      63.056  48.353 126.339  1.00  0.00    -0.211 OA
HETATM   11  O2  UNL     1      63.731  50.266 125.030  1.00  0.00    -0.211 OA
BRANCH   9  12
HETATM   12  C3  UNL     1      61.216  49.494 124.814  1.00  0.00     0.157 C 
BRANCH  12  13
HETATM   13  C2  UNL     1      61.083  50.572 123.771  1.00  0.00     0.012 C 
HETATM   14  C1  UNL     1      59.830  51.390 123.933  1.00  0.00     0.006 C 
ENDBRANCH  12  13
ENDBRANCH   9  12
ENDBRANCH   7   9
ENDBRANCH   2   3
ENDBRANCH   1   2
BRANCH   1  15
HETATM   15  C8  UNL     1      64.706  51.330 131.273  1.00  0.00     0.166 C 
BRANCH  15  16
HETATM   16  O4  UNL     1      65.218  52.541 131.293  1.00  0.00    -0.344 OA
ATOM     17  H4  UNL     1      64.568  53.219 131.435  1.00  0.00     0.219 HD
ENDBRANCH  15  16
BRANCH  15  18
HETATM   18  C9  UNL     1      63.517  51.179 132.109  1.00  0.00     0.092 A 
HETATM   19  C10 UNL     1      62.295  51.678 131.633  1.00  0.00     0.087 A 
HETATM   20  S2  UNL     1      61.232  51.396 132.931  1.00  0.00    -0.064 SA
HETATM   21  C11 UNL     1      62.320  50.680 134.001  1.00  0.00     0.144 A 
HETATM   22  N4  UNL     1      63.469  50.680 133.325  1.00  0.00    -0.333 N 
ATOM     23  H4  UNL     1      64.310  50.293 133.750  1.00  0.00     0.168 HD
BRANCH  21  24
HETATM   24  N3  UNL     1      62.080  50.232 135.215  1.00  0.00    -0.370 N 
ATOM     25  H3  UNL     1      62.135  49.233 135.419  1.00  0.00     0.161 HD
BRANCH  24  26
HETATM   26  C12 UNL     1      61.740  51.167 136.246  1.00  0.00     0.130 C 
BRANCH  26  27
HETATM   27  C13 UNL     1      60.623  50.667 137.139  1.00  0.00    -0.035 C 
HETATM   28  C14 UNL     1      59.292  50.922 136.474  1.00  0.00     0.016 C 
HETATM   29  C15 UNL     1      60.779  49.171 137.325  1.00  0.00     0.016 C 
HETATM   30  C16 UNL     1      60.638  51.303 138.488  1.00  0.00     0.016 C 
ENDBRANCH  26  27
ENDBRANCH  24  26
ENDBRANCH  21  24
ENDBRANCH  15  18
ENDBRANCH   1  15
BRANCH   1  31
HETATM   31  C17 UNL     1      65.965  49.204 130.889  1.00  0.00     0.134 C 
HETATM   32  C18 UNL     1      66.887  49.221 132.040  1.00  0.00     0.195 C 
HETATM   33  O5  UNL     1      67.679  48.271 131.361  1.00  0.00    -0.387 OA
HETATM   34  C19 UNL     1      67.385  49.003 130.190  1.00  0.00     0.195 C 
ENDBRANCH   1  31
TORSDOF 12
ENDMDL
MODEL 4
REMARK VINA RESULT: -7.255665512      2.048      2.908
REMARK  12 active torsions:
REMARK  status: ('A' for Active; 'I' for Inactive)
REMARK    1  A    between atoms: C2_2  and  C3_3 
REMARK    2  A    between atoms: C3_3  and  S1_4 
REMARK    3  A    between atoms: S1_4  and  N1_7 
REMARK    4  A    between atoms: C6_11  and  C7_12 
REMARK    5  A    between atoms: C7_12  and  N2_13 
REMARK    6  A    between atoms: N2_13  and  C8_14 
REMARK    7  A    between atoms: N2_13  and  C17_30 
REMARK    8  A    between atoms: C8_14  and  O4_15 
REMARK    9  A    between atoms: C8_14  and  C9_17 
REMARK   10  A    between atoms: C11_20  and  N3_21 
REMARK   11  A    between atoms: N3_21  and  C12_23 
REMARK   12  A    between atoms: C12_23  and  C13_24 
ROOT
HETATM    1  N2  UNL     1      65.033  50.171 131.053  1.00  0.00    -0.349 N 
ENDROOT
BRANCH   1   2
HETATM    2  C7  UNL     1      64.891  51.645 131.029  1.00  0.00     0.159 C 
BRANCH   2   3
HETATM    3  C6  UNL     1      64.311  52.229 129.821  1.00  0.00     0.153 C 
HETATM    4  O3  UNL     1      64.566  53.617 129.859  1.00  0.00    -0.382 OA
HETATM    5  C5  UNL     1      63.732  54.336 129.042  1.00  0.00     0.183 C 
HETATM    6  C4  UNL     1      63.391  53.636 127.746  1.00  0.00     0.133 C 
HETATM    7  N1  UNL     1      62.663  52.450 128.040  1.00  0.00    -0.206 NA
HETATM    8  C20 UNL     1      62.913  51.991 129.419  1.00  0.00     0.141 C 
BRANCH   7   9
HETATM    9  S1  UNL     1      62.865  51.169 126.937  1.00  0.00     0.211 S 
HETATM   10  O1  UNL     1      63.138  49.916 127.706  1.00  0.00    -0.211 OA
HETATM   11  O2  UNL     1      64.085  51.426 126.078  1.00  0.00    -0.211 OA
BRANCH   9  12
HETATM   12  C3  UNL     1      61.504  50.913 125.876  1.00  0.00     0.157 C 
BRANCH  12  13
HETATM   13  C2  UNL     1      60.434  51.966 125.997  1.00  0.00     0.012 C 
HETATM   14  C1  UNL     1      60.334  52.839 124.775  1.00  0.00     0.006 C 
ENDBRANCH  12  13
ENDBRANCH   9  12
ENDBRANCH   7   9
ENDBRANCH   2   3
ENDBRANCH   1   2
BRANCH   1  15
HETATM   15  C8  UNL     1      63.850  49.466 131.301  1.00  0.00     0.166 C 
BRANCH  15  16
HETATM   16  O4  UNL     1      63.495  48.685 130.305  1.00  0.00    -0.344 OA
ATOM     17  H4  UNL     1      62.951  47.956 130.577  1.00  0.00     0.219 HD
ENDBRANCH  15  16
BRANCH  15  18
HETATM   18  C9  UNL     1      62.936  49.422 132.440  1.00  0.00     0.092 A 
HETATM   19  C10 UNL     1      61.592  49.090 132.207  1.00  0.00     0.087 A 
HETATM   20  S2  UNL     1      60.882  49.259 133.745  1.00  0.00    -0.064 SA
HETATM   21  C11 UNL     1      62.253  49.727 134.608  1.00  0.00     0.144 A 
HETATM   22  N4  UNL     1      63.214  49.738 133.685  1.00  0.00    -0.333 N 
ATOM     23  H4  UNL     1      64.167  49.991 133.945  1.00  0.00     0.168 HD
BRANCH  21  24
HETATM   24  N3  UNL     1      62.339  50.013 135.890  1.00  0.00    -0.370 N 
ATOM     25  H3  UNL     1      62.954  49.474 136.500  1.00  0.00     0.161 HD
BRANCH  24  26
HETATM   26  C12 UNL     1      61.556  51.091 136.415  1.00  0.00     0.130 C 
BRANCH  26  27
HETATM   27  C13 UNL     1      60.475  50.615 137.365  1.00  0.00    -0.035 C 
HETATM   28  C14 UNL     1      60.721  49.172 137.729  1.00  0.00     0.016 C 
HETATM   29  C15 UNL     1      60.542  51.442 138.634  1.00  0.00     0.016 C 
HETATM   30  C16 UNL     1      59.104  50.760 136.794  1.00  0.00     0.016 C 
ENDBRANCH  26  27
ENDBRANCH  24  26
ENDBRANCH  21  24
ENDBRANCH  15  18
ENDBRANCH   1  15
BRANCH   1  31
HETATM   31  C17 UNL     1      66.317  49.566 130.905  1.00  0.00     0.134 C 
HETATM   32  C18 UNL     1      67.063  49.215 132.128  1.00  0.00     0.195 C 
HETATM   33  O5  UNL     1      68.234  49.677 131.491  1.00  0.00    -0.387 OA
HETATM   34  C19 UNL     1      67.428  50.710 130.966  1.00  0.00     0.195 C 
ENDBRANCH   1  31
TORSDOF 12
ENDMDL
MODEL 5
REMARK VINA RESULT: -7.211390911      2.817      6.218
REMARK  12 active torsions:
REMARK  status: ('A' for Active; 'I' for Inactive)
REMARK    1  A    between atoms: C2_2  and  C3_3 
REMARK    2  A    between atoms: C3_3  and  S1_4 
REMARK    3  A    between atoms: S1_4  and  N1_7 
REMARK    4  A    between atoms: C6_11  and  C7_12 
REMARK    5  A    between atoms: C7_12  and  N2_13 
REMARK    6  A    between atoms: N2_13  and  C8_14 
REMARK    7  A    between atoms: N2_13  and  C17_30 
REMARK    8  A    between atoms: C8_14  and  O4_15 
REMARK    9  A    between atoms: C8_14  and  C9_17 
REMARK   10  A    between atoms: C11_20  and  N3_21 
REMARK   11  A    between atoms: N3_21  and  C12_23 
REMARK   12  A    between atoms: C12_23  and  C13_24 
ROOT
HETATM    1  N2  UNL     1      62.828  51.828 127.079  1.00  0.00    -0.349 N 
ENDROOT
BRANCH   1   2
HETATM    2  C7  UNL     1      63.972  51.039 126.567  1.00  0.00     0.159 C 
BRANCH   2   3
HETATM    3  C6  UNL     1      64.451  49.949 127.416  1.00  0.00     0.153 C 
HETATM    4  O3  UNL     1      64.346  48.756 126.670  1.00  0.00    -0.382 OA
HETATM    5  C5  UNL     1      64.345  47.632 127.456  1.00  0.00     0.183 C 
HETATM    6  C4  UNL     1      65.253  47.727 128.661  1.00  0.00     0.133 C 
HETATM    7  N1  UNL     1      64.778  48.759 129.517  1.00  0.00    -0.206 NA
HETATM    8  C20 UNL     1      63.943  49.728 128.782  1.00  0.00     0.141 C 
BRANCH   7   9
HETATM    9  S1  UNL     1      65.967  49.565 130.430  1.00  0.00     0.211 S 
HETATM   10  O1  UNL     1      65.488  49.683 131.841  1.00  0.00    -0.211 OA
HETATM   11  O2  UNL     1      66.138  50.976 129.909  1.00  0.00    -0.211 OA
BRANCH   9  12
HETATM   12  C3  UNL     1      67.532  48.792 130.413  1.00  0.00     0.157 C 
BRANCH  12  13
HETATM   13  C2  UNL     1      67.974  48.289 131.762  1.00  0.00     0.012 C 
HETATM   14  C1  UNL     1      69.179  49.021 132.292  1.00  0.00     0.006 C 
ENDBRANCH  12  13
ENDBRANCH   9  12
ENDBRANCH   7   9
ENDBRANCH   2   3
ENDBRANCH   1   2
BRANCH   1  15
HETATM   15  C8  UNL     1      63.175  52.936 127.860  1.00  0.00     0.166 C 
BRANCH  15  16
HETATM   16  O4  UNL     1      63.260  54.050 127.166  1.00  0.00    -0.344 OA
ATOM     17  H4  UNL     1      62.996  54.818 127.659  1.00  0.00     0.219 HD
ENDBRANCH  15  16
BRANCH  15  18
HETATM   18  C9  UNL     1      63.460  53.104 129.283  1.00  0.00     0.092 A 
HETATM   19  C10 UNL     1      64.246  54.196 129.685  1.00  0.00     0.087 A 
HETATM   20  S2  UNL     1      64.414  53.952 131.361  1.00  0.00    -0.064 SA
HETATM   21  C11 UNL     1      63.518  52.531 131.503  1.00  0.00     0.144 A 
HETATM   22  N4  UNL     1      63.117  52.288 130.255  1.00  0.00    -0.333 N 
ATOM     23  H4  UNL     1      62.544  51.469 130.054  1.00  0.00     0.168 HD
BRANCH  21  24
HETATM   24  N3  UNL     1      63.279  51.834 132.594  1.00  0.00    -0.370 N 
ATOM     25  H3  UNL     1      64.029  51.638 133.258  1.00  0.00     0.161 HD
BRANCH  24  26
HETATM   26  C12 UNL     1      61.950  51.357 132.836  1.00  0.00     0.130 C 
BRANCH  26  27
HETATM   27  C13 UNL     1      61.919  49.887 133.202  1.00  0.00    -0.035 C 
HETATM   28  C14 UNL     1      62.931  49.615 134.288  1.00  0.00     0.016 C 
HETATM   29  C15 UNL     1      60.543  49.548 133.742  1.00  0.00     0.016 C 
HETATM   30  C16 UNL     1      62.186  48.998 132.035  1.00  0.00     0.016 C 
ENDBRANCH  26  27
ENDBRANCH  24  26
ENDBRANCH  21  24
ENDBRANCH  15  18
ENDBRANCH   1  15
BRANCH   1  31
HETATM   31  C17 UNL     1      61.489  51.403 126.832  1.00  0.00     0.134 C 
HETATM   32  C18 UNL     1      61.266  50.380 125.793  1.00  0.00     0.195 C 
HETATM   33  O5  UNL     1      60.127  51.106 125.386  1.00  0.00    -0.387 OA
HETATM   34  C19 UNL     1      60.897  52.265 125.627  1.00  0.00     0.195 C 
ENDBRANCH   1  31
TORSDOF 12
ENDMDL
