MODEL 1
REMARK VINA RESULT: -5.091154575      0.000      0.000
REMARK  1 active torsions:
REMARK  status: ('A' for Active; 'I' for Inactive)
REMARK    1  A    between atoms: N2_6  and  O1_7 
ROOT
HETATM    1  C1  UNL     1       0.280  74.726  79.680  1.00  0.00     0.298 C 
HETATM    2  N1  UNL     1       0.872  76.067  79.682  1.00  0.00     0.020 N 
HETATM    3  C2  UNL     1       1.352  76.286  81.041  1.00  0.00     0.298 C 
HETATM    4  C3  UNL     1       1.924  76.126  78.706  1.00  0.00     0.279 C 
HETATM    5  C4  UNL     1       1.549  77.243  77.774  1.00  0.00     0.173 C 
HETATM    6  N2  UNL     1       0.234  77.618  78.188  1.00  0.00    -0.083 NA
HETATM    7  N3  UNL     1      -0.046  77.054  79.400  1.00  0.00     0.072 NA
ENDROOT
BRANCH   6   8
HETATM    8  O1  UNL     1      -0.713  77.430  77.246  1.00  0.00    -0.295 OA
ATOM      9  H1  UNL     1      -1.178  78.222  77.003  1.00  0.00     0.238 HD
ENDBRANCH   6   8
TORSDOF 1
ENDMDL
MODEL 2
REMARK VINA RESULT: -4.738337684      2.993      3.305
REMARK  1 active torsions:
REMARK  status: ('A' for Active; 'I' for Inactive)
REMARK    1  A    between atoms: N2_6  and  O1_7 
ROOT
HETATM    1  C1  UNL     1       1.976  77.108  80.433  1.00  0.00     0.298 C 
HETATM    2  N1  UNL     1       3.101  76.381  79.840  1.00  0.00     0.020 N 
HETATM    3  C2  UNL     1       3.485  75.375  80.823  1.00  0.00     0.298 C 
HETATM    4  C3  UNL     1       2.695  75.808  78.588  1.00  0.00     0.279 C 
HETATM    5  C4  UNL     1       3.641  76.362  77.562  1.00  0.00     0.173 C 
HETATM    6  N2  UNL     1       4.403  77.337  78.278  1.00  0.00    -0.083 NA
HETATM    7  N3  UNL     1       4.197  77.187  79.620  1.00  0.00     0.072 NA
ENDROOT
BRANCH   6   8
HETATM    8  O1  UNL     1       4.251  78.596  77.820  1.00  0.00    -0.295 OA
ATOM      9  H1  UNL     1       4.948  78.883  77.241  1.00  0.00     0.238 HD
ENDBRANCH   6   8
TORSDOF 1
ENDMDL
MODEL 3
REMARK VINA RESULT: -4.716087597      2.643      3.115
REMARK  1 active torsions:
REMARK  status: ('A' for Active; 'I' for Inactive)
REMARK    1  A    between atoms: N2_6  and  O1_7 
ROOT
HETATM    1  C1  UNL     1       1.006  77.793  79.268  1.00  0.00     0.298 C 
HETATM    2  N1  UNL     1       1.876  76.738  79.795  1.00  0.00     0.020 N 
HETATM    3  C2  UNL     1       1.219  76.248  81.000  1.00  0.00     0.298 C 
HETATM    4  C3  UNL     1       2.045  75.715  78.800  1.00  0.00     0.279 C 
HETATM    5  C4  UNL     1       3.526  75.616  78.569  1.00  0.00     0.173 C 
HETATM    6  N2  UNL     1       4.071  76.702  79.320  1.00  0.00    -0.083 NA
HETATM    7  N3  UNL     1       3.119  77.207  80.159  1.00  0.00     0.072 NA
ENDROOT
BRANCH   6   8
HETATM    8  O1  UNL     1       4.708  77.623  78.568  1.00  0.00    -0.295 OA
ATOM      9  H1  UNL     1       4.733  77.416  77.641  1.00  0.00     0.238 HD
ENDBRANCH   6   8
TORSDOF 1
ENDMDL
MODEL 4
REMARK VINA RESULT: -4.567197474      3.057      3.458
REMARK  1 active torsions:
REMARK  status: ('A' for Active; 'I' for Inactive)
REMARK    1  A    between atoms: N2_6  and  O1_7 
ROOT
HETATM    1  C1  UNL     1       2.632  76.684  80.614  1.00  0.00     0.298 C 
HETATM    2  N1  UNL     1       2.748  76.302  79.205  1.00  0.00     0.020 N 
HETATM    3  C2  UNL     1       2.185  74.961  79.110  1.00  0.00     0.298 C 
HETATM    4  C3  UNL     1       2.049  77.257  78.390  1.00  0.00     0.279 C 
HETATM    5  C4  UNL     1       3.069  77.793  77.427  1.00  0.00     0.173 C 
HETATM    6  N2  UNL     1       4.304  77.232  77.877  1.00  0.00    -0.083 NA
HETATM    7  N3  UNL     1       4.057  76.236  78.778  1.00  0.00     0.072 NA
ENDROOT
BRANCH   6   8
HETATM    8  O1  UNL     1       5.207  78.148  78.281  1.00  0.00    -0.295 OA
ATOM      9  H1  UNL     1       6.093  77.973  77.985  1.00  0.00     0.238 HD
ENDBRANCH   6   8
TORSDOF 1
ENDMDL
MODEL 5
REMARK VINA RESULT: -4.502911580      2.694      2.881
REMARK  1 active torsions:
REMARK  status: ('A' for Active; 'I' for Inactive)
REMARK    1  A    between atoms: N2_6  and  O1_7 
ROOT
HETATM    1  C1  UNL     1       1.342  75.208  79.269  1.00  0.00     0.298 C 
HETATM    2  N1  UNL     1       1.811  76.527  78.838  1.00  0.00     0.020 N 
HETATM    3  C2  UNL     1       0.682  77.430  79.025  1.00  0.00     0.298 C 
HETATM    4  C3  UNL     1       2.959  76.905  79.615  1.00  0.00     0.279 C 
HETATM    5  C4  UNL     1       4.058  77.153  78.622  1.00  0.00     0.173 C 
HETATM    6  N2  UNL     1       3.503  76.733  77.374  1.00  0.00    -0.083 NA
HETATM    7  N3  UNL     1       2.155  76.559  77.504  1.00  0.00     0.072 NA
ENDROOT
BRANCH   6   8
HETATM    8  O1  UNL     1       4.154  75.698  76.804  1.00  0.00    -0.295 OA
ATOM      9  H1  UNL     1       4.682  75.193  77.412  1.00  0.00     0.238 HD
ENDBRANCH   6   8
TORSDOF 1
ENDMDL
