MODEL 1
REMARK VINA RESULT: -8.250576066      0.000      0.000
REMARK  13 active torsions:
REMARK  status: ('A' for Active; 'I' for Inactive)
REMARK    1  A    between atoms: C2_2  and  C3_3 
REMARK    2  A    between atoms: C3_3  and  N1_4 
REMARK       I    between atoms: N1_4  and  C4_5 
REMARK    3  A    between atoms: C4_5  and  C5_7 
REMARK    4  A    between atoms: C5_7  and  C6_8 
REMARK    5  A    between atoms: C8_13  and  C9_14 
REMARK    6  A    between atoms: C9_14  and  C10_15 
REMARK    7  A    between atoms: C13_20  and  O3_21 
REMARK    8  A    between atoms: C14_23  and  C15_24 
REMARK    9  A    between atoms: C15_24  and  C16_25 
REMARK   10  A    between atoms: C19_31  and  C20_32 
REMARK   11  A    between atoms: C20_32  and  C21_33 
REMARK   12  A    between atoms: C25_40  and  C26_41 
REMARK   13  A    between atoms: C26_41  and  C27_42 
ROOT
HETATM    1  C6  UNL     1     -18.758  13.736 -21.612  1.00  0.00     0.164 C 
HETATM    2  N2  UNL     1     -17.817  14.399 -20.718  1.00  0.00    -0.347 N 
ATOM      3  H2  UNL     1     -17.916  15.411 -20.654  1.00  0.00     0.163 HD
HETATM    4  C7  UNL     1     -16.805  13.853 -19.942  1.00  0.00     0.241 C 
HETATM    5  O2  UNL     1     -16.742  14.248 -18.727  1.00  0.00    -0.271 OA
HETATM    6  C8  UNL     1     -15.760  12.855 -20.330  1.00  0.00     0.175 C 
HETATM    7  N3  UNL     1     -14.431  13.400 -20.175  1.00  0.00    -0.359 N 
ATOM      8  H3  UNL     1     -14.014  13.196 -19.267  1.00  0.00     0.162 HD
HETATM    9  C13 UNL     1     -13.607  14.139 -21.002  1.00  0.00     0.135 C 
HETATM   10  C14 UNL     1     -13.682  15.518 -21.533  1.00  0.00     0.159 C 
HETATM   11  N4  UNL     1     -14.297  15.455 -22.835  1.00  0.00    -0.347 N 
ATOM     12  H4  UNL     1     -15.087  14.814 -22.909  1.00  0.00     0.163 HD
HETATM   13  C18 UNL     1     -13.979  16.135 -24.010  1.00  0.00     0.241 C 
HETATM   14  O4  UNL     1     -13.727  15.453 -25.076  1.00  0.00    -0.271 OA
HETATM   15  C19 UNL     1     -13.886  17.604 -24.219  1.00  0.00     0.177 C 
HETATM   16  N5  UNL     1     -14.192  17.970 -25.583  1.00  0.00    -0.346 N 
ATOM     17  H5  UNL     1     -13.410  18.245 -26.178  1.00  0.00     0.163 HD
HETATM   18  C24 UNL     1     -15.452  17.980 -26.153  1.00  0.00     0.241 C 
HETATM   19  O5  UNL     1     -15.527  17.847 -27.435  1.00  0.00    -0.271 OA
HETATM   20  C25 UNL     1     -16.769  18.122 -25.499  1.00  0.00     0.177 C 
HETATM   21  N6  UNL     1     -17.646  17.125 -26.147  1.00  0.00    -0.347 N 
ATOM     22  H6  UNL     1     -17.533  17.005 -27.154  1.00  0.00     0.163 HD
HETATM   23  C30 UNL     1     -18.617  16.327 -25.528  1.00  0.00     0.223 C 
HETATM   24  O6  UNL     1     -19.768  16.384 -26.040  1.00  0.00    -0.273 OA
HETATM   25  C31 UNL     1     -18.440  15.434 -24.357  1.00  0.00     0.085 C 
HETATM   26  C32 UNL     1     -18.179  14.070 -24.955  1.00  0.00     0.020 C 
HETATM   27  C33 UNL     1     -19.553  15.552 -23.424  1.00  0.00     0.066 C 
HETATM   28  C34 UNL     1     -20.955  15.501 -24.037  1.00  0.00     0.018 C 
HETATM   29  C35 UNL     1     -19.615  14.766 -22.204  1.00  0.00     0.154 C 
HETATM   30  O7  UNL     1     -20.634  15.041 -21.513  1.00  0.00    -0.295 OA
ENDROOT
BRANCH   1  31
HETATM   31  C5  UNL     1     -19.644  12.869 -20.740  1.00  0.00     0.152 C 
BRANCH  31  32
HETATM   32  C4  UNL     1     -19.245  11.419 -20.863  1.00  0.00     0.293 C 
HETATM   33  N1  UNL     1     -19.803  10.505 -19.911  1.00  0.00    -0.384 NA
HETATM   34  O1  UNL     1     -18.478  11.153 -21.773  1.00  0.00    -0.257 OA
BRANCH  33  35
HETATM   35  C3  UNL     1     -20.310   9.677 -19.049  1.00  0.00     0.185 C 
BRANCH  35  36
HETATM   36  C2  UNL     1     -21.617   9.000 -19.428  1.00  0.00     0.021 C 
HETATM   37  C1  UNL     1     -21.952   8.784 -20.669  1.00  0.00     0.013 C 
ENDBRANCH  35  36
ENDBRANCH  33  35
ENDBRANCH  31  32
ENDBRANCH   1  31
BRANCH   6  38
HETATM   38  C9  UNL     1     -15.988  11.693 -19.395  1.00  0.00     0.038 C 
BRANCH  38  39
HETATM   39  C10 UNL     1     -14.866  11.140 -18.644  1.00  0.00    -0.020 C 
HETATM   40  C11 UNL     1     -14.819   9.670 -18.383  1.00  0.00     0.009 C 
HETATM   41  C12 UNL     1     -14.589  11.857 -17.330  1.00  0.00     0.009 C 
ENDBRANCH  38  39
ENDBRANCH   6  38
BRANCH   9  42
HETATM   42  O3  UNL     1     -12.523  13.561 -21.436  1.00  0.00    -0.348 OA
ATOM     43  H3  UNL     1     -12.274  13.722 -22.339  1.00  0.00     0.219 HD
ENDBRANCH   9  42
BRANCH  10  44
HETATM   44  C15 UNL     1     -14.362  16.547 -20.716  1.00  0.00     0.033 C 
BRANCH  44  45
HETATM   45  C16 UNL     1     -13.581  17.830 -20.554  1.00  0.00    -0.002 C 
HETATM   46  C17 UNL     1     -14.440  18.950 -21.116  1.00  0.00     0.005 C 
ENDBRANCH  44  45
ENDBRANCH  10  44
BRANCH  20  47
HETATM   47  C26 UNL     1     -17.480  19.415 -25.746  1.00  0.00     0.038 C 
BRANCH  47  48
HETATM   48  C27 UNL     1     -17.327  20.094 -27.046  1.00  0.00    -0.020 C 
HETATM   49  C28 UNL     1     -16.063  20.995 -26.873  1.00  0.00     0.009 C 
HETATM   50  C29 UNL     1     -18.417  21.126 -27.332  1.00  0.00     0.009 C 
ENDBRANCH  47  48
ENDBRANCH  20  47
BRANCH  15  51
HETATM   51  C20 UNL     1     -12.475  18.027 -23.854  1.00  0.00     0.038 C 
BRANCH  51  52
HETATM   52  C21 UNL     1     -11.950  19.088 -24.806  1.00  0.00    -0.020 C 
HETATM   53  C22 UNL     1     -10.548  18.642 -25.194  1.00  0.00     0.009 C 
HETATM   54  C23 UNL     1     -11.834  20.431 -24.070  1.00  0.00     0.009 C 
ENDBRANCH  51  52
ENDBRANCH  15  51
TORSDOF 13
ENDMDL
MODEL 2
REMARK VINA RESULT: -8.245511238      1.881      8.471
REMARK  13 active torsions:
REMARK  status: ('A' for Active; 'I' for Inactive)
REMARK    1  A    between atoms: C2_2  and  C3_3 
REMARK    2  A    between atoms: C3_3  and  N1_4 
REMARK       I    between atoms: N1_4  and  C4_5 
REMARK    3  A    between atoms: C4_5  and  C5_7 
REMARK    4  A    between atoms: C5_7  and  C6_8 
REMARK    5  A    between atoms: C8_13  and  C9_14 
REMARK    6  A    between atoms: C9_14  and  C10_15 
REMARK    7  A    between atoms: C13_20  and  O3_21 
REMARK    8  A    between atoms: C14_23  and  C15_24 
REMARK    9  A    between atoms: C15_24  and  C16_25 
REMARK   10  A    between atoms: C19_31  and  C20_32 
REMARK   11  A    between atoms: C20_32  and  C21_33 
REMARK   12  A    between atoms: C25_40  and  C26_41 
REMARK   13  A    between atoms: C26_41  and  C27_42 
ROOT
HETATM    1  C6  UNL     1     -17.615  16.712 -24.325  1.00  0.00     0.164 C 
HETATM    2  N2  UNL     1     -16.302  16.210 -23.945  1.00  0.00    -0.347 N 
ATOM      3  H2  UNL     1     -16.165  15.208 -24.072  1.00  0.00     0.163 HD
HETATM    4  C7  UNL     1     -15.209  16.896 -23.435  1.00  0.00     0.241 C 
HETATM    5  O2  UNL     1     -14.077  16.649 -23.975  1.00  0.00    -0.271 OA
HETATM    6  C8  UNL     1     -15.166  17.896 -22.324  1.00  0.00     0.175 C 
HETATM    7  N3  UNL     1     -14.319  17.445 -21.243  1.00  0.00    -0.359 N 
ATOM      8  H3  UNL     1     -13.358  17.775 -21.319  1.00  0.00     0.162 HD
HETATM    9  C13 UNL     1     -14.542  16.661 -20.128  1.00  0.00     0.135 C 
HETATM   10  C14 UNL     1     -14.862  15.228 -19.948  1.00  0.00     0.159 C 
HETATM   11  N4  UNL     1     -16.295  15.106 -19.850  1.00  0.00    -0.347 N 
ATOM     12  H4  UNL     1     -16.823  15.691 -20.499  1.00  0.00     0.163 HD
HETATM   13  C18 UNL     1     -17.071  14.312 -19.007  1.00  0.00     0.241 C 
HETATM   14  O4  UNL     1     -17.959  14.879 -18.262  1.00  0.00    -0.271 OA
HETATM   15  C19 UNL     1     -17.020  12.836 -18.839  1.00  0.00     0.177 C 
HETATM   16  N5  UNL     1     -18.302  12.298 -18.444  1.00  0.00    -0.346 N 
ATOM     17  H5  UNL     1     -18.403  11.998 -17.474  1.00  0.00     0.163 HD
HETATM   18  C24 UNL     1     -19.404  12.154 -19.268  1.00  0.00     0.241 C 
HETATM   19  O5  UNL     1     -20.567  12.134 -18.707  1.00  0.00    -0.271 OA
HETATM   20  C25 UNL     1     -19.458  12.018 -20.738  1.00  0.00     0.177 C 
HETATM   21  N6  UNL     1     -20.571  12.885 -21.178  1.00  0.00    -0.347 N 
ATOM     22  H6  UNL     1     -21.402  12.893 -20.588  1.00  0.00     0.163 HD
HETATM   23  C30 UNL     1     -20.606  13.696 -22.320  1.00  0.00     0.223 C 
HETATM   24  O6  UNL     1     -21.600  13.519 -23.076  1.00  0.00    -0.273 OA
HETATM   25  C31 UNL     1     -19.621  14.728 -22.727  1.00  0.00     0.085 C 
HETATM   26  C32 UNL     1     -20.187  16.025 -22.194  1.00  0.00     0.020 C 
HETATM   27  C33 UNL     1     -19.337  14.658 -24.155  1.00  0.00     0.066 C 
HETATM   28  C34 UNL     1     -20.554  14.563 -25.080  1.00  0.00     0.018 C 
HETATM   29  C35 UNL     1     -18.411  15.577 -24.795  1.00  0.00     0.154 C 
HETATM   30  O7  UNL     1     -18.271  15.329 -26.024  1.00  0.00    -0.295 OA
ENDROOT
BRANCH   1  31
HETATM   31  C5  UNL     1     -17.400  17.626 -25.515  1.00  0.00     0.152 C 
BRANCH  31  32
HETATM   32  C4  UNL     1     -18.255  18.863 -25.391  1.00  0.00     0.293 C 
HETATM   33  N1  UNL     1     -18.025  19.915 -26.335  1.00  0.00    -0.384 NA
HETATM   34  O1  UNL     1     -19.076  18.854 -24.489  1.00  0.00    -0.257 OA
BRANCH  33  35
HETATM   35  C3  UNL     1     -17.815  20.869 -27.191  1.00  0.00     0.185 C 
BRANCH  35  36
HETATM   36  C2  UNL     1     -17.798  20.483 -28.662  1.00  0.00     0.021 C 
HETATM   37  C1  UNL     1     -17.304  19.350 -29.077  1.00  0.00     0.013 C 
ENDBRANCH  35  36
ENDBRANCH  33  35
ENDBRANCH  31  32
ENDBRANCH   1  31
BRANCH   6  38
HETATM   38  C9  UNL     1     -14.616  19.145 -22.966  1.00  0.00     0.038 C 
BRANCH  38  39
HETATM   39  C10 UNL     1     -13.267  19.594 -22.635  1.00  0.00    -0.020 C 
HETATM   40  C11 UNL     1     -13.067  20.487 -21.456  1.00  0.00     0.009 C 
HETATM   41  C12 UNL     1     -12.511  20.194 -23.811  1.00  0.00     0.009 C 
ENDBRANCH  38  39
ENDBRANCH   6  38
BRANCH   9  42
HETATM   42  O3  UNL     1     -14.466  17.242 -18.964  1.00  0.00    -0.348 OA
ATOM     43  H3  UNL     1     -14.599  16.699 -18.196  1.00  0.00     0.219 HD
ENDBRANCH   9  42
BRANCH  10  44
HETATM   44  C15 UNL     1     -14.352  14.265 -20.950  1.00  0.00     0.033 C 
BRANCH  44  45
HETATM   45  C16 UNL     1     -12.856  14.063 -20.915  1.00  0.00    -0.002 C 
HETATM   46  C17 UNL     1     -12.366  14.103 -22.351  1.00  0.00     0.005 C 
ENDBRANCH  44  45
ENDBRANCH  10  44
BRANCH  20  47
HETATM   47  C26 UNL     1     -19.851  10.669 -21.251  1.00  0.00     0.038 C 
BRANCH  47  48
HETATM   48  C27 UNL     1     -20.670   9.780 -20.407  1.00  0.00    -0.020 C 
HETATM   49  C28 UNL     1     -19.641   8.812 -19.741  1.00  0.00     0.009 C 
HETATM   50  C29 UNL     1     -21.546   8.813 -21.203  1.00  0.00     0.009 C 
ENDBRANCH  47  48
ENDBRANCH  20  47
BRANCH  15  51
HETATM   51  C20 UNL     1     -15.967  12.534 -17.788  1.00  0.00     0.038 C 
BRANCH  51  52
HETATM   52  C21 UNL     1     -14.818  11.727 -18.368  1.00  0.00    -0.020 C 
HETATM   53  C22 UNL     1     -15.432  10.423 -18.857  1.00  0.00     0.009 C 
HETATM   54  C23 UNL     1     -13.811  11.391 -17.258  1.00  0.00     0.009 C 
ENDBRANCH  51  52
ENDBRANCH  15  51
TORSDOF 13
ENDMDL
MODEL 3
REMARK VINA RESULT: -7.974203274      2.003      6.023
REMARK  13 active torsions:
REMARK  status: ('A' for Active; 'I' for Inactive)
REMARK    1  A    between atoms: C2_2  and  C3_3 
REMARK    2  A    between atoms: C3_3  and  N1_4 
REMARK       I    between atoms: N1_4  and  C4_5 
REMARK    3  A    between atoms: C4_5  and  C5_7 
REMARK    4  A    between atoms: C5_7  and  C6_8 
REMARK    5  A    between atoms: C8_13  and  C9_14 
REMARK    6  A    between atoms: C9_14  and  C10_15 
REMARK    7  A    between atoms: C13_20  and  O3_21 
REMARK    8  A    between atoms: C14_23  and  C15_24 
REMARK    9  A    between atoms: C15_24  and  C16_25 
REMARK   10  A    between atoms: C19_31  and  C20_32 
REMARK   11  A    between atoms: C20_32  and  C21_33 
REMARK   12  A    between atoms: C25_40  and  C26_41 
REMARK   13  A    between atoms: C26_41  and  C27_42 
ROOT
HETATM    1  C6  UNL     1     -15.187  13.221 -20.347  1.00  0.00     0.164 C 
HETATM    2  N2  UNL     1     -15.989  12.802 -21.489  1.00  0.00    -0.347 N 
ATOM      3  H2  UNL     1     -15.547  12.924 -22.399  1.00  0.00     0.163 HD
HETATM    4  C7  UNL     1     -17.267  12.262 -21.518  1.00  0.00     0.241 C 
HETATM    5  O2  UNL     1     -17.433  11.230 -22.254  1.00  0.00    -0.271 OA
HETATM    6  C8  UNL     1     -18.496  12.725 -20.803  1.00  0.00     0.175 C 
HETATM    7  N3  UNL     1     -19.541  13.086 -21.734  1.00  0.00    -0.359 N 
ATOM      8  H3  UNL     1     -20.181  12.320 -21.940  1.00  0.00     0.162 HD
HETATM    9  C13 UNL     1     -19.853  14.253 -22.404  1.00  0.00     0.135 C 
HETATM   10  C14 UNL     1     -19.177  15.013 -23.478  1.00  0.00     0.159 C 
HETATM   11  N4  UNL     1     -18.371  16.034 -22.856  1.00  0.00    -0.347 N 
ATOM     12  H4  UNL     1     -17.868  15.736 -22.020  1.00  0.00     0.163 HD
HETATM   13  C18 UNL     1     -18.171  17.364 -23.221  1.00  0.00     0.241 C 
HETATM   14  O4  UNL     1     -18.426  18.290 -22.360  1.00  0.00    -0.271 OA
HETATM   15  C19 UNL     1     -17.683  17.891 -24.522  1.00  0.00     0.177 C 
HETATM   16  N5  UNL     1     -16.991  19.150 -24.363  1.00  0.00    -0.346 N 
ATOM     17  H5  UNL     1     -17.480  19.992 -24.667  1.00  0.00     0.163 HD
HETATM   18  C24 UNL     1     -15.723  19.312 -23.834  1.00  0.00     0.241 C 
HETATM   19  O5  UNL     1     -15.438  20.458 -23.312  1.00  0.00    -0.271 OA
HETATM   20  C25 UNL     1     -14.609  18.344 -23.770  1.00  0.00     0.177 C 
HETATM   21  N6  UNL     1     -14.037  18.483 -22.415  1.00  0.00    -0.347 N 
ATOM     22  H6  UNL     1     -13.975  19.430 -22.042  1.00  0.00     0.163 HD
HETATM   23  C30 UNL     1     -13.570  17.453 -21.587  1.00  0.00     0.223 C 
HETATM   24  O6  UNL     1     -12.397  17.604 -21.149  1.00  0.00    -0.273 OA
HETATM   25  C31 UNL     1     -14.296  16.228 -21.172  1.00  0.00     0.085 C 
HETATM   26  C32 UNL     1     -14.901  16.579 -19.832  1.00  0.00     0.020 C 
HETATM   27  C33 UNL     1     -13.433  15.054 -21.229  1.00  0.00     0.066 C 
HETATM   28  C34 UNL     1     -12.050  15.202 -20.590  1.00  0.00     0.018 C 
HETATM   29  C35 UNL     1     -13.914  13.734 -20.857  1.00  0.00     0.154 C 
HETATM   30  O7  UNL     1     -13.031  12.847 -21.012  1.00  0.00    -0.295 OA
ENDROOT
BRANCH   1  31
HETATM   31  C5  UNL     1     -14.874  11.966 -19.555  1.00  0.00     0.152 C 
BRANCH  31  32
HETATM   32  C4  UNL     1     -15.026  12.225 -18.076  1.00  0.00     0.293 C 
HETATM   33  N1  UNL     1     -14.776  11.127 -17.192  1.00  0.00    -0.384 NA
HETATM   34  O1  UNL     1     -15.348  13.359 -17.765  1.00  0.00    -0.257 OA
BRANCH  33  35
HETATM   35  C3  UNL     1     -14.549  10.130 -16.390  1.00  0.00     0.185 C 
BRANCH  35  36
HETATM   36  C2  UNL     1     -13.738   8.970 -16.944  1.00  0.00     0.021 C 
HETATM   37  C1  UNL     1     -13.959   8.471 -18.128  1.00  0.00     0.013 C 
ENDBRANCH  35  36
ENDBRANCH  33  35
ENDBRANCH  31  32
ENDBRANCH   1  31
BRANCH   6  38
HETATM   38  C9  UNL     1     -18.902  11.545 -19.956  1.00  0.00     0.038 C 
BRANCH  38  39
HETATM   39  C10 UNL     1     -20.255  11.008 -20.064  1.00  0.00    -0.020 C 
HETATM   40  C11 UNL     1     -21.099  10.911 -18.837  1.00  0.00     0.009 C 
HETATM   41  C12 UNL     1     -20.333   9.675 -20.794  1.00  0.00     0.009 C 
ENDBRANCH  38  39
ENDBRANCH   6  38
BRANCH   9  42
HETATM   42  O3  UNL     1     -20.957  14.858 -22.068  1.00  0.00    -0.348 OA
ATOM     43  H3  UNL     1     -20.925  15.439 -21.317  1.00  0.00     0.219 HD
ENDBRANCH   9  42
BRANCH  10  44
HETATM   44  C15 UNL     1     -18.357  14.264 -24.457  1.00  0.00     0.033 C 
BRANCH  44  45
HETATM   45  C16 UNL     1     -18.891  14.293 -25.869  1.00  0.00    -0.002 C 
HETATM   46  C17 UNL     1     -20.262  14.945 -25.815  1.00  0.00     0.005 C 
ENDBRANCH  44  45
ENDBRANCH  10  44
BRANCH  20  47
HETATM   47  C26 UNL     1     -13.446  18.633 -24.664  1.00  0.00     0.038 C 
BRANCH  47  48
HETATM   48  C27 UNL     1     -12.770  17.524 -25.363  1.00  0.00    -0.020 C 
HETATM   49  C28 UNL     1     -11.277  17.971 -25.458  1.00  0.00     0.009 C 
HETATM   50  C29 UNL     1     -13.160  17.398 -26.835  1.00  0.00     0.009 C 
ENDBRANCH  47  48
ENDBRANCH  20  47
BRANCH  15  51
HETATM   51  C20 UNL     1     -18.889  18.055 -25.429  1.00  0.00     0.038 C 
BRANCH  51  52
HETATM   52  C21 UNL     1     -18.473  18.267 -26.874  1.00  0.00    -0.020 C 
HETATM   53  C22 UNL     1     -17.096  17.636 -27.007  1.00  0.00     0.009 C 
HETATM   54  C23 UNL     1     -18.335  19.771 -27.157  1.00  0.00     0.009 C 
ENDBRANCH  51  52
ENDBRANCH  15  51
TORSDOF 13
ENDMDL
MODEL 4
REMARK VINA RESULT: -7.274319158      2.133      9.522
REMARK  13 active torsions:
REMARK  status: ('A' for Active; 'I' for Inactive)
REMARK    1  A    between atoms: C2_2  and  C3_3 
REMARK    2  A    between atoms: C3_3  and  N1_4 
REMARK       I    between atoms: N1_4  and  C4_5 
REMARK    3  A    between atoms: C4_5  and  C5_7 
REMARK    4  A    between atoms: C5_7  and  C6_8 
REMARK    5  A    between atoms: C8_13  and  C9_14 
REMARK    6  A    between atoms: C9_14  and  C10_15 
REMARK    7  A    between atoms: C13_20  and  O3_21 
REMARK    8  A    between atoms: C14_23  and  C15_24 
REMARK    9  A    between atoms: C15_24  and  C16_25 
REMARK   10  A    between atoms: C19_31  and  C20_32 
REMARK   11  A    between atoms: C20_32  and  C21_33 
REMARK   12  A    between atoms: C25_40  and  C26_41 
REMARK   13  A    between atoms: C26_41  and  C27_42 
ROOT
HETATM    1  C6  UNL     1     -15.543  17.973 -23.600  1.00  0.00     0.164 C 
HETATM    2  N2  UNL     1     -16.988  17.875 -23.443  1.00  0.00    -0.347 N 
ATOM      3  H2  UNL     1     -17.319  17.829 -22.480  1.00  0.00     0.163 HD
HETATM    4  C7  UNL     1     -17.980  17.837 -24.412  1.00  0.00     0.241 C 
HETATM    5  O2  UNL     1     -18.985  18.607 -24.230  1.00  0.00    -0.271 OA
HETATM    6  C8  UNL     1     -18.043  17.009 -25.656  1.00  0.00     0.175 C 
HETATM    7  N3  UNL     1     -19.194  16.135 -25.648  1.00  0.00    -0.359 N 
ATOM      8  H3  UNL     1     -20.011  16.539 -26.105  1.00  0.00     0.162 HD
HETATM    9  C13 UNL     1     -19.418  14.866 -25.149  1.00  0.00     0.135 C 
HETATM   10  C14 UNL     1     -19.486  14.317 -23.777  1.00  0.00     0.159 C 
HETATM   11  N4  UNL     1     -18.180  13.806 -23.442  1.00  0.00    -0.347 N 
ATOM     12  H4  UNL     1     -17.399  14.388 -23.743  1.00  0.00     0.163 HD
HETATM   13  C18 UNL     1     -17.821  12.638 -22.771  1.00  0.00     0.241 C 
HETATM   14  O4  UNL     1     -17.021  11.808 -23.351  1.00  0.00    -0.271 OA
HETATM   15  C19 UNL     1     -18.248  12.193 -21.419  1.00  0.00     0.177 C 
HETATM   16  N5  UNL     1     -17.249  11.360 -20.790  1.00  0.00    -0.346 N 
ATOM     17  H5  UNL     1     -17.443  10.359 -20.736  1.00  0.00     0.163 HD
HETATM   18  C24 UNL     1     -16.051  11.800 -20.255  1.00  0.00     0.241 C 
HETATM   19  O5  UNL     1     -15.083  10.949 -20.182  1.00  0.00    -0.271 OA
HETATM   20  C25 UNL     1     -15.697  13.138 -19.740  1.00  0.00     0.177 C 
HETATM   21  N6  UNL     1     -14.345  13.422 -20.262  1.00  0.00    -0.347 N 
ATOM     22  H6  UNL     1     -13.690  12.640 -20.280  1.00  0.00     0.163 HD
HETATM   23  C30 UNL     1     -13.864  14.650 -20.736  1.00  0.00     0.223 C 
HETATM   24  O6  UNL     1     -12.793  15.051 -20.204  1.00  0.00    -0.273 OA
HETATM   25  C31 UNL     1     -14.466  15.514 -21.780  1.00  0.00     0.085 C 
HETATM   26  C32 UNL     1     -13.754  15.122 -23.055  1.00  0.00     0.020 C 
HETATM   27  C33 UNL     1     -14.426  16.920 -21.396  1.00  0.00     0.066 C 
HETATM   28  C34 UNL     1     -13.086  17.434 -20.862  1.00  0.00     0.018 C 
HETATM   29  C35 UNL     1     -14.945  17.964 -22.264  1.00  0.00     0.154 C 
HETATM   30  O7  UNL     1     -14.854  19.106 -21.737  1.00  0.00    -0.295 OA
ENDROOT
BRANCH   1  31
HETATM   31  C5  UNL     1     -15.265  19.337 -24.201  1.00  0.00     0.152 C 
BRANCH  31  32
HETATM   32  C4  UNL     1     -13.905  19.357 -24.854  1.00  0.00     0.293 C 
HETATM   33  N1  UNL     1     -13.552  18.232 -25.666  1.00  0.00    -0.384 NA
HETATM   34  O1  UNL     1     -13.222  20.343 -24.630  1.00  0.00    -0.257 OA
BRANCH  33  35
HETATM   35  C3  UNL     1     -13.233  17.211 -26.403  1.00  0.00     0.185 C 
BRANCH  35  36
HETATM   36  C2  UNL     1     -12.394  17.488 -27.639  1.00  0.00     0.021 C 
HETATM   37  C1  UNL     1     -12.438  18.630 -28.266  1.00  0.00     0.013 C 
ENDBRANCH  35  36
ENDBRANCH  33  35
ENDBRANCH  31  32
ENDBRANCH   1  31
BRANCH   6  38
HETATM   38  C9  UNL     1     -18.130  18.018 -26.773  1.00  0.00     0.038 C 
BRANCH  38  39
HETATM   39  C10 UNL     1     -17.033  18.957 -26.987  1.00  0.00    -0.020 C 
HETATM   40  C11 UNL     1     -17.322  20.422 -27.003  1.00  0.00     0.009 C 
HETATM   41  C12 UNL     1     -16.174  18.636 -28.201  1.00  0.00     0.009 C 
ENDBRANCH  38  39
ENDBRANCH   6  38
BRANCH   9  42
HETATM   42  O3  UNL     1     -19.621  13.912 -26.013  1.00  0.00    -0.348 OA
ATOM     43  H3  UNL     1     -20.126  13.162 -25.724  1.00  0.00     0.219 HD
ENDBRANCH   9  42
BRANCH  10  44
HETATM   44  C15 UNL     1     -19.962  15.203 -22.691  1.00  0.00     0.033 C 
BRANCH  44  45
HETATM   45  C16 UNL     1     -21.328  14.849 -22.152  1.00  0.00    -0.002 C 
HETATM   46  C17 UNL     1     -22.344  15.263 -23.202  1.00  0.00     0.005 C 
ENDBRANCH  44  45
ENDBRANCH  10  44
BRANCH  20  47
HETATM   47  C26 UNL     1     -15.520  13.237 -18.258  1.00  0.00     0.038 C 
BRANCH  47  48
HETATM   48  C27 UNL     1     -16.672  12.997 -17.369  1.00  0.00    -0.020 C 
HETATM   49  C28 UNL     1     -16.824  11.442 -17.336  1.00  0.00     0.009 C 
HETATM   50  C29 UNL     1     -18.009  13.435 -17.964  1.00  0.00     0.009 C 
ENDBRANCH  47  48
ENDBRANCH  20  47
BRANCH  15  51
HETATM   51  C20 UNL     1     -19.553  11.435 -21.580  1.00  0.00     0.038 C 
BRANCH  51  52
HETATM   52  C21 UNL     1     -19.748  10.421 -20.465  1.00  0.00    -0.020 C 
HETATM   53  C22 UNL     1     -20.616   9.319 -21.052  1.00  0.00     0.009 C 
HETATM   54  C23 UNL     1     -20.522  11.069 -19.307  1.00  0.00     0.009 C 
ENDBRANCH  51  52
ENDBRANCH  15  51
TORSDOF 13
ENDMDL
MODEL 5
REMARK VINA RESULT: -7.190362984      4.277     12.439
REMARK  13 active torsions:
REMARK  status: ('A' for Active; 'I' for Inactive)
REMARK    1  A    between atoms: C2_2  and  C3_3 
REMARK    2  A    between atoms: C3_3  and  N1_4 
REMARK       I    between atoms: N1_4  and  C4_5 
REMARK    3  A    between atoms: C4_5  and  C5_7 
REMARK    4  A    between atoms: C5_7  and  C6_8 
REMARK    5  A    between atoms: C8_13  and  C9_14 
REMARK    6  A    between atoms: C9_14  and  C10_15 
REMARK    7  A    between atoms: C13_20  and  O3_21 
REMARK    8  A    between atoms: C14_23  and  C15_24 
REMARK    9  A    between atoms: C15_24  and  C16_25 
REMARK   10  A    between atoms: C19_31  and  C20_32 
REMARK   11  A    between atoms: C20_32  and  C21_33 
REMARK   12  A    between atoms: C25_40  and  C26_41 
REMARK   13  A    between atoms: C26_41  and  C27_42 
ROOT
HETATM    1  C6  UNL     1     -16.659  11.665 -18.422  1.00  0.00     0.164 C 
HETATM    2  N2  UNL     1     -18.077  11.619 -18.092  1.00  0.00    -0.347 N 
ATOM      3  H2  UNL     1     -18.293  11.321 -17.141  1.00  0.00     0.163 HD
HETATM    4  C7  UNL     1     -19.177  11.921 -18.882  1.00  0.00     0.241 C 
HETATM    5  O2  UNL     1     -20.070  12.669 -18.355  1.00  0.00    -0.271 OA
HETATM    6  C8  UNL     1     -19.471  11.487 -20.283  1.00  0.00     0.175 C 
HETATM    7  N3  UNL     1     -20.696  10.722 -20.349  1.00  0.00    -0.359 N 
ATOM      8  H3  UNL     1     -21.516  11.290 -20.556  1.00  0.00     0.162 HD
HETATM    9  C13 UNL     1     -20.986   9.380 -20.190  1.00  0.00     0.135 C 
HETATM   10  C14 UNL     1     -20.944   8.469 -19.026  1.00  0.00     0.159 C 
HETATM   11  N4  UNL     1     -19.666   7.801 -19.035  1.00  0.00    -0.347 N 
ATOM     12  H4  UNL     1     -18.871   8.395 -19.273  1.00  0.00     0.163 HD
HETATM   13  C18 UNL     1     -19.348   6.470 -18.767  1.00  0.00     0.241 C 
HETATM   14  O4  UNL     1     -18.711   5.791 -19.660  1.00  0.00    -0.271 OA
HETATM   15  C19 UNL     1     -19.653   5.687 -17.542  1.00  0.00     0.177 C 
HETATM   16  N5  UNL     1     -18.675   4.647 -17.315  1.00  0.00    -0.346 N 
ATOM     17  H5  UNL     1     -18.961   3.688 -17.510  1.00  0.00     0.163 HD
HETATM   18  C24 UNL     1     -17.384   4.840 -16.857  1.00  0.00     0.241 C 
HETATM   19  O5  UNL     1     -16.505   3.944 -17.159  1.00  0.00    -0.271 OA
HETATM   20  C25 UNL     1     -16.837   5.951 -16.052  1.00  0.00     0.177 C 
HETATM   21  N6  UNL     1     -15.535   6.286 -16.665  1.00  0.00    -0.347 N 
ATOM     22  H6  UNL     1     -14.970   5.501 -16.990  1.00  0.00     0.163 HD
HETATM   23  C30 UNL     1     -14.993   7.565 -16.848  1.00  0.00     0.223 C 
HETATM   24  O6  UNL     1     -13.831   7.729 -16.386  1.00  0.00    -0.273 OA
HETATM   25  C31 UNL     1     -15.626   8.727 -17.518  1.00  0.00     0.085 C 
HETATM   26  C32 UNL     1     -15.114   8.670 -18.940  1.00  0.00     0.020 C 
HETATM   27  C33 UNL     1     -15.398   9.960 -16.774  1.00  0.00     0.066 C 
HETATM   28  C34 UNL     1     -13.959  10.215 -16.317  1.00  0.00     0.018 C 
HETATM   29  C35 UNL     1     -15.909  11.238 -17.239  1.00  0.00     0.154 C 
HETATM   30  O7  UNL     1     -15.641  12.175 -16.439  1.00  0.00    -0.295 OA
ENDROOT
BRANCH   1  31
HETATM   31  C5  UNL     1     -16.318  13.123 -18.660  1.00  0.00     0.152 C 
BRANCH  31  32
HETATM   32  C4  UNL     1     -15.210  13.246 -19.677  1.00  0.00     0.293 C 
HETATM   33  N1  UNL     1     -14.835  14.568 -20.078  1.00  0.00    -0.384 NA
HETATM   34  O1  UNL     1     -14.727  12.196 -20.067  1.00  0.00    -0.257 OA
BRANCH  33  35
HETATM   35  C3  UNL     1     -14.495  15.768 -20.441  1.00  0.00     0.185 C 
BRANCH  35  36
HETATM   36  C2  UNL     1     -13.109  15.940 -21.042  1.00  0.00     0.021 C 
HETATM   37  C1  UNL     1     -12.456  14.946 -21.577  1.00  0.00     0.013 C 
ENDBRANCH  35  36
ENDBRANCH  33  35
ENDBRANCH  31  32
ENDBRANCH   1  31
BRANCH   6  38
HETATM   38  C9  UNL     1     -19.589  12.776 -21.056  1.00  0.00     0.038 C 
BRANCH  38  39
HETATM   39  C10 UNL     1     -18.572  13.123 -22.043  1.00  0.00    -0.020 C 
HETATM   40  C11 UNL     1     -17.444  12.177 -22.288  1.00  0.00     0.009 C 
HETATM   41  C12 UNL     1     -17.984  14.515 -21.860  1.00  0.00     0.009 C 
ENDBRANCH  38  39
ENDBRANCH   6  38
BRANCH   9  42
HETATM   42  O3  UNL     1     -21.385   8.727 -21.244  1.00  0.00    -0.348 OA
ATOM     43  H3  UNL     1     -21.932   7.964 -21.102  1.00  0.00     0.219 HD
ENDBRANCH   9  42
BRANCH  10  44
HETATM   44  C15 UNL     1     -21.194   9.036 -17.682  1.00  0.00     0.033 C 
BRANCH  44  45
HETATM   45  C16 UNL     1     -22.105   8.202 -16.813  1.00  0.00    -0.002 C 
HETATM   46  C17 UNL     1     -21.485   8.160 -15.427  1.00  0.00     0.005 C 
ENDBRANCH  44  45
ENDBRANCH  10  44
BRANCH  20  47
HETATM   47  C26 UNL     1     -16.474   5.612 -14.641  1.00  0.00     0.038 C 
BRANCH  47  48
HETATM   48  C27 UNL     1     -16.483   4.204 -14.205  1.00  0.00    -0.020 C 
HETATM   49  C28 UNL     1     -16.621   4.274 -12.650  1.00  0.00     0.009 C 
HETATM   50  C29 UNL     1     -15.136   3.500 -14.373  1.00  0.00     0.009 C 
ENDBRANCH  47  48
ENDBRANCH  20  47
BRANCH  15  51
HETATM   51  C20 UNL     1     -21.037   5.090 -17.716  1.00  0.00     0.038 C 
BRANCH  51  52
HETATM   52  C21 UNL     1     -21.006   3.575 -17.613  1.00  0.00    -0.020 C 
HETATM   53  C22 UNL     1     -21.317   3.057 -19.009  1.00  0.00     0.009 C 
HETATM   54  C23 UNL     1     -22.121   3.097 -16.671  1.00  0.00     0.009 C 
ENDBRANCH  51  52
ENDBRANCH  15  51
TORSDOF 13
ENDMDL
