MODEL 1
REMARK VINA RESULT: -9.041064891      0.000      0.000
REMARK  11 active torsions:
REMARK  status: ('A' for Active; 'I' for Inactive)
REMARK    1  A    between atoms: O1_2  and  C2_3 
REMARK    2  A    between atoms: C2_3  and  C3_4 
REMARK    3  A    between atoms: C3_4  and  N1_5 
REMARK    4  A    between atoms: C4_6  and  C5_7 
REMARK       I    between atoms: C5_7  and  N2_9 
REMARK    5  A    between atoms: N2_9  and  C6_11 
REMARK    6  A    between atoms: C6_11  and  C7_12 
REMARK    7  A    between atoms: C7_12  and  C8_13 
REMARK    8  A    between atoms: C8_13  and  C9_14 
REMARK       I    between atoms: C9_14  and  N3_16 
REMARK    9  A    between atoms: N3_16  and  C10_18 
REMARK   10  A    between atoms: C10_18  and  C11_19 
REMARK   11  A    between atoms: C15_23  and  N4_24 
ROOT
HETATM    1  C5  UNL     1     -18.349  13.214 -22.175  1.00  0.00     0.268 C 
HETATM    2  O2  UNL     1     -17.484  12.363 -22.567  1.00  0.00    -0.266 OA
HETATM    3  N2  UNL     1     -19.167  12.855 -21.107  1.00  0.00    -0.356 N 
ATOM      4  H2  UNL     1     -19.855  13.529 -20.773  1.00  0.00     0.162 HD
ENDROOT
BRANCH   3   5
HETATM    5  C6  UNL     1     -19.085  11.556 -20.444  1.00  0.00     0.123 C 
BRANCH   5   6
HETATM    6  C7  UNL     1     -19.239  11.647 -18.961  1.00  0.00     0.029 C 
BRANCH   6   7
HETATM    7  C8  UNL     1     -18.338  12.596 -18.264  1.00  0.00     0.104 C 
BRANCH   7   8
HETATM    8  C9  UNL     1     -17.095  12.017 -17.714  1.00  0.00     0.217 C 
HETATM    9  O3  UNL     1     -16.050  12.678 -17.514  1.00  0.00    -0.274 OA
HETATM   10  N3  UNL     1     -17.061  10.643 -17.388  1.00  0.00    -0.361 N 
ATOM     11  H3  UNL     1     -17.906  10.093 -17.541  1.00  0.00     0.162 HD
BRANCH  10  12
HETATM   12  C10 UNL     1     -15.920   9.984 -16.860  1.00  0.00     0.127 C 
BRANCH  12  13
HETATM   13  C11 UNL     1     -15.955   8.476 -16.912  1.00  0.00     0.005 C 
HETATM   14  C12 UNL     1     -14.512   8.022 -17.030  1.00  0.00     0.006 C 
HETATM   15  C13 UNL     1     -13.734   8.180 -15.766  1.00  0.00     0.002 C 
HETATM   16  C14 UNL     1     -14.559   8.105 -14.524  1.00  0.00     0.036 C 
HETATM   17  C15 UNL     1     -15.780   7.233 -14.721  1.00  0.00     0.223 C 
HETATM   18  C21 UNL     1     -16.665   7.880 -15.725  1.00  0.00     0.042 C 
BRANCH  17  19
HETATM   19  N4  UNL     1     -15.323   5.907 -15.053  1.00  0.00     0.093 N 
HETATM   20  C16 UNL     1     -14.921   5.292 -13.778  1.00  0.00     0.273 C 
HETATM   21  C17 UNL     1     -15.284   3.839 -13.700  1.00  0.00     0.030 C 
HETATM   22  C18 UNL     1     -14.905   3.157 -14.980  1.00  0.00     0.003 C 
HETATM   23  C19 UNL     1     -15.672   3.786 -16.096  1.00  0.00     0.030 C 
HETATM   24  C20 UNL     1     -16.361   5.061 -15.592  1.00  0.00     0.273 C 
ENDBRANCH  17  19
ENDBRANCH  12  13
ENDBRANCH  10  12
ENDBRANCH   7   8
ENDBRANCH   6   7
ENDBRANCH   5   6
ENDBRANCH   3   5
BRANCH   1  25
HETATM   25  C4  UNL     1     -18.398  14.472 -22.861  1.00  0.00     0.108 A 
HETATM   26  N1  UNL     1     -17.498  15.430 -22.718  1.00  0.00    -0.307 N 
HETATM   27  C27 UNL     1     -17.566  16.575 -23.483  1.00  0.00     0.262 A 
HETATM   28  C26 UNL     1     -18.581  16.706 -24.388  1.00  0.00     0.084 A 
HETATM   29  O4  UNL     1     -16.679  17.463 -23.315  1.00  0.00    -0.267 OA
HETATM   30  C23 UNL     1     -19.548  15.742 -24.577  1.00  0.00     0.068 A 
HETATM   31  C24 UNL     1     -18.898  17.724 -25.275  1.00  0.00     0.040 A 
HETATM   32  C22 UNL     1     -19.454  14.619 -23.807  1.00  0.00     0.067 A 
HETATM   33  N5  UNL     1     -20.393  16.181 -25.533  1.00  0.00    -0.300 N 
HETATM   34  N6  UNL     1     -19.989  17.372 -25.941  1.00  0.00    -0.304 N 
ATOM     35  H5  UNL     1     -21.208  15.678 -25.882  1.00  0.00     0.187 HD
ATOM     36  H6  UNL     1     -20.447  17.934 -26.658  1.00  0.00     0.186 HD
HETATM   37  C25 UNL     1     -18.120  18.980 -25.419  1.00  0.00     0.071 C 
BRANCH  26  38
HETATM   38  C3  UNL     1     -16.458  15.382 -21.727  1.00  0.00     0.159 C 
BRANCH  38  39
HETATM   39  C2  UNL     1     -15.164  14.974 -22.464  1.00  0.00     0.187 C 
BRANCH  39  40
HETATM   40  O1  UNL     1     -14.613  13.818 -21.984  1.00  0.00    -0.394 OA
HETATM   41  C1  UNL     1     -14.795  13.628 -20.632  1.00  0.00     0.201 C 
ENDBRANCH  39  40
ENDBRANCH  38  39
ENDBRANCH  26  38
ENDBRANCH   1  25
TORSDOF 11
ENDMDL
MODEL 2
REMARK VINA RESULT: -9.031867627      3.310     11.197
REMARK  11 active torsions:
REMARK  status: ('A' for Active; 'I' for Inactive)
REMARK    1  A    between atoms: O1_2  and  C2_3 
REMARK    2  A    between atoms: C2_3  and  C3_4 
REMARK    3  A    between atoms: C3_4  and  N1_5 
REMARK    4  A    between atoms: C4_6  and  C5_7 
REMARK       I    between atoms: C5_7  and  N2_9 
REMARK    5  A    between atoms: N2_9  and  C6_11 
REMARK    6  A    between atoms: C6_11  and  C7_12 
REMARK    7  A    between atoms: C7_12  and  C8_13 
REMARK    8  A    between atoms: C8_13  and  C9_14 
REMARK       I    between atoms: C9_14  and  N3_16 
REMARK    9  A    between atoms: N3_16  and  C10_18 
REMARK   10  A    between atoms: C10_18  and  C11_19 
REMARK   11  A    between atoms: C15_23  and  N4_24 
ROOT
HETATM    1  C5  UNL     1     -17.589   9.336 -18.206  1.00  0.00     0.268 C 
HETATM    2  O2  UNL     1     -17.131   9.354 -19.396  1.00  0.00    -0.266 OA
HETATM    3  N2  UNL     1     -18.856   9.875 -17.995  1.00  0.00    -0.356 N 
ATOM      4  H2  UNL     1     -19.242   9.856 -17.052  1.00  0.00     0.162 HD
ENDROOT
BRANCH   3   5
HETATM    5  C6  UNL     1     -19.656  10.465 -19.065  1.00  0.00     0.123 C 
BRANCH   5   6
HETATM    6  C7  UNL     1     -19.549  11.954 -19.120  1.00  0.00     0.029 C 
BRANCH   6   7
HETATM    7  C8  UNL     1     -18.599  12.508 -20.114  1.00  0.00     0.104 C 
BRANCH   7   8
HETATM    8  C9  UNL     1     -17.589  13.448 -19.585  1.00  0.00     0.217 C 
HETATM    9  O3  UNL     1     -17.825  14.284 -18.684  1.00  0.00    -0.274 OA
HETATM   10  N3  UNL     1     -16.279  13.420 -20.112  1.00  0.00    -0.361 N 
ATOM     11  H3  UNL     1     -16.071  12.740 -20.844  1.00  0.00     0.162 HD
BRANCH  10  12
HETATM   12  C10 UNL     1     -15.235  14.280 -19.682  1.00  0.00     0.127 C 
BRANCH  12  13
HETATM   13  C11 UNL     1     -15.040  15.530 -20.504  1.00  0.00     0.005 C 
HETATM   14  C12 UNL     1     -13.635  16.020 -20.204  1.00  0.00     0.006 C 
HETATM   15  C13 UNL     1     -12.568  15.179 -20.825  1.00  0.00     0.002 C 
HETATM   16  C14 UNL     1     -12.986  14.483 -22.077  1.00  0.00     0.036 C 
HETATM   17  C15 UNL     1     -14.055  15.260 -22.813  1.00  0.00     0.223 C 
HETATM   18  C21 UNL     1     -15.280  15.293 -21.971  1.00  0.00     0.042 C 
BRANCH  17  19
HETATM   19  N4  UNL     1     -13.503  16.545 -23.161  1.00  0.00     0.093 N 
HETATM   20  C16 UNL     1     -12.691  16.318 -24.368  1.00  0.00     0.273 C 
HETATM   21  C17 UNL     1     -12.792  17.445 -25.352  1.00  0.00     0.030 C 
HETATM   22  C18 UNL     1     -12.662  18.753 -24.631  1.00  0.00     0.003 C 
HETATM   23  C19 UNL     1     -13.781  18.868 -23.650  1.00  0.00     0.030 C 
HETATM   24  C20 UNL     1     -14.503  17.518 -23.533  1.00  0.00     0.273 C 
ENDBRANCH  17  19
ENDBRANCH  12  13
ENDBRANCH  10  12
ENDBRANCH   7   8
ENDBRANCH   6   7
ENDBRANCH   5   6
ENDBRANCH   3   5
BRANCH   1  25
HETATM   25  C4  UNL     1     -16.764   8.754 -17.187  1.00  0.00     0.108 A 
HETATM   26  N1  UNL     1     -16.946   7.543 -16.688  1.00  0.00    -0.307 N 
HETATM   27  C27 UNL     1     -16.055   7.019 -15.777  1.00  0.00     0.262 A 
HETATM   28  C26 UNL     1     -14.982   7.773 -15.394  1.00  0.00     0.084 A 
HETATM   29  O4  UNL     1     -16.266   5.853 -15.332  1.00  0.00    -0.267 OA
HETATM   30  C23 UNL     1     -14.743   9.042 -15.878  1.00  0.00     0.068 A 
HETATM   31  C24 UNL     1     -13.943   7.514 -14.512  1.00  0.00     0.040 A 
HETATM   32  C22 UNL     1     -15.642   9.533 -16.780  1.00  0.00     0.067 A 
HETATM   33  N5  UNL     1     -13.615   9.503 -15.301  1.00  0.00    -0.300 N 
HETATM   34  N6  UNL     1     -13.146   8.575 -14.485  1.00  0.00    -0.304 N 
ATOM     35  H5  UNL     1     -13.192  10.416 -15.468  1.00  0.00     0.187 HD
ATOM     36  H6  UNL     1     -12.302   8.661 -13.919  1.00  0.00     0.186 HD
HETATM   37  C25 UNL     1     -13.788   6.251 -13.748  1.00  0.00     0.071 C 
BRANCH  26  38
HETATM   38  C3  UNL     1     -18.097   6.738 -16.994  1.00  0.00     0.159 C 
BRANCH  38  39
HETATM   39  C2  UNL     1     -19.103   6.949 -15.842  1.00  0.00     0.187 C 
BRANCH  39  40
HETATM   40  O1  UNL     1     -20.108   7.820 -16.157  1.00  0.00    -0.394 OA
HETATM   41  C1  UNL     1     -21.165   7.801 -15.274  1.00  0.00     0.201 C 
ENDBRANCH  39  40
ENDBRANCH  38  39
ENDBRANCH  26  38
ENDBRANCH   1  25
TORSDOF 11
ENDMDL
MODEL 3
REMARK VINA RESULT: -8.939230645      3.334      6.588
REMARK  11 active torsions:
REMARK  status: ('A' for Active; 'I' for Inactive)
REMARK    1  A    between atoms: O1_2  and  C2_3 
REMARK    2  A    between atoms: C2_3  and  C3_4 
REMARK    3  A    between atoms: C3_4  and  N1_5 
REMARK    4  A    between atoms: C4_6  and  C5_7 
REMARK       I    between atoms: C5_7  and  N2_9 
REMARK    5  A    between atoms: N2_9  and  C6_11 
REMARK    6  A    between atoms: C6_11  and  C7_12 
REMARK    7  A    between atoms: C7_12  and  C8_13 
REMARK    8  A    between atoms: C8_13  and  C9_14 
REMARK       I    between atoms: C9_14  and  N3_16 
REMARK    9  A    between atoms: N3_16  and  C10_18 
REMARK   10  A    between atoms: C10_18  and  C11_19 
REMARK   11  A    between atoms: C15_23  and  N4_24 
ROOT
HETATM    1  C5  UNL     1     -18.191  18.174 -24.923  1.00  0.00     0.268 C 
HETATM    2  O2  UNL     1     -19.213  18.889 -24.656  1.00  0.00    -0.266 OA
HETATM    3  N2  UNL     1     -18.401  16.985 -25.617  1.00  0.00    -0.356 N 
ATOM      4  H2  UNL     1     -17.593  16.408 -25.850  1.00  0.00     0.162 HD
ENDROOT
BRANCH   3   5
HETATM    5  C6  UNL     1     -19.726  16.525 -26.024  1.00  0.00     0.123 C 
BRANCH   5   6
HETATM    6  C7  UNL     1     -20.480  15.863 -24.917  1.00  0.00     0.029 C 
BRANCH   6   7
HETATM    7  C8  UNL     1     -20.001  14.520 -24.509  1.00  0.00     0.104 C 
BRANCH   7   8
HETATM    8  C9  UNL     1     -18.910  14.502 -23.512  1.00  0.00     0.217 C 
HETATM    9  O3  UNL     1     -17.726  14.813 -23.774  1.00  0.00    -0.274 OA
HETATM   10  N3  UNL     1     -19.197  14.115 -22.185  1.00  0.00    -0.361 N 
ATOM     11  H3  UNL     1     -20.158  13.863 -21.955  1.00  0.00     0.162 HD
BRANCH  10  12
HETATM   12  C10 UNL     1     -18.226  14.057 -21.151  1.00  0.00     0.127 C 
BRANCH  12  13
HETATM   13  C11 UNL     1     -17.806  12.671 -20.727  1.00  0.00     0.005 C 
HETATM   14  C12 UNL     1     -16.585  12.324 -21.559  1.00  0.00     0.006 C 
HETATM   15  C13 UNL     1     -15.355  13.063 -21.144  1.00  0.00     0.002 C 
HETATM   16  C14 UNL     1     -15.331  13.454 -19.704  1.00  0.00     0.036 C 
HETATM   17  C15 UNL     1     -16.124  12.487 -18.853  1.00  0.00     0.223 C 
HETATM   18  C21 UNL     1     -17.555  12.577 -19.246  1.00  0.00     0.042 C 
BRANCH  17  19
HETATM   19  N4  UNL     1     -15.520  11.186 -18.989  1.00  0.00     0.093 N 
HETATM   20  C16 UNL     1     -14.380  11.175 -18.057  1.00  0.00     0.273 C 
HETATM   21  C17 UNL     1     -14.206   9.852 -17.374  1.00  0.00     0.030 C 
HETATM   22  C18 UNL     1     -14.324   8.748 -18.380  1.00  0.00     0.003 C 
HETATM   23  C19 UNL     1     -15.688   8.802 -18.985  1.00  0.00     0.030 C 
HETATM   24  C20 UNL     1     -16.383  10.106 -18.570  1.00  0.00     0.273 C 
ENDBRANCH  17  19
ENDBRANCH  12  13
ENDBRANCH  10  12
ENDBRANCH   7   8
ENDBRANCH   6   7
ENDBRANCH   5   6
ENDBRANCH   3   5
BRANCH   1  25
HETATM   25  C4  UNL     1     -16.912  18.661 -24.496  1.00  0.00     0.108 A 
HETATM   26  N1  UNL     1     -16.123  19.421 -25.237  1.00  0.00    -0.307 N 
HETATM   27  C27 UNL     1     -14.949  19.925 -24.720  1.00  0.00     0.262 A 
HETATM   28  C26 UNL     1     -14.611  19.624 -23.431  1.00  0.00     0.084 A 
HETATM   29  O4  UNL     1     -14.228  20.652 -25.464  1.00  0.00    -0.267 OA
HETATM   30  C23 UNL     1     -15.393  18.835 -22.614  1.00  0.00     0.068 A 
HETATM   31  C24 UNL     1     -13.515  19.980 -22.659  1.00  0.00     0.040 A 
HETATM   32  C22 UNL     1     -16.549  18.352 -23.152  1.00  0.00     0.067 A 
HETATM   33  N5  UNL     1     -14.777  18.735 -21.418  1.00  0.00    -0.300 N 
HETATM   34  N6  UNL     1     -13.652  19.428 -21.461  1.00  0.00    -0.304 N 
ATOM     35  H5  UNL     1     -15.123  18.213 -20.613  1.00  0.00     0.187 HD
ATOM     36  H6  UNL     1     -12.990  19.523 -20.691  1.00  0.00     0.186 HD
HETATM   37  C25 UNL     1     -12.399  20.836 -23.135  1.00  0.00     0.071 C 
BRANCH  26  38
HETATM   38  C3  UNL     1     -16.387  19.703 -26.621  1.00  0.00     0.159 C 
BRANCH  38  39
HETATM   39  C2  UNL     1     -15.552  18.701 -27.445  1.00  0.00     0.187 C 
BRANCH  39  40
HETATM   40  O1  UNL     1     -15.881  18.690 -28.773  1.00  0.00    -0.394 OA
HETATM   41  C1  UNL     1     -16.949  19.498 -29.093  1.00  0.00     0.201 C 
ENDBRANCH  39  40
ENDBRANCH  38  39
ENDBRANCH  26  38
ENDBRANCH   1  25
TORSDOF 11
ENDMDL
MODEL 4
REMARK VINA RESULT: -8.935433215      2.196      4.515
REMARK  11 active torsions:
REMARK  status: ('A' for Active; 'I' for Inactive)
REMARK    1  A    between atoms: O1_2  and  C2_3 
REMARK    2  A    between atoms: C2_3  and  C3_4 
REMARK    3  A    between atoms: C3_4  and  N1_5 
REMARK    4  A    between atoms: C4_6  and  C5_7 
REMARK       I    between atoms: C5_7  and  N2_9 
REMARK    5  A    between atoms: N2_9  and  C6_11 
REMARK    6  A    between atoms: C6_11  and  C7_12 
REMARK    7  A    between atoms: C7_12  and  C8_13 
REMARK    8  A    between atoms: C8_13  and  C9_14 
REMARK       I    between atoms: C9_14  and  N3_16 
REMARK    9  A    between atoms: N3_16  and  C10_18 
REMARK   10  A    between atoms: C10_18  and  C11_19 
REMARK   11  A    between atoms: C15_23  and  N4_24 
ROOT
HETATM    1  C5  UNL     1     -15.247  16.759 -22.521  1.00  0.00     0.268 C 
HETATM    2  O2  UNL     1     -14.251  16.749 -23.316  1.00  0.00    -0.266 OA
HETATM    3  N2  UNL     1     -14.979  16.813 -21.155  1.00  0.00    -0.356 N 
ATOM      4  H2  UNL     1     -15.766  16.835 -20.506  1.00  0.00     0.162 HD
ENDROOT
BRANCH   3   5
HETATM    5  C6  UNL     1     -13.625  16.840 -20.610  1.00  0.00     0.123 C 
BRANCH   5   6
HETATM    6  C7  UNL     1     -13.146  15.494 -20.172  1.00  0.00     0.029 C 
BRANCH   6   7
HETATM    7  C8  UNL     1     -13.366  14.377 -21.121  1.00  0.00     0.104 C 
BRANCH   7   8
HETATM    8  C9  UNL     1     -14.534  13.516 -20.841  1.00  0.00     0.217 C 
HETATM    9  O3  UNL     1     -14.986  12.675 -21.652  1.00  0.00    -0.274 OA
HETATM   10  N3  UNL     1     -15.192  13.631 -19.598  1.00  0.00    -0.361 N 
ATOM     11  H3  UNL     1     -14.833  14.309 -18.926  1.00  0.00     0.162 HD
BRANCH  10  12
HETATM   12  C10 UNL     1     -16.324  12.859 -19.228  1.00  0.00     0.127 C 
BRANCH  12  13
HETATM   13  C11 UNL     1     -16.171  12.037 -17.971  1.00  0.00     0.005 C 
HETATM   14  C12 UNL     1     -17.353  11.085 -17.939  1.00  0.00     0.006 C 
HETATM   15  C13 UNL     1     -17.252   9.981 -18.939  1.00  0.00     0.002 C 
HETATM   16  C14 UNL     1     -15.854   9.602 -19.296  1.00  0.00     0.036 C 
HETATM   17  C15 UNL     1     -14.899   9.864 -18.153  1.00  0.00     0.223 C 
HETATM   18  C21 UNL     1     -14.844  11.329 -17.910  1.00  0.00     0.042 C 
BRANCH  17  19
HETATM   19  N4  UNL     1     -15.324   9.061 -17.033  1.00  0.00     0.093 N 
HETATM   20  C16 UNL     1     -15.154   7.661 -17.458  1.00  0.00     0.273 C 
HETATM   21  C17 UNL     1     -14.657   6.780 -16.351  1.00  0.00     0.030 C 
HETATM   22  C18 UNL     1     -15.429   7.064 -15.098  1.00  0.00     0.003 C 
HETATM   23  C19 UNL     1     -15.203   8.490 -14.716  1.00  0.00     0.030 C 
HETATM   24  C20 UNL     1     -14.494   9.223 -15.862  1.00  0.00     0.273 C 
ENDBRANCH  17  19
ENDBRANCH  12  13
ENDBRANCH  10  12
ENDBRANCH   7   8
ENDBRANCH   6   7
ENDBRANCH   5   6
ENDBRANCH   3   5
BRANCH   1  25
HETATM   25  C4  UNL     1     -16.557  16.723 -23.100  1.00  0.00     0.108 A 
HETATM   26  N1  UNL     1     -17.154  17.767 -23.650  1.00  0.00    -0.307 N 
HETATM   27  C27 UNL     1     -18.378  17.630 -24.270  1.00  0.00     0.262 A 
HETATM   28  C26 UNL     1     -18.967  16.398 -24.302  1.00  0.00     0.084 A 
HETATM   29  O4  UNL     1     -18.908  18.656 -24.787  1.00  0.00    -0.267 OA
HETATM   30  C23 UNL     1     -18.394  15.276 -23.742  1.00  0.00     0.068 A 
HETATM   31  C24 UNL     1     -20.170  15.967 -24.841  1.00  0.00     0.040 A 
HETATM   32  C22 UNL     1     -17.182  15.442 -23.138  1.00  0.00     0.067 A 
HETATM   33  N5  UNL     1     -19.229  14.236 -23.946  1.00  0.00    -0.300 N 
HETATM   34  N6  UNL     1     -20.290  14.667 -24.607  1.00  0.00    -0.304 N 
ATOM     35  H5  UNL     1     -19.068  13.276 -23.642  1.00  0.00     0.187 HD
ATOM     36  H6  UNL     1     -21.080  14.088 -24.892  1.00  0.00     0.186 HD
HETATM   37  C25 UNL     1     -21.132  16.847 -25.551  1.00  0.00     0.071 C 
BRANCH  26  38
HETATM   38  C3  UNL     1     -16.619  19.099 -23.577  1.00  0.00     0.159 C 
BRANCH  38  39
HETATM   39  C2  UNL     1     -15.805  19.322 -24.869  1.00  0.00     0.187 C 
BRANCH  39  40
HETATM   40  O1  UNL     1     -14.860  20.303 -24.748  1.00  0.00    -0.394 OA
HETATM   41  C1  UNL     1     -13.563  19.837 -24.761  1.00  0.00     0.201 C 
ENDBRANCH  39  40
ENDBRANCH  38  39
ENDBRANCH  26  38
ENDBRANCH   1  25
TORSDOF 11
ENDMDL
MODEL 5
REMARK VINA RESULT: -8.931769965      1.640      2.973
REMARK  11 active torsions:
REMARK  status: ('A' for Active; 'I' for Inactive)
REMARK    1  A    between atoms: O1_2  and  C2_3 
REMARK    2  A    between atoms: C2_3  and  C3_4 
REMARK    3  A    between atoms: C3_4  and  N1_5 
REMARK    4  A    between atoms: C4_6  and  C5_7 
REMARK       I    between atoms: C5_7  and  N2_9 
REMARK    5  A    between atoms: N2_9  and  C6_11 
REMARK    6  A    between atoms: C6_11  and  C7_12 
REMARK    7  A    between atoms: C7_12  and  C8_13 
REMARK    8  A    between atoms: C8_13  and  C9_14 
REMARK       I    between atoms: C9_14  and  N3_16 
REMARK    9  A    between atoms: N3_16  and  C10_18 
REMARK   10  A    between atoms: C10_18  and  C11_19 
REMARK   11  A    between atoms: C15_23  and  N4_24 
ROOT
HETATM    1  C5  UNL     1     -15.509  15.677 -21.991  1.00  0.00     0.268 C 
HETATM    2  O2  UNL     1     -15.531  16.155 -20.809  1.00  0.00    -0.266 OA
HETATM    3  N2  UNL     1     -14.404  14.911 -22.355  1.00  0.00    -0.356 N 
ATOM      4  H2  UNL     1     -14.377  14.510 -23.293  1.00  0.00     0.162 HD
ENDROOT
BRANCH   3   5
HETATM    5  C6  UNL     1     -13.282  14.656 -21.456  1.00  0.00     0.123 C 
BRANCH   5   6
HETATM    6  C7  UNL     1     -13.362  13.323 -20.786  1.00  0.00     0.029 C 
BRANCH   6   7
HETATM    7  C8  UNL     1     -14.696  12.676 -20.769  1.00  0.00     0.104 C 
BRANCH   7   8
HETATM    8  C9  UNL     1     -15.247  12.371 -19.432  1.00  0.00     0.217 C 
HETATM    9  O3  UNL     1     -15.674  13.245 -18.643  1.00  0.00    -0.274 OA
HETATM   10  N3  UNL     1     -15.304  11.028 -19.000  1.00  0.00    -0.361 N 
ATOM     11  H3  UNL     1     -14.963  10.306 -19.634  1.00  0.00     0.162 HD
BRANCH  10  12
HETATM   12  C10 UNL     1     -15.807  10.625 -17.735  1.00  0.00     0.127 C 
BRANCH  12  13
HETATM   13  C11 UNL     1     -15.926   9.136 -17.525  1.00  0.00     0.005 C 
HETATM   14  C12 UNL     1     -14.521   8.575 -17.654  1.00  0.00     0.006 C 
HETATM   15  C13 UNL     1     -13.647   8.894 -16.486  1.00  0.00     0.002 C 
HETATM   16  C14 UNL     1     -14.382   9.081 -15.201  1.00  0.00     0.036 C 
HETATM   17  C15 UNL     1     -15.659   8.269 -15.169  1.00  0.00     0.223 C 
HETATM   18  C21 UNL     1     -16.578   8.794 -16.212  1.00  0.00     0.042 C 
BRANCH  17  19
HETATM   19  N4  UNL     1     -15.298   6.880 -15.296  1.00  0.00     0.093 N 
HETATM   20  C16 UNL     1     -14.760   6.485 -13.984  1.00  0.00     0.273 C 
HETATM   21  C17 UNL     1     -15.164   5.095 -13.590  1.00  0.00     0.030 C 
HETATM   22  C18 UNL     1     -14.977   4.169 -14.754  1.00  0.00     0.003 C 
HETATM   23  C19 UNL     1     -15.856   4.628 -15.870  1.00  0.00     0.030 C 
HETATM   24  C20 UNL     1     -16.427   6.013 -15.538  1.00  0.00     0.273 C 
ENDBRANCH  17  19
ENDBRANCH  12  13
ENDBRANCH  10  12
ENDBRANCH   7   8
ENDBRANCH   6   7
ENDBRANCH   5   6
ENDBRANCH   3   5
BRANCH   1  25
HETATM   25  C4  UNL     1     -16.628  15.960 -22.841  1.00  0.00     0.108 A 
HETATM   26  N1  UNL     1     -17.630  15.124 -23.050  1.00  0.00    -0.307 N 
HETATM   27  C27 UNL     1     -18.716  15.506 -23.808  1.00  0.00     0.262 A 
HETATM   28  C26 UNL     1     -18.738  16.762 -24.344  1.00  0.00     0.084 A 
HETATM   29  O4  UNL     1     -19.655  14.673 -23.977  1.00  0.00    -0.267 OA
HETATM   30  C23 UNL     1     -17.720  17.675 -24.162  1.00  0.00     0.068 A 
HETATM   31  C24 UNL     1     -19.676  17.410 -25.134  1.00  0.00     0.040 A 
HETATM   32  C22 UNL     1     -16.660  17.268 -23.406  1.00  0.00     0.067 A 
HETATM   33  N5  UNL     1     -18.052  18.806 -24.819  1.00  0.00    -0.300 N 
HETATM   34  N6  UNL     1     -19.228  18.631 -25.397  1.00  0.00    -0.304 N 
ATOM     35  H5  UNL     1     -17.489  19.654 -24.863  1.00  0.00     0.187 HD
ATOM     36  H6  UNL     1     -19.716  19.327 -25.959  1.00  0.00     0.186 HD
HETATM   37  C25 UNL     1     -20.953  16.802 -25.586  1.00  0.00     0.071 C 
BRANCH  26  38
HETATM   38  C3  UNL     1     -17.624  13.765 -22.579  1.00  0.00     0.159 C 
BRANCH  38  39
HETATM   39  C2  UNL     1     -18.297  13.776 -21.189  1.00  0.00     0.187 C 
BRANCH  39  40
HETATM   40  O1  UNL     1     -18.564  12.523 -20.712  1.00  0.00    -0.394 OA
HETATM   41  C1  UNL     1     -18.232  11.508 -21.582  1.00  0.00     0.201 C 
ENDBRANCH  39  40
ENDBRANCH  38  39
ENDBRANCH  26  38
ENDBRANCH   1  25
TORSDOF 11
ENDMDL
