MODEL 1
REMARK VINA RESULT: -7.717488125      0.000      0.000
REMARK  13 active torsions:
REMARK  status: ('A' for Active; 'I' for Inactive)
REMARK    1  A    between atoms: C2_2  and  O1_5 
REMARK    2  A    between atoms: O1_5  and  C5_6 
REMARK       I    between atoms: C5_6  and  N1_8 
REMARK    3  A    between atoms: C7_10  and  C8_11 
REMARK    4  A    between atoms: C8_11  and  C9_12 
REMARK    5  A    between atoms: C9_12  and  C10_13 
REMARK    6  A    between atoms: C10_13  and  C11_14 
REMARK    7  A    between atoms: C11_14  and  C12_15 
REMARK    8  A    between atoms: C12_15  and  C13_16 
REMARK    9  A    between atoms: C13_16  and  C14_17 
REMARK   10  A    between atoms: C15_20  and  N2_21 
REMARK       I    between atoms: N2_21  and  C16_23 
REMARK   11  A    between atoms: C16_23  and  C17_25 
REMARK   12  A    between atoms: C17_25  and  S1_26 
REMARK   13  A    between atoms: S1_26  and  C18_29 
ROOT
HETATM    1  C17 UNL     1      -6.083  -0.984 -14.237  1.00  0.00     0.185 C 
HETATM    2  C21 UNL     1      -6.723  -0.984 -15.606  1.00  0.00     0.269 C 
HETATM    3  N3  UNL     1      -7.709  -2.020 -15.635  1.00  0.00    -0.072 N 
ATOM      4  H31 UNL     1      -7.869  -2.394 -16.570  1.00  0.00     0.277 HD
ATOM      5  H32 UNL     1      -8.655  -1.677 -15.468  1.00  0.00     0.277 HD
HETATM    6  C22 UNL     1      -7.287  -3.046 -14.667  1.00  0.00     0.253 C 
HETATM    7  C23 UNL     1      -6.704  -2.187 -13.567  1.00  0.00     0.153 C 
HETATM    8  C24 UNL     1      -5.793  -2.908 -12.712  1.00  0.00     0.068 C 
HETATM    9  N4  UNL     1      -5.076  -3.484 -12.011  1.00  0.00    -0.197 NA
ENDROOT
BRANCH   1  10
HETATM   10  C16 UNL     1      -6.352   0.266 -13.502  1.00  0.00     0.245 C 
HETATM   11  N2  UNL     1      -5.769   0.625 -12.272  1.00  0.00    -0.353 N 
ATOM     12  H2  UNL     1      -5.106  -0.029 -11.855  1.00  0.00     0.163 HD
HETATM   13  O5  UNL     1      -7.166   1.083 -14.004  1.00  0.00    -0.271 OA
BRANCH  11  14
HETATM   14  C15 UNL     1      -6.039   1.847 -11.560  1.00  0.00     0.108 C 
HETATM   15  C7  UNL     1      -5.004   2.902 -11.677  1.00  0.00     0.028 C 
HETATM   16  C6  UNL     1      -4.873   3.574 -10.385  1.00  0.00     0.134 C 
HETATM   17  N1  UNL     1      -5.844   2.935  -9.512  1.00  0.00    -0.326 N 
HETATM   18  C5  UNL     1      -6.499   3.429  -8.388  1.00  0.00     0.363 C 
HETATM   19  C25 UNL     1      -6.040   1.583 -10.053  1.00  0.00     0.153 C 
HETATM   20  O2  UNL     1      -6.306   4.591  -7.970  1.00  0.00    -0.238 OA
BRANCH  15  21
HETATM   21  C8  UNL     1      -3.765   2.478 -12.384  1.00  0.00     0.008 C 
BRANCH  21  22
HETATM   22  C9  UNL     1      -2.672   1.902 -11.561  1.00  0.00     0.001 C 
BRANCH  22  23
HETATM   23  C10 UNL     1      -1.275   2.231 -11.902  1.00  0.00     0.000 C 
BRANCH  23  24
HETATM   24  C11 UNL     1      -0.419   2.511 -10.648  1.00  0.00     0.001 C 
BRANCH  24  25
HETATM   25  C12 UNL     1      -1.223   2.558  -9.405  1.00  0.00     0.010 C 
BRANCH  25  26
HETATM   26  C13 UNL     1      -1.553   3.942  -8.993  1.00  0.00     0.113 C 
BRANCH  26  27
HETATM   27  C14 UNL     1      -1.657   4.107  -7.547  1.00  0.00     0.172 C 
HETATM   28  O3  UNL     1      -2.365   3.406  -6.804  1.00  0.00    -0.648 OA
HETATM   29  O4  UNL     1      -0.921   5.117  -6.918  1.00  0.00    -0.648 OA
ENDBRANCH  26  27
ENDBRANCH  25  26
ENDBRANCH  24  25
ENDBRANCH  23  24
ENDBRANCH  22  23
ENDBRANCH  21  22
ENDBRANCH  15  21
BRANCH  18  30
HETATM   30  O1  UNL     1      -7.393   2.636  -7.695  1.00  0.00    -0.294 OA
BRANCH  30  31
HETATM   31  C2  UNL     1      -7.298   2.446  -6.296  1.00  0.00     0.061 C 
HETATM   32  C1  UNL     1      -5.877   2.692  -5.811  1.00  0.00     0.046 C 
HETATM   33  C3  UNL     1      -8.318   3.248  -5.532  1.00  0.00     0.046 C 
HETATM   34  C4  UNL     1      -7.560   0.954  -6.064  1.00  0.00     0.046 C 
ENDBRANCH  30  31
ENDBRANCH  18  30
ENDBRANCH  11  14
ENDBRANCH   1  10
BRANCH   1  35
HETATM   35  S1  UNL     1      -4.334  -1.182 -14.447  1.00  0.00     0.169 S 
HETATM   36  O6  UNL     1      -3.854  -0.102 -15.402  1.00  0.00    -0.226 OA
HETATM   37  O7  UNL     1      -3.581  -0.992 -13.172  1.00  0.00    -0.226 OA
BRANCH  35  38
HETATM   38  C18 UNL     1      -3.903  -2.728 -15.189  1.00  0.00     0.110 A 
HETATM   39  C19 UNL     1      -2.644  -2.868 -15.953  1.00  0.00     0.021 A 
HETATM   40  C20 UNL     1      -2.621  -3.337 -14.559  1.00  0.00     0.021 A 
ENDBRANCH  35  38
ENDBRANCH   1  35
TORSDOF 13
ENDMDL
MODEL 2
REMARK VINA RESULT: -7.649479831      5.240     12.027
REMARK  13 active torsions:
REMARK  status: ('A' for Active; 'I' for Inactive)
REMARK    1  A    between atoms: C2_2  and  O1_5 
REMARK    2  A    between atoms: O1_5  and  C5_6 
REMARK       I    between atoms: C5_6  and  N1_8 
REMARK    3  A    between atoms: C7_10  and  C8_11 
REMARK    4  A    between atoms: C8_11  and  C9_12 
REMARK    5  A    between atoms: C9_12  and  C10_13 
REMARK    6  A    between atoms: C10_13  and  C11_14 
REMARK    7  A    between atoms: C11_14  and  C12_15 
REMARK    8  A    between atoms: C12_15  and  C13_16 
REMARK    9  A    between atoms: C13_16  and  C14_17 
REMARK   10  A    between atoms: C15_20  and  N2_21 
REMARK       I    between atoms: N2_21  and  C16_23 
REMARK   11  A    between atoms: C16_23  and  C17_25 
REMARK   12  A    between atoms: C17_25  and  S1_26 
REMARK   13  A    between atoms: S1_26  and  C18_29 
ROOT
HETATM    1  C17 UNL     1      -5.493  -1.587 -14.995  1.00  0.00     0.185 C 
HETATM    2  C21 UNL     1      -4.999  -0.284 -15.579  1.00  0.00     0.269 C 
HETATM    3  N3  UNL     1      -3.624  -0.128 -15.216  1.00  0.00    -0.072 N 
ATOM      4  H31 UNL     1      -3.334   0.848 -15.160  1.00  0.00     0.277 HD
ATOM      5  H32 UNL     1      -2.980  -0.413 -15.954  1.00  0.00     0.277 HD
HETATM    6  C22 UNL     1      -3.423  -0.864 -13.958  1.00  0.00     0.253 C 
HETATM    7  C23 UNL     1      -4.318  -2.064 -14.174  1.00  0.00     0.153 C 
HETATM    8  C24 UNL     1      -4.697  -2.714 -12.944  1.00  0.00     0.068 C 
HETATM    9  N4  UNL     1      -4.990  -3.252 -11.963  1.00  0.00    -0.197 NA
ENDROOT
BRANCH   1  10
HETATM   10  C16 UNL     1      -5.871  -2.553 -16.043  1.00  0.00     0.245 C 
HETATM   11  N2  UNL     1      -5.743  -3.951 -15.942  1.00  0.00    -0.353 N 
ATOM     12  H2  UNL     1      -5.360  -4.329 -15.075  1.00  0.00     0.163 HD
HETATM   13  O5  UNL     1      -6.346  -2.103 -17.118  1.00  0.00    -0.271 OA
BRANCH  11  14
HETATM   14  C15 UNL     1      -6.113  -4.888 -16.972  1.00  0.00     0.108 C 
HETATM   15  C7  UNL     1      -7.258  -5.773 -16.655  1.00  0.00     0.028 C 
HETATM   16  C6  UNL     1      -6.987  -7.103 -17.200  1.00  0.00     0.134 C 
HETATM   17  N1  UNL     1      -5.695  -6.998 -17.859  1.00  0.00    -0.326 N 
HETATM   18  C5  UNL     1      -5.166  -7.735 -18.915  1.00  0.00     0.363 C 
HETATM   19  C25 UNL     1      -4.988  -5.903 -17.182  1.00  0.00     0.153 C 
HETATM   20  O2  UNL     1      -5.810  -8.653 -19.466  1.00  0.00    -0.238 OA
BRANCH  15  21
HETATM   21  C8  UNL     1      -7.752  -5.670 -15.255  1.00  0.00     0.008 C 
BRANCH  21  22
HETATM   22  C9  UNL     1      -9.211  -5.483 -15.057  1.00  0.00     0.001 C 
BRANCH  22  23
HETATM   23  C10 UNL     1     -10.038  -5.060 -16.204  1.00  0.00     0.000 C 
BRANCH  23  24
HETATM   24  C11 UNL     1     -10.847  -6.231 -16.803  1.00  0.00     0.001 C 
BRANCH  24  25
HETATM   25  C12 UNL     1     -10.544  -6.465 -18.233  1.00  0.00     0.010 C 
BRANCH  25  26
HETATM   26  C13 UNL     1     -10.192  -7.876 -18.516  1.00  0.00     0.113 C 
BRANCH  26  27
HETATM   27  C14 UNL     1      -9.568  -8.067 -19.821  1.00  0.00     0.172 C 
HETATM   28  O3  UNL     1      -9.510  -7.202 -20.712  1.00  0.00    -0.648 OA
HETATM   29  O4  UNL     1      -8.983  -9.301 -20.127  1.00  0.00    -0.648 OA
ENDBRANCH  26  27
ENDBRANCH  25  26
ENDBRANCH  24  25
ENDBRANCH  23  24
ENDBRANCH  22  23
ENDBRANCH  21  22
ENDBRANCH  15  21
BRANCH  18  30
HETATM   30  O1  UNL     1      -3.895  -7.466 -19.388  1.00  0.00    -0.294 OA
BRANCH  30  31
HETATM   31  C2  UNL     1      -3.614  -7.377 -20.770  1.00  0.00     0.061 C 
HETATM   32  C1  UNL     1      -3.438  -8.760 -21.379  1.00  0.00     0.046 C 
HETATM   33  C3  UNL     1      -4.622  -6.540 -21.514  1.00  0.00     0.046 C 
HETATM   34  C4  UNL     1      -2.239  -6.706 -20.869  1.00  0.00     0.046 C 
ENDBRANCH  30  31
ENDBRANCH  18  30
ENDBRANCH  11  14
ENDBRANCH   1  10
BRANCH   1  35
HETATM   35  S1  UNL     1      -6.902  -1.236 -13.979  1.00  0.00     0.169 S 
HETATM   36  O6  UNL     1      -7.804  -0.284 -14.745  1.00  0.00    -0.226 OA
HETATM   37  O7  UNL     1      -7.714  -2.455 -13.688  1.00  0.00    -0.226 OA
BRANCH  35  38
HETATM   38  C18 UNL     1      -6.474  -0.411 -12.475  1.00  0.00     0.110 A 
HETATM   39  C19 UNL     1      -6.881   0.994 -12.248  1.00  0.00     0.021 A 
HETATM   40  C20 UNL     1      -7.729  -0.042 -11.638  1.00  0.00     0.021 A 
ENDBRANCH  35  38
ENDBRANCH   1  35
TORSDOF 13
ENDMDL
MODEL 3
REMARK VINA RESULT: -7.432971041      1.965      2.640
REMARK  13 active torsions:
REMARK  status: ('A' for Active; 'I' for Inactive)
REMARK    1  A    between atoms: C2_2  and  O1_5 
REMARK    2  A    between atoms: O1_5  and  C5_6 
REMARK       I    between atoms: C5_6  and  N1_8 
REMARK    3  A    between atoms: C7_10  and  C8_11 
REMARK    4  A    between atoms: C8_11  and  C9_12 
REMARK    5  A    between atoms: C9_12  and  C10_13 
REMARK    6  A    between atoms: C10_13  and  C11_14 
REMARK    7  A    between atoms: C11_14  and  C12_15 
REMARK    8  A    between atoms: C12_15  and  C13_16 
REMARK    9  A    between atoms: C13_16  and  C14_17 
REMARK   10  A    between atoms: C15_20  and  N2_21 
REMARK       I    between atoms: N2_21  and  C16_23 
REMARK   11  A    between atoms: C16_23  and  C17_25 
REMARK   12  A    between atoms: C17_25  and  S1_26 
REMARK   13  A    between atoms: S1_26  and  C18_29 
ROOT
HETATM    1  C17 UNL     1      -6.006  -0.848 -14.288  1.00  0.00     0.185 C 
HETATM    2  C21 UNL     1      -5.163   0.076 -15.136  1.00  0.00     0.269 C 
HETATM    3  N3  UNL     1      -5.574  -0.075 -16.499  1.00  0.00    -0.072 N 
ATOM      4  H31 UNL     1      -4.831   0.130 -17.166  1.00  0.00     0.277 HD
ATOM      5  H32 UNL     1      -6.226   0.648 -16.803  1.00  0.00     0.277 HD
HETATM    6  C22 UNL     1      -6.116  -1.437 -16.639  1.00  0.00     0.253 C 
HETATM    7  C23 UNL     1      -6.816  -1.611 -15.309  1.00  0.00     0.153 C 
HETATM    8  C24 UNL     1      -7.031  -2.995 -14.962  1.00  0.00     0.068 C 
HETATM    9  N4  UNL     1      -7.223  -4.101 -14.686  1.00  0.00    -0.197 NA
ENDROOT
BRANCH   1  10
HETATM   10  C16 UNL     1      -6.858  -0.104 -13.342  1.00  0.00     0.245 C 
HETATM   11  N2  UNL     1      -6.406   0.531 -12.169  1.00  0.00    -0.353 N 
ATOM     12  H2  UNL     1      -5.410   0.474 -11.956  1.00  0.00     0.163 HD
HETATM   13  O5  UNL     1      -8.088  -0.024 -13.592  1.00  0.00    -0.271 OA
BRANCH  11  14
HETATM   14  C15 UNL     1      -7.246   1.253 -11.250  1.00  0.00     0.108 C 
HETATM   15  C7  UNL     1      -7.406   2.701 -11.526  1.00  0.00     0.028 C 
HETATM   16  C6  UNL     1      -7.424   3.421 -10.253  1.00  0.00     0.134 C 
HETATM   17  N1  UNL     1      -7.299   2.400  -9.225  1.00  0.00    -0.326 N 
HETATM   18  C5  UNL     1      -7.725   2.408  -7.901  1.00  0.00     0.363 C 
HETATM   19  C25 UNL     1      -6.603   1.275  -9.862  1.00  0.00     0.153 C 
HETATM   20  O2  UNL     1      -8.323   3.386  -7.405  1.00  0.00    -0.238 OA
BRANCH  15  21
HETATM   21  C8  UNL     1      -6.544   3.221 -12.621  1.00  0.00     0.008 C 
BRANCH  21  22
HETATM   22  C9  UNL     1      -5.496   4.207 -12.257  1.00  0.00     0.001 C 
BRANCH  22  23
HETATM   23  C10 UNL     1      -4.137   3.721 -11.949  1.00  0.00     0.000 C 
BRANCH  23  24
HETATM   24  C11 UNL     1      -3.798   3.851 -10.449  1.00  0.00     0.001 C 
BRANCH  24  25
HETATM   25  C12 UNL     1      -2.359   4.108 -10.206  1.00  0.00     0.010 C 
BRANCH  25  26
HETATM   26  C13 UNL     1      -1.573   2.859 -10.079  1.00  0.00     0.113 C 
BRANCH  26  27
HETATM   27  C14 UNL     1      -0.947   2.439 -11.328  1.00  0.00     0.172 C 
HETATM   28  O3  UNL     1      -0.757   3.180 -12.309  1.00  0.00    -0.648 OA
HETATM   29  O4  UNL     1      -0.517   1.115 -11.468  1.00  0.00    -0.648 OA
ENDBRANCH  26  27
ENDBRANCH  25  26
ENDBRANCH  24  25
ENDBRANCH  23  24
ENDBRANCH  22  23
ENDBRANCH  21  22
ENDBRANCH  15  21
BRANCH  18  30
HETATM   30  O1  UNL     1      -7.494   1.315  -7.086  1.00  0.00    -0.294 OA
BRANCH  30  31
HETATM   31  C2  UNL     1      -7.272   1.451  -5.697  1.00  0.00     0.061 C 
HETATM   32  C1  UNL     1      -8.423   2.191  -5.032  1.00  0.00     0.046 C 
HETATM   33  C3  UNL     1      -6.963   0.137  -5.028  1.00  0.00     0.046 C 
HETATM   34  C4  UNL     1      -6.056   2.376  -5.563  1.00  0.00     0.046 C 
ENDBRANCH  30  31
ENDBRANCH  18  30
ENDBRANCH  11  14
ENDBRANCH   1  10
BRANCH   1  35
HETATM   35  S1  UNL     1      -4.915  -1.915 -13.387  1.00  0.00     0.169 S 
HETATM   36  O6  UNL     1      -3.819  -1.057 -12.779  1.00  0.00    -0.226 OA
HETATM   37  O7  UNL     1      -5.599  -2.605 -12.253  1.00  0.00    -0.226 OA
BRANCH  35  38
HETATM   38  C18 UNL     1      -4.103  -3.097 -14.422  1.00  0.00     0.110 A 
HETATM   39  C19 UNL     1      -2.932  -2.701 -15.236  1.00  0.00     0.021 A 
HETATM   40  C20 UNL     1      -2.647  -3.371 -13.958  1.00  0.00     0.021 A 
ENDBRANCH  35  38
ENDBRANCH   1  35
TORSDOF 13
ENDMDL
MODEL 4
REMARK VINA RESULT: -7.318419261      2.405      7.020
REMARK  13 active torsions:
REMARK  status: ('A' for Active; 'I' for Inactive)
REMARK    1  A    between atoms: C2_2  and  O1_5 
REMARK    2  A    between atoms: O1_5  and  C5_6 
REMARK       I    between atoms: C5_6  and  N1_8 
REMARK    3  A    between atoms: C7_10  and  C8_11 
REMARK    4  A    between atoms: C8_11  and  C9_12 
REMARK    5  A    between atoms: C9_12  and  C10_13 
REMARK    6  A    between atoms: C10_13  and  C11_14 
REMARK    7  A    between atoms: C11_14  and  C12_15 
REMARK    8  A    between atoms: C12_15  and  C13_16 
REMARK    9  A    between atoms: C13_16  and  C14_17 
REMARK   10  A    between atoms: C15_20  and  N2_21 
REMARK       I    between atoms: N2_21  and  C16_23 
REMARK   11  A    between atoms: C16_23  and  C17_25 
REMARK   12  A    between atoms: C17_25  and  S1_26 
REMARK   13  A    between atoms: S1_26  and  C18_29 
ROOT
HETATM    1  C17 UNL     1      -5.881   2.317 -11.456  1.00  0.00     0.185 C 
HETATM    2  C21 UNL     1      -5.105   3.430 -12.123  1.00  0.00     0.269 C 
HETATM    3  N3  UNL     1      -4.388   4.140 -11.109  1.00  0.00    -0.072 N 
ATOM      4  H31 UNL     1      -4.212   5.115 -11.351  1.00  0.00     0.277 HD
ATOM      5  H32 UNL     1      -3.414   3.848 -11.029  1.00  0.00     0.277 HD
HETATM    6  C22 UNL     1      -5.143   3.984  -9.855  1.00  0.00     0.253 C 
HETATM    7  C23 UNL     1      -5.635   2.560  -9.985  1.00  0.00     0.153 C 
HETATM    8  C24 UNL     1      -6.780   2.281  -9.153  1.00  0.00     0.068 C 
HETATM    9  N4  UNL     1      -7.686   2.044  -8.475  1.00  0.00    -0.197 NA
ENDROOT
BRANCH   1  10
HETATM   10  C16 UNL     1      -5.418   0.986 -11.888  1.00  0.00     0.245 C 
HETATM   11  N2  UNL     1      -5.360   0.540 -13.222  1.00  0.00    -0.353 N 
ATOM     12  H2  UNL     1      -5.661   1.189 -13.950  1.00  0.00     0.163 HD
HETATM   13  O5  UNL     1      -5.042   0.176 -11.002  1.00  0.00    -0.271 OA
BRANCH  11  14
HETATM   14  C15 UNL     1      -4.908  -0.763 -13.635  1.00  0.00     0.108 C 
HETATM   15  C7  UNL     1      -3.445  -0.905 -13.829  1.00  0.00     0.028 C 
HETATM   16  C6  UNL     1      -3.209  -1.765 -14.988  1.00  0.00     0.134 C 
HETATM   17  N1  UNL     1      -4.528  -2.151 -15.464  1.00  0.00    -0.326 N 
HETATM   18  C5  UNL     1      -4.928  -3.277 -16.176  1.00  0.00     0.363 C 
HETATM   19  C25 UNL     1      -5.437  -1.079 -15.036  1.00  0.00     0.153 C 
HETATM   20  O2  UNL     1      -4.119  -4.168 -16.512  1.00  0.00    -0.238 OA
BRANCH  15  21
HETATM   21  C8  UNL     1      -2.681   0.366 -13.723  1.00  0.00     0.008 C 
BRANCH  21  22
HETATM   22  C9  UNL     1      -1.892   0.589 -12.486  1.00  0.00     0.001 C 
BRANCH  22  23
HETATM   23  C10 UNL     1      -0.741   1.511 -12.531  1.00  0.00     0.000 C 
BRANCH  23  24
HETATM   24  C11 UNL     1      -0.913   2.706 -11.569  1.00  0.00     0.001 C 
BRANCH  24  25
HETATM   25  C12 UNL     1      -1.732   2.371 -10.381  1.00  0.00     0.010 C 
BRANCH  25  26
HETATM   26  C13 UNL     1      -1.059   2.724  -9.109  1.00  0.00     0.113 C 
BRANCH  26  27
HETATM   27  C14 UNL     1      -1.764   3.750  -8.346  1.00  0.00     0.172 C 
HETATM   28  O3  UNL     1      -2.140   4.842  -8.808  1.00  0.00    -0.648 OA
HETATM   29  O4  UNL     1      -2.051   3.523  -6.996  1.00  0.00    -0.648 OA
ENDBRANCH  26  27
ENDBRANCH  25  26
ENDBRANCH  24  25
ENDBRANCH  23  24
ENDBRANCH  22  23
ENDBRANCH  21  22
ENDBRANCH  15  21
BRANCH  18  30
HETATM   30  O1  UNL     1      -6.253  -3.442 -16.535  1.00  0.00    -0.294 OA
BRANCH  30  31
HETATM   31  C2  UNL     1      -7.106  -4.343 -15.856  1.00  0.00     0.061 C 
HETATM   32  C1  UNL     1      -7.176  -5.677 -16.584  1.00  0.00     0.046 C 
HETATM   33  C3  UNL     1      -6.750  -4.494 -14.401  1.00  0.00     0.046 C 
HETATM   34  C4  UNL     1      -8.512  -3.740 -15.966  1.00  0.00     0.046 C 
ENDBRANCH  30  31
ENDBRANCH  18  30
ENDBRANCH  11  14
ENDBRANCH   1  10
BRANCH   1  35
HETATM   35  S1  UNL     1      -7.592   2.513 -11.875  1.00  0.00     0.169 S 
HETATM   36  O6  UNL     1      -8.025   3.900 -11.435  1.00  0.00    -0.226 OA
HETATM   37  O7  UNL     1      -7.831   2.436 -13.347  1.00  0.00    -0.226 OA
BRANCH  35  38
HETATM   38  C18 UNL     1      -8.641   1.372 -11.023  1.00  0.00     0.110 A 
HETATM   39  C19 UNL     1      -9.783   0.740 -11.720  1.00  0.00     0.021 A 
HETATM   40  C20 UNL     1      -8.551  -0.058 -11.624  1.00  0.00     0.021 A 
ENDBRANCH  35  38
ENDBRANCH   1  35
TORSDOF 13
ENDMDL
MODEL 5
REMARK VINA RESULT: -7.315045604      2.629      4.532
REMARK  13 active torsions:
REMARK  status: ('A' for Active; 'I' for Inactive)
REMARK    1  A    between atoms: C2_2  and  O1_5 
REMARK    2  A    between atoms: O1_5  and  C5_6 
REMARK       I    between atoms: C5_6  and  N1_8 
REMARK    3  A    between atoms: C7_10  and  C8_11 
REMARK    4  A    between atoms: C8_11  and  C9_12 
REMARK    5  A    between atoms: C9_12  and  C10_13 
REMARK    6  A    between atoms: C10_13  and  C11_14 
REMARK    7  A    between atoms: C11_14  and  C12_15 
REMARK    8  A    between atoms: C12_15  and  C13_16 
REMARK    9  A    between atoms: C13_16  and  C14_17 
REMARK   10  A    between atoms: C15_20  and  N2_21 
REMARK       I    between atoms: N2_21  and  C16_23 
REMARK   11  A    between atoms: C16_23  and  C17_25 
REMARK   12  A    between atoms: C17_25  and  S1_26 
REMARK   13  A    between atoms: S1_26  and  C18_29 
ROOT
HETATM    1  C17 UNL     1      -3.324  -3.617 -15.232  1.00  0.00     0.185 C 
HETATM    2  C21 UNL     1      -2.627  -4.074 -13.972  1.00  0.00     0.269 C 
HETATM    3  N3  UNL     1      -1.247  -4.288 -14.281  1.00  0.00    -0.072 N 
ATOM      4  H31 UNL     1      -0.806  -4.985 -13.681  1.00  0.00     0.277 HD
ATOM      5  H32 UNL     1      -0.652  -3.500 -14.026  1.00  0.00     0.277 HD
HETATM    6  C22 UNL     1      -1.172  -4.628 -15.712  1.00  0.00     0.253 C 
HETATM    7  C23 UNL     1      -2.245  -3.728 -16.283  1.00  0.00     0.153 C 
HETATM    8  C24 UNL     1      -2.729  -4.172 -17.567  1.00  0.00     0.068 C 
HETATM    9  N4  UNL     1      -3.109  -4.511 -18.605  1.00  0.00    -0.197 NA
ENDROOT
BRANCH   1  10
HETATM   10  C16 UNL     1      -3.845  -2.243 -15.108  1.00  0.00     0.245 C 
HETATM   11  N2  UNL     1      -3.679  -1.412 -13.984  1.00  0.00    -0.353 N 
ATOM     12  H2  UNL     1      -3.156  -1.786 -13.193  1.00  0.00     0.163 HD
HETATM   13  O5  UNL     1      -4.490  -1.767 -16.077  1.00  0.00    -0.271 OA
BRANCH  11  14
HETATM   14  C15 UNL     1      -4.193  -0.071 -13.871  1.00  0.00     0.108 C 
HETATM   15  C7  UNL     1      -3.334   0.887 -13.135  1.00  0.00     0.028 C 
HETATM   16  C6  UNL     1      -4.189   1.764 -12.337  1.00  0.00     0.134 C 
HETATM   17  N1  UNL     1      -5.552   1.342 -12.617  1.00  0.00    -0.326 N 
HETATM   18  C5  UNL     1      -6.742   2.060 -12.553  1.00  0.00     0.363 C 
HETATM   19  C25 UNL     1      -5.460  -0.070 -13.013  1.00  0.00     0.153 C 
HETATM   20  O2  UNL     1      -6.770   3.263 -12.219  1.00  0.00    -0.238 OA
BRANCH  15  21
HETATM   21  C8  UNL     1      -2.142   0.278 -12.486  1.00  0.00     0.008 C 
BRANCH  21  22
HETATM   22  C9  UNL     1      -0.863   1.025 -12.566  1.00  0.00     0.001 C 
BRANCH  22  23
HETATM   23  C10 UNL     1      -0.607   2.107 -11.596  1.00  0.00     0.000 C 
BRANCH  23  24
HETATM   24  C11 UNL     1      -1.171   1.780 -10.196  1.00  0.00     0.001 C 
BRANCH  24  25
HETATM   25  C12 UNL     1      -1.349   2.985  -9.354  1.00  0.00     0.010 C 
BRANCH  25  26
HETATM   26  C13 UNL     1      -2.267   3.974  -9.964  1.00  0.00     0.113 C 
BRANCH  26  27
HETATM   27  C14 UNL     1      -3.517   4.136  -9.227  1.00  0.00     0.172 C 
HETATM   28  O3  UNL     1      -4.648   4.139  -9.743  1.00  0.00    -0.648 OA
HETATM   29  O4  UNL     1      -3.476   4.304  -7.839  1.00  0.00    -0.648 OA
ENDBRANCH  26  27
ENDBRANCH  25  26
ENDBRANCH  24  25
ENDBRANCH  23  24
ENDBRANCH  22  23
ENDBRANCH  21  22
ENDBRANCH  15  21
BRANCH  18  30
HETATM   30  O1  UNL     1      -7.944   1.450 -12.863  1.00  0.00    -0.294 OA
BRANCH  30  31
HETATM   31  C2  UNL     1      -8.589   0.569 -11.965  1.00  0.00     0.061 C 
HETATM   32  C1  UNL     1      -8.481  -0.871 -12.445  1.00  0.00     0.046 C 
HETATM   33  C3  UNL     1      -8.121   0.742 -10.544  1.00  0.00     0.046 C 
HETATM   34  C4  UNL     1     -10.080   0.919 -12.045  1.00  0.00     0.046 C 
ENDBRANCH  30  31
ENDBRANCH  18  30
ENDBRANCH  11  14
ENDBRANCH   1  10
BRANCH   1  35
HETATM   35  S1  UNL     1      -4.666  -4.731 -15.553  1.00  0.00     0.169 S 
HETATM   36  O6  UNL     1      -5.334  -4.297 -16.846  1.00  0.00    -0.226 OA
HETATM   37  O7  UNL     1      -4.204  -6.136 -15.759  1.00  0.00    -0.226 OA
BRANCH  35  38
HETATM   38  C18 UNL     1      -5.917  -4.674 -14.304  1.00  0.00     0.110 A 
HETATM   39  C19 UNL     1      -7.180  -3.939 -14.541  1.00  0.00     0.021 A 
HETATM   40  C20 UNL     1      -7.218  -5.394 -14.754  1.00  0.00     0.021 A 
ENDBRANCH  35  38
ENDBRANCH   1  35
TORSDOF 13
ENDMDL
