MODEL 1
REMARK VINA RESULT: -5.740350588      0.000      0.000
REMARK  8 active torsions:
REMARK  status: ('A' for Active; 'I' for Inactive)
REMARK    1  A    between atoms: C4_4  and  N1_5 
REMARK    2  A    between atoms: C9_13  and  N3_14 
REMARK    3  A    between atoms: C12_17  and  C13_18 
REMARK       I    between atoms: C13_18  and  N4_20 
REMARK    4  A    between atoms: N4_20  and  C14_21 
REMARK    5  A    between atoms: N4_20  and  C20_31 
REMARK    6  A    between atoms: C14_21  and  C15_22 
REMARK    7  A    between atoms: C15_22  and  C16_25 
REMARK    8  A    between atoms: C16_25  and  C19_28 
ROOT
HETATM    1  N3  UNL     1      17.459  24.042  21.650  1.00  0.00    -0.217 N 
HETATM    2  C10 UNL     1      18.868  24.086  21.978  1.00  0.00     0.142 C 
HETATM    3  C11 UNL     1      19.372  22.661  22.255  1.00  0.00     0.034 C 
HETATM    4  C12 UNL     1      19.103  21.892  21.006  1.00  0.00     0.081 C 
HETATM    5  C23 UNL     1      17.598  21.677  20.941  1.00  0.00     0.034 C 
HETATM    6  C24 UNL     1      17.013  23.064  20.673  1.00  0.00     0.142 C 
ENDROOT
BRANCH   4   7
HETATM    7  C13 UNL     1      19.854  20.664  20.810  1.00  0.00     0.224 C 
HETATM    8  O2  UNL     1      19.237  19.557  21.011  1.00  0.00    -0.273 OA
HETATM    9  N4  UNL     1      21.240  20.552  20.410  1.00  0.00    -0.342 N 
BRANCH   9  10
HETATM   10  C14 UNL     1      21.752  19.203  20.296  1.00  0.00     0.206 C 
BRANCH  10  11
HETATM   11  C15 UNL     1      22.495  18.638  21.424  1.00  0.00     0.271 C 
HETATM   12  F1  UNL     1      22.151  19.305  22.609  1.00  0.00    -0.203 F 
HETATM   13  F2  UNL     1      23.891  18.773  21.262  1.00  0.00    -0.203 F 
BRANCH  11  14
HETATM   14  C16 UNL     1      22.311  17.175  21.703  1.00  0.00     0.079 C 
HETATM   15  C17 UNL     1      20.966  16.639  21.299  1.00  0.00     0.027 C 
HETATM   16  C18 UNL     1      22.339  17.059  23.247  1.00  0.00     0.027 C 
BRANCH  14  17
HETATM   17  C19 UNL     1      23.377  16.259  21.217  1.00  0.00     0.366 C 
HETATM   18  F3  UNL     1      24.171  15.714  22.193  1.00  0.00    -0.213 F 
HETATM   19  F4  UNL     1      22.771  15.176  20.571  1.00  0.00    -0.213 F 
ENDBRANCH  14  17
ENDBRANCH  11  14
ENDBRANCH  10  11
ENDBRANCH   9  10
BRANCH   9  20
HETATM   20  C20 UNL     1      21.967  21.752  20.262  1.00  0.00     0.079 C 
HETATM   21  C21 UNL     1      22.839  22.118  21.436  1.00  0.00     0.032 C 
HETATM   22  C22 UNL     1      22.834  21.921  19.036  1.00  0.00     0.032 C 
ENDBRANCH   9  20
ENDBRANCH   4   7
BRANCH   1  23
HETATM   23  C9  UNL     1      16.568  24.943  22.285  1.00  0.00     0.682 A 
HETATM   24  N2  UNL     1      15.312  24.619  22.608  1.00  0.00    -0.177 N 
HETATM   25  C4  UNL     1      14.469  25.496  23.220  1.00  0.00     0.121 A 
ATOM     26  H2  UNL     1      14.974  23.683  22.388  1.00  0.00     0.186 HD
HETATM   27  C3  UNL     1      14.938  26.752  23.510  1.00  0.00     0.074 A 
HETATM   28  C2  UNL     1      16.242  27.099  23.178  1.00  0.00     0.026 A 
HETATM   29  C1  UNL     1      16.736  28.471  23.502  1.00  0.00     0.069 C 
HETATM   30  N5  UNL     1      17.008  26.177  22.578  1.00  0.00    -0.196 N 
ATOM     31  H5  UNL     1      17.967  26.424  22.332  1.00  0.00     0.184 HD
BRANCH  25  32
HETATM   32  N1  UNL     1      13.149  25.111  23.545  1.00  0.00    -0.363 N 
HETATM   33  C5  UNL     1      12.658  24.969  24.879  1.00  0.00     0.150 C 
HETATM   34  C6  UNL     1      11.357  25.759  24.966  1.00  0.00     0.187 C 
HETATM   35  O1  UNL     1      11.137  26.512  23.834  1.00  0.00    -0.388 OA
HETATM   36  C7  UNL     1      11.023  25.753  22.673  1.00  0.00     0.187 C 
HETATM   37  C8  UNL     1      12.219  24.845  22.463  1.00  0.00     0.150 C 
ENDBRANCH  25  32
ENDBRANCH   1  23
TORSDOF 8
ENDMDL
MODEL 2
REMARK VINA RESULT: -5.733752396      6.587      9.020
REMARK  8 active torsions:
REMARK  status: ('A' for Active; 'I' for Inactive)
REMARK    1  A    between atoms: C4_4  and  N1_5 
REMARK    2  A    between atoms: C9_13  and  N3_14 
REMARK    3  A    between atoms: C12_17  and  C13_18 
REMARK       I    between atoms: C13_18  and  N4_20 
REMARK    4  A    between atoms: N4_20  and  C14_21 
REMARK    5  A    between atoms: N4_20  and  C20_31 
REMARK    6  A    between atoms: C14_21  and  C15_22 
REMARK    7  A    between atoms: C15_22  and  C16_25 
REMARK    8  A    between atoms: C16_25  and  C19_28 
ROOT
HETATM    1  N3  UNL     1      17.976  18.189  19.967  1.00  0.00    -0.217 N 
HETATM    2  C10 UNL     1      18.604  16.888  19.885  1.00  0.00     0.142 C 
HETATM    3  C11 UNL     1      17.659  15.828  20.470  1.00  0.00     0.034 C 
HETATM    4  C12 UNL     1      16.413  15.910  19.656  1.00  0.00     0.081 C 
HETATM    5  C23 UNL     1      15.712  17.199  20.058  1.00  0.00     0.034 C 
HETATM    6  C24 UNL     1      16.602  18.317  19.515  1.00  0.00     0.142 C 
ENDROOT
BRANCH   4   7
HETATM    7  C13 UNL     1      15.526  14.758  19.683  1.00  0.00     0.224 C 
HETATM    8  O2  UNL     1      14.516  14.810  20.471  1.00  0.00    -0.273 OA
HETATM    9  N4  UNL     1      15.664  13.543  18.909  1.00  0.00    -0.342 N 
BRANCH   9  10
HETATM   10  C14 UNL     1      14.644  12.541  19.132  1.00  0.00     0.206 C 
BRANCH  10  11
HETATM   11  C15 UNL     1      13.526  12.458  18.191  1.00  0.00     0.271 C 
HETATM   12  F1  UNL     1      13.680  11.340  17.357  1.00  0.00    -0.203 F 
HETATM   13  F2  UNL     1      13.449  13.592  17.355  1.00  0.00    -0.203 F 
BRANCH  11  14
HETATM   14  C16 UNL     1      12.145  12.353  18.773  1.00  0.00     0.079 C 
HETATM   15  C17 UNL     1      11.297  11.282  18.146  1.00  0.00     0.027 C 
HETATM   16  C18 UNL     1      11.453  13.684  18.392  1.00  0.00     0.027 C 
BRANCH  14  17
HETATM   17  C19 UNL     1      12.046  12.263  20.253  1.00  0.00     0.366 C 
HETATM   18  F3  UNL     1      11.731  13.435  20.892  1.00  0.00    -0.213 F 
HETATM   19  F4  UNL     1      11.022  11.366  20.576  1.00  0.00    -0.213 F 
ENDBRANCH  14  17
ENDBRANCH  11  14
ENDBRANCH  10  11
ENDBRANCH   9  10
BRANCH   9  20
HETATM   20  C20 UNL     1      16.810  13.423  18.095  1.00  0.00     0.079 C 
HETATM   21  C21 UNL     1      17.431  12.050  18.068  1.00  0.00     0.032 C 
HETATM   22  C22 UNL     1      16.717  13.861  16.653  1.00  0.00     0.032 C 
ENDBRANCH   9  20
ENDBRANCH   4   7
BRANCH   1  23
HETATM   23  C9  UNL     1      18.713  19.285  20.483  1.00  0.00     0.682 A 
HETATM   24  N2  UNL     1      18.160  20.473  20.749  1.00  0.00    -0.177 N 
HETATM   25  C4  UNL     1      18.881  21.516  21.246  1.00  0.00     0.121 A 
ATOM     26  H2  UNL     1      17.164  20.602  20.574  1.00  0.00     0.186 HD
HETATM   27  C3  UNL     1      20.220  21.328  21.475  1.00  0.00     0.074 A 
HETATM   28  C2  UNL     1      20.804  20.098  21.202  1.00  0.00     0.026 A 
HETATM   29  C1  UNL     1      22.264  19.910  21.459  1.00  0.00     0.069 C 
HETATM   30  N5  UNL     1      20.025  19.121  20.715  1.00  0.00    -0.196 N 
ATOM     31  H5  UNL     1      20.447  18.215  20.513  1.00  0.00     0.184 HD
BRANCH  25  32
HETATM   32  N1  UNL     1      18.256  22.755  21.514  1.00  0.00    -0.363 N 
HETATM   33  C5  UNL     1      17.233  23.332  20.702  1.00  0.00     0.150 C 
HETATM   34  C6  UNL     1      16.086  23.717  21.630  1.00  0.00     0.187 C 
HETATM   35  O1  UNL     1      16.277  23.240  22.908  1.00  0.00    -0.388 OA
HETATM   36  C7  UNL     1      17.423  23.737  23.523  1.00  0.00     0.187 C 
HETATM   37  C8  UNL     1      18.668  23.497  22.691  1.00  0.00     0.150 C 
ENDBRANCH  25  32
ENDBRANCH   1  23
TORSDOF 8
ENDMDL
MODEL 3
REMARK VINA RESULT: -5.558200305      6.788     10.116
REMARK  8 active torsions:
REMARK  status: ('A' for Active; 'I' for Inactive)
REMARK    1  A    between atoms: C4_4  and  N1_5 
REMARK    2  A    between atoms: C9_13  and  N3_14 
REMARK    3  A    between atoms: C12_17  and  C13_18 
REMARK       I    between atoms: C13_18  and  N4_20 
REMARK    4  A    between atoms: N4_20  and  C14_21 
REMARK    5  A    between atoms: N4_20  and  C20_31 
REMARK    6  A    between atoms: C14_21  and  C15_22 
REMARK    7  A    between atoms: C15_22  and  C16_25 
REMARK    8  A    between atoms: C16_25  and  C19_28 
ROOT
HETATM    1  N3  UNL     1      18.278  17.981  19.960  1.00  0.00    -0.217 N 
HETATM    2  C10 UNL     1      19.018  16.785  19.616  1.00  0.00     0.142 C 
HETATM    3  C11 UNL     1      18.292  15.556  20.182  1.00  0.00     0.034 C 
HETATM    4  C12 UNL     1      16.933  15.577  19.570  1.00  0.00     0.081 C 
HETATM    5  C23 UNL     1      16.172  16.715  20.236  1.00  0.00     0.034 C 
HETATM    6  C24 UNL     1      16.845  17.989  19.726  1.00  0.00     0.142 C 
ENDROOT
BRANCH   4   7
HETATM    7  C13 UNL     1      16.187  14.330  19.568  1.00  0.00     0.224 C 
HETATM    8  O2  UNL     1      16.460  13.478  20.487  1.00  0.00    -0.273 OA
HETATM    9  N4  UNL     1      15.158  13.939  18.628  1.00  0.00    -0.342 N 
BRANCH   9  10
HETATM   10  C14 UNL     1      14.577  12.632  18.844  1.00  0.00     0.206 C 
BRANCH  10  11
HETATM   11  C15 UNL     1      13.275  12.546  19.509  1.00  0.00     0.271 C 
HETATM   12  F1  UNL     1      12.991  13.750  20.170  1.00  0.00    -0.203 F 
HETATM   13  F2  UNL     1      13.239  11.521  20.479  1.00  0.00    -0.203 F 
BRANCH  11  14
HETATM   14  C16 UNL     1      12.081  12.257  18.645  1.00  0.00     0.079 C 
HETATM   15  C17 UNL     1      11.352  13.485  18.177  1.00  0.00     0.027 C 
HETATM   16  C18 UNL     1      11.082  11.531  19.579  1.00  0.00     0.027 C 
BRANCH  14  17
HETATM   17  C19 UNL     1      12.292  11.336  17.497  1.00  0.00     0.366 C 
HETATM   18  F3  UNL     1      11.586  10.160  17.551  1.00  0.00    -0.213 F 
HETATM   19  F4  UNL     1      11.869  11.979  16.329  1.00  0.00    -0.213 F 
ENDBRANCH  14  17
ENDBRANCH  11  14
ENDBRANCH  10  11
ENDBRANCH   9  10
BRANCH   9  20
HETATM   20  C20 UNL     1      14.894  14.820  17.558  1.00  0.00     0.079 C 
HETATM   21  C21 UNL     1      14.645  14.153  16.230  1.00  0.00     0.032 C 
HETATM   22  C22 UNL     1      13.790  15.839  17.721  1.00  0.00     0.032 C 
ENDBRANCH   9  20
ENDBRANCH   4   7
BRANCH   1  23
HETATM   23  C9  UNL     1      18.967  19.092  20.507  1.00  0.00     0.682 A 
HETATM   24  N2  UNL     1      20.232  19.026  20.933  1.00  0.00    -0.177 N 
HETATM   25  C4  UNL     1      20.882  20.102  21.455  1.00  0.00     0.121 A 
ATOM     26  H2  UNL     1      20.729  18.138  20.865  1.00  0.00     0.186 HD
HETATM   27  C3  UNL     1      20.202  21.291  21.542  1.00  0.00     0.074 A 
HETATM   28  C2  UNL     1      18.886  21.370  21.102  1.00  0.00     0.026 A 
HETATM   29  C1  UNL     1      18.161  22.673  21.203  1.00  0.00     0.069 C 
HETATM   30  N5  UNL     1      18.319  20.264  20.600  1.00  0.00    -0.196 N 
ATOM     31  H5  UNL     1      17.354  20.315  20.275  1.00  0.00     0.184 HD
BRANCH  25  32
HETATM   32  N1  UNL     1      22.221  19.989  21.893  1.00  0.00    -0.363 N 
HETATM   33  C5  UNL     1      23.231  20.970  21.652  1.00  0.00     0.150 C 
HETATM   34  C6  UNL     1      23.896  21.267  22.992  1.00  0.00     0.187 C 
HETATM   35  O1  UNL     1      23.229  20.672  24.040  1.00  0.00    -0.388 OA
HETATM   36  C7  UNL     1      23.187  19.282  23.957  1.00  0.00     0.187 C 
HETATM   37  C8  UNL     1      22.607  18.806  22.639  1.00  0.00     0.150 C 
ENDBRANCH  25  32
ENDBRANCH   1  23
TORSDOF 8
ENDMDL
MODEL 4
REMARK VINA RESULT: -5.541963009      1.565      1.996
REMARK  8 active torsions:
REMARK  status: ('A' for Active; 'I' for Inactive)
REMARK    1  A    between atoms: C4_4  and  N1_5 
REMARK    2  A    between atoms: C9_13  and  N3_14 
REMARK    3  A    between atoms: C12_17  and  C13_18 
REMARK       I    between atoms: C13_18  and  N4_20 
REMARK    4  A    between atoms: N4_20  and  C14_21 
REMARK    5  A    between atoms: N4_20  and  C20_31 
REMARK    6  A    between atoms: C14_21  and  C15_22 
REMARK    7  A    between atoms: C15_22  and  C16_25 
REMARK    8  A    between atoms: C16_25  and  C19_28 
ROOT
HETATM    1  N3  UNL     1      18.013  23.833  21.600  1.00  0.00    -0.217 N 
HETATM    2  C10 UNL     1      19.442  24.018  21.745  1.00  0.00     0.142 C 
HETATM    3  C11 UNL     1      20.101  22.669  22.065  1.00  0.00     0.034 C 
HETATM    4  C12 UNL     1      19.757  21.774  20.923  1.00  0.00     0.081 C 
HETATM    5  C23 UNL     1      18.281  21.434  21.063  1.00  0.00     0.034 C 
HETATM    6  C24 UNL     1      17.546  22.741  20.766  1.00  0.00     0.142 C 
ENDROOT
BRANCH   4   7
HETATM    7  C13 UNL     1      20.587  20.597  20.729  1.00  0.00     0.224 C 
HETATM    8  O2  UNL     1      20.787  19.842  21.746  1.00  0.00    -0.273 OA
HETATM    9  N4  UNL     1      21.224  20.182  19.497  1.00  0.00    -0.342 N 
BRANCH   9  10
HETATM   10  C14 UNL     1      22.009  18.969  19.578  1.00  0.00     0.206 C 
BRANCH  10  11
HETATM   11  C15 UNL     1      21.431  17.725  19.066  1.00  0.00     0.271 C 
HETATM   12  F1  UNL     1      22.104  17.324  17.902  1.00  0.00    -0.203 F 
HETATM   13  F2  UNL     1      20.069  17.871  18.729  1.00  0.00    -0.203 F 
BRANCH  11  14
HETATM   14  C16 UNL     1      21.443  16.535  19.982  1.00  0.00     0.079 C 
HETATM   15  C17 UNL     1      21.909  15.264  19.329  1.00  0.00     0.027 C 
HETATM   16  C18 UNL     1      19.955  16.284  20.326  1.00  0.00     0.027 C 
BRANCH  14  17
HETATM   17  C19 UNL     1      22.130  16.702  21.290  1.00  0.00     0.366 C 
HETATM   18  F3  UNL     1      21.321  16.605  22.394  1.00  0.00    -0.213 F 
HETATM   19  F4  UNL     1      23.081  15.686  21.425  1.00  0.00    -0.213 F 
ENDBRANCH  14  17
ENDBRANCH  11  14
ENDBRANCH  10  11
ENDBRANCH   9  10
BRANCH   9  20
HETATM   20  C20 UNL     1      21.090  21.036  18.382  1.00  0.00     0.079 C 
HETATM   21  C21 UNL     1      22.328  21.173  17.534  1.00  0.00     0.032 C 
HETATM   22  C22 UNL     1      19.955  20.787  17.417  1.00  0.00     0.032 C 
ENDBRANCH   9  20
ENDBRANCH   4   7
BRANCH   1  23
HETATM   23  C9  UNL     1      17.127  24.713  22.272  1.00  0.00     0.682 A 
HETATM   24  N2  UNL     1      15.847  24.411  22.513  1.00  0.00    -0.177 N 
HETATM   25  C4  UNL     1      15.008  25.265  23.160  1.00  0.00     0.121 A 
ATOM     26  H2  UNL     1      15.486  23.510  22.200  1.00  0.00     0.186 HD
HETATM   27  C3  UNL     1      15.506  26.475  23.574  1.00  0.00     0.074 A 
HETATM   28  C2  UNL     1      16.835  26.798  23.328  1.00  0.00     0.026 A 
HETATM   29  C1  UNL     1      17.361  28.119  23.787  1.00  0.00     0.069 C 
HETATM   30  N5  UNL     1      17.595  25.900  22.685  1.00  0.00    -0.196 N 
ATOM     31  H5  UNL     1      18.572  26.130  22.502  1.00  0.00     0.184 HD
BRANCH  25  32
HETATM   32  N1  UNL     1      13.662  24.906  23.396  1.00  0.00    -0.363 N 
HETATM   33  C5  UNL     1      13.058  24.853  24.689  1.00  0.00     0.150 C 
HETATM   34  C6  UNL     1      11.761  25.650  24.613  1.00  0.00     0.187 C 
HETATM   35  O1  UNL     1      11.643  26.328  23.420  1.00  0.00    -0.388 OA
HETATM   36  C7  UNL     1      11.623  25.494  22.305  1.00  0.00     0.187 C 
HETATM   37  C8  UNL     1      12.825  24.572  22.258  1.00  0.00     0.150 C 
ENDBRANCH  25  32
ENDBRANCH   1  23
TORSDOF 8
ENDMDL
MODEL 5
REMARK VINA RESULT: -5.493671718      6.527      8.200
REMARK  8 active torsions:
REMARK  status: ('A' for Active; 'I' for Inactive)
REMARK    1  A    between atoms: C4_4  and  N1_5 
REMARK    2  A    between atoms: C9_13  and  N3_14 
REMARK    3  A    between atoms: C12_17  and  C13_18 
REMARK       I    between atoms: C13_18  and  N4_20 
REMARK    4  A    between atoms: N4_20  and  C14_21 
REMARK    5  A    between atoms: N4_20  and  C20_31 
REMARK    6  A    between atoms: C14_21  and  C15_22 
REMARK    7  A    between atoms: C15_22  and  C16_25 
REMARK    8  A    between atoms: C16_25  and  C19_28 
ROOT
HETATM    1  N3  UNL     1      16.905  19.978  20.171  1.00  0.00    -0.217 N 
HETATM    2  C10 UNL     1      17.725  19.033  19.443  1.00  0.00     0.142 C 
HETATM    3  C11 UNL     1      17.302  17.602  19.809  1.00  0.00     0.034 C 
HETATM    4  C12 UNL     1      15.861  17.504  19.440  1.00  0.00     0.081 C 
HETATM    5  C23 UNL     1      15.091  18.323  20.466  1.00  0.00     0.034 C 
HETATM    6  C24 UNL     1      15.467  19.775  20.174  1.00  0.00     0.142 C 
ENDROOT
BRANCH   4   7
HETATM    7  C13 UNL     1      15.312  16.171  19.260  1.00  0.00     0.224 C 
HETATM    8  O2  UNL     1      15.896  15.205  19.870  1.00  0.00    -0.273 OA
HETATM    9  N4  UNL     1      14.165  15.810  18.455  1.00  0.00    -0.342 N 
BRANCH   9  10
HETATM   10  C14 UNL     1      13.830  14.402  18.438  1.00  0.00     0.206 C 
BRANCH  10  11
HETATM   11  C15 UNL     1      12.704  13.940  19.251  1.00  0.00     0.271 C 
HETATM   12  F1  UNL     1      11.496  14.166  18.574  1.00  0.00    -0.203 F 
HETATM   13  F2  UNL     1      12.622  14.622  20.484  1.00  0.00    -0.203 F 
BRANCH  11  14
HETATM   14  C16 UNL     1      12.692  12.492  19.648  1.00  0.00     0.079 C 
HETATM   15  C17 UNL     1      13.983  11.772  19.376  1.00  0.00     0.027 C 
HETATM   16  C18 UNL     1      11.660  11.830  18.702  1.00  0.00     0.027 C 
BRANCH  14  17
HETATM   17  C19 UNL     1      12.229  12.176  21.025  1.00  0.00     0.366 C 
HETATM   18  F3  UNL     1      11.024  11.525  21.102  1.00  0.00    -0.213 F 
HETATM   19  F4  UNL     1      13.161  11.322  21.622  1.00  0.00    -0.213 F 
ENDBRANCH  14  17
ENDBRANCH  11  14
ENDBRANCH  10  11
ENDBRANCH   9  10
BRANCH   9  20
HETATM   20  C20 UNL     1      13.552  16.838  17.708  1.00  0.00     0.079 C 
HETATM   21  C21 UNL     1      13.368  16.538  16.243  1.00  0.00     0.032 C 
HETATM   22  C22 UNL     1      12.227  17.383  18.186  1.00  0.00     0.032 C 
ENDBRANCH   9  20
ENDBRANCH   4   7
BRANCH   1  23
HETATM   23  C9  UNL     1      17.524  21.057  20.851  1.00  0.00     0.682 A 
HETATM   24  N2  UNL     1      16.839  22.091  21.349  1.00  0.00    -0.177 N 
HETATM   25  C4  UNL     1      17.447  23.119  22.001  1.00  0.00     0.121 A 
ATOM     26  H2  UNL     1      15.826  22.111  21.236  1.00  0.00     0.186 HD
HETATM   27  C3  UNL     1      18.811  23.081  22.145  1.00  0.00     0.074 A 
HETATM   28  C2  UNL     1      19.532  22.010  21.631  1.00  0.00     0.026 A 
HETATM   29  C1  UNL     1      21.017  21.982  21.797  1.00  0.00     0.069 C 
HETATM   30  N5  UNL     1      18.857  21.036  21.002  1.00  0.00    -0.196 N 
ATOM     31  H5  UNL     1      19.379  20.247  20.623  1.00  0.00     0.184 HD
BRANCH  25  32
HETATM   32  N1  UNL     1      16.685  24.194  22.514  1.00  0.00    -0.363 N 
HETATM   33  C5  UNL     1      15.609  24.045  23.440  1.00  0.00     0.150 C 
HETATM   34  C6  UNL     1      15.862  25.022  24.583  1.00  0.00     0.187 C 
HETATM   35  O1  UNL     1      17.106  25.606  24.494  1.00  0.00    -0.388 OA
HETATM   36  C7  UNL     1      17.290  26.352  23.333  1.00  0.00     0.187 C 
HETATM   37  C8  UNL     1      17.010  25.540  22.082  1.00  0.00     0.150 C 
ENDBRANCH  25  32
ENDBRANCH   1  23
TORSDOF 8
ENDMDL
