MODEL 1
REMARK VINA RESULT: -6.859468286      0.000      0.000
REMARK  6 active torsions:
REMARK  status: ('A' for Active; 'I' for Inactive)
REMARK    1  A    between atoms: C2_2  and  O1_3 
REMARK    2  A    between atoms: O1_3  and  C3_4 
REMARK       I    between atoms: C3_4  and  N1_6 
REMARK    3  A    between atoms: N2_9  and  C6_10 
REMARK    4  A    between atoms: C6_10  and  C7_11 
REMARK    5  A    between atoms: C7_11  and  C8_12 
REMARK       I    between atoms: C8_12  and  N3_14 
REMARK    6  A    between atoms: N3_14  and  C9_16 
ROOT
HETATM    1  C8  UNL     1      34.651  45.211   9.673  1.00  0.00     0.225 C 
HETATM    2  O3  UNL     1      34.984  46.037  10.568  1.00  0.00    -0.273 OA
HETATM    3  N3  UNL     1      34.977  45.447   8.329  1.00  0.00    -0.307 N 
ATOM      4  H3  UNL     1      34.718  44.782   7.600  1.00  0.00     0.171 HD
ENDROOT
BRANCH   1   5
HETATM    5  C7  UNL     1      33.910  43.986  10.048  1.00  0.00     0.133 C 
BRANCH   5   6
HETATM    6  C6  UNL     1      33.820  43.121   8.822  1.00  0.00     0.281 C 
BRANCH   6   7
HETATM    7  N2  UNL     1      32.421  42.829   8.566  1.00  0.00     0.092 N 
HETATM    8  C5  UNL     1      31.678  42.825   9.822  1.00  0.00     0.292 C 
HETATM    9  C4  UNL     1      30.213  42.942   9.465  1.00  0.00     0.158 C 
HETATM   10  N1  UNL     1      30.066  44.375   9.134  1.00  0.00    -0.325 N 
HETATM   11  C3  UNL     1      28.962  45.125   9.555  1.00  0.00     0.362 C 
HETATM   12  C17 UNL     1      31.180  44.910   8.353  1.00  0.00     0.158 C 
HETATM   13  O2  UNL     1      28.039  44.591  10.241  1.00  0.00    -0.238 OA
HETATM   14  C16 UNL     1      31.844  43.759   7.618  1.00  0.00     0.292 C 
BRANCH  11  15
HETATM   15  O1  UNL     1      28.800  46.475   9.260  1.00  0.00    -0.304 OA
BRANCH  15  16
HETATM   16  C2  UNL     1      27.951  46.869   8.176  1.00  0.00     0.176 C 
HETATM   17  C1  UNL     1      28.687  47.707   7.179  1.00  0.00     0.034 C 
ENDBRANCH  15  16
ENDBRANCH  11  15
ENDBRANCH   6   7
ENDBRANCH   5   6
ENDBRANCH   1   5
BRANCH   3  18
HETATM   18  C9  UNL     1      35.694  46.665   8.010  1.00  0.00     0.158 A 
HETATM   19  O4  UNL     1      36.978  46.822   8.027  1.00  0.00    -0.290 OA
HETATM   20  C10 UNL     1      37.332  48.062   7.684  1.00  0.00     0.117 A 
HETATM   21  C11 UNL     1      38.488  48.756   7.540  1.00  0.00     0.075 A 
HETATM   22  C13 UNL     1      36.167  48.712   7.437  1.00  0.00     0.050 A 
HETATM   23 CL1  UNL     1      40.139  48.097   7.815  1.00  0.00    -0.081 Cl
HETATM   24  C12 UNL     1      38.377  50.063   7.155  1.00  0.00     0.077 A 
HETATM   25  S1  UNL     1      36.688  50.280   7.008  1.00  0.00    -0.097 SA
HETATM   26  C14 UNL     1      35.093  47.824   7.642  1.00  0.00     0.009 A 
HETATM   27  C15 UNL     1      33.700  48.216   7.460  1.00  0.00     0.054 C 
ENDBRANCH   3  18
TORSDOF 6
ENDMDL
MODEL 2
REMARK VINA RESULT: -6.805208136      2.419      3.476
REMARK  6 active torsions:
REMARK  status: ('A' for Active; 'I' for Inactive)
REMARK    1  A    between atoms: C2_2  and  O1_3 
REMARK    2  A    between atoms: O1_3  and  C3_4 
REMARK       I    between atoms: C3_4  and  N1_6 
REMARK    3  A    between atoms: N2_9  and  C6_10 
REMARK    4  A    between atoms: C6_10  and  C7_11 
REMARK    5  A    between atoms: C7_11  and  C8_12 
REMARK       I    between atoms: C8_12  and  N3_14 
REMARK    6  A    between atoms: N3_14  and  C9_16 
ROOT
HETATM    1  C8  UNL     1      32.481  44.264   8.457  1.00  0.00     0.225 C 
HETATM    2  O3  UNL     1      32.855  44.162   7.255  1.00  0.00    -0.273 OA
HETATM    3  N3  UNL     1      33.162  45.110   9.345  1.00  0.00    -0.307 N 
ATOM      4  H3  UNL     1      32.864  45.203  10.316  1.00  0.00     0.171 HD
ENDROOT
BRANCH   1   5
HETATM    5  C7  UNL     1      31.317  43.482   8.928  1.00  0.00     0.133 C 
BRANCH   5   6
HETATM    6  C6  UNL     1      30.099  44.024   8.235  1.00  0.00     0.281 C 
BRANCH   6   7
HETATM    7  N2  UNL     1      29.944  45.421   8.600  1.00  0.00     0.092 N 
HETATM    8  C5  UNL     1      29.840  46.238   7.395  1.00  0.00     0.292 C 
HETATM    9  C4  UNL     1      29.268  47.572   7.818  1.00  0.00     0.158 C 
HETATM   10  N1  UNL     1      27.832  47.275   7.999  1.00  0.00    -0.325 N 
HETATM   11  C3  UNL     1      26.831  48.150   7.561  1.00  0.00     0.362 C 
HETATM   12  C17 UNL     1      27.580  45.992   8.653  1.00  0.00     0.158 C 
HETATM   13  O2  UNL     1      27.129  49.242   6.990  1.00  0.00    -0.238 OA
HETATM   14  C16 UNL     1      28.805  45.625   9.471  1.00  0.00     0.292 C 
BRANCH  11  15
HETATM   15  O1  UNL     1      25.473  47.893   7.716  1.00  0.00    -0.304 OA
BRANCH  15  16
HETATM   16  C2  UNL     1      24.510  48.831   7.220  1.00  0.00     0.176 C 
HETATM   17  C1  UNL     1      23.131  48.250   7.216  1.00  0.00     0.034 C 
ENDBRANCH  15  16
ENDBRANCH  11  15
ENDBRANCH   6   7
ENDBRANCH   5   6
ENDBRANCH   1   5
BRANCH   3  18
HETATM   18  C9  UNL     1      34.303  45.847   8.840  1.00  0.00     0.158 A 
HETATM   19  O4  UNL     1      35.537  45.462   8.876  1.00  0.00    -0.290 OA
HETATM   20  C10 UNL     1      36.356  46.364   8.330  1.00  0.00     0.117 A 
HETATM   21  C11 UNL     1      37.688  46.483   8.107  1.00  0.00     0.075 A 
HETATM   22  C13 UNL     1      35.552  47.380   7.929  1.00  0.00     0.050 A 
HETATM   23 CL1  UNL     1      38.931  45.263   8.557  1.00  0.00    -0.081 Cl
HETATM   24  C12 UNL     1      38.108  47.628   7.492  1.00  0.00     0.077 A 
HETATM   25  S1  UNL     1      36.654  48.491   7.247  1.00  0.00    -0.097 SA
HETATM   26  C14 UNL     1      34.217  47.064   8.250  1.00  0.00     0.009 A 
HETATM   27  C15 UNL     1      33.102  47.955   7.949  1.00  0.00     0.054 C 
ENDBRANCH   3  18
TORSDOF 6
ENDMDL
MODEL 3
REMARK VINA RESULT: -6.785725859      2.574      3.798
REMARK  6 active torsions:
REMARK  status: ('A' for Active; 'I' for Inactive)
REMARK    1  A    between atoms: C2_2  and  O1_3 
REMARK    2  A    between atoms: O1_3  and  C3_4 
REMARK       I    between atoms: C3_4  and  N1_6 
REMARK    3  A    between atoms: N2_9  and  C6_10 
REMARK    4  A    between atoms: C6_10  and  C7_11 
REMARK    5  A    between atoms: C7_11  and  C8_12 
REMARK       I    between atoms: C8_12  and  N3_14 
REMARK    6  A    between atoms: N3_14  and  C9_16 
ROOT
HETATM    1  C8  UNL     1      32.572  43.800   9.179  1.00  0.00     0.225 C 
HETATM    2  O3  UNL     1      33.249  44.112  10.199  1.00  0.00    -0.273 OA
HETATM    3  N3  UNL     1      33.072  44.046   7.891  1.00  0.00    -0.307 N 
ATOM      4  H3  UNL     1      32.535  43.791   7.062  1.00  0.00     0.171 HD
ENDROOT
BRANCH   1   5
HETATM    5  C7  UNL     1      31.243  43.172   9.348  1.00  0.00     0.133 C 
BRANCH   5   6
HETATM    6  C6  UNL     1      30.303  43.841   8.386  1.00  0.00     0.281 C 
BRANCH   6   7
HETATM    7  N2  UNL     1      30.056  45.195   8.849  1.00  0.00     0.092 N 
HETATM    8  C5  UNL     1      30.113  46.122   7.723  1.00  0.00     0.292 C 
HETATM    9  C4  UNL     1      29.447  47.402   8.175  1.00  0.00     0.158 C 
HETATM   10  N1  UNL     1      28.009  47.069   8.105  1.00  0.00    -0.325 N 
HETATM   11  C3  UNL     1      27.062  47.969   7.601  1.00  0.00     0.362 C 
HETATM   12  C17 UNL     1      27.696  45.727   8.592  1.00  0.00     0.158 C 
HETATM   13  O2  UNL     1      27.413  49.114   7.186  1.00  0.00    -0.238 OA
HETATM   14  C16 UNL     1      28.794  45.300   9.551  1.00  0.00     0.292 C 
BRANCH  11  15
HETATM   15  O1  UNL     1      25.703  47.680   7.522  1.00  0.00    -0.304 OA
BRANCH  15  16
HETATM   16  C2  UNL     1      24.750  48.749   7.467  1.00  0.00     0.176 C 
HETATM   17  C1  UNL     1      23.391  48.252   7.093  1.00  0.00     0.034 C 
ENDBRANCH  15  16
ENDBRANCH  11  15
ENDBRANCH   6   7
ENDBRANCH   5   6
ENDBRANCH   1   5
BRANCH   3  18
HETATM   18  C9  UNL     1      34.373  44.672   7.777  1.00  0.00     0.158 A 
HETATM   19  O4  UNL     1      34.617  45.941   7.830  1.00  0.00    -0.290 OA
HETATM   20  C10 UNL     1      35.918  46.204   7.691  1.00  0.00     0.117 A 
HETATM   21  C11 UNL     1      36.706  47.307   7.667  1.00  0.00     0.075 A 
HETATM   22  C13 UNL     1      36.514  44.995   7.542  1.00  0.00     0.050 A 
HETATM   23 CL1  UNL     1      36.130  49.002   7.843  1.00  0.00    -0.081 Cl
HETATM   24  C12 UNL     1      38.046  47.101   7.492  1.00  0.00     0.077 A 
HETATM   25  S1  UNL     1      38.162  45.401   7.369  1.00  0.00    -0.097 SA
HETATM   26  C14 UNL     1      35.530  43.988   7.595  1.00  0.00     0.009 A 
HETATM   27  C15 UNL     1      35.845  42.570   7.466  1.00  0.00     0.054 C 
ENDBRANCH   3  18
TORSDOF 6
ENDMDL
MODEL 4
REMARK VINA RESULT: -6.619643211      3.296      6.698
REMARK  6 active torsions:
REMARK  status: ('A' for Active; 'I' for Inactive)
REMARK    1  A    between atoms: C2_2  and  O1_3 
REMARK    2  A    between atoms: O1_3  and  C3_4 
REMARK       I    between atoms: C3_4  and  N1_6 
REMARK    3  A    between atoms: N2_9  and  C6_10 
REMARK    4  A    between atoms: C6_10  and  C7_11 
REMARK    5  A    between atoms: C7_11  and  C8_12 
REMARK       I    between atoms: C8_12  and  N3_14 
REMARK    6  A    between atoms: N3_14  and  C9_16 
ROOT
HETATM    1  C8  UNL     1      31.938  44.314   7.922  1.00  0.00     0.225 C 
HETATM    2  O3  UNL     1      31.963  44.658   6.707  1.00  0.00    -0.273 OA
HETATM    3  N3  UNL     1      31.059  44.940   8.820  1.00  0.00    -0.307 N 
ATOM      4  H3  UNL     1      31.028  44.665   9.802  1.00  0.00     0.171 HD
ENDROOT
BRANCH   1   5
HETATM    5  C7  UNL     1      32.842  43.246   8.399  1.00  0.00     0.133 C 
BRANCH   5   6
HETATM    6  C6  UNL     1      33.107  43.495   9.857  1.00  0.00     0.281 C 
BRANCH   6   7
HETATM    7  N2  UNL     1      34.467  43.982  10.002  1.00  0.00     0.092 N 
HETATM    8  C5  UNL     1      35.127  44.001   8.700  1.00  0.00     0.292 C 
HETATM    9  C4  UNL     1      36.343  44.889   8.838  1.00  0.00     0.158 C 
HETATM   10  N1  UNL     1      35.766  46.248   8.805  1.00  0.00    -0.325 N 
HETATM   11  C3  UNL     1      36.365  47.292   8.089  1.00  0.00     0.362 C 
HETATM   12  C17 UNL     1      34.527  46.375   9.569  1.00  0.00     0.158 C 
HETATM   13  O2  UNL     1      37.436  47.101   7.439  1.00  0.00    -0.238 OA
HETATM   14  C16 UNL     1      34.506  45.287  10.628  1.00  0.00     0.292 C 
BRANCH  11  15
HETATM   15  O1  UNL     1      35.841  48.580   8.039  1.00  0.00    -0.304 OA
BRANCH  15  16
HETATM   16  C2  UNL     1      35.264  49.067   6.821  1.00  0.00     0.176 C 
HETATM   17  C1  UNL     1      33.831  48.659   6.693  1.00  0.00     0.034 C 
ENDBRANCH  15  16
ENDBRANCH  11  15
ENDBRANCH   6   7
ENDBRANCH   5   6
ENDBRANCH   1   5
BRANCH   3  18
HETATM   18  C9  UNL     1      30.200  45.989   8.309  1.00  0.00     0.158 A 
HETATM   19  O4  UNL     1      30.564  46.976   7.557  1.00  0.00    -0.290 OA
HETATM   20  C10 UNL     1      29.540  47.775   7.254  1.00  0.00     0.117 A 
HETATM   21  C11 UNL     1      29.349  48.908   6.533  1.00  0.00     0.075 A 
HETATM   22  C13 UNL     1      28.463  47.228   7.873  1.00  0.00     0.050 A 
HETATM   23 CL1  UNL     1      30.629  49.799   5.638  1.00  0.00    -0.081 Cl
HETATM   24  C12 UNL     1      28.076  49.403   6.493  1.00  0.00     0.077 A 
HETATM   25  S1  UNL     1      27.198  48.291   7.448  1.00  0.00    -0.097 SA
HETATM   26  C14 UNL     1      28.870  46.068   8.562  1.00  0.00     0.009 A 
HETATM   27  C15 UNL     1      27.945  45.244   9.333  1.00  0.00     0.054 C 
ENDBRANCH   3  18
TORSDOF 6
ENDMDL
MODEL 5
REMARK VINA RESULT: -6.582236724      1.929      2.514
REMARK  6 active torsions:
REMARK  status: ('A' for Active; 'I' for Inactive)
REMARK    1  A    between atoms: C2_2  and  O1_3 
REMARK    2  A    between atoms: O1_3  and  C3_4 
REMARK       I    between atoms: C3_4  and  N1_6 
REMARK    3  A    between atoms: N2_9  and  C6_10 
REMARK    4  A    between atoms: C6_10  and  C7_11 
REMARK    5  A    between atoms: C7_11  and  C8_12 
REMARK       I    between atoms: C8_12  and  N3_14 
REMARK    6  A    between atoms: N3_14  and  C9_16 
ROOT
HETATM    1  C8  UNL     1      35.806  43.994   7.632  1.00  0.00     0.225 C 
HETATM    2  O3  UNL     1      35.771  44.510   6.480  1.00  0.00    -0.273 OA
HETATM    3  N3  UNL     1      36.685  44.491   8.607  1.00  0.00    -0.307 N 
ATOM      4  H3  UNL     1      36.715  44.085   9.543  1.00  0.00     0.171 HD
ENDROOT
BRANCH   1   5
HETATM    5  C7  UNL     1      34.915  42.858   7.952  1.00  0.00     0.133 C 
BRANCH   5   6
HETATM    6  C6  UNL     1      33.982  43.310   9.040  1.00  0.00     0.281 C 
BRANCH   6   7
HETATM    7  N2  UNL     1      32.622  42.997   8.640  1.00  0.00     0.092 N 
HETATM    8  C5  UNL     1      31.773  42.878   9.822  1.00  0.00     0.292 C 
HETATM    9  C4  UNL     1      30.342  42.978   9.346  1.00  0.00     0.158 C 
HETATM   10  N1  UNL     1      30.173  44.426   9.107  1.00  0.00    -0.325 N 
HETATM   11  C3  UNL     1      29.010  45.110   9.481  1.00  0.00     0.362 C 
HETATM   12  C17 UNL     1      31.330  45.051   8.468  1.00  0.00     0.158 C 
HETATM   13  O2  UNL     1      28.051  44.500  10.042  1.00  0.00    -0.238 OA
HETATM   14  C16 UNL     1      32.095  43.978   7.714  1.00  0.00     0.292 C 
BRANCH  11  15
HETATM   15  O1  UNL     1      28.827  46.473   9.269  1.00  0.00    -0.304 OA
BRANCH  15  16
HETATM   16  C2  UNL     1      28.035  46.922   8.162  1.00  0.00     0.176 C 
HETATM   17  C1  UNL     1      28.865  47.655   7.157  1.00  0.00     0.034 C 
ENDBRANCH  15  16
ENDBRANCH  11  15
ENDBRANCH   6   7
ENDBRANCH   5   6
ENDBRANCH   1   5
BRANCH   3  18
HETATM   18  C9  UNL     1      37.546  45.598   8.244  1.00  0.00     0.158 A 
HETATM   19  O4  UNL     1      37.217  46.849   8.230  1.00  0.00    -0.290 OA
HETATM   20  C10 UNL     1      38.232  47.626   7.849  1.00  0.00     0.117 A 
HETATM   21  C11 UNL     1      38.446  48.952   7.662  1.00  0.00     0.075 A 
HETATM   22  C13 UNL     1      39.264  46.778   7.613  1.00  0.00     0.050 A 
HETATM   23 CL1  UNL     1      37.225  50.249   7.912  1.00  0.00    -0.081 Cl
HETATM   24  C12 UNL     1      39.695  49.320   7.247  1.00  0.00     0.077 A 
HETATM   25  S1  UNL     1      40.520  47.829   7.132  1.00  0.00    -0.097 SA
HETATM   26  C14 UNL     1      38.840  45.458   7.863  1.00  0.00     0.009 A 
HETATM   27  C15 UNL     1      39.717  44.304   7.702  1.00  0.00     0.054 C 
ENDBRANCH   3  18
TORSDOF 6
ENDMDL
