MODEL 1
REMARK VINA RESULT: -6.710887333      0.000      0.000
REMARK  2 active torsions:
REMARK  status: ('A' for Active; 'I' for Inactive)
REMARK    1  A    between atoms: C5_6  and  N2_7 
REMARK    2  A    between atoms: N3_13  and  C10_14 
ROOT
HETATM    1  N1  UNL     1     121.821  21.272  29.637  1.00  0.00    -0.191 NA
HETATM    2  C1  UNL     1     121.957  20.417  28.870  1.00  0.00     0.107 C 
HETATM    3  C2  UNL     1     122.119  19.322  27.922  1.00  0.00     0.087 A 
HETATM    4  C3  UNL     1     122.653  19.379  26.661  1.00  0.00     0.033 A 
HETATM    5  C4  UNL     1     122.703  18.243  25.961  1.00  0.00     0.039 A 
HETATM    6  C5  UNL     1     122.213  17.108  26.556  1.00  0.00     0.076 A 
HETATM    7  S1  UNL     1     121.702  17.677  28.080  1.00  0.00    -0.061 SA
ENDROOT
BRANCH   6   8
HETATM    8  N2  UNL     1     122.163  15.776  25.996  1.00  0.00    -0.340 N 
HETATM    9  C6  UNL     1     122.937  14.844  26.436  1.00  0.00     0.080 C 
HETATM   10  C7  UNL     1     123.933  15.076  27.547  1.00  0.00     0.078 C 
HETATM   11  N3  UNL     1     123.014  13.501  26.007  1.00  0.00    -0.366 N 
HETATM   12  C8  UNL     1     123.983  13.643  28.094  1.00  0.00     0.027 C 
HETATM   13  C9  UNL     1     124.080  12.897  26.780  1.00  0.00     0.125 C 
ATOM     14  H2  UNL     1     121.506  15.572  25.242  1.00  0.00     0.167 HD
BRANCH  11  15
HETATM   15  C10 UNL     1     122.185  12.853  24.986  1.00  0.00     0.085 C 
HETATM   16  C11 UNL     1     121.021  12.132  25.630  1.00  0.00     0.025 C 
HETATM   17  C12 UNL     1     121.378  10.856  26.304  1.00  0.00     0.002 C 
HETATM   18  C13 UNL     1     122.036   9.917  25.332  1.00  0.00     0.000 C 
HETATM   19  C14 UNL     1     123.255  10.587  24.743  1.00  0.00     0.002 C 
HETATM   20  C15 UNL     1     122.947  11.912  24.112  1.00  0.00     0.025 C 
ENDBRANCH  11  15
ENDBRANCH   6   8
TORSDOF 2
ENDMDL
MODEL 2
REMARK VINA RESULT: -6.580828990      3.969      6.625
REMARK  2 active torsions:
REMARK  status: ('A' for Active; 'I' for Inactive)
REMARK    1  A    between atoms: C5_6  and  N2_7 
REMARK    2  A    between atoms: N3_13  and  C10_14 
ROOT
HETATM    1  N1  UNL     1     121.908  15.856  25.609  1.00  0.00    -0.191 NA
HETATM    2  C1  UNL     1     122.207  14.745  25.736  1.00  0.00     0.107 C 
HETATM    3  C2  UNL     1     122.566  13.340  25.879  1.00  0.00     0.087 A 
HETATM    4  C3  UNL     1     123.503  12.796  26.718  1.00  0.00     0.033 A 
HETATM    5  C4  UNL     1     123.669  11.472  26.682  1.00  0.00     0.039 A 
HETATM    6  C5  UNL     1     122.890  10.758  25.806  1.00  0.00     0.076 A 
HETATM    7  S1  UNL     1     121.951  11.974  25.066  1.00  0.00    -0.061 SA
ENDROOT
BRANCH   6   8
HETATM    8  N2  UNL     1     122.894   9.328  25.595  1.00  0.00    -0.340 N 
HETATM    9  C6  UNL     1     121.914   8.596  26.003  1.00  0.00     0.080 C 
HETATM   10  C7  UNL     1     120.715   9.174  26.719  1.00  0.00     0.078 C 
HETATM   11  N3  UNL     1     121.759   7.199  25.876  1.00  0.00    -0.366 N 
HETATM   12  C8  UNL     1     119.686   8.114  26.304  1.00  0.00     0.027 C 
HETATM   13  C9  UNL     1     120.519   6.873  26.552  1.00  0.00     0.125 C 
ATOM     14  H2  UNL     1     123.683   8.892  25.117  1.00  0.00     0.167 HD
BRANCH  11  15
HETATM   15  C10 UNL     1     122.669   6.269  25.202  1.00  0.00     0.085 C 
HETATM   16  C11 UNL     1     121.943   4.994  24.833  1.00  0.00     0.025 C 
HETATM   17  C12 UNL     1     121.681   4.078  25.975  1.00  0.00     0.002 C 
HETATM   18  C13 UNL     1     122.969   3.708  26.657  1.00  0.00     0.000 C 
HETATM   19  C14 UNL     1     123.667   4.967  27.112  1.00  0.00     0.002 C 
HETATM   20  C15 UNL     1     123.890   5.948  26.000  1.00  0.00     0.025 C 
ENDBRANCH  11  15
ENDBRANCH   6   8
TORSDOF 2
ENDMDL
MODEL 3
REMARK VINA RESULT: -6.532541896      5.176      9.548
REMARK  2 active torsions:
REMARK  status: ('A' for Active; 'I' for Inactive)
REMARK    1  A    between atoms: C5_6  and  N2_7 
REMARK    2  A    between atoms: N3_13  and  C10_14 
ROOT
HETATM    1  N1  UNL     1     117.459   3.106  27.342  1.00  0.00    -0.191 NA
HETATM    2  C1  UNL     1     118.121   3.906  26.831  1.00  0.00     0.107 C 
HETATM    3  C2  UNL     1     118.943   4.932  26.203  1.00  0.00     0.087 A 
HETATM    4  C3  UNL     1     119.858   4.771  25.195  1.00  0.00     0.033 A 
HETATM    5  C4  UNL     1     120.504   5.859  24.770  1.00  0.00     0.039 A 
HETATM    6  C5  UNL     1     120.205   7.053  25.376  1.00  0.00     0.076 A 
HETATM    7  S1  UNL     1     119.024   6.604  26.522  1.00  0.00    -0.061 SA
ENDROOT
BRANCH   6   8
HETATM    8  N2  UNL     1     120.773   8.350  25.085  1.00  0.00    -0.340 N 
HETATM    9  C6  UNL     1     121.755   8.814  25.781  1.00  0.00     0.080 C 
HETATM   10  C7  UNL     1     122.368   8.046  26.928  1.00  0.00     0.078 C 
HETATM   11  N3  UNL     1     122.422  10.048  25.629  1.00  0.00    -0.366 N 
HETATM   12  C8  UNL     1     123.779   8.646  26.859  1.00  0.00     0.027 C 
HETATM   13  C9  UNL     1     123.403  10.104  26.696  1.00  0.00     0.125 C 
ATOM     14  H2  UNL     1     120.391   8.907  24.320  1.00  0.00     0.167 HD
BRANCH  11  15
HETATM   15  C10 UNL     1     122.173  11.066  24.604  1.00  0.00     0.085 C 
HETATM   16  C11 UNL     1     123.158  12.206  24.740  1.00  0.00     0.025 C 
HETATM   17  C12 UNL     1     122.886  13.128  25.874  1.00  0.00     0.002 C 
HETATM   18  C13 UNL     1     121.505  13.709  25.758  1.00  0.00     0.000 C 
HETATM   19  C14 UNL     1     120.497  12.585  25.711  1.00  0.00     0.002 C 
HETATM   20  C15 UNL     1     120.776  11.594  24.620  1.00  0.00     0.025 C 
ENDBRANCH  11  15
ENDBRANCH   6   8
TORSDOF 2
ENDMDL
MODEL 4
REMARK VINA RESULT: -6.492086061      6.214     10.059
REMARK  2 active torsions:
REMARK  status: ('A' for Active; 'I' for Inactive)
REMARK    1  A    between atoms: C5_6  and  N2_7 
REMARK    2  A    between atoms: N3_13  and  C10_14 
ROOT
HETATM    1  N1  UNL     1     116.382   2.564  26.599  1.00  0.00    -0.191 NA
HETATM    2  C1  UNL     1     117.098   3.440  26.843  1.00  0.00     0.107 C 
HETATM    3  C2  UNL     1     117.995   4.552  27.128  1.00  0.00     0.087 A 
HETATM    4  C3  UNL     1     118.721   4.771  28.271  1.00  0.00     0.033 A 
HETATM    5  C4  UNL     1     119.484   5.866  28.316  1.00  0.00     0.039 A 
HETATM    6  C5  UNL     1     119.482   6.687  27.216  1.00  0.00     0.076 A 
HETATM    7  S1  UNL     1     118.408   5.891  26.158  1.00  0.00    -0.061 SA
ENDROOT
BRANCH   6   8
HETATM    8  N2  UNL     1     120.223   7.916  27.039  1.00  0.00    -0.340 N 
HETATM    9  C6  UNL     1     121.459   7.896  26.672  1.00  0.00     0.080 C 
HETATM   10  C7  UNL     1     122.204   6.608  26.409  1.00  0.00     0.078 C 
HETATM   11  N3  UNL     1     122.319   8.992  26.451  1.00  0.00    -0.366 N 
HETATM   12  C8  UNL     1     123.219   7.152  25.394  1.00  0.00     0.027 C 
HETATM   13  C9  UNL     1     123.610   8.425  26.115  1.00  0.00     0.125 C 
ATOM     14  H2  UNL     1     119.762   8.811  27.206  1.00  0.00     0.167 HD
BRANCH  11  15
HETATM   15  C10 UNL     1     121.977  10.415  26.545  1.00  0.00     0.085 C 
HETATM   16  C11 UNL     1     120.836  10.747  25.610  1.00  0.00     0.025 C 
HETATM   17  C12 UNL     1     121.213  10.822  24.174  1.00  0.00     0.002 C 
HETATM   18  C13 UNL     1     122.301  11.839  23.971  1.00  0.00     0.000 C 
HETATM   19  C14 UNL     1     123.487  11.475  24.831  1.00  0.00     0.002 C 
HETATM   20  C15 UNL     1     123.134  11.322  26.281  1.00  0.00     0.025 C 
ENDBRANCH  11  15
ENDBRANCH   6   8
TORSDOF 2
ENDMDL
MODEL 5
REMARK VINA RESULT: -6.333288905      3.627      6.009
REMARK  2 active torsions:
REMARK  status: ('A' for Active; 'I' for Inactive)
REMARK    1  A    between atoms: C5_6  and  N2_7 
REMARK    2  A    between atoms: N3_13  and  C10_14 
ROOT
HETATM    1  N1  UNL     1     122.167  16.509  25.869  1.00  0.00    -0.191 NA
HETATM    2  C1  UNL     1     122.174  15.352  25.867  1.00  0.00     0.107 C 
HETATM    3  C2  UNL     1     122.158  13.895  25.859  1.00  0.00     0.087 A 
HETATM    4  C3  UNL     1     123.192  13.044  26.153  1.00  0.00     0.033 A 
HETATM    5  C4  UNL     1     122.951  11.733  26.080  1.00  0.00     0.039 A 
HETATM    6  C5  UNL     1     121.688  11.338  25.714  1.00  0.00     0.076 A 
HETATM    7  S1  UNL     1     120.884  12.825  25.488  1.00  0.00    -0.061 SA
ENDROOT
BRANCH   6   8
HETATM    8  N2  UNL     1     121.200   9.986  25.570  1.00  0.00    -0.340 N 
HETATM    9  C6  UNL     1     121.991   8.977  25.717  1.00  0.00     0.080 C 
HETATM   10  C7  UNL     1     123.457   9.139  26.044  1.00  0.00     0.078 C 
HETATM   11  N3  UNL     1     121.679   7.605  25.614  1.00  0.00    -0.366 N 
HETATM   12  C8  UNL     1     123.663   7.805  26.773  1.00  0.00     0.027 C 
HETATM   13  C9  UNL     1     122.930   6.897  25.807  1.00  0.00     0.125 C 
ATOM     14  H2  UNL     1     120.217   9.826  25.348  1.00  0.00     0.167 HD
BRANCH  11  15
HETATM   15  C10 UNL     1     120.361   7.016  25.362  1.00  0.00     0.085 C 
HETATM   16  C11 UNL     1     119.402   7.370  26.477  1.00  0.00     0.025 C 
HETATM   17  C12 UNL     1     119.615   6.617  27.741  1.00  0.00     0.002 C 
HETATM   18  C13 UNL     1     119.523   5.137  27.490  1.00  0.00     0.000 C 
HETATM   19  C14 UNL     1     120.538   4.748  26.441  1.00  0.00     0.002 C 
HETATM   20  C15 UNL     1     120.398   5.535  25.172  1.00  0.00     0.025 C 
ENDBRANCH  11  15
ENDBRANCH   6   8
TORSDOF 2
ENDMDL
