MODEL 1
REMARK VINA RESULT: -8.059176632      0.000      0.000
REMARK  8 active torsions:
REMARK  status: ('A' for Active; 'I' for Inactive)
REMARK    1  A    between atoms: C6_6  and  C7_7 
REMARK       I    between atoms: C7_7  and  N1_9 
REMARK    2  A    between atoms: N1_9  and  C8_11 
REMARK    3  A    between atoms: C8_11  and  C9_12 
REMARK    4  A    between atoms: C9_12  and  N2_13 
REMARK       I    between atoms: N3_16  and  C12_17 
REMARK    5  A    between atoms: C12_17  and  C13_19 
REMARK    6  A    between atoms: C16_22  and  N4_23 
REMARK    7  A    between atoms: C17_27  and  N5_28 
REMARK       I    between atoms: N5_28  and  C18_30 
REMARK    8  A    between atoms: C18_30  and  C19_32 
ROOT
HETATM    1  C13 UNL     1      22.888  35.866  -7.101  1.00  0.00     0.080 C 
HETATM    2  C14 UNL     1      24.328  35.828  -6.744  1.00  0.00     0.016 C 
HETATM    3  C15 UNL     1      25.125  35.371  -7.941  1.00  0.00     0.036 C 
HETATM    4  C16 UNL     1      24.339  34.591  -8.951  1.00  0.00     0.206 C 
HETATM    5  C17 UNL     1      23.145  35.363  -9.469  1.00  0.00     0.116 C 
HETATM    6  C23 UNL     1      22.783  36.495  -8.500  1.00  0.00     0.041 C 
ENDROOT
BRANCH   1   7
HETATM    7  C12 UNL     1      21.991  36.527  -6.152  1.00  0.00     0.225 C 
HETATM    8  N3  UNL     1      22.249  37.805  -5.597  1.00  0.00    -0.334 N 
HETATM    9  C2  UNL     1      23.414  38.575  -5.918  1.00  0.00     0.084 C 
HETATM   10  C6  UNL     1      21.300  38.351  -4.634  1.00  0.00     0.179 C 
HETATM   11  C1  UNL     1      23.139  39.836  -6.711  1.00  0.00     0.032 C 
HETATM   12  C3  UNL     1      24.115  39.046  -4.640  1.00  0.00     0.025 C 
HETATM   13  C4  UNL     1      23.181  39.843  -3.789  1.00  0.00     0.004 C 
HETATM   14  C5  UNL     1      21.906  39.129  -3.534  1.00  0.00     0.035 C 
HETATM   15  O2  UNL     1      20.909  35.926  -5.794  1.00  0.00    -0.273 OA
BRANCH  10  16
HETATM   16  C7  UNL     1      20.143  39.012  -5.316  1.00  0.00     0.240 C 
HETATM   17  O1  UNL     1      19.153  39.241  -4.613  1.00  0.00    -0.271 OA
HETATM   18  N1  UNL     1      20.216  39.336  -6.667  1.00  0.00    -0.358 N 
ATOM     19  H1  UNL     1      21.098  39.086  -7.113  1.00  0.00     0.162 HD
BRANCH  18  20
HETATM   20  C8  UNL     1      19.274  39.957  -7.535  1.00  0.00     0.152 C 
BRANCH  20  21
HETATM   21  C9  UNL     1      19.730  40.530  -8.808  1.00  0.00     0.290 C 
BRANCH  21  22
HETATM   22  N2  UNL     1      19.380  39.933 -10.035  1.00  0.00     0.081 N 
HETATM   23  C10 UNL     1      20.493  39.258 -10.692  1.00  0.00     0.309 C 
HETATM   24  C11 UNL     1      18.830  40.883 -10.980  1.00  0.00     0.309 C 
ENDBRANCH  21  22
ENDBRANCH  20  21
ENDBRANCH  18  20
ENDBRANCH  10  16
ENDBRANCH   1   7
BRANCH   5  25
HETATM   25  N5  UNL     1      23.323  35.836 -10.823  1.00  0.00    -0.350 N 
HETATM   26  C18 UNL     1      22.227  36.053 -11.701  1.00  0.00     0.252 C 
HETATM   27  O3  UNL     1      21.083  35.828 -11.290  1.00  0.00    -0.268 OA
ATOM     28  H5  UNL     1      24.268  36.020 -11.160  1.00  0.00     0.163 HD
BRANCH  26  29
HETATM   29  C19 UNL     1      22.406  36.539 -13.095  1.00  0.00     0.040 A 
HETATM   30  C20 UNL     1      21.358  37.101 -13.783  1.00  0.00     0.068 A 
HETATM   31  S1  UNL     1      22.030  37.492 -15.299  1.00  0.00    -0.089 SA
HETATM   32  C21 UNL     1      23.618  36.942 -15.042  1.00  0.00     0.075 A 
HETATM   33 CL1  UNL     1      25.012  36.970 -16.146  1.00  0.00    -0.076 Cl
HETATM   34  C22 UNL     1      23.582  36.464 -13.771  1.00  0.00     0.048 A 
ENDBRANCH  26  29
ENDBRANCH   5  25
BRANCH   4  35
HETATM   35  N4  UNL     1      25.219  34.391 -10.102  1.00  0.00    -0.073 N 
ATOM     36  H43 UNL     1      26.206  34.339  -9.850  1.00  0.00     0.274 HD
ATOM     37  H42 UNL     1      25.142  33.460 -10.511  1.00  0.00     0.274 HD
ATOM     38  H41 UNL     1      25.011  35.140 -10.762  1.00  0.00     0.274 HD
ENDBRANCH   4  35
TORSDOF 8
ENDMDL
MODEL 2
REMARK VINA RESULT: -7.960804201      1.082      1.482
REMARK  8 active torsions:
REMARK  status: ('A' for Active; 'I' for Inactive)
REMARK    1  A    between atoms: C6_6  and  C7_7 
REMARK       I    between atoms: C7_7  and  N1_9 
REMARK    2  A    between atoms: N1_9  and  C8_11 
REMARK    3  A    between atoms: C8_11  and  C9_12 
REMARK    4  A    between atoms: C9_12  and  N2_13 
REMARK       I    between atoms: N3_16  and  C12_17 
REMARK    5  A    between atoms: C12_17  and  C13_19 
REMARK    6  A    between atoms: C16_22  and  N4_23 
REMARK    7  A    between atoms: C17_27  and  N5_28 
REMARK       I    between atoms: N5_28  and  C18_30 
REMARK    8  A    between atoms: C18_30  and  C19_32 
ROOT
HETATM    1  C13 UNL     1      22.888  35.875  -7.114  1.00  0.00     0.080 C 
HETATM    2  C14 UNL     1      24.328  35.844  -6.756  1.00  0.00     0.016 C 
HETATM    3  C15 UNL     1      25.128  35.389  -7.952  1.00  0.00     0.036 C 
HETATM    4  C16 UNL     1      24.345  34.605  -8.962  1.00  0.00     0.206 C 
HETATM    5  C17 UNL     1      23.149  35.371  -9.481  1.00  0.00     0.116 C 
HETATM    6  C23 UNL     1      22.781  36.502  -8.513  1.00  0.00     0.041 C 
ENDROOT
BRANCH   1   7
HETATM    7  C12 UNL     1      21.987  36.533  -6.166  1.00  0.00     0.225 C 
HETATM    8  N3  UNL     1      22.242  37.811  -5.608  1.00  0.00    -0.334 N 
HETATM    9  C2  UNL     1      23.406  38.583  -5.925  1.00  0.00     0.084 C 
HETATM   10  C6  UNL     1      21.290  38.354  -4.646  1.00  0.00     0.179 C 
HETATM   11  C1  UNL     1      23.130  39.845  -6.717  1.00  0.00     0.032 C 
HETATM   12  C3  UNL     1      24.103  39.054  -4.645  1.00  0.00     0.025 C 
HETATM   13  C4  UNL     1      23.166  39.848  -3.794  1.00  0.00     0.004 C 
HETATM   14  C5  UNL     1      21.892  39.130  -3.544  1.00  0.00     0.035 C 
HETATM   15  O2  UNL     1      20.906  35.930  -5.811  1.00  0.00    -0.273 OA
BRANCH  10  16
HETATM   16  C7  UNL     1      20.133  39.013  -5.330  1.00  0.00     0.240 C 
HETATM   17  O1  UNL     1      19.156  39.274  -4.621  1.00  0.00    -0.271 OA
HETATM   18  N1  UNL     1      20.192  39.303  -6.690  1.00  0.00    -0.358 N 
ATOM     19  H1  UNL     1      21.066  39.029  -7.141  1.00  0.00     0.162 HD
BRANCH  18  20
HETATM   20  C8  UNL     1      19.248  39.914  -7.561  1.00  0.00     0.152 C 
BRANCH  20  21
HETATM   21  C9  UNL     1      19.038  41.366  -7.498  1.00  0.00     0.290 C 
BRANCH  21  22
HETATM   22  N2  UNL     1      20.060  42.224  -7.045  1.00  0.00     0.081 N 
HETATM   23  C10 UNL     1      19.788  42.814  -5.739  1.00  0.00     0.309 C 
HETATM   24  C11 UNL     1      20.323  43.311  -7.965  1.00  0.00     0.309 C 
ENDBRANCH  21  22
ENDBRANCH  20  21
ENDBRANCH  18  20
ENDBRANCH  10  16
ENDBRANCH   1   7
BRANCH   5  25
HETATM   25  N5  UNL     1      23.325  35.844 -10.835  1.00  0.00    -0.350 N 
HETATM   26  C18 UNL     1      22.227  36.079 -11.706  1.00  0.00     0.252 C 
HETATM   27  O3  UNL     1      21.082  35.871 -11.288  1.00  0.00    -0.268 OA
ATOM     28  H5  UNL     1      24.271  36.015 -11.178  1.00  0.00     0.163 HD
BRANCH  26  29
HETATM   29  C19 UNL     1      22.405  36.564 -13.101  1.00  0.00     0.040 A 
HETATM   30  C20 UNL     1      21.349  37.102 -13.797  1.00  0.00     0.068 A 
HETATM   31  S1  UNL     1      22.023  37.503 -15.310  1.00  0.00    -0.089 SA
HETATM   32  C21 UNL     1      23.620  36.988 -15.041  1.00  0.00     0.075 A 
HETATM   33 CL1  UNL     1      25.021  37.042 -16.136  1.00  0.00    -0.076 Cl
HETATM   34  C22 UNL     1      23.586  36.513 -13.769  1.00  0.00     0.048 A 
ENDBRANCH  26  29
ENDBRANCH   5  25
BRANCH   4  35
HETATM   35  N4  UNL     1      25.227  34.408 -10.112  1.00  0.00    -0.073 N 
ATOM     36  H43 UNL     1      26.031  35.035 -10.116  1.00  0.00     0.274 HD
ATOM     37  H42 UNL     1      25.749  33.532 -10.075  1.00  0.00     0.274 HD
ATOM     38  H41 UNL     1      24.644  34.495 -10.945  1.00  0.00     0.274 HD
ENDBRANCH   4  35
TORSDOF 8
ENDMDL
MODEL 3
REMARK VINA RESULT: -7.752064130      3.698      6.143
REMARK  8 active torsions:
REMARK  status: ('A' for Active; 'I' for Inactive)
REMARK    1  A    between atoms: C6_6  and  C7_7 
REMARK       I    between atoms: C7_7  and  N1_9 
REMARK    2  A    between atoms: N1_9  and  C8_11 
REMARK    3  A    between atoms: C8_11  and  C9_12 
REMARK    4  A    between atoms: C9_12  and  N2_13 
REMARK       I    between atoms: N3_16  and  C12_17 
REMARK    5  A    between atoms: C12_17  and  C13_19 
REMARK    6  A    between atoms: C16_22  and  N4_23 
REMARK    7  A    between atoms: C17_27  and  N5_28 
REMARK       I    between atoms: N5_28  and  C18_30 
REMARK    8  A    between atoms: C18_30  and  C19_32 
ROOT
HETATM    1  C13 UNL     1      22.933  38.477  -4.157  1.00  0.00     0.080 C 
HETATM    2  C14 UNL     1      24.347  38.145  -3.854  1.00  0.00     0.016 C 
HETATM    3  C15 UNL     1      24.768  36.958  -4.686  1.00  0.00     0.036 C 
HETATM    4  C16 UNL     1      23.634  36.103  -5.168  1.00  0.00     0.206 C 
HETATM    5  C17 UNL     1      22.626  36.889  -5.976  1.00  0.00     0.116 C 
HETATM    6  C23 UNL     1      22.762  38.388  -5.682  1.00  0.00     0.041 C 
ENDROOT
BRANCH   1   7
HETATM    7  C12 UNL     1      22.429  39.751  -3.640  1.00  0.00     0.225 C 
HETATM    8  N3  UNL     1      21.153  40.275  -3.966  1.00  0.00    -0.334 N 
HETATM    9  C2  UNL     1      20.231  39.601  -4.832  1.00  0.00     0.084 C 
HETATM   10  C6  UNL     1      20.771  41.571  -3.419  1.00  0.00     0.179 C 
HETATM   11  C1  UNL     1      18.982  39.086  -4.146  1.00  0.00     0.032 C 
HETATM   12  C3  UNL     1      19.730  40.550  -5.925  1.00  0.00     0.025 C 
HETATM   13  C4  UNL     1      19.093  41.760  -5.323  1.00  0.00     0.004 C 
HETATM   14  C5  UNL     1      19.971  42.418  -4.325  1.00  0.00     0.035 C 
HETATM   15  O2  UNL     1      23.175  40.442  -2.848  1.00  0.00    -0.273 OA
BRANCH  10  16
HETATM   16  C7  UNL     1      20.232  41.443  -2.028  1.00  0.00     0.240 C 
HETATM   17  O1  UNL     1      19.057  41.076  -1.929  1.00  0.00    -0.271 OA
HETATM   18  N1  UNL     1      21.041  41.729  -0.932  1.00  0.00    -0.358 N 
ATOM     19  H1  UNL     1      21.989  42.019  -1.172  1.00  0.00     0.162 HD
BRANCH  18  20
HETATM   20  C8  UNL     1      20.777  41.686   0.466  1.00  0.00     0.152 C 
BRANCH  20  21
HETATM   21  C9  UNL     1      21.896  41.700   1.415  1.00  0.00     0.290 C 
BRANCH  21  22
HETATM   22  N2  UNL     1      21.732  41.230   2.733  1.00  0.00     0.081 N 
HETATM   23  C10 UNL     1      22.944  40.651   3.300  1.00  0.00     0.309 C 
HETATM   24  C11 UNL     1      20.684  40.237   2.844  1.00  0.00     0.309 C 
ENDBRANCH  21  22
ENDBRANCH  20  21
ENDBRANCH  18  20
ENDBRANCH  10  16
ENDBRANCH   1   7
BRANCH   5  25
HETATM   25  N5  UNL     1      22.688  36.599  -7.390  1.00  0.00    -0.350 N 
HETATM   26  C18 UNL     1      21.586  36.823  -8.259  1.00  0.00     0.252 C 
HETATM   27  O3  UNL     1      20.540  37.282  -7.787  1.00  0.00    -0.268 OA
ATOM     28  H5  UNL     1      23.552  36.221  -7.779  1.00  0.00     0.163 HD
BRANCH  26  29
HETATM   29  C19 UNL     1      21.645  36.526  -9.716  1.00  0.00     0.040 A 
HETATM   30  C20 UNL     1      22.724  35.867 -10.254  1.00  0.00     0.068 A 
HETATM   31  S1  UNL     1      22.348  35.760 -11.912  1.00  0.00    -0.089 SA
HETATM   32  C21 UNL     1      20.841  36.545 -11.901  1.00  0.00     0.075 A 
HETATM   33 CL1  UNL     1      19.732  36.875 -13.251  1.00  0.00    -0.076 Cl
HETATM   34  C22 UNL     1      20.669  36.873 -10.593  1.00  0.00     0.048 A 
ENDBRANCH  26  29
ENDBRANCH   5  25
BRANCH   4  35
HETATM   35  N4  UNL     1      24.213  35.123  -6.087  1.00  0.00    -0.073 N 
ATOM     36  H43 UNL     1      24.138  34.163  -5.752  1.00  0.00     0.274 HD
ATOM     37  H42 UNL     1      23.669  35.002  -6.941  1.00  0.00     0.274 HD
ATOM     38  H41 UNL     1      25.175  35.417  -6.259  1.00  0.00     0.274 HD
ENDBRANCH   4  35
TORSDOF 8
ENDMDL
MODEL 4
REMARK VINA RESULT: -7.690330138      3.678      5.658
REMARK  8 active torsions:
REMARK  status: ('A' for Active; 'I' for Inactive)
REMARK    1  A    between atoms: C6_6  and  C7_7 
REMARK       I    between atoms: C7_7  and  N1_9 
REMARK    2  A    between atoms: N1_9  and  C8_11 
REMARK    3  A    between atoms: C8_11  and  C9_12 
REMARK    4  A    between atoms: C9_12  and  N2_13 
REMARK       I    between atoms: N3_16  and  C12_17 
REMARK    5  A    between atoms: C12_17  and  C13_19 
REMARK    6  A    between atoms: C16_22  and  N4_23 
REMARK    7  A    between atoms: C17_27  and  N5_28 
REMARK       I    between atoms: N5_28  and  C18_30 
REMARK    8  A    between atoms: C18_30  and  C19_32 
ROOT
HETATM    1  C13 UNL     1      22.808  38.428  -4.448  1.00  0.00     0.080 C 
HETATM    2  C14 UNL     1      24.198  38.028  -4.115  1.00  0.00     0.016 C 
HETATM    3  C15 UNL     1      24.587  36.837  -4.956  1.00  0.00     0.036 C 
HETATM    4  C16 UNL     1      23.430  36.042  -5.482  1.00  0.00     0.206 C 
HETATM    5  C17 UNL     1      22.479  36.886  -6.302  1.00  0.00     0.116 C 
HETATM    6  C23 UNL     1      22.673  38.372  -5.978  1.00  0.00     0.041 C 
ENDROOT
BRANCH   1   7
HETATM    7  C12 UNL     1      22.348  39.715  -3.920  1.00  0.00     0.225 C 
HETATM    8  N3  UNL     1      21.055  40.240  -4.167  1.00  0.00    -0.334 N 
HETATM    9  C2  UNL     1      20.071  39.556  -4.952  1.00  0.00     0.084 C 
HETATM   10  C6  UNL     1      20.718  41.548  -3.618  1.00  0.00     0.179 C 
HETATM   11  C1  UNL     1      18.871  39.062  -4.171  1.00  0.00     0.032 C 
HETATM   12  C3  UNL     1      19.499  40.487  -6.025  1.00  0.00     0.025 C 
HETATM   13  C4  UNL     1      18.911  41.712  -5.403  1.00  0.00     0.004 C 
HETATM   14  C5  UNL     1      19.860  42.384  -4.482  1.00  0.00     0.035 C 
HETATM   15  O2  UNL     1      23.151  40.415  -3.196  1.00  0.00    -0.273 OA
BRANCH  10  16
HETATM   16  C7  UNL     1      20.278  41.450  -2.191  1.00  0.00     0.240 C 
HETATM   17  O1  UNL     1      19.089  41.173  -2.004  1.00  0.00    -0.271 OA
HETATM   18  N1  UNL     1      21.187  41.662  -1.159  1.00  0.00    -0.358 N 
ATOM     19  H1  UNL     1      22.134  41.880  -1.470  1.00  0.00     0.162 HD
BRANCH  18  20
HETATM   20  C8  UNL     1      21.027  41.627   0.255  1.00  0.00     0.152 C 
BRANCH  20  21
HETATM   21  C9  UNL     1      20.303  42.713   0.928  1.00  0.00     0.290 C 
BRANCH  21  22
HETATM   22  N2  UNL     1      20.107  43.954   0.291  1.00  0.00     0.081 N 
HETATM   23  C10 UNL     1      20.621  45.087   1.053  1.00  0.00     0.309 C 
HETATM   24  C11 UNL     1      18.712  44.221   0.006  1.00  0.00     0.309 C 
ENDBRANCH  21  22
ENDBRANCH  20  21
ENDBRANCH  18  20
ENDBRANCH  10  16
ENDBRANCH   1   7
BRANCH   5  25
HETATM   25  N5  UNL     1      22.565  36.617  -7.719  1.00  0.00    -0.350 N 
HETATM   26  C18 UNL     1      21.465  36.815  -8.597  1.00  0.00     0.252 C 
HETATM   27  O3  UNL     1      20.399  37.231  -8.129  1.00  0.00    -0.268 OA
ATOM     28  H5  UNL     1      23.445  36.274  -8.103  1.00  0.00     0.163 HD
BRANCH  26  29
HETATM   29  C19 UNL     1      21.549  36.539 -10.056  1.00  0.00     0.040 A 
HETATM   30  C20 UNL     1      22.664  35.945 -10.595  1.00  0.00     0.068 A 
HETATM   31  S1  UNL     1      22.305  35.840 -12.257  1.00  0.00    -0.089 SA
HETATM   32  C21 UNL     1      20.758  36.543 -12.246  1.00  0.00     0.075 A 
HETATM   33 CL1  UNL     1      19.641  36.831 -13.600  1.00  0.00    -0.076 Cl
HETATM   34  C22 UNL     1      20.560  36.845 -10.936  1.00  0.00     0.048 A 
ENDBRANCH  26  29
ENDBRANCH   5  25
BRANCH   4  35
HETATM   35  N4  UNL     1      23.988  35.053  -6.404  1.00  0.00    -0.073 N 
ATOM     36  H43 UNL     1      24.388  34.243  -5.932  1.00  0.00     0.274 HD
ATOM     37  H42 UNL     1      23.277  34.552  -6.936  1.00  0.00     0.274 HD
ATOM     38  H41 UNL     1      24.658  35.549  -6.993  1.00  0.00     0.274 HD
ENDBRANCH   4  35
TORSDOF 8
ENDMDL
MODEL 5
REMARK VINA RESULT: -7.578077891      5.285      8.874
REMARK  8 active torsions:
REMARK  status: ('A' for Active; 'I' for Inactive)
REMARK    1  A    between atoms: C6_6  and  C7_7 
REMARK       I    between atoms: C7_7  and  N1_9 
REMARK    2  A    between atoms: N1_9  and  C8_11 
REMARK    3  A    between atoms: C8_11  and  C9_12 
REMARK    4  A    between atoms: C9_12  and  N2_13 
REMARK       I    between atoms: N3_16  and  C12_17 
REMARK    5  A    between atoms: C12_17  and  C13_19 
REMARK    6  A    between atoms: C16_22  and  N4_23 
REMARK    7  A    between atoms: C17_27  and  N5_28 
REMARK       I    between atoms: N5_28  and  C18_30 
REMARK    8  A    between atoms: C18_30  and  C19_32 
ROOT
HETATM    1  C13 UNL     1      21.985  39.601  -6.577  1.00  0.00     0.080 C 
HETATM    2  C14 UNL     1      21.681  40.483  -7.731  1.00  0.00     0.016 C 
HETATM    3  C15 UNL     1      20.635  41.491  -7.325  1.00  0.00     0.036 C 
HETATM    4  C16 UNL     1      19.799  41.081  -6.150  1.00  0.00     0.206 C 
HETATM    5  C17 UNL     1      20.637  40.778  -4.927  1.00  0.00     0.116 C 
HETATM    6  C23 UNL     1      22.089  40.499  -5.334  1.00  0.00     0.041 C 
ENDROOT
BRANCH   1   7
HETATM    7  C12 UNL     1      23.155  38.729  -6.703  1.00  0.00     0.225 C 
HETATM    8  N3  UNL     1      23.532  37.785  -5.716  1.00  0.00    -0.334 N 
HETATM    9  C2  UNL     1      22.798  37.590  -4.501  1.00  0.00     0.084 C 
HETATM   10  C6  UNL     1      24.738  36.994  -5.933  1.00  0.00     0.179 C 
HETATM   11  C1  UNL     1      22.094  36.253  -4.396  1.00  0.00     0.032 C 
HETATM   12  C3  UNL     1      23.737  37.649  -3.292  1.00  0.00     0.025 C 
HETATM   13  C4  UNL     1      24.822  36.629  -3.416  1.00  0.00     0.004 C 
HETATM   14  C5  UNL     1      25.528  36.717  -4.717  1.00  0.00     0.035 C 
HETATM   15  O2  UNL     1      23.888  38.817  -7.759  1.00  0.00    -0.273 OA
BRANCH  10  16
HETATM   16  C7  UNL     1      24.466  35.804  -6.799  1.00  0.00     0.240 C 
HETATM   17  O1  UNL     1      24.605  34.698  -6.267  1.00  0.00    -0.271 OA
HETATM   18  N1  UNL     1      24.078  35.973  -8.125  1.00  0.00    -0.358 N 
ATOM     19  H1  UNL     1      24.005  36.947  -8.421  1.00  0.00     0.162 HD
BRANCH  18  20
HETATM   20  C8  UNL     1      23.766  35.026  -9.139  1.00  0.00     0.152 C 
BRANCH  20  21
HETATM   21  C9  UNL     1      23.304  35.496 -10.451  1.00  0.00     0.290 C 
BRANCH  21  22
HETATM   22  N2  UNL     1      21.929  35.559 -10.754  1.00  0.00     0.081 N 
HETATM   23  C10 UNL     1      21.651  35.658 -12.182  1.00  0.00     0.309 C 
HETATM   24  C11 UNL     1      21.266  36.670 -10.105  1.00  0.00     0.309 C 
ENDBRANCH  21  22
ENDBRANCH  20  21
ENDBRANCH  18  20
ENDBRANCH  10  16
ENDBRANCH   1   7
BRANCH   5  25
HETATM   25  N5  UNL     1      20.539  41.799  -3.909  1.00  0.00    -0.350 N 
HETATM   26  C18 UNL     1      19.869  41.578  -2.675  1.00  0.00     0.252 C 
HETATM   27  O3  UNL     1      19.353  40.474  -2.468  1.00  0.00    -0.268 OA
ATOM     28  H5  UNL     1      20.965  42.709  -4.082  1.00  0.00     0.163 HD
BRANCH  26  29
HETATM   29  C19 UNL     1      19.766  42.627  -1.625  1.00  0.00     0.040 A 
HETATM   30  C20 UNL     1      20.124  42.357  -0.326  1.00  0.00     0.068 A 
HETATM   31  S1  UNL     1      19.838  43.827   0.486  1.00  0.00    -0.089 SA
HETATM   32  C21 UNL     1      19.273  44.755  -0.821  1.00  0.00     0.075 A 
HETATM   33 CL1  UNL     1      18.740  46.452  -0.851  1.00  0.00    -0.076 Cl
HETATM   34  C22 UNL     1      19.323  43.888  -1.865  1.00  0.00     0.048 A 
ENDBRANCH  26  29
ENDBRANCH   5  25
BRANCH   4  35
HETATM   35  N4  UNL     1      18.976  42.238  -5.798  1.00  0.00    -0.073 N 
ATOM     36  H43 UNL     1      18.227  42.418  -6.466  1.00  0.00     0.274 HD
ATOM     37  H42 UNL     1      18.385  42.079  -4.982  1.00  0.00     0.274 HD
ATOM     38  H41 UNL     1      19.615  43.026  -5.686  1.00  0.00     0.274 HD
ENDBRANCH   4  35
TORSDOF 8
ENDMDL
