MODEL 1
REMARK VINA RESULT: -8.746967521      0.000      0.000
REMARK  8 active torsions:
REMARK  status: ('A' for Active; 'I' for Inactive)
REMARK    1  A    between atoms: O1_2  and  C2_3 
REMARK    2  A    between atoms: C2_3  and  C3_4 
REMARK    3  A    between atoms: C8_9  and  O2_10 
REMARK    4  A    between atoms: O2_10  and  C9_11 
REMARK    5  A    between atoms: C9_11  and  C10_13 
REMARK    6  A    between atoms: C21_24  and  O4_25 
REMARK    7  A    between atoms: N1_31  and  O5_33 
REMARK    8  A    between atoms: C33_46  and  O7_47 
ROOT
HETATM    1  C10 UNL     1       6.758  38.864  23.862  1.00  0.00     0.048 C 
HETATM    2  C11 UNL     1       7.253  40.155  24.508  1.00  0.00     0.026 C 
HETATM    3  C12 UNL     1       5.506  39.188  23.124  1.00  0.00     0.020 C 
HETATM    4  C13 UNL     1       4.500  39.429  24.259  1.00  0.00     0.007 C 
HETATM    5  C14 UNL     1       5.128  38.900  25.493  1.00  0.00    -0.002 C 
HETATM    6  C15 UNL     1       6.235  37.998  25.020  1.00  0.00     0.008 C 
HETATM    7  C16 UNL     1       5.732  36.704  24.450  1.00  0.00     0.007 C 
HETATM    8  C17 UNL     1       4.322  36.370  24.805  1.00  0.00     0.010 C 
HETATM    9  C18 UNL     1       3.949  36.815  26.231  1.00  0.00    -0.033 C 
HETATM   10  C19 UNL     1       4.858  35.938  27.117  1.00  0.00     0.016 C 
HETATM   11  C20 UNL     1       4.198  38.248  26.483  1.00  0.00     0.027 C 
HETATM   12  C21 UNL     1       3.028  39.151  26.651  1.00  0.00     0.124 C 
HETATM   13  C22 UNL     1       1.719  38.539  26.931  1.00  0.00     0.047 C 
HETATM   14  C23 UNL     1       1.743  37.121  27.404  1.00  0.00     0.003 C 
HETATM   15  C24 UNL     1       2.163  36.981  28.845  1.00  0.00     0.022 C 
HETATM   16  C25 UNL     1       0.379  36.556  27.183  1.00  0.00     0.018 C 
HETATM   17  N1  UNL     1      -0.598  36.487  28.011  1.00  0.00    -0.277 N 
ATOM     18  H1  UNL     1      -0.479  36.852  28.957  1.00  0.00     0.193 HD
HETATM   19  C26 UNL     1       0.326  36.061  25.787  1.00  0.00     0.056 C 
HETATM   20  C27 UNL     1       1.708  36.293  25.210  1.00  0.00     0.012 C 
HETATM   21  C28 UNL     1       2.564  36.324  26.453  1.00  0.00     0.008 C 
ENDROOT
BRANCH   1  22
HETATM   22  C9  UNL     1       7.790  38.188  23.092  1.00  0.00     0.269 C 
HETATM   23  O3  UNL     1       8.611  37.340  23.530  1.00  0.00    -0.264 OA
BRANCH  22  24
HETATM   24  O2  UNL     1       7.926  38.465  21.752  1.00  0.00    -0.287 OA
BRANCH  24  25
HETATM   25  C8  UNL     1       9.120  38.838  21.115  1.00  0.00     0.330 C 
HETATM   26  C7  UNL     1       9.022  40.135  20.357  1.00  0.00     0.067 C 
HETATM   27  C6  UNL     1      10.378  40.593  20.020  1.00  0.00    -0.000 C 
HETATM   28  C5  UNL     1      10.526  41.890  19.345  1.00  0.00     0.006 C 
HETATM   29  C30 UNL     1      11.285  40.743  21.254  1.00  0.00    -0.010 C 
HETATM   30  C4  UNL     1      12.058  42.014  19.398  1.00  0.00     0.009 C 
HETATM   31  C3  UNL     1      12.512  41.316  20.634  1.00  0.00     0.033 C 
HETATM   32  C29 UNL     1      11.417  39.313  21.728  1.00  0.00     0.245 C 
HETATM   33  C31 UNL     1      10.555  41.572  22.234  1.00  0.00     0.018 C 
HETATM   34  N2  UNL     1      10.118  38.873  22.155  1.00  0.00    -0.048 N 
ATOM     35  H22 UNL     1       9.792  39.440  22.939  1.00  0.00     0.280 HD
ATOM     36  H21 UNL     1      10.185  37.963  22.612  1.00  0.00     0.280 HD
BRANCH  31  37
HETATM   37  C2  UNL     1      13.432  42.054  21.526  1.00  0.00     0.094 C 
HETATM   38  C32 UNL     1      13.301  41.479  22.950  1.00  0.00     0.210 C 
HETATM   39  O6  UNL     1      14.471  42.031  23.529  1.00  0.00    -0.358 OA
HETATM   40  C33 UNL     1      15.490  41.760  22.652  1.00  0.00     0.263 C 
HETATM   41  C34 UNL     1      14.871  41.594  21.279  1.00  0.00     0.074 C 
HETATM   42  C35 UNL     1      14.993  40.163  20.893  1.00  0.00     0.018 C 
BRANCH  37  43
HETATM   43  O1  UNL     1      13.349  43.378  21.643  1.00  0.00    -0.382 OA
HETATM   44  C1  UNL     1      13.982  44.264  20.873  1.00  0.00     0.202 C 
ENDBRANCH  37  43
BRANCH  40  45
HETATM   45  O7  UNL     1      16.107  40.567  23.080  1.00  0.00    -0.371 OA
ATOM     46  H7  UNL     1      16.538  40.184  22.325  1.00  0.00     0.212 HD
ENDBRANCH  40  45
ENDBRANCH  31  37
ENDBRANCH  24  25
ENDBRANCH  22  24
ENDBRANCH   1  22
BRANCH  12  47
HETATM   47  O4  UNL     1       3.266  40.107  27.678  1.00  0.00    -0.395 OA
ATOM     48  H4  UNL     1       3.212  39.703  28.536  1.00  0.00     0.210 HD
ENDBRANCH  12  47
BRANCH  17  49
HETATM   49  O5  UNL     1      -1.786  35.938  27.654  1.00  0.00    -0.290 OA
ATOM     50  H5  UNL     1      -2.596  36.430  27.720  1.00  0.00     0.244 HD
ENDBRANCH  17  49
TORSDOF 8
ENDMDL
MODEL 2
REMARK VINA RESULT: -8.683094991      3.464      4.810
REMARK  8 active torsions:
REMARK  status: ('A' for Active; 'I' for Inactive)
REMARK    1  A    between atoms: O1_2  and  C2_3 
REMARK    2  A    between atoms: C2_3  and  C3_4 
REMARK    3  A    between atoms: C8_9  and  O2_10 
REMARK    4  A    between atoms: O2_10  and  C9_11 
REMARK    5  A    between atoms: C9_11  and  C10_13 
REMARK    6  A    between atoms: C21_24  and  O4_25 
REMARK    7  A    between atoms: N1_31  and  O5_33 
REMARK    8  A    between atoms: C33_46  and  O7_47 
ROOT
HETATM    1  C10 UNL     1       7.425  40.011  22.345  1.00  0.00     0.048 C 
HETATM    2  C11 UNL     1       8.480  39.066  21.776  1.00  0.00     0.026 C 
HETATM    3  C12 UNL     1       7.800  40.299  23.756  1.00  0.00     0.020 C 
HETATM    4  C13 UNL     1       7.504  38.967  24.460  1.00  0.00     0.007 C 
HETATM    5  C14 UNL     1       6.685  38.169  23.517  1.00  0.00    -0.002 C 
HETATM    6  C15 UNL     1       6.157  39.159  22.515  1.00  0.00     0.008 C 
HETATM    7  C16 UNL     1       5.073  40.034  23.072  1.00  0.00     0.007 C 
HETATM    8  C17 UNL     1       4.446  39.531  24.328  1.00  0.00     0.010 C 
HETATM    9  C18 UNL     1       4.330  37.996  24.359  1.00  0.00    -0.033 C 
HETATM   10  C19 UNL     1       3.343  37.700  23.212  1.00  0.00     0.016 C 
HETATM   11  C20 UNL     1       5.615  37.305  24.135  1.00  0.00     0.027 C 
HETATM   12  C21 UNL     1       6.238  36.580  25.275  1.00  0.00     0.124 C 
HETATM   13  C22 UNL     1       5.390  36.267  26.438  1.00  0.00     0.047 C 
HETATM   14  C23 UNL     1       3.915  36.351  26.219  1.00  0.00     0.003 C 
HETATM   15  C24 UNL     1       3.359  35.181  25.447  1.00  0.00     0.022 C 
HETATM   16  C25 UNL     1       3.272  36.464  27.561  1.00  0.00     0.018 C 
HETATM   17  N1  UNL     1       2.794  35.528  28.297  1.00  0.00    -0.277 N 
ATOM     18  H1  UNL     1       2.833  34.564  27.967  1.00  0.00     0.193 HD
HETATM   19  C26 UNL     1       3.272  37.900  27.933  1.00  0.00     0.056 C 
HETATM   20  C27 UNL     1       3.874  38.634  26.751  1.00  0.00     0.012 C 
HETATM   21  C28 UNL     1       3.605  37.676  25.616  1.00  0.00     0.008 C 
ENDROOT
BRANCH   1  22
HETATM   22  C9  UNL     1       7.197  41.173  21.500  1.00  0.00     0.269 C 
HETATM   23  O3  UNL     1       7.122  42.370  21.883  1.00  0.00    -0.264 OA
BRANCH  22  24
HETATM   24  O2  UNL     1       7.042  41.005  20.144  1.00  0.00    -0.287 OA
BRANCH  24  25
HETATM   25  C8  UNL     1       8.029  41.245  19.175  1.00  0.00     0.330 C 
HETATM   26  C7  UNL     1       7.475  41.574  17.815  1.00  0.00     0.067 C 
HETATM   27  C6  UNL     1       8.555  42.124  16.982  1.00  0.00    -0.000 C 
HETATM   28  C5  UNL     1       8.220  42.594  15.630  1.00  0.00     0.006 C 
HETATM   29  C30 UNL     1       9.233  43.353  17.613  1.00  0.00    -0.010 C 
HETATM   30  C4  UNL     1       9.565  43.240  15.261  1.00  0.00     0.009 C 
HETATM   31  C3  UNL     1      10.170  43.748  16.525  1.00  0.00     0.033 C 
HETATM   32  C29 UNL     1       9.892  42.758  18.838  1.00  0.00     0.245 C 
HETATM   33  C31 UNL     1       8.163  44.301  17.983  1.00  0.00     0.018 C 
HETATM   34  N2  UNL     1       8.851  42.299  19.715  1.00  0.00    -0.048 N 
ATOM     35  H22 UNL     1       8.269  43.082  20.014  1.00  0.00     0.280 HD
ATOM     36  H21 UNL     1       9.243  42.017  20.613  1.00  0.00     0.280 HD
BRANCH  31  37
HETATM   37  C2  UNL     1      10.650  45.147  16.529  1.00  0.00     0.094 C 
HETATM   38  C32 UNL     1      10.930  45.566  17.985  1.00  0.00     0.210 C 
HETATM   39  O6  UNL     1      11.697  46.734  17.745  1.00  0.00    -0.358 OA
HETATM   40  C33 UNL     1      12.647  46.377  16.822  1.00  0.00     0.263 C 
HETATM   41  C34 UNL     1      12.102  45.196  16.046  1.00  0.00     0.074 C 
HETATM   42  C35 UNL     1      12.904  43.999  16.413  1.00  0.00     0.018 C 
BRANCH  37  43
HETATM   43  O1  UNL     1       9.916  46.119  15.989  1.00  0.00    -0.382 OA
HETATM   44  C1  UNL     1       9.921  46.469  14.703  1.00  0.00     0.202 C 
ENDBRANCH  37  43
BRANCH  40  45
HETATM   45  O7  UNL     1      13.811  46.026  17.534  1.00  0.00    -0.371 OA
ATOM     46  H7  UNL     1      14.499  45.877  16.895  1.00  0.00     0.212 HD
ENDBRANCH  40  45
ENDBRANCH  31  37
ENDBRANCH  24  25
ENDBRANCH  22  24
ENDBRANCH   1  22
BRANCH  12  47
HETATM   47  O4  UNL     1       6.817  35.354  24.843  1.00  0.00    -0.395 OA
ATOM     48  H4  UNL     1       7.758  35.360  24.968  1.00  0.00     0.210 HD
ENDBRANCH  12  47
BRANCH  17  49
HETATM   49  O5  UNL     1       2.237  35.797  29.504  1.00  0.00    -0.290 OA
ATOM     50  H5  UNL     1       2.699  35.611  30.313  1.00  0.00     0.244 HD
ENDBRANCH  17  49
TORSDOF 8
ENDMDL
MODEL 3
REMARK VINA RESULT: -8.535167566      3.025      4.272
REMARK  8 active torsions:
REMARK  status: ('A' for Active; 'I' for Inactive)
REMARK    1  A    between atoms: O1_2  and  C2_3 
REMARK    2  A    between atoms: C2_3  and  C3_4 
REMARK    3  A    between atoms: C8_9  and  O2_10 
REMARK    4  A    between atoms: O2_10  and  C9_11 
REMARK    5  A    between atoms: C9_11  and  C10_13 
REMARK    6  A    between atoms: C21_24  and  O4_25 
REMARK    7  A    between atoms: N1_31  and  O5_33 
REMARK    8  A    between atoms: C33_46  and  O7_47 
ROOT
HETATM    1  C10 UNL     1       7.218  39.370  23.306  1.00  0.00     0.048 C 
HETATM    2  C11 UNL     1       7.051  40.884  23.214  1.00  0.00     0.026 C 
HETATM    3  C12 UNL     1       5.969  38.752  22.784  1.00  0.00     0.020 C 
HETATM    4  C13 UNL     1       4.952  39.067  23.891  1.00  0.00     0.007 C 
HETATM    5  C14 UNL     1       5.738  39.506  25.067  1.00  0.00    -0.002 C 
HETATM    6  C15 UNL     1       7.142  39.037  24.804  1.00  0.00     0.008 C 
HETATM    7  C16 UNL     1       7.303  37.553  24.966  1.00  0.00     0.007 C 
HETATM    8  C17 UNL     1       6.204  36.883  25.719  1.00  0.00     0.010 C 
HETATM    9  C18 UNL     1       5.650  37.756  26.860  1.00  0.00    -0.033 C 
HETATM   10  C19 UNL     1       6.851  37.874  27.821  1.00  0.00     0.016 C 
HETATM   11  C20 UNL     1       5.203  39.091  26.414  1.00  0.00     0.027 C 
HETATM   12  C21 UNL     1       3.746  39.389  26.422  1.00  0.00     0.124 C 
HETATM   13  C22 UNL     1       2.867  38.509  27.208  1.00  0.00     0.047 C 
HETATM   14  C23 UNL     1       3.539  37.646  28.227  1.00  0.00     0.003 C 
HETATM   15  C24 UNL     1       3.959  38.399  29.463  1.00  0.00     0.022 C 
HETATM   16  C25 UNL     1       2.595  36.540  28.564  1.00  0.00     0.018 C 
HETATM   17  N1  UNL     1       1.751  36.480  29.528  1.00  0.00    -0.277 N 
ATOM     18  H1  UNL     1       1.676  37.264  30.177  1.00  0.00     0.193 HD
HETATM   19  C26 UNL     1       2.794  35.466  27.562  1.00  0.00     0.056 C 
HETATM   20  C27 UNL     1       3.919  35.940  26.663  1.00  0.00     0.012 C 
HETATM   21  C28 UNL     1       4.648  36.911  27.559  1.00  0.00     0.008 C 
ENDROOT
BRANCH   1  22
HETATM   22  C9  UNL     1       8.456  38.903  22.700  1.00  0.00     0.269 C 
HETATM   23  O3  UNL     1       9.618  39.071  23.154  1.00  0.00    -0.264 OA
BRANCH  22  24
HETATM   24  O2  UNL     1       8.409  38.204  21.517  1.00  0.00    -0.287 OA
BRANCH  24  25
HETATM   25  C8  UNL     1       8.674  38.736  20.246  1.00  0.00     0.330 C 
HETATM   26  C7  UNL     1       7.435  39.076  19.462  1.00  0.00     0.067 C 
HETATM   27  C6  UNL     1       7.813  39.917  18.316  1.00  0.00    -0.000 C 
HETATM   28  C5  UNL     1       6.743  40.439  17.453  1.00  0.00     0.006 C 
HETATM   29  C30 UNL     1       8.571  41.191  18.730  1.00  0.00    -0.010 C 
HETATM   30  C4  UNL     1       7.582  41.382  16.576  1.00  0.00     0.009 C 
HETATM   31  C3  UNL     1       8.709  41.877  17.416  1.00  0.00     0.033 C 
HETATM   32  C29 UNL     1       9.855  40.628  19.296  1.00  0.00     0.245 C 
HETATM   33  C31 UNL     1       7.767  41.857  19.776  1.00  0.00     0.018 C 
HETATM   34  N2  UNL     1       9.522  39.879  20.476  1.00  0.00    -0.048 N 
ATOM     35  H22 UNL     1       9.107  40.492  21.178  1.00  0.00     0.280 HD
ATOM     36  H21 UNL     1      10.370  39.598  20.967  1.00  0.00     0.280 HD
BRANCH  31  37
HETATM   37  C2  UNL     1       8.940  43.337  17.442  1.00  0.00     0.094 C 
HETATM   38  C32 UNL     1      10.447  43.592  17.647  1.00  0.00     0.210 C 
HETATM   39  O6  UNL     1      10.501  44.960  17.280  1.00  0.00    -0.358 OA
HETATM   40  C33 UNL     1       9.832  45.056  16.086  1.00  0.00     0.263 C 
HETATM   41  C34 UNL     1       8.856  43.900  16.021  1.00  0.00     0.074 C 
HETATM   42  C35 UNL     1       9.328  42.961  14.968  1.00  0.00     0.018 C 
BRANCH  37  43
HETATM   43  O1  UNL     1       8.303  44.111  18.319  1.00  0.00    -0.382 OA
HETATM   44  C1  UNL     1       7.296  44.937  18.033  1.00  0.00     0.202 C 
ENDBRANCH  37  43
BRANCH  40  45
HETATM   45  O7  UNL     1      10.793  44.970  15.059  1.00  0.00    -0.371 OA
ATOM     46  H7  UNL     1      11.249  45.803  15.028  1.00  0.00     0.212 HD
ENDBRANCH  40  45
ENDBRANCH  31  37
ENDBRANCH  24  25
ENDBRANCH  22  24
ENDBRANCH   1  22
BRANCH  12  47
HETATM   47  O4  UNL     1       3.502  40.720  26.864  1.00  0.00    -0.395 OA
ATOM     48  H4  UNL     1       3.297  40.737  27.791  1.00  0.00     0.210 HD
ENDBRANCH  12  47
BRANCH  17  49
HETATM   49  O5  UNL     1       0.957  35.394  29.702  1.00  0.00    -0.290 OA
ATOM     50  H5  UNL     1       1.271  34.517  29.513  1.00  0.00     0.244 HD
ENDBRANCH  17  49
TORSDOF 8
ENDMDL
MODEL 4
REMARK VINA RESULT: -8.494980622      2.801     10.590
REMARK  8 active torsions:
REMARK  status: ('A' for Active; 'I' for Inactive)
REMARK    1  A    between atoms: O1_2  and  C2_3 
REMARK    2  A    between atoms: C2_3  and  C3_4 
REMARK    3  A    between atoms: C8_9  and  O2_10 
REMARK    4  A    between atoms: O2_10  and  C9_11 
REMARK    5  A    between atoms: C9_11  and  C10_13 
REMARK    6  A    between atoms: C21_24  and  O4_25 
REMARK    7  A    between atoms: N1_31  and  O5_33 
REMARK    8  A    between atoms: C33_46  and  O7_47 
ROOT
HETATM    1  C10 UNL     1       8.407  41.054  19.943  1.00  0.00     0.048 C 
HETATM    2  C11 UNL     1       8.454  41.254  18.430  1.00  0.00     0.026 C 
HETATM    3  C12 UNL     1       8.289  42.400  20.566  1.00  0.00     0.020 C 
HETATM    4  C13 UNL     1       9.681  43.002  20.329  1.00  0.00     0.007 C 
HETATM    5  C14 UNL     1      10.560  41.879  19.925  1.00  0.00    -0.002 C 
HETATM    6  C15 UNL     1       9.830  40.634  20.347  1.00  0.00     0.008 C 
HETATM    7  C16 UNL     1       9.853  40.417  21.832  1.00  0.00     0.007 C 
HETATM    8  C17 UNL     1      10.887  41.204  22.564  1.00  0.00     0.010 C 
HETATM    9  C18 UNL     1      12.190  41.362  21.759  1.00  0.00    -0.033 C 
HETATM   10  C19 UNL     1      12.712  39.915  21.655  1.00  0.00     0.016 C 
HETATM   11  C20 UNL     1      11.984  41.941  20.416  1.00  0.00     0.027 C 
HETATM   12  C21 UNL     1      12.480  43.319  20.155  1.00  0.00     0.124 C 
HETATM   13  C22 UNL     1      13.463  43.886  21.093  1.00  0.00     0.047 C 
HETATM   14  C23 UNL     1      14.161  42.911  21.985  1.00  0.00     0.003 C 
HETATM   15  C24 UNL     1      15.231  42.117  21.279  1.00  0.00     0.022 C 
HETATM   16  C25 UNL     1      14.730  43.684  23.128  1.00  0.00     0.018 C 
HETATM   17  N1  UNL     1      15.911  44.166  23.254  1.00  0.00    -0.277 N 
ATOM     18  H1  UNL     1      16.589  44.033  22.503  1.00  0.00     0.193 HD
HETATM   19  C26 UNL     1      13.662  43.814  24.150  1.00  0.00     0.056 C 
HETATM   20  C27 UNL     1      12.472  43.048  23.606  1.00  0.00     0.012 C 
HETATM   21  C28 UNL     1      13.132  42.075  22.660  1.00  0.00     0.008 C 
ENDROOT
BRANCH   1  22
HETATM   22  C9  UNL     1       7.409  40.077  20.351  1.00  0.00     0.269 C 
HETATM   23  O3  UNL     1       7.350  38.874  19.985  1.00  0.00    -0.264 OA
BRANCH  22  24
HETATM   24  O2  UNL     1       6.409  40.452  21.218  1.00  0.00    -0.287 OA
BRANCH  24  25
HETATM   25  C8  UNL     1       6.467  40.356  22.617  1.00  0.00     0.330 C 
HETATM   26  C7  UNL     1       5.116  40.231  23.270  1.00  0.00     0.067 C 
HETATM   27  C6  UNL     1       5.301  39.807  24.666  1.00  0.00    -0.000 C 
HETATM   28  C5  UNL     1       4.104  39.541  25.477  1.00  0.00     0.006 C 
HETATM   29  C30 UNL     1       6.099  38.498  24.796  1.00  0.00    -0.010 C 
HETATM   30  C4  UNL     1       4.784  38.954  26.724  1.00  0.00     0.009 C 
HETATM   31  C3  UNL     1       6.023  38.264  26.264  1.00  0.00     0.033 C 
HETATM   32  C29 UNL     1       7.463  38.904  24.283  1.00  0.00     0.245 C 
HETATM   33  C31 UNL     1       5.461  37.507  23.905  1.00  0.00     0.018 C 
HETATM   34  N2  UNL     1       7.326  39.232  22.891  1.00  0.00    -0.048 N 
ATOM     35  H22 UNL     1       7.019  38.414  22.363  1.00  0.00     0.280 HD
ATOM     36  H21 UNL     1       8.244  39.377  22.470  1.00  0.00     0.280 HD
BRANCH  31  37
HETATM   37  C2  UNL     1       6.238  36.880  26.736  1.00  0.00     0.094 C 
HETATM   38  C32 UNL     1       7.491  36.313  26.038  1.00  0.00     0.210 C 
HETATM   39  O6  UNL     1       7.726  35.187  26.867  1.00  0.00    -0.358 OA
HETATM   40  C33 UNL     1       7.674  35.651  28.157  1.00  0.00     0.263 C 
HETATM   41  C34 UNL     1       6.817  36.900  28.153  1.00  0.00     0.074 C 
HETATM   42  C35 UNL     1       7.702  38.062  28.430  1.00  0.00     0.018 C 
BRANCH  37  43
HETATM   43  O1  UNL     1       5.284  35.960  26.605  1.00  0.00    -0.382 OA
HETATM   44  C1  UNL     1       4.135  35.936  27.282  1.00  0.00     0.202 C 
ENDBRANCH  37  43
BRANCH  40  45
HETATM   45  O7  UNL     1       8.995  35.940  28.551  1.00  0.00    -0.371 OA
ATOM     46  H7  UNL     1       9.447  35.111  28.659  1.00  0.00     0.212 HD
ENDBRANCH  40  45
ENDBRANCH  31  37
ENDBRANCH  24  25
ENDBRANCH  22  24
ENDBRANCH   1  22
BRANCH  12  47
HETATM   47  O4  UNL     1      13.047  43.417  18.853  1.00  0.00    -0.395 OA
ATOM     48  H4  UNL     1      13.131  44.325  18.586  1.00  0.00     0.210 HD
ENDBRANCH  12  47
BRANCH  17  49
HETATM   49  O5  UNL     1      16.278  44.851  24.367  1.00  0.00    -0.290 OA
ATOM     50  H5  UNL     1      16.919  45.551  24.326  1.00  0.00     0.244 HD
ENDBRANCH  17  49
TORSDOF 8
ENDMDL
MODEL 5
REMARK VINA RESULT: -8.478817578      3.119     11.255
REMARK  8 active torsions:
REMARK  status: ('A' for Active; 'I' for Inactive)
REMARK    1  A    between atoms: O1_2  and  C2_3 
REMARK    2  A    between atoms: C2_3  and  C3_4 
REMARK    3  A    between atoms: C8_9  and  O2_10 
REMARK    4  A    between atoms: O2_10  and  C9_11 
REMARK    5  A    between atoms: C9_11  and  C10_13 
REMARK    6  A    between atoms: C21_24  and  O4_25 
REMARK    7  A    between atoms: N1_31  and  O5_33 
REMARK    8  A    between atoms: C33_46  and  O7_47 
ROOT
HETATM    1  C10 UNL     1       9.764  39.725  22.081  1.00  0.00     0.048 C 
HETATM    2  C11 UNL     1      11.071  40.092  22.779  1.00  0.00     0.026 C 
HETATM    3  C12 UNL     1      10.117  39.007  20.826  1.00  0.00     0.020 C 
HETATM    4  C13 UNL     1      10.690  40.128  19.948  1.00  0.00     0.007 C 
HETATM    5  C14 UNL     1      10.310  41.404  20.599  1.00  0.00    -0.002 C 
HETATM    6  C15 UNL     1       9.197  41.049  21.546  1.00  0.00     0.008 C 
HETATM    7  C16 UNL     1       7.902  40.758  20.845  1.00  0.00     0.007 C 
HETATM    8  C17 UNL     1       7.830  41.243  19.437  1.00  0.00     0.010 C 
HETATM    9  C18 UNL     1       8.567  42.580  19.232  1.00  0.00    -0.033 C 
HETATM   10  C19 UNL     1       7.747  43.564  20.092  1.00  0.00     0.016 C 
HETATM   11  C20 UNL     1       9.976  42.547  19.674  1.00  0.00     0.027 C 
HETATM   12  C21 UNL     1      11.044  42.604  18.641  1.00  0.00     0.124 C 
HETATM   13  C22 UNL     1      10.673  43.063  17.291  1.00  0.00     0.047 C 
HETATM   14  C23 UNL     1       9.372  43.790  17.177  1.00  0.00     0.003 C 
HETATM   15  C24 UNL     1       9.435  45.208  17.687  1.00  0.00     0.022 C 
HETATM   16  C25 UNL     1       8.966  43.751  15.741  1.00  0.00     0.018 C 
HETATM   17  N1  UNL     1       9.178  44.628  14.830  1.00  0.00    -0.277 N 
ATOM     18  H1  UNL     1       9.686  45.481  15.065  1.00  0.00     0.193 HD
HETATM   19  C26 UNL     1       8.243  42.476  15.520  1.00  0.00     0.056 C 
HETATM   20  C27 UNL     1       8.179  41.794  16.872  1.00  0.00     0.012 C 
HETATM   21  C28 UNL     1       8.315  42.962  17.819  1.00  0.00     0.008 C 
ENDROOT
BRANCH   1  22
HETATM   22  C9  UNL     1       8.829  39.041  22.960  1.00  0.00     0.269 C 
HETATM   23  O3  UNL     1       8.550  37.813  22.942  1.00  0.00    -0.264 OA
BRANCH  22  24
HETATM   24  O2  UNL     1       8.156  39.757  23.922  1.00  0.00    -0.287 OA
BRANCH  24  25
HETATM   25  C8  UNL     1       6.788  39.641  24.216  1.00  0.00     0.330 C 
HETATM   26  C7  UNL     1       5.979  39.036  23.100  1.00  0.00     0.067 C 
HETATM   27  C6  UNL     1       4.657  38.657  23.622  1.00  0.00    -0.000 C 
HETATM   28  C5  UNL     1       3.724  37.968  22.718  1.00  0.00     0.006 C 
HETATM   29  C30 UNL     1       4.739  37.700  24.824  1.00  0.00    -0.010 C 
HETATM   30  C4  UNL     1       2.627  37.612  23.734  1.00  0.00     0.009 C 
HETATM   31  C3  UNL     1       3.297  37.408  25.050  1.00  0.00     0.033 C 
HETATM   32  C29 UNL     1       5.387  38.570  25.879  1.00  0.00     0.245 C 
HETATM   33  C31 UNL     1       5.618  36.580  24.433  1.00  0.00     0.018 C 
HETATM   34  N2  UNL     1       6.719  38.875  25.435  1.00  0.00    -0.048 N 
ATOM     35  H22 UNL     1       7.267  38.019  25.346  1.00  0.00     0.280 HD
ATOM     36  H21 UNL     1       7.241  39.342  26.176  1.00  0.00     0.280 HD
BRANCH  31  37
HETATM   37  C2  UNL     1       2.971  36.168  25.788  1.00  0.00     0.094 C 
HETATM   38  C32 UNL     1       3.643  36.231  27.174  1.00  0.00     0.210 C 
HETATM   39  O6  UNL     1       2.934  35.188  27.821  1.00  0.00    -0.358 OA
HETATM   40  C33 UNL     1       1.606  35.423  27.568  1.00  0.00     0.263 C 
HETATM   41  C34 UNL     1       1.525  36.228  26.288  1.00  0.00     0.074 C 
HETATM   42  C35 UNL     1       1.061  37.598  26.637  1.00  0.00     0.018 C 
BRANCH  37  43
HETATM   43  O1  UNL     1       3.267  34.975  25.276  1.00  0.00    -0.382 OA
HETATM   44  C1  UNL     1       2.618  34.378  24.276  1.00  0.00     0.202 C 
ENDBRANCH  37  43
BRANCH  40  45
HETATM   45  O7  UNL     1       1.094  36.152  28.661  1.00  0.00    -0.371 OA
ATOM     46  H7  UNL     1       1.075  35.565  29.408  1.00  0.00     0.212 HD
ENDBRANCH  40  45
ENDBRANCH  31  37
ENDBRANCH  24  25
ENDBRANCH  22  24
ENDBRANCH   1  22
BRANCH  12  47
HETATM   47  O4  UNL     1      12.126  43.422  19.072  1.00  0.00    -0.395 OA
ATOM     48  H4  UNL     1      12.954  42.966  18.980  1.00  0.00     0.210 HD
ENDBRANCH  12  47
BRANCH  17  49
HETATM   49  O5  UNL     1       8.740  44.444  13.559  1.00  0.00    -0.290 OA
ATOM     50  H5  UNL     1       8.796  45.137  12.913  1.00  0.00     0.244 HD
ENDBRANCH  17  49
TORSDOF 8
ENDMDL
