MODEL 1
REMARK VINA RESULT: -5.927076548      0.000      0.000
REMARK  5 active torsions:
REMARK  status: ('A' for Active; 'I' for Inactive)
REMARK    1  A    between atoms: C2_2  and  S1_4 
REMARK    2  A    between atoms: S1_4  and  C4_5 
REMARK    3  A    between atoms: C5_6  and  C6_7 
REMARK    4  A    between atoms: C8_11  and  O1_12 
REMARK    5  A    between atoms: C9_14  and  C10_15 
ROOT
HETATM    1  C6  UNL     1     -21.965  -0.527 -23.575  1.00  0.00     0.021 C 
HETATM    2  N1  UNL     1     -21.754  -1.426 -22.636  1.00  0.00    -0.390 N 
ATOM      3  H1  UNL     1     -21.532  -2.406 -22.805  1.00  0.00     0.159 HD
HETATM    4  C7  UNL     1     -21.885  -0.816 -21.321  1.00  0.00     0.152 C 
HETATM    5  C8  UNL     1     -21.455   0.624 -21.642  1.00  0.00     0.154 C 
HETATM    6  C9  UNL     1     -22.257   0.772 -22.944  1.00  0.00     0.173 C 
ENDROOT
BRANCH   1   7
HETATM    7  C5  UNL     1     -21.890  -0.889 -24.992  1.00  0.00     0.032 C 
HETATM    8  C4  UNL     1     -20.739  -1.061 -25.597  1.00  0.00     0.047 C 
BRANCH   8   9
HETATM    9  S1  UNL     1     -20.512  -1.494 -27.285  1.00  0.00    -0.137 SA
BRANCH   9  10
HETATM   10  C2  UNL     1     -21.454  -0.532 -28.453  1.00  0.00     0.043 C 
HETATM   11  C1  UNL     1     -21.530   0.906 -27.922  1.00  0.00     0.021 C 
HETATM   12  C3  UNL     1     -22.886  -1.028 -28.596  1.00  0.00     0.021 C 
ENDBRANCH   9  10
ENDBRANCH   8   9
ENDBRANCH   1   7
BRANCH   6  13
HETATM   13  C10 UNL     1     -21.788   1.972 -23.724  1.00  0.00     0.399 C 
HETATM   14  F1  UNL     1     -21.659   3.003 -22.778  1.00  0.00    -0.170 F 
HETATM   15  F2  UNL     1     -20.544   1.797 -24.268  1.00  0.00    -0.170 F 
HETATM   16  F3  UNL     1     -22.697   2.446 -24.627  1.00  0.00    -0.170 F 
ENDBRANCH   6  13
BRANCH   5  17
HETATM   17  O1  UNL     1     -20.084   0.536 -21.928  1.00  0.00    -0.393 OA
ATOM     18  H1  UNL     1     -19.652   0.657 -21.091  1.00  0.00     0.210 HD
ENDBRANCH   5  17
TORSDOF 5
ENDMDL
MODEL 2
REMARK VINA RESULT: -5.919726248      2.641      3.284
REMARK  5 active torsions:
REMARK  status: ('A' for Active; 'I' for Inactive)
REMARK    1  A    between atoms: C2_2  and  S1_4 
REMARK    2  A    between atoms: S1_4  and  C4_5 
REMARK    3  A    between atoms: C5_6  and  C6_7 
REMARK    4  A    between atoms: C8_11  and  O1_12 
REMARK    5  A    between atoms: C9_14  and  C10_15 
ROOT
HETATM    1  C6  UNL     1     -20.677   0.537 -23.564  1.00  0.00     0.021 C 
HETATM    2  N1  UNL     1     -20.988   1.409 -22.627  1.00  0.00    -0.390 N 
ATOM      3  H1  UNL     1     -21.274   2.373 -22.798  1.00  0.00     0.159 HD
HETATM    4  C7  UNL     1     -20.866   0.796 -21.313  1.00  0.00     0.152 C 
HETATM    5  C8  UNL     1     -21.178  -0.667 -21.662  1.00  0.00     0.154 C 
HETATM    6  C9  UNL     1     -20.317  -0.743 -22.932  1.00  0.00     0.173 C 
ENDROOT
BRANCH   1   7
HETATM    7  C5  UNL     1     -20.722   0.908 -24.981  1.00  0.00     0.032 C 
HETATM    8  C4  UNL     1     -21.861   1.054 -25.616  1.00  0.00     0.047 C 
BRANCH   8   9
HETATM    9  S1  UNL     1     -22.052   1.494 -27.306  1.00  0.00    -0.137 SA
BRANCH   9  10
HETATM   10  C2  UNL     1     -21.096   0.528 -28.460  1.00  0.00     0.043 C 
HETATM   11  C1  UNL     1     -21.013  -0.905 -27.914  1.00  0.00     0.021 C 
HETATM   12  C3  UNL     1     -19.667   1.034 -28.599  1.00  0.00     0.021 C 
ENDBRANCH   9  10
ENDBRANCH   8   9
ENDBRANCH   1   7
BRANCH   6  13
HETATM   13  C10 UNL     1     -20.669  -1.966 -23.739  1.00  0.00     0.399 C 
HETATM   14  F1  UNL     1     -20.833  -2.997 -22.800  1.00  0.00    -0.170 F 
HETATM   15  F2  UNL     1     -21.868  -1.846 -24.387  1.00  0.00    -0.170 F 
HETATM   16  F3  UNL     1     -19.667  -2.405 -24.560  1.00  0.00    -0.170 F 
ENDBRANCH   6  13
BRANCH   5  17
HETATM   17  O1  UNL     1     -22.539  -0.674 -22.001  1.00  0.00    -0.393 OA
ATOM     18  H1  UNL     1     -22.863  -1.513 -21.694  1.00  0.00     0.210 HD
ENDBRANCH   5  17
TORSDOF 5
ENDMDL
MODEL 3
REMARK VINA RESULT: -5.899581620      0.888      1.421
REMARK  5 active torsions:
REMARK  status: ('A' for Active; 'I' for Inactive)
REMARK    1  A    between atoms: C2_2  and  S1_4 
REMARK    2  A    between atoms: S1_4  and  C4_5 
REMARK    3  A    between atoms: C5_6  and  C6_7 
REMARK    4  A    between atoms: C8_11  and  O1_12 
REMARK    5  A    between atoms: C9_14  and  C10_15 
ROOT
HETATM    1  C6  UNL     1     -22.144  -0.812 -23.710  1.00  0.00     0.021 C 
HETATM    2  N1  UNL     1     -21.843  -1.878 -22.997  1.00  0.00    -0.390 N 
ATOM      3  H1  UNL     1     -21.595  -2.788 -23.384  1.00  0.00     0.159 HD
HETATM    4  C7  UNL     1     -21.917  -1.567 -21.577  1.00  0.00     0.152 C 
HETATM    5  C8  UNL     1     -21.561  -0.073 -21.604  1.00  0.00     0.154 C 
HETATM    6  C9  UNL     1     -22.446   0.307 -22.801  1.00  0.00     0.173 C 
ENDROOT
BRANCH   1   7
HETATM    7  C5  UNL     1     -22.142  -0.861 -25.174  1.00  0.00     0.032 C 
HETATM    8  C4  UNL     1     -21.024  -0.942 -25.856  1.00  0.00     0.047 C 
BRANCH   8   9
HETATM    9  S1  UNL     1     -20.884  -1.007 -27.606  1.00  0.00    -0.137 SA
BRANCH   9  10
HETATM   10  C2  UNL     1     -21.037   0.558 -28.444  1.00  0.00     0.043 C 
HETATM   11  C1  UNL     1     -19.621   1.107 -28.673  1.00  0.00     0.021 C 
HETATM   12  C3  UNL     1     -21.785   1.592 -27.616  1.00  0.00     0.021 C 
ENDBRANCH   9  10
ENDBRANCH   8   9
ENDBRANCH   1   7
BRANCH   6  13
HETATM   13  C10 UNL     1     -22.069   1.667 -23.329  1.00  0.00     0.399 C 
HETATM   14  F1  UNL     1     -23.191   2.109 -24.051  1.00  0.00    -0.170 F 
HETATM   15  F2  UNL     1     -21.871   2.585 -22.334  1.00  0.00    -0.170 F 
HETATM   16  F3  UNL     1     -21.055   1.654 -24.245  1.00  0.00    -0.170 F 
ENDBRANCH   6  13
BRANCH   5  17
HETATM   17  O1  UNL     1     -20.208  -0.030 -21.972  1.00  0.00    -0.393 OA
ATOM     18  H1  UNL     1     -19.865  -0.885 -21.740  1.00  0.00     0.210 HD
ENDBRANCH   5  17
TORSDOF 5
ENDMDL
MODEL 4
REMARK VINA RESULT: -5.821403837      1.426      1.953
REMARK  5 active torsions:
REMARK  status: ('A' for Active; 'I' for Inactive)
REMARK    1  A    between atoms: C2_2  and  S1_4 
REMARK    2  A    between atoms: S1_4  and  C4_5 
REMARK    3  A    between atoms: C5_6  and  C6_7 
REMARK    4  A    between atoms: C8_11  and  O1_12 
REMARK    5  A    between atoms: C9_14  and  C10_15 
ROOT
HETATM    1  C6  UNL     1     -21.866  -0.611 -24.484  1.00  0.00     0.021 C 
HETATM    2  N1  UNL     1     -21.065  -1.556 -24.039  1.00  0.00    -0.390 N 
ATOM      3  H1  UNL     1     -20.735  -2.349 -24.589  1.00  0.00     0.159 HD
HETATM    4  C7  UNL     1     -20.719  -1.304 -22.648  1.00  0.00     0.152 C 
HETATM    5  C8  UNL     1     -20.805   0.230 -22.617  1.00  0.00     0.154 C 
HETATM    6  C9  UNL     1     -22.118   0.358 -23.404  1.00  0.00     0.173 C 
ENDROOT
BRANCH   1   7
HETATM    7  C5  UNL     1     -22.361  -0.633 -25.863  1.00  0.00     0.032 C 
HETATM    8  C4  UNL     1     -21.554  -0.831 -26.879  1.00  0.00     0.047 C 
BRANCH   8   9
HETATM    9  S1  UNL     1     -22.018  -0.880 -28.573  1.00  0.00    -0.137 SA
BRANCH   9  10
HETATM   10  C2  UNL     1     -22.940  -2.322 -29.071  1.00  0.00     0.043 C 
HETATM   11  C1  UNL     1     -23.128  -2.254 -30.594  1.00  0.00     0.021 C 
HETATM   12  C3  UNL     1     -24.330  -2.367 -28.454  1.00  0.00     0.021 C 
ENDBRANCH   9  10
ENDBRANCH   8   9
ENDBRANCH   1   7
BRANCH   6  13
HETATM   13  C10 UNL     1     -22.324   1.777 -23.865  1.00  0.00     0.399 C 
HETATM   14  F1  UNL     1     -23.713   1.919 -24.022  1.00  0.00    -0.170 F 
HETATM   15  F2  UNL     1     -21.951   2.699 -22.925  1.00  0.00    -0.170 F 
HETATM   16  F3  UNL     1     -21.810   2.047 -25.102  1.00  0.00    -0.170 F 
ENDBRANCH   6  13
BRANCH   5  17
HETATM   17  O1  UNL     1     -19.728   0.668 -23.402  1.00  0.00    -0.393 OA
ATOM     18  H1  UNL     1     -20.076   0.726 -24.284  1.00  0.00     0.210 HD
ENDBRANCH   5  17
TORSDOF 5
ENDMDL
MODEL 5
REMARK VINA RESULT: -5.801975722      2.902      3.704
REMARK  5 active torsions:
REMARK  status: ('A' for Active; 'I' for Inactive)
REMARK    1  A    between atoms: C2_2  and  S1_4 
REMARK    2  A    between atoms: S1_4  and  C4_5 
REMARK    3  A    between atoms: C5_6  and  C6_7 
REMARK    4  A    between atoms: C8_11  and  O1_12 
REMARK    5  A    between atoms: C9_14  and  C10_15 
ROOT
HETATM    1  C6  UNL     1     -21.135   0.482 -24.868  1.00  0.00     0.021 C 
HETATM    2  N1  UNL     1     -22.189   1.238 -24.636  1.00  0.00    -0.390 N 
ATOM      3  H1  UNL     1     -22.609   1.877 -25.310  1.00  0.00     0.159 HD
HETATM    4  C7  UNL     1     -22.666   1.027 -23.278  1.00  0.00     0.152 C 
HETATM    5  C8  UNL     1     -22.234  -0.432 -23.058  1.00  0.00     0.154 C 
HETATM    6  C9  UNL     1     -20.827  -0.301 -23.660  1.00  0.00     0.173 C 
ENDROOT
BRANCH   1   7
HETATM    7  C5  UNL     1     -20.463   0.509 -26.170  1.00  0.00     0.032 C 
HETATM    8  C4  UNL     1     -21.115   0.791 -27.273  1.00  0.00     0.047 C 
BRANCH   8   9
HETATM    9  S1  UNL     1     -20.431   0.855 -28.890  1.00  0.00    -0.137 SA
BRANCH   9  10
HETATM   10  C2  UNL     1     -19.525   2.340 -29.278  1.00  0.00     0.043 C 
HETATM   11  C1  UNL     1     -19.264   2.347 -30.792  1.00  0.00     0.021 C 
HETATM   12  C3  UNL     1     -18.167   2.391 -28.593  1.00  0.00     0.021 C 
ENDBRANCH   9  10
ENDBRANCH   8   9
ENDBRANCH   1   7
BRANCH   6  13
HETATM   13  C10 UNL     1     -20.234  -1.661 -23.924  1.00  0.00     0.399 C 
HETATM   14  F1  UNL     1     -18.843  -1.466 -23.926  1.00  0.00    -0.170 F 
HETATM   15  F2  UNL     1     -20.492  -2.555 -22.921  1.00  0.00    -0.170 F 
HETATM   16  F3  UNL     1     -20.512  -2.164 -25.164  1.00  0.00    -0.170 F 
ENDBRANCH   6  13
BRANCH   5  17
HETATM   17  O1  UNL     1     -23.055  -1.184 -23.911  1.00  0.00    -0.393 OA
ATOM     18  H1  UNL     1     -23.671  -1.621 -23.335  1.00  0.00     0.210 HD
ENDBRANCH   5  17
TORSDOF 5
ENDMDL
