MODEL 1
REMARK VINA RESULT: -5.636518850      0.000      0.000
REMARK  1 active torsions:
REMARK  status: ('A' for Active; 'I' for Inactive)
REMARK    1  A    between atoms: C9_12  and  O1_13 
ROOT
HETATM    1  N1  UNL     1      60.464  -5.044  59.736  1.00  0.00    -0.403 N 
ATOM      2  H11 UNL     1      60.577  -5.505  60.639  1.00  0.00     0.155 HD
ATOM      3  H12 UNL     1      61.125  -4.288  59.557  1.00  0.00     0.155 HD
HETATM    4  C1  UNL     1      59.570  -5.405  58.927  1.00  0.00     0.009 C 
HETATM    5  C2  UNL     1      59.405  -4.731  57.606  1.00  0.00     0.059 C 
HETATM    6  C3  UNL     1      59.797  -5.756  56.569  1.00  0.00    -0.005 C 
HETATM    7  C4  UNL     1      59.200  -5.411  55.235  1.00  0.00     0.005 C 
HETATM    8  C5  UNL     1      58.357  -6.578  54.825  1.00  0.00     0.001 C 
HETATM    9  C6  UNL     1      58.934  -7.721  55.597  1.00  0.00     0.005 C 
HETATM   10  C7  UNL     1      59.460  -7.145  56.910  1.00  0.00    -0.007 C 
HETATM   11  C8  UNL     1      58.461  -7.375  57.967  1.00  0.00     0.042 C 
HETATM   12  C9  UNL     1      58.601  -6.514  59.189  1.00  0.00     0.163 C 
ENDROOT
BRANCH  12  13
HETATM   13  O1  UNL     1      57.360  -5.893  59.427  1.00  0.00    -0.390 OA
ATOM     14  H1  UNL     1      56.702  -6.562  59.278  1.00  0.00     0.210 HD
ENDBRANCH  12  13
TORSDOF 1
ENDMDL
MODEL 2
REMARK VINA RESULT: -5.311003065      1.743      2.665
REMARK  1 active torsions:
REMARK  status: ('A' for Active; 'I' for Inactive)
REMARK    1  A    between atoms: C9_12  and  O1_13 
ROOT
HETATM    1  N1  UNL     1      58.135  -6.451  59.086  1.00  0.00    -0.403 N 
ATOM      2  H11 UNL     1      58.099  -5.585  59.623  1.00  0.00     0.155 HD
ATOM      3  H12 UNL     1      57.541  -7.199  59.443  1.00  0.00     0.155 HD
HETATM    4  C1  UNL     1      58.865  -6.555  58.066  1.00  0.00     0.009 C 
HETATM    5  C2  UNL     1      58.918  -7.822  57.279  1.00  0.00     0.059 C 
HETATM    6  C3  UNL     1      58.279  -7.507  55.948  1.00  0.00    -0.005 C 
HETATM    7  C4  UNL     1      58.719  -8.494  54.906  1.00  0.00     0.005 C 
HETATM    8  C5  UNL     1      59.367  -7.704  53.812  1.00  0.00     0.001 C 
HETATM    9  C6  UNL     1      58.783  -6.336  53.967  1.00  0.00     0.005 C 
HETATM   10  C7  UNL     1      58.508  -6.142  55.456  1.00  0.00    -0.007 C 
HETATM   11  C8  UNL     1      59.613  -5.369  56.049  1.00  0.00     0.042 C 
HETATM   12  C9  UNL     1      59.736  -5.457  57.542  1.00  0.00     0.163 C 
ENDROOT
BRANCH  12  13
HETATM   13  O1  UNL     1      61.057  -5.835  57.848  1.00  0.00    -0.390 OA
ATOM     14  H1  UNL     1      60.996  -6.405  58.605  1.00  0.00     0.210 HD
ENDBRANCH  12  13
TORSDOF 1
ENDMDL
MODEL 3
REMARK VINA RESULT: -5.215230791      6.280      7.427
REMARK  1 active torsions:
REMARK  status: ('A' for Active; 'I' for Inactive)
REMARK    1  A    between atoms: C9_12  and  O1_13 
ROOT
HETATM    1  N1  UNL     1      51.423 -11.598  59.074  1.00  0.00    -0.403 N 
ATOM      2  H11 UNL     1      50.617 -11.759  58.470  1.00  0.00     0.155 HD
ATOM      3  H12 UNL     1      51.393 -12.091  59.966  1.00  0.00     0.155 HD
HETATM    4  C1  UNL     1      52.366 -10.845  58.716  1.00  0.00     0.009 C 
HETATM    5  C2  UNL     1      53.545 -10.609  59.599  1.00  0.00     0.059 C 
HETATM    6  C3  UNL     1      54.716 -11.264  58.906  1.00  0.00    -0.005 C 
HETATM    7  C4  UNL     1      56.010 -10.678  59.392  1.00  0.00     0.005 C 
HETATM    8  C5  UNL     1      56.711 -10.125  58.189  1.00  0.00     0.001 C 
HETATM    9  C6  UNL     1      56.118 -10.891  57.050  1.00  0.00     0.005 C 
HETATM   10  C7  UNL     1      54.677 -11.213  57.438  1.00  0.00    -0.007 C 
HETATM   11  C8  UNL     1      53.781 -10.232  56.803  1.00  0.00     0.042 C 
HETATM   12  C9  UNL     1      52.411 -10.122  57.407  1.00  0.00     0.163 C 
ENDROOT
BRANCH  12  13
HETATM   13  O1  UNL     1      52.177  -8.767  57.707  1.00  0.00    -0.390 OA
ATOM     14  H1  UNL     1      52.283  -8.687  58.648  1.00  0.00     0.210 HD
ENDBRANCH  12  13
TORSDOF 1
ENDMDL
MODEL 4
REMARK VINA RESULT: -5.117171864      2.583      3.520
REMARK  1 active torsions:
REMARK  status: ('A' for Active; 'I' for Inactive)
REMARK    1  A    between atoms: C9_12  and  O1_13 
ROOT
HETATM    1  N1  UNL     1      57.032  -9.941  57.593  1.00  0.00    -0.403 N 
ATOM      2  H11 UNL     1      56.482 -10.667  57.133  1.00  0.00     0.155 HD
ATOM      3  H12 UNL     1      57.457 -10.222  58.476  1.00  0.00     0.155 HD
HETATM    4  C1  UNL     1      57.155  -8.796  57.083  1.00  0.00     0.009 C 
HETATM    5  C2  UNL     1      57.959  -7.734  57.755  1.00  0.00     0.059 C 
HETATM    6  C3  UNL     1      59.163  -7.507  56.872  1.00  0.00    -0.005 C 
HETATM    7  C4  UNL     1      59.761  -6.156  57.134  1.00  0.00     0.005 C 
HETATM    8  C5  UNL     1      59.740  -5.416  55.833  1.00  0.00     0.001 C 
HETATM    9  C6  UNL     1      59.688  -6.503  54.807  1.00  0.00     0.005 C 
HETATM   10  C7  UNL     1      58.915  -7.662  55.432  1.00  0.00    -0.007 C 
HETATM   11  C8  UNL     1      57.520  -7.614  54.961  1.00  0.00     0.042 C 
HETATM   12  C9  UNL     1      56.531  -8.383  55.788  1.00  0.00     0.163 C 
ENDROOT
BRANCH  12  13
HETATM   13  O1  UNL     1      55.479  -7.513  56.128  1.00  0.00    -0.390 OA
ATOM     14  H1  UNL     1      55.665  -6.695  55.683  1.00  0.00     0.210 HD
ENDBRANCH  12  13
TORSDOF 1
ENDMDL
MODEL 5
REMARK VINA RESULT: -5.007245665      2.153      2.865
REMARK  1 active torsions:
REMARK  status: ('A' for Active; 'I' for Inactive)
REMARK    1  A    between atoms: C9_12  and  O1_13 
ROOT
HETATM    1  N1  UNL     1      57.996  -9.236  59.077  1.00  0.00    -0.403 N 
ATOM      2  H11 UNL     1      57.715 -10.216  59.085  1.00  0.00     0.155 HD
ATOM      3  H12 UNL     1      58.437  -8.911  59.937  1.00  0.00     0.155 HD
HETATM    4  C1  UNL     1      57.797  -8.509  58.069  1.00  0.00     0.009 C 
HETATM    5  C2  UNL     1      58.207  -7.074  58.057  1.00  0.00     0.059 C 
HETATM    6  C3  UNL     1      59.333  -6.975  57.056  1.00  0.00    -0.005 C 
HETATM    7  C4  UNL     1      59.482  -5.563  56.569  1.00  0.00     0.005 C 
HETATM    8  C5  UNL     1      59.310  -5.599  55.083  1.00  0.00     0.001 C 
HETATM    9  C6  UNL     1      59.643  -7.011  54.721  1.00  0.00     0.005 C 
HETATM   10  C7  UNL     1      59.221  -7.880  55.904  1.00  0.00    -0.007 C 
HETATM   11  C8  UNL     1      57.904  -8.473  55.615  1.00  0.00     0.042 C 
HETATM   12  C9  UNL     1      57.149  -8.984  56.807  1.00  0.00     0.163 C 
ENDROOT
BRANCH  12  13
HETATM   13  O1  UNL     1      55.867  -8.403  56.791  1.00  0.00    -0.390 OA
ATOM     14  H1  UNL     1      55.840  -7.813  57.535  1.00  0.00     0.210 HD
ENDBRANCH  12  13
TORSDOF 1
ENDMDL
