MODEL 1
REMARK VINA RESULT: -8.325755872      0.000      0.000
REMARK  16 active torsions:
REMARK  status: ('A' for Active; 'I' for Inactive)
REMARK    1  A    between atoms: C2_2  and  O2_4 
REMARK    2  A    between atoms: O2_4  and  C3_5 
REMARK    3  A    between atoms: C3_5  and  C32_41 
REMARK    4  A    between atoms: C4_6  and  C5_7 
REMARK    5  A    between atoms: C5_7  and  O4_9 
REMARK    6  A    between atoms: O4_9  and  C6_10 
REMARK    7  A    between atoms: C8_12  and  C9_13 
REMARK    8  A    between atoms: C9_13  and  C11_15 
REMARK    9  A    between atoms: C11_15  and  C13_17 
REMARK   10  A    between atoms: C13_17  and  C14_18 
REMARK   11  A    between atoms: C14_18  and  C15_19 
REMARK   12  A    between atoms: C15_19  and  O5_20 
REMARK   13  A    between atoms: C15_19  and  O6_22 
REMARK   14  A    between atoms: C15_19  and  C18_26 
REMARK   15  A    between atoms: O6_22  and  C16_23 
REMARK   16  A    between atoms: C26_35  and  C27_36 
ROOT
HETATM    1  C6  UNL     1       0.066 -39.176   5.887  1.00  0.00     0.146 C 
HETATM    2  C7  UNL     1      -0.111 -39.127   7.387  1.00  0.00     0.040 C 
HETATM    3  C8  UNL     1      -1.183 -40.153   7.551  1.00  0.00     0.009 C 
HETATM    4  C21 UNL     1      -0.964 -41.136   6.473  1.00  0.00    -0.008 C 
HETATM    5  C22 UNL     1      -2.148 -41.517   5.638  1.00  0.00     0.021 C 
HETATM    6  C23 UNL     1      -0.646 -42.410   7.186  1.00  0.00    -0.012 C 
HETATM    7  C24 UNL     1       0.555 -42.868   7.451  1.00  0.00     0.052 C 
HETATM    8  C25 UNL     1       1.606 -41.987   6.961  1.00  0.00     0.179 C 
HETATM    9  O8  UNL     1       2.648 -41.793   7.645  1.00  0.00    -0.288 OA
HETATM   10  C26 UNL     1       1.332 -41.374   5.634  1.00  0.00     0.005 C 
HETATM   11  C30 UNL     1       0.119 -40.628   5.548  1.00  0.00     0.025 C 
HETATM   12  C31 UNL     1      -0.333 -40.632   4.064  1.00  0.00     0.024 C 
ENDROOT
BRANCH   3  13
HETATM   13  C9  UNL     1      -2.477 -39.635   7.989  1.00  0.00     0.015 C 
HETATM   14  C10 UNL     1      -2.777 -39.913   9.476  1.00  0.00     0.015 C 
BRANCH  13  15
HETATM   15  C11 UNL     1      -2.690 -38.147   7.929  1.00  0.00    -0.083 C 
HETATM   16  C12 UNL     1      -3.854 -37.807   6.979  1.00  0.00     0.043 C 
BRANCH  15  17
HETATM   17  C13 UNL     1      -2.702 -37.273   9.079  1.00  0.00    -0.019 C 
BRANCH  17  18
HETATM   18  C14 UNL     1      -1.610 -36.372   9.442  1.00  0.00     0.096 C 
BRANCH  18  19
HETATM   19  C15 UNL     1      -1.380 -36.046  10.927  1.00  0.00     0.176 C 
BRANCH  19  20
HETATM   20  O5  UNL     1      -0.564 -34.870  10.852  1.00  0.00    -0.364 OA
ATOM     21  H5  UNL     1      -0.692 -34.486  11.712  1.00  0.00     0.213 HD
ENDBRANCH  19  20
BRANCH  19  22
HETATM   22  O6  UNL     1      -2.625 -35.702  11.406  1.00  0.00    -0.283 OA
BRANCH  22  23
HETATM   23  C16 UNL     1      -3.050 -35.051  12.492  1.00  0.00     0.257 C 
HETATM   24  C17 UNL     1      -4.115 -35.646  13.403  1.00  0.00     0.126 C 
HETATM   25  O7  UNL     1      -2.576 -33.932  12.776  1.00  0.00    -0.266 OA
ENDBRANCH  22  23
ENDBRANCH  19  22
BRANCH  19  26
HETATM   26  C18 UNL     1      -0.609 -37.116  11.567  1.00  0.00     0.041 C 
HETATM   27  C19 UNL     1       0.405 -37.892  10.813  1.00  0.00     0.015 C 
HETATM   28  C20 UNL     1      -1.484 -38.135  12.291  1.00  0.00     0.015 C 
ENDBRANCH  19  26
ENDBRANCH  18  19
ENDBRANCH  17  18
ENDBRANCH  15  17
ENDBRANCH  13  15
ENDBRANCH   3  13
BRANCH   1  29
HETATM   29  O4  UNL     1       0.888 -38.310   5.266  1.00  0.00    -0.311 OA
BRANCH  29  30
HETATM   30  C5  UNL     1       0.618 -37.032   4.815  1.00  0.00     0.286 C 
HETATM   31  O3  UNL     1      -0.092 -37.084   3.734  1.00  0.00    -0.260 OA
BRANCH  30  32
HETATM   32  C4  UNL     1       1.016 -35.770   5.376  1.00  0.00     0.119 C 
HETATM   33  C3  UNL     1       0.125 -34.631   5.434  1.00  0.00     0.086 C 
BRANCH  33  34
HETATM   34  O2  UNL     1       0.764 -33.471   6.025  1.00  0.00    -0.279 OA
BRANCH  34  35
HETATM   35  C2  UNL     1       1.364 -33.623   7.279  1.00  0.00     0.260 C 
HETATM   36  C1  UNL     1       2.739 -33.193   7.582  1.00  0.00     0.126 C 
HETATM   37  O1  UNL     1       0.643 -34.168   8.175  1.00  0.00    -0.265 OA
ENDBRANCH  34  35
ENDBRANCH  33  34
BRANCH  33  38
HETATM   38  C32 UNL     1      -1.099 -34.438   5.077  1.00  0.00    -0.053 C 
HETATM   39  C33 UNL     1      -1.613 -33.891   3.803  1.00  0.00     0.046 C 
HETATM   40  C34 UNL     1      -2.184 -34.825   6.071  1.00  0.00     0.046 C 
ENDBRANCH  33  38
ENDBRANCH  30  32
ENDBRANCH  29  30
ENDBRANCH   1  29
BRANCH  10  41
HETATM   41  C27 UNL     1       2.655 -40.939   5.129  1.00  0.00    -0.076 C 
HETATM   42  C28 UNL     1       2.758 -40.306   3.804  1.00  0.00     0.044 C 
HETATM   43  C29 UNL     1       3.819 -41.867   5.337  1.00  0.00     0.044 C 
ENDBRANCH  10  41
TORSDOF 16
ENDMDL
MODEL 2
REMARK VINA RESULT: -8.298029615      1.456      2.466
REMARK  16 active torsions:
REMARK  status: ('A' for Active; 'I' for Inactive)
REMARK    1  A    between atoms: C2_2  and  O2_4 
REMARK    2  A    between atoms: O2_4  and  C3_5 
REMARK    3  A    between atoms: C3_5  and  C32_41 
REMARK    4  A    between atoms: C4_6  and  C5_7 
REMARK    5  A    between atoms: C5_7  and  O4_9 
REMARK    6  A    between atoms: O4_9  and  C6_10 
REMARK    7  A    between atoms: C8_12  and  C9_13 
REMARK    8  A    between atoms: C9_13  and  C11_15 
REMARK    9  A    between atoms: C11_15  and  C13_17 
REMARK   10  A    between atoms: C13_17  and  C14_18 
REMARK   11  A    between atoms: C14_18  and  C15_19 
REMARK   12  A    between atoms: C15_19  and  O5_20 
REMARK   13  A    between atoms: C15_19  and  O6_22 
REMARK   14  A    between atoms: C15_19  and  C18_26 
REMARK   15  A    between atoms: O6_22  and  C16_23 
REMARK   16  A    between atoms: C26_35  and  C27_36 
ROOT
HETATM    1  C6  UNL     1       0.097 -39.070   5.612  1.00  0.00     0.146 C 
HETATM    2  C7  UNL     1      -0.060 -38.939   7.109  1.00  0.00     0.040 C 
HETATM    3  C8  UNL     1      -1.120 -39.963   7.345  1.00  0.00     0.009 C 
HETATM    4  C21 UNL     1      -0.908 -41.003   6.321  1.00  0.00    -0.008 C 
HETATM    5  C22 UNL     1      -2.100 -41.439   5.524  1.00  0.00     0.021 C 
HETATM    6  C23 UNL     1      -0.568 -42.233   7.098  1.00  0.00    -0.012 C 
HETATM    7  C24 UNL     1       0.640 -42.666   7.371  1.00  0.00     0.052 C 
HETATM    8  C25 UNL     1       1.676 -41.804   6.818  1.00  0.00     0.179 C 
HETATM    9  O8  UNL     1       2.726 -41.564   7.475  1.00  0.00    -0.288 OA
HETATM   10  C26 UNL     1       1.379 -41.268   5.463  1.00  0.00     0.005 C 
HETATM   11  C30 UNL     1       0.158 -40.538   5.353  1.00  0.00     0.025 C 
HETATM   12  C31 UNL     1      -0.314 -40.628   3.878  1.00  0.00     0.024 C 
ENDROOT
BRANCH   3  13
HETATM   13  C9  UNL     1      -2.413 -39.432   7.772  1.00  0.00     0.015 C 
HETATM   14  C10 UNL     1      -2.767 -39.782   9.231  1.00  0.00     0.015 C 
BRANCH  13  15
HETATM   15  C11 UNL     1      -2.582 -37.938   7.789  1.00  0.00    -0.083 C 
HETATM   16  C12 UNL     1      -3.686 -37.511   6.802  1.00  0.00     0.043 C 
BRANCH  15  17
HETATM   17  C13 UNL     1      -2.633 -37.130   8.986  1.00  0.00    -0.019 C 
BRANCH  17  18
HETATM   18  C14 UNL     1      -1.545 -36.269   9.445  1.00  0.00     0.096 C 
BRANCH  18  19
HETATM   19  C15 UNL     1      -1.358 -36.053  10.955  1.00  0.00     0.176 C 
BRANCH  19  20
HETATM   20  O5  UNL     1      -0.528 -34.885  10.991  1.00  0.00    -0.364 OA
ATOM     21  H5  UNL     1       0.333 -35.248  10.821  1.00  0.00     0.213 HD
ENDBRANCH  19  20
BRANCH  19  22
HETATM   22  O6  UNL     1      -2.614 -35.728  11.420  1.00  0.00    -0.283 OA
BRANCH  22  23
HETATM   23  C16 UNL     1      -3.061 -35.072  12.494  1.00  0.00     0.257 C 
HETATM   24  C17 UNL     1      -4.142 -35.664  13.388  1.00  0.00     0.126 C 
HETATM   25  O7  UNL     1      -2.595 -33.950  12.780  1.00  0.00    -0.266 OA
ENDBRANCH  22  23
ENDBRANCH  19  22
BRANCH  19  26
HETATM   26  C18 UNL     1      -0.619 -37.175  11.540  1.00  0.00     0.041 C 
HETATM   27  C19 UNL     1       0.363 -37.949  10.743  1.00  0.00     0.015 C 
HETATM   28  C20 UNL     1      -1.521 -38.197  12.225  1.00  0.00     0.015 C 
ENDBRANCH  19  26
ENDBRANCH  18  19
ENDBRANCH  17  18
ENDBRANCH  15  17
ENDBRANCH  13  15
ENDBRANCH   3  13
BRANCH   1  29
HETATM   29  O4  UNL     1       0.902 -38.233   4.932  1.00  0.00    -0.311 OA
BRANCH  29  30
HETATM   30  C5  UNL     1       0.765 -36.873   4.730  1.00  0.00     0.286 C 
HETATM   31  O3  UNL     1       1.744 -36.239   5.292  1.00  0.00    -0.260 OA
BRANCH  30  32
HETATM   32  C4  UNL     1      -0.268 -36.161   4.027  1.00  0.00     0.119 C 
HETATM   33  C3  UNL     1      -0.628 -36.467   2.660  1.00  0.00     0.086 C 
BRANCH  33  34
HETATM   34  O2  UNL     1      -1.680 -35.598   2.168  1.00  0.00    -0.279 OA
BRANCH  34  35
HETATM   35  C2  UNL     1      -1.514 -34.218   2.324  1.00  0.00     0.260 C 
HETATM   36  C1  UNL     1      -2.364 -33.388   3.193  1.00  0.00     0.126 C 
HETATM   37  O1  UNL     1      -0.562 -33.696   1.658  1.00  0.00    -0.265 OA
ENDBRANCH  34  35
ENDBRANCH  33  34
BRANCH  33  38
HETATM   38  C32 UNL     1      -0.217 -37.339   1.803  1.00  0.00    -0.053 C 
HETATM   39  C33 UNL     1       1.165 -37.601   1.346  1.00  0.00     0.046 C 
HETATM   40  C34 UNL     1      -1.264 -38.242   1.169  1.00  0.00     0.046 C 
ENDBRANCH  33  38
ENDBRANCH  30  32
ENDBRANCH  29  30
ENDBRANCH   1  29
BRANCH  10  41
HETATM   41  C27 UNL     1       2.691 -40.851   4.916  1.00  0.00    -0.076 C 
HETATM   42  C28 UNL     1       2.765 -40.254   3.572  1.00  0.00     0.044 C 
HETATM   43  C29 UNL     1       3.857 -41.776   5.122  1.00  0.00     0.044 C 
ENDBRANCH  10  41
TORSDOF 16
ENDMDL
MODEL 3
REMARK VINA RESULT: -8.172376652      1.142      2.181
REMARK  16 active torsions:
REMARK  status: ('A' for Active; 'I' for Inactive)
REMARK    1  A    between atoms: C2_2  and  O2_4 
REMARK    2  A    between atoms: O2_4  and  C3_5 
REMARK    3  A    between atoms: C3_5  and  C32_41 
REMARK    4  A    between atoms: C4_6  and  C5_7 
REMARK    5  A    between atoms: C5_7  and  O4_9 
REMARK    6  A    between atoms: O4_9  and  C6_10 
REMARK    7  A    between atoms: C8_12  and  C9_13 
REMARK    8  A    between atoms: C9_13  and  C11_15 
REMARK    9  A    between atoms: C11_15  and  C13_17 
REMARK   10  A    between atoms: C13_17  and  C14_18 
REMARK   11  A    between atoms: C14_18  and  C15_19 
REMARK   12  A    between atoms: C15_19  and  O5_20 
REMARK   13  A    between atoms: C15_19  and  O6_22 
REMARK   14  A    between atoms: C15_19  and  C18_26 
REMARK   15  A    between atoms: O6_22  and  C16_23 
REMARK   16  A    between atoms: C26_35  and  C27_36 
ROOT
HETATM    1  C6  UNL     1       0.286 -39.195   5.649  1.00  0.00     0.146 C 
HETATM    2  C7  UNL     1      -0.025 -39.087   7.124  1.00  0.00     0.040 C 
HETATM    3  C8  UNL     1      -1.112 -40.105   7.230  1.00  0.00     0.009 C 
HETATM    4  C21 UNL     1      -0.802 -41.130   6.215  1.00  0.00    -0.008 C 
HETATM    5  C22 UNL     1      -1.907 -41.542   5.291  1.00  0.00     0.021 C 
HETATM    6  C23 UNL     1      -0.555 -42.375   7.002  1.00  0.00    -0.012 C 
HETATM    7  C24 UNL     1       0.616 -42.824   7.392  1.00  0.00     0.052 C 
HETATM    8  C25 UNL     1       1.710 -41.963   6.965  1.00  0.00     0.179 C 
HETATM    9  O8  UNL     1       2.687 -41.743   7.732  1.00  0.00    -0.288 OA
HETATM   10  C26 UNL     1       1.560 -41.402   5.596  1.00  0.00     0.005 C 
HETATM   11  C30 UNL     1       0.363 -40.659   5.372  1.00  0.00     0.025 C 
HETATM   12  C31 UNL     1       0.047 -40.720   3.855  1.00  0.00     0.024 C 
ENDROOT
BRANCH   3  13
HETATM   13  C9  UNL     1      -2.438 -39.569   7.529  1.00  0.00     0.015 C 
HETATM   14  C10 UNL     1      -2.969 -39.986   8.915  1.00  0.00     0.015 C 
BRANCH  13  15
HETATM   15  C11 UNL     1      -2.586 -38.074   7.605  1.00  0.00    -0.083 C 
HETATM   16  C12 UNL     1      -3.234 -37.531   6.317  1.00  0.00     0.043 C 
BRANCH  15  17
HETATM   17  C13 UNL     1      -3.073 -37.355   8.760  1.00  0.00    -0.019 C 
BRANCH  17  18
HETATM   18  C14 UNL     1      -2.441 -36.160   9.314  1.00  0.00     0.096 C 
BRANCH  18  19
HETATM   19  C15 UNL     1      -1.911 -36.202  10.756  1.00  0.00     0.176 C 
BRANCH  19  20
HETATM   20  O5  UNL     1      -0.945 -35.144  10.752  1.00  0.00    -0.364 OA
ATOM     21  H5  UNL     1      -0.125 -35.623  10.781  1.00  0.00     0.213 HD
ENDBRANCH  19  20
BRANCH  19  22
HETATM   22  O6  UNL     1      -2.986 -35.829  11.534  1.00  0.00    -0.283 OA
BRANCH  22  23
HETATM   23  C16 UNL     1      -3.119 -35.059  12.617  1.00  0.00     0.257 C 
HETATM   24  C17 UNL     1      -3.984 -35.494  13.793  1.00  0.00     0.126 C 
HETATM   25  O7  UNL     1      -2.532 -33.959  12.679  1.00  0.00    -0.266 OA
ENDBRANCH  22  23
ENDBRANCH  19  22
BRANCH  19  26
HETATM   26  C18 UNL     1      -1.221 -37.470  11.006  1.00  0.00     0.041 C 
HETATM   27  C19 UNL     1      -1.422 -38.222  12.269  1.00  0.00     0.015 C 
HETATM   28  C20 UNL     1       0.287 -37.387  10.787  1.00  0.00     0.015 C 
ENDBRANCH  19  26
ENDBRANCH  18  19
ENDBRANCH  17  18
ENDBRANCH  15  17
ENDBRANCH  13  15
ENDBRANCH   3  13
BRANCH   1  29
HETATM   29  O4  UNL     1       1.164 -38.354   5.071  1.00  0.00    -0.311 OA
BRANCH  29  30
HETATM   30  C5  UNL     1       0.941 -37.413   4.084  1.00  0.00     0.286 C 
HETATM   31  O3  UNL     1       1.973 -37.331   3.307  1.00  0.00    -0.260 OA
BRANCH  30  32
HETATM   32  C4  UNL     1      -0.217 -36.590   3.862  1.00  0.00     0.119 C 
HETATM   33  C3  UNL     1      -0.557 -35.480   4.724  1.00  0.00     0.086 C 
BRANCH  33  34
HETATM   34  O2  UNL     1      -1.779 -34.820   4.303  1.00  0.00    -0.279 OA
BRANCH  34  35
HETATM   35  C2  UNL     1      -1.909 -34.488   2.951  1.00  0.00     0.260 C 
HETATM   36  C1  UNL     1      -2.877 -35.127   2.044  1.00  0.00     0.126 C 
HETATM   37  O1  UNL     1      -1.127 -33.577   2.526  1.00  0.00    -0.265 OA
ENDBRANCH  34  35
ENDBRANCH  33  34
BRANCH  33  38
HETATM   38  C32 UNL     1      -0.009 -34.963   5.770  1.00  0.00    -0.053 C 
HETATM   39  C33 UNL     1       0.199 -35.575   7.100  1.00  0.00     0.046 C 
HETATM   40  C34 UNL     1       0.517 -33.540   5.651  1.00  0.00     0.046 C 
ENDBRANCH  33  38
ENDBRANCH  30  32
ENDBRANCH  29  30
ENDBRANCH   1  29
BRANCH  10  41
HETATM   41  C27 UNL     1       2.925 -40.988   5.196  1.00  0.00    -0.076 C 
HETATM   42  C28 UNL     1       3.188 -40.590   3.804  1.00  0.00     0.044 C 
HETATM   43  C29 UNL     1       4.078 -41.799   5.716  1.00  0.00     0.044 C 
ENDBRANCH  10  41
TORSDOF 16
ENDMDL
MODEL 4
REMARK VINA RESULT: -8.072465566      3.189      7.233
REMARK  16 active torsions:
REMARK  status: ('A' for Active; 'I' for Inactive)
REMARK    1  A    between atoms: C2_2  and  O2_4 
REMARK    2  A    between atoms: O2_4  and  C3_5 
REMARK    3  A    between atoms: C3_5  and  C32_41 
REMARK    4  A    between atoms: C4_6  and  C5_7 
REMARK    5  A    between atoms: C5_7  and  O4_9 
REMARK    6  A    between atoms: O4_9  and  C6_10 
REMARK    7  A    between atoms: C8_12  and  C9_13 
REMARK    8  A    between atoms: C9_13  and  C11_15 
REMARK    9  A    between atoms: C11_15  and  C13_17 
REMARK   10  A    between atoms: C13_17  and  C14_18 
REMARK   11  A    between atoms: C14_18  and  C15_19 
REMARK   12  A    between atoms: C15_19  and  O5_20 
REMARK   13  A    between atoms: C15_19  and  O6_22 
REMARK   14  A    between atoms: C15_19  and  C18_26 
REMARK   15  A    between atoms: O6_22  and  C16_23 
REMARK   16  A    between atoms: C26_35  and  C27_36 
ROOT
HETATM    1  C6  UNL     1      -0.925 -37.020   4.915  1.00  0.00     0.146 C 
HETATM    2  C7  UNL     1      -1.789 -38.252   4.781  1.00  0.00     0.040 C 
HETATM    3  C8  UNL     1      -2.644 -38.097   5.995  1.00  0.00     0.009 C 
HETATM    4  C21 UNL     1      -2.778 -36.643   6.208  1.00  0.00    -0.008 C 
HETATM    5  C22 UNL     1      -2.507 -36.120   7.585  1.00  0.00     0.021 C 
HETATM    6  C23 UNL     1      -4.237 -36.372   6.038  1.00  0.00    -0.012 C 
HETATM    7  C24 UNL     1      -4.825 -35.971   4.936  1.00  0.00     0.052 C 
HETATM    8  C25 UNL     1      -3.886 -35.799   3.836  1.00  0.00     0.179 C 
HETATM    9  O8  UNL     1      -4.204 -36.139   2.664  1.00  0.00    -0.288 OA
HETATM   10  C26 UNL     1      -2.578 -35.207   4.225  1.00  0.00     0.005 C 
HETATM   11  C30 UNL     1      -1.870 -35.913   5.242  1.00  0.00     0.025 C 
HETATM   12  C31 UNL     1      -0.946 -34.898   5.965  1.00  0.00     0.024 C 
ENDROOT
BRANCH   3  13
HETATM   13  C9  UNL     1      -2.430 -39.099   7.037  1.00  0.00     0.015 C 
HETATM   14  C10 UNL     1      -3.124 -40.444   6.744  1.00  0.00     0.015 C 
BRANCH  13  15
HETATM   15  C11 UNL     1      -1.019 -39.555   7.289  1.00  0.00    -0.083 C 
HETATM   16  C12 UNL     1      -0.465 -38.908   8.573  1.00  0.00     0.043 C 
BRANCH  15  17
HETATM   17  C13 UNL     1      -0.566 -40.922   7.174  1.00  0.00    -0.019 C 
BRANCH  17  18
HETATM   18  C14 UNL     1       0.581 -41.345   6.373  1.00  0.00     0.096 C 
BRANCH  18  19
HETATM   19  C15 UNL     1       1.662 -42.220   7.029  1.00  0.00     0.176 C 
BRANCH  19  20
HETATM   20  O5  UNL     1       1.895 -41.531   8.264  1.00  0.00    -0.364 OA
ATOM     21  H5  UNL     1       1.075 -41.666   8.725  1.00  0.00     0.213 HD
ENDBRANCH  19  20
BRANCH  19  22
HETATM   22  O6  UNL     1       1.031 -43.416   7.292  1.00  0.00    -0.283 OA
BRANCH  22  23
HETATM   23  C16 UNL     1       1.133 -44.319   8.270  1.00  0.00     0.257 C 
HETATM   24  C17 UNL     1      -0.041 -45.214   8.645  1.00  0.00     0.126 C 
HETATM   25  O7  UNL     1       2.204 -44.442   8.899  1.00  0.00    -0.266 OA
ENDBRANCH  22  23
ENDBRANCH  19  22
BRANCH  19  26
HETATM   26  C18 UNL     1       2.891 -42.190   6.232  1.00  0.00     0.041 C 
HETATM   27  C19 UNL     1       4.220 -42.034   6.872  1.00  0.00     0.015 C 
HETATM   28  C20 UNL     1       2.841 -41.181   5.088  1.00  0.00     0.015 C 
ENDBRANCH  19  26
ENDBRANCH  18  19
ENDBRANCH  17  18
ENDBRANCH  15  17
ENDBRANCH  13  15
ENDBRANCH   3  13
BRANCH   1  29
HETATM   29  O4  UNL     1       0.095 -36.803   4.063  1.00  0.00    -0.311 OA
BRANCH  29  30
HETATM   30  C5  UNL     1       1.317 -37.444   3.996  1.00  0.00     0.286 C 
HETATM   31  O3  UNL     1       1.813 -37.580   5.184  1.00  0.00    -0.260 OA
BRANCH  30  32
HETATM   32  C4  UNL     1       2.027 -37.925   2.842  1.00  0.00     0.119 C 
HETATM   33  C3  UNL     1       1.477 -38.928   1.955  1.00  0.00     0.086 C 
BRANCH  33  34
HETATM   34  O2  UNL     1       2.391 -39.260   0.879  1.00  0.00    -0.279 OA
BRANCH  34  35
HETATM   35  C2  UNL     1       3.153 -40.425   1.004  1.00  0.00     0.260 C 
HETATM   36  C1  UNL     1       2.839 -41.684   0.307  1.00  0.00     0.126 C 
HETATM   37  O1  UNL     1       4.164 -40.346   1.774  1.00  0.00    -0.265 OA
ENDBRANCH  34  35
ENDBRANCH  33  34
BRANCH  33  38
HETATM   38  C32 UNL     1       0.363 -39.575   1.923  1.00  0.00    -0.053 C 
HETATM   39  C33 UNL     1      -0.090 -40.675   2.802  1.00  0.00     0.046 C 
HETATM   40  C34 UNL     1      -0.649 -39.171   0.861  1.00  0.00     0.046 C 
ENDBRANCH  33  38
ENDBRANCH  30  32
ENDBRANCH  29  30
ENDBRANCH   1  29
BRANCH  10  41
HETATM   41  C27 UNL     1      -1.997 -34.690   2.963  1.00  0.00    -0.076 C 
HETATM   42  C28 UNL     1      -2.278 -33.307   2.545  1.00  0.00     0.044 C 
HETATM   43  C29 UNL     1      -2.020 -35.596   1.764  1.00  0.00     0.044 C 
ENDBRANCH  10  41
TORSDOF 16
ENDMDL
MODEL 5
REMARK VINA RESULT: -8.011391023      1.678      3.099
REMARK  16 active torsions:
REMARK  status: ('A' for Active; 'I' for Inactive)
REMARK    1  A    between atoms: C2_2  and  O2_4 
REMARK    2  A    between atoms: O2_4  and  C3_5 
REMARK    3  A    between atoms: C3_5  and  C32_41 
REMARK    4  A    between atoms: C4_6  and  C5_7 
REMARK    5  A    between atoms: C5_7  and  O4_9 
REMARK    6  A    between atoms: O4_9  and  C6_10 
REMARK    7  A    between atoms: C8_12  and  C9_13 
REMARK    8  A    between atoms: C9_13  and  C11_15 
REMARK    9  A    between atoms: C11_15  and  C13_17 
REMARK   10  A    between atoms: C13_17  and  C14_18 
REMARK   11  A    between atoms: C14_18  and  C15_19 
REMARK   12  A    between atoms: C15_19  and  O5_20 
REMARK   13  A    between atoms: C15_19  and  O6_22 
REMARK   14  A    between atoms: C15_19  and  C18_26 
REMARK   15  A    between atoms: O6_22  and  C16_23 
REMARK   16  A    between atoms: C26_35  and  C27_36 
ROOT
HETATM    1  C6  UNL     1       0.104 -39.318   5.927  1.00  0.00     0.146 C 
HETATM    2  C7  UNL     1      -0.105 -39.200   7.419  1.00  0.00     0.040 C 
HETATM    3  C8  UNL     1      -1.198 -40.199   7.604  1.00  0.00     0.009 C 
HETATM    4  C21 UNL     1      -0.974 -41.233   6.575  1.00  0.00    -0.008 C 
HETATM    5  C22 UNL     1      -2.145 -41.630   5.730  1.00  0.00     0.021 C 
HETATM    6  C23 UNL     1      -0.694 -42.479   7.350  1.00  0.00    -0.012 C 
HETATM    7  C24 UNL     1       0.493 -42.945   7.662  1.00  0.00     0.052 C 
HETATM    8  C25 UNL     1       1.570 -42.104   7.158  1.00  0.00     0.179 C 
HETATM    9  O8  UNL     1       2.600 -41.897   7.856  1.00  0.00    -0.288 OA
HETATM   10  C26 UNL     1       1.336 -41.546   5.800  1.00  0.00     0.005 C 
HETATM   11  C30 UNL     1       0.139 -40.784   5.653  1.00  0.00     0.025 C 
HETATM   12  C31 UNL     1      -0.280 -40.847   4.161  1.00  0.00     0.024 C 
ENDROOT
BRANCH   3  13
HETATM   13  C9  UNL     1      -2.492 -39.640   7.989  1.00  0.00     0.015 C 
HETATM   14  C10 UNL     1      -2.883 -39.950   9.448  1.00  0.00     0.015 C 
BRANCH  13  15
HETATM   15  C11 UNL     1      -2.641 -38.144   7.967  1.00  0.00    -0.083 C 
HETATM   16  C12 UNL     1      -3.243 -37.683   6.625  1.00  0.00     0.043 C 
BRANCH  15  17
HETATM   17  C13 UNL     1      -3.167 -37.355   9.056  1.00  0.00    -0.019 C 
BRANCH  17  18
HETATM   18  C14 UNL     1      -2.506 -36.176   9.615  1.00  0.00     0.096 C 
BRANCH  18  19
HETATM   19  C15 UNL     1      -1.495 -36.366  10.757  1.00  0.00     0.176 C 
BRANCH  19  20
HETATM   20  O5  UNL     1      -1.414 -35.044  11.307  1.00  0.00    -0.364 OA
ATOM     21  H5  UNL     1      -0.521 -35.019  11.631  1.00  0.00     0.213 HD
ENDBRANCH  19  20
BRANCH  19  22
HETATM   22  O6  UNL     1      -2.135 -37.190  11.657  1.00  0.00    -0.283 OA
BRANCH  22  23
HETATM   23  C16 UNL     1      -3.133 -37.011  12.525  1.00  0.00     0.257 C 
HETATM   24  C17 UNL     1      -4.140 -38.118  12.810  1.00  0.00     0.126 C 
HETATM   25  O7  UNL     1      -3.258 -35.921  13.120  1.00  0.00    -0.266 OA
ENDBRANCH  22  23
ENDBRANCH  19  22
BRANCH  19  26
HETATM   26  C18 UNL     1      -0.184 -36.734  10.217  1.00  0.00     0.041 C 
HETATM   27  C19 UNL     1       0.610 -37.838  10.808  1.00  0.00     0.015 C 
HETATM   28  C20 UNL     1       0.765 -35.546  10.079  1.00  0.00     0.015 C 
ENDBRANCH  19  26
ENDBRANCH  18  19
ENDBRANCH  17  18
ENDBRANCH  15  17
ENDBRANCH  13  15
ENDBRANCH   3  13
BRANCH   1  29
HETATM   29  O4  UNL     1       0.955 -38.494   5.288  1.00  0.00    -0.311 OA
BRANCH  29  30
HETATM   30  C5  UNL     1       0.683 -37.309   4.631  1.00  0.00     0.286 C 
HETATM   31  O3  UNL     1       1.425 -36.360   5.102  1.00  0.00    -0.260 OA
BRANCH  30  32
HETATM   32  C4  UNL     1      -0.261 -37.053   3.577  1.00  0.00     0.119 C 
HETATM   33  C3  UNL     1      -0.047 -37.503   2.218  1.00  0.00     0.086 C 
BRANCH  33  34
HETATM   34  O2  UNL     1      -1.129 -37.104   1.338  1.00  0.00    -0.279 OA
BRANCH  34  35
HETATM   35  C2  UNL     1      -1.469 -35.748   1.294  1.00  0.00     0.260 C 
HETATM   36  C1  UNL     1      -2.771 -35.220   1.738  1.00  0.00     0.126 C 
HETATM   37  O1  UNL     1      -0.574 -34.967   0.839  1.00  0.00    -0.265 OA
ENDBRANCH  34  35
ENDBRANCH  33  34
BRANCH  33  38
HETATM   38  C32 UNL     1       0.888 -38.174   1.638  1.00  0.00    -0.053 C 
HETATM   39  C33 UNL     1       2.351 -37.967   1.707  1.00  0.00     0.046 C 
HETATM   40  C34 UNL     1       0.466 -39.351   0.770  1.00  0.00     0.046 C 
ENDBRANCH  33  38
ENDBRANCH  30  32
ENDBRANCH  29  30
ENDBRANCH   1  29
BRANCH  10  41
HETATM   41  C27 UNL     1       2.678 -41.156   5.306  1.00  0.00    -0.076 C 
HETATM   42  C28 UNL     1       2.814 -40.530   3.981  1.00  0.00     0.044 C 
HETATM   43  C29 UNL     1       3.808 -42.121   5.528  1.00  0.00     0.044 C 
ENDBRANCH  10  41
TORSDOF 16
ENDMDL
