MODEL 1
REMARK VINA RESULT: -7.347853591      0.000      0.000
REMARK  7 active torsions:
REMARK  status: ('A' for Active; 'I' for Inactive)
REMARK    1  A    between atoms: C2_2  and  C3_3 
REMARK    2  A    between atoms: C3_3  and  C4_4 
REMARK    3  A    between atoms: C4_4  and  C5_5 
REMARK    4  A    between atoms: C5_5  and  O2_7 
REMARK    5  A    between atoms: O2_7  and  C6_8 
REMARK    6  A    between atoms: C11_14  and  O4_15 
REMARK    7  A    between atoms: C16_20  and  O5_21 
ROOT
HETATM    1  C6  UNL     1      -4.449   2.368  13.414  1.00  0.00     0.164 C 
HETATM    2  C7  UNL     1      -5.381   3.278  14.140  1.00  0.00     0.036 C 
HETATM    3  C8  UNL     1      -4.719   4.514  14.645  1.00  0.00     0.015 C 
HETATM    4  C9  UNL     1      -3.716   5.116  13.720  1.00  0.00     0.079 C 
HETATM    5  C10 UNL     1      -2.350   4.511  14.083  1.00  0.00     0.270 C 
HETATM    6  O3  UNL     1      -1.411   5.320  13.409  1.00  0.00    -0.330 OA
HETATM    7  C11 UNL     1      -1.383   5.027  12.053  1.00  0.00     0.273 C 
HETATM    8  C13 UNL     1      -2.764   5.189  11.484  1.00  0.00     0.036 C 
HETATM    9  C14 UNL     1      -3.077   6.689  11.502  1.00  0.00     0.023 C 
HETATM   10  C15 UNL     1      -2.863   4.744  10.055  1.00  0.00     0.023 C 
HETATM   11  C16 UNL     1      -3.809   4.511  12.310  1.00  0.00     0.106 C 
HETATM   12  C17 UNL     1      -3.361   3.106  12.651  1.00  0.00     0.190 C 
HETATM   13  O6  UNL     1      -2.298   3.271  13.509  1.00  0.00    -0.350 OA
ENDROOT
BRANCH   1  14
HETATM   14  O2  UNL     1      -3.797   1.539  14.384  1.00  0.00    -0.313 OA
BRANCH  14  15
HETATM   15  C5  UNL     1      -4.486   0.750  15.273  1.00  0.00     0.259 C 
HETATM   16  O1  UNL     1      -4.865  -0.387  14.886  1.00  0.00    -0.265 OA
BRANCH  15  17
HETATM   17  C4  UNL     1      -4.808   1.162  16.661  1.00  0.00     0.111 C 
BRANCH  17  18
HETATM   18  C3  UNL     1      -6.013   0.415  17.197  1.00  0.00     0.009 C 
BRANCH  18  19
HETATM   19  C2  UNL     1      -7.241   1.267  16.958  1.00  0.00    -0.004 C 
HETATM   20  C1  UNL     1      -7.000   2.717  17.232  1.00  0.00     0.005 C 
ENDBRANCH  18  19
ENDBRANCH  17  18
ENDBRANCH  15  17
ENDBRANCH  14  15
ENDBRANCH   1  14
BRANCH  11  21
HETATM   21  O5  UNL     1      -5.048   4.599  11.767  1.00  0.00    -0.386 OA
ATOM     22  H5  UNL     1      -5.499   5.406  11.986  1.00  0.00     0.210 HD
ENDBRANCH  11  21
BRANCH   7  23
HETATM   23  O4  UNL     1      -0.794   3.829  11.751  1.00  0.00    -0.365 OA
HETATM   24  C12 UNL     1       0.486   3.980  11.208  1.00  0.00     0.204 C 
ENDBRANCH   7  23
TORSDOF 7
ENDMDL
MODEL 2
REMARK VINA RESULT: -7.343027324      1.646      2.688
REMARK  7 active torsions:
REMARK  status: ('A' for Active; 'I' for Inactive)
REMARK    1  A    between atoms: C2_2  and  C3_3 
REMARK    2  A    between atoms: C3_3  and  C4_4 
REMARK    3  A    between atoms: C4_4  and  C5_5 
REMARK    4  A    between atoms: C5_5  and  O2_7 
REMARK    5  A    between atoms: O2_7  and  C6_8 
REMARK    6  A    between atoms: C11_14  and  O4_15 
REMARK    7  A    between atoms: C16_20  and  O5_21 
ROOT
HETATM    1  C6  UNL     1      -3.934   0.684  12.703  1.00  0.00     0.164 C 
HETATM    2  C7  UNL     1      -4.764   0.420  11.492  1.00  0.00     0.036 C 
HETATM    3  C8  UNL     1      -5.209   1.664  10.802  1.00  0.00     0.015 C 
HETATM    4  C9  UNL     1      -4.189   2.750  10.741  1.00  0.00     0.079 C 
HETATM    5  C10 UNL     1      -4.401   3.635  11.980  1.00  0.00     0.270 C 
HETATM    6  O3  UNL     1      -3.639   4.795  11.724  1.00  0.00    -0.330 OA
HETATM    7  C11 UNL     1      -2.285   4.553  11.905  1.00  0.00     0.273 C 
HETATM    8  C13 UNL     1      -1.866   3.410  11.025  1.00  0.00     0.036 C 
HETATM    9  C14 UNL     1      -1.932   3.916   9.580  1.00  0.00     0.023 C 
HETATM   10  C15 UNL     1      -0.451   2.975  11.266  1.00  0.00     0.023 C 
HETATM   11  C16 UNL     1      -2.791   2.239  11.124  1.00  0.00     0.106 C 
HETATM   12  C17 UNL     1      -3.070   1.928  12.578  1.00  0.00     0.190 C 
HETATM   13  O6  UNL     1      -3.812   2.993  13.034  1.00  0.00    -0.350 OA
ENDROOT
BRANCH   1  14
HETATM   14  O2  UNL     1      -4.822   0.897  13.808  1.00  0.00    -0.313 OA
BRANCH  14  15
HETATM   15  C5  UNL     1      -4.556   0.439  15.076  1.00  0.00     0.259 C 
HETATM   16  O1  UNL     1      -4.699  -0.791  15.305  1.00  0.00    -0.265 OA
BRANCH  15  17
HETATM   17  C4  UNL     1      -4.110   1.313  16.189  1.00  0.00     0.111 C 
BRANCH  17  18
HETATM   18  C3  UNL     1      -5.225   2.224  16.662  1.00  0.00     0.009 C 
BRANCH  18  19
HETATM   19  C2  UNL     1      -6.069   1.460  17.659  1.00  0.00    -0.004 C 
HETATM   20  C1  UNL     1      -7.404   1.073  17.108  1.00  0.00     0.005 C 
ENDBRANCH  18  19
ENDBRANCH  17  18
ENDBRANCH  15  17
ENDBRANCH  14  15
ENDBRANCH   1  14
BRANCH  11  21
HETATM   21  O5  UNL     1      -2.383   1.181  10.381  1.00  0.00    -0.386 OA
ATOM     22  H5  UNL     1      -2.658   1.229   9.473  1.00  0.00     0.210 HD
ENDBRANCH  11  21
BRANCH   7  23
HETATM   23  O4  UNL     1      -1.912   4.414  13.214  1.00  0.00    -0.365 OA
HETATM   24  C12 UNL     1      -1.824   5.639  13.883  1.00  0.00     0.204 C 
ENDBRANCH   7  23
TORSDOF 7
ENDMDL
MODEL 3
REMARK VINA RESULT: -7.226699118      1.027      1.135
REMARK  7 active torsions:
REMARK  status: ('A' for Active; 'I' for Inactive)
REMARK    1  A    between atoms: C2_2  and  C3_3 
REMARK    2  A    between atoms: C3_3  and  C4_4 
REMARK    3  A    between atoms: C4_4  and  C5_5 
REMARK    4  A    between atoms: C5_5  and  O2_7 
REMARK    5  A    between atoms: O2_7  and  C6_8 
REMARK    6  A    between atoms: C11_14  and  O4_15 
REMARK    7  A    between atoms: C16_20  and  O5_21 
ROOT
HETATM    1  C6  UNL     1      -4.721   3.408  14.484  1.00  0.00     0.164 C 
HETATM    2  C7  UNL     1      -5.204   4.746  14.933  1.00  0.00     0.036 C 
HETATM    3  C8  UNL     1      -4.167   5.811  14.826  1.00  0.00     0.015 C 
HETATM    4  C9  UNL     1      -3.312   5.738  13.606  1.00  0.00     0.079 C 
HETATM    5  C10 UNL     1      -2.080   4.895  13.972  1.00  0.00     0.270 C 
HETATM    6  O3  UNL     1      -1.174   5.109  12.911  1.00  0.00    -0.330 OA
HETATM    7  C11 UNL     1      -1.551   4.396  11.782  1.00  0.00     0.273 C 
HETATM    8  C13 UNL     1      -2.952   4.781  11.400  1.00  0.00     0.036 C 
HETATM    9  C14 UNL     1      -2.890   6.224  10.888  1.00  0.00     0.023 C 
HETATM   10  C15 UNL     1      -3.502   3.949  10.280  1.00  0.00     0.023 C 
HETATM   11  C16 UNL     1      -3.890   4.767  12.565  1.00  0.00     0.106 C 
HETATM   12  C17 UNL     1      -3.714   3.485  13.349  1.00  0.00     0.190 C 
HETATM   13  O6  UNL     1      -2.463   3.583  13.915  1.00  0.00    -0.350 OA
ENDROOT
BRANCH   1  14
HETATM   14  O2  UNL     1      -4.062   2.782  15.592  1.00  0.00    -0.313 OA
BRANCH  14  15
HETATM   15  C5  UNL     1      -4.330   1.493  15.986  1.00  0.00     0.259 C 
HETATM   16  O1  UNL     1      -3.356   0.725  16.204  1.00  0.00    -0.265 OA
BRANCH  15  17
HETATM   17  C4  UNL     1      -5.701   0.957  16.168  1.00  0.00     0.111 C 
BRANCH  17  18
HETATM   18  C3  UNL     1      -6.007   0.699  17.631  1.00  0.00     0.009 C 
BRANCH  18  19
HETATM   19  C2  UNL     1      -6.403   2.012  18.269  1.00  0.00    -0.004 C 
HETATM   20  C1  UNL     1      -7.158   2.903  17.334  1.00  0.00     0.005 C 
ENDBRANCH  18  19
ENDBRANCH  17  18
ENDBRANCH  15  17
ENDBRANCH  14  15
ENDBRANCH   1  14
BRANCH  11  21
HETATM   21  O5  UNL     1      -5.168   5.051  12.215  1.00  0.00    -0.386 OA
ATOM     22  H5  UNL     1      -5.363   4.853  11.306  1.00  0.00     0.210 HD
ENDBRANCH  11  21
BRANCH   7  23
HETATM   23  O4  UNL     1      -1.352   3.045  11.880  1.00  0.00    -0.365 OA
HETATM   24  C12 UNL     1      -0.308   2.594  11.066  1.00  0.00     0.204 C 
ENDBRANCH   7  23
TORSDOF 7
ENDMDL
MODEL 4
REMARK VINA RESULT: -7.044101500      1.656      3.072
REMARK  7 active torsions:
REMARK  status: ('A' for Active; 'I' for Inactive)
REMARK    1  A    between atoms: C2_2  and  C3_3 
REMARK    2  A    between atoms: C3_3  and  C4_4 
REMARK    3  A    between atoms: C4_4  and  C5_5 
REMARK    4  A    between atoms: C5_5  and  O2_7 
REMARK    5  A    between atoms: O2_7  and  C6_8 
REMARK    6  A    between atoms: C11_14  and  O4_15 
REMARK    7  A    between atoms: C16_20  and  O5_21 
ROOT
HETATM    1  C6  UNL     1      -3.864   0.583  13.601  1.00  0.00     0.164 C 
HETATM    2  C7  UNL     1      -4.191  -0.248  12.407  1.00  0.00     0.036 C 
HETATM    3  C8  UNL     1      -4.877   0.519  11.328  1.00  0.00     0.015 C 
HETATM    4  C9  UNL     1      -4.360   1.900  11.111  1.00  0.00     0.079 C 
HETATM    5  C10 UNL     1      -5.199   2.838  11.994  1.00  0.00     0.270 C 
HETATM    6  O3  UNL     1      -4.890   4.135  11.532  1.00  0.00    -0.330 OA
HETATM    7  C11 UNL     1      -3.639   4.539  11.978  1.00  0.00     0.273 C 
HETATM    8  C13 UNL     1      -2.612   3.534  11.540  1.00  0.00     0.036 C 
HETATM    9  C14 UNL     1      -2.488   3.662  10.019  1.00  0.00     0.023 C 
HETATM   10  C15 UNL     1      -1.250   3.806  12.108  1.00  0.00     0.023 C 
HETATM   11  C16 UNL     1      -3.022   2.126  11.832  1.00  0.00     0.106 C 
HETATM   12  C17 UNL     1      -3.527   2.024  13.255  1.00  0.00     0.190 C 
HETATM   13  O6  UNL     1      -4.705   2.736  13.265  1.00  0.00    -0.350 OA
ENDROOT
BRANCH   1  14
HETATM   14  O2  UNL     1      -5.019   0.611  14.450  1.00  0.00    -0.313 OA
BRANCH  14  15
HETATM   15  C5  UNL     1      -4.935   0.599  15.821  1.00  0.00     0.259 C 
HETATM   16  O1  UNL     1      -3.796   0.484  16.345  1.00  0.00    -0.265 OA
BRANCH  15  17
HETATM   17  C4  UNL     1      -6.112   0.712  16.718  1.00  0.00     0.111 C 
BRANCH  17  18
HETATM   18  C3  UNL     1      -6.093   2.012  17.497  1.00  0.00     0.009 C 
BRANCH  18  19
HETATM   19  C2  UNL     1      -7.088   2.958  16.861  1.00  0.00    -0.004 C 
HETATM   20  C1  UNL     1      -6.442   3.941  15.938  1.00  0.00     0.005 C 
ENDBRANCH  18  19
ENDBRANCH  17  18
ENDBRANCH  15  17
ENDBRANCH  14  15
ENDBRANCH   1  14
BRANCH  11  21
HETATM   21  O5  UNL     1      -2.071   1.220  11.498  1.00  0.00    -0.386 OA
ATOM     22  H5  UNL     1      -1.203   1.598  11.414  1.00  0.00     0.210 HD
ENDBRANCH  11  21
BRANCH   7  23
HETATM   23  O4  UNL     1      -3.592   4.838  13.313  1.00  0.00    -0.365 OA
HETATM   24  C12 UNL     1      -3.763   6.203  13.565  1.00  0.00     0.204 C 
ENDBRANCH   7  23
TORSDOF 7
ENDMDL
MODEL 5
REMARK VINA RESULT: -6.817995793      1.782      3.339
REMARK  7 active torsions:
REMARK  status: ('A' for Active; 'I' for Inactive)
REMARK    1  A    between atoms: C2_2  and  C3_3 
REMARK    2  A    between atoms: C3_3  and  C4_4 
REMARK    3  A    between atoms: C4_4  and  C5_5 
REMARK    4  A    between atoms: C5_5  and  O2_7 
REMARK    5  A    between atoms: O2_7  and  C6_8 
REMARK    6  A    between atoms: C11_14  and  O4_15 
REMARK    7  A    between atoms: C16_20  and  O5_21 
ROOT
HETATM    1  C6  UNL     1      -4.366   2.176  13.332  1.00  0.00     0.164 C 
HETATM    2  C7  UNL     1      -4.489   0.844  12.673  1.00  0.00     0.036 C 
HETATM    3  C8  UNL     1      -4.624   0.932  11.191  1.00  0.00     0.015 C 
HETATM    4  C9  UNL     1      -3.773   1.970  10.541  1.00  0.00     0.079 C 
HETATM    5  C10 UNL     1      -4.612   3.256  10.465  1.00  0.00     0.270 C 
HETATM    6  O3  UNL     1      -3.897   4.096   9.586  1.00  0.00    -0.330 OA
HETATM    7  C11 UNL     1      -2.785   4.644  10.212  1.00  0.00     0.273 C 
HETATM    8  C13 UNL     1      -1.923   3.534  10.742  1.00  0.00     0.036 C 
HETATM    9  C14 UNL     1      -1.315   2.826   9.527  1.00  0.00     0.023 C 
HETATM   10  C15 UNL     1      -0.775   4.032  11.570  1.00  0.00     0.023 C 
HETATM   11  C16 UNL     1      -2.704   2.511  11.503  1.00  0.00     0.106 C 
HETATM   12  C17 UNL     1      -3.629   3.199  12.484  1.00  0.00     0.190 C 
HETATM   13  O6  UNL     1      -4.565   3.836  11.702  1.00  0.00    -0.350 OA
ENDROOT
BRANCH   1  14
HETATM   14  O2  UNL     1      -5.688   2.683  13.552  1.00  0.00    -0.313 OA
BRANCH  14  15
HETATM   15  C5  UNL     1      -6.054   3.334  14.706  1.00  0.00     0.259 C 
HETATM   16  O1  UNL     1      -6.665   4.430  14.601  1.00  0.00    -0.265 OA
BRANCH  15  17
HETATM   17  C4  UNL     1      -5.768   2.818  16.067  1.00  0.00     0.111 C 
BRANCH  17  18
HETATM   18  C3  UNL     1      -7.040   2.634  16.871  1.00  0.00     0.009 C 
BRANCH  18  19
HETATM   19  C2  UNL     1      -7.300   1.151  17.012  1.00  0.00    -0.004 C 
HETATM   20  C1  UNL     1      -6.074   0.384  17.396  1.00  0.00     0.005 C 
ENDBRANCH  18  19
ENDBRANCH  17  18
ENDBRANCH  15  17
ENDBRANCH  14  15
ENDBRANCH   1  14
BRANCH  11  21
HETATM   21  O5  UNL     1      -1.922   1.543  12.040  1.00  0.00    -0.386 OA
ATOM     22  H5  UNL     1      -1.387   1.847  12.763  1.00  0.00     0.210 HD
ENDBRANCH  11  21
BRANCH   7  23
HETATM   23  O4  UNL     1      -3.082   5.609  11.136  1.00  0.00    -0.365 OA
HETATM   24  C12 UNL     1      -3.046   6.899  10.597  1.00  0.00     0.204 C 
ENDBRANCH   7  23
TORSDOF 7
ENDMDL
