MODEL 1
REMARK VINA RESULT: -8.364582551      0.000      0.000
REMARK  6 active torsions:
REMARK  status: ('A' for Active; 'I' for Inactive)
REMARK       I    between atoms: C1_2  and  N1_3 
REMARK    1  A    between atoms: C1_2  and  C6_11 
REMARK    2  A    between atoms: N1_3  and  C2_5 
REMARK    3  A    between atoms: C8_13  and  O3_14 
REMARK    4  A    between atoms: O3_14  and  C9_15 
REMARK    5  A    between atoms: C9_15  and  C10_16 
REMARK       I    between atoms: N2_20  and  C12_21 
REMARK       I    between atoms: C12_21  and  N3_23 
REMARK    6  A    between atoms: N3_23  and  C13_25 
ROOT
HETATM    1  C6  UNL     1      -3.746   3.824  14.847  1.00  0.00     0.183 C 
HETATM    2  C7  UNL     1      -3.457   2.683  15.781  1.00  0.00     0.068 C 
HETATM    3  C8  UNL     1      -4.701   1.841  15.715  1.00  0.00     0.142 C 
HETATM    4  C11 UNL     1      -4.941   1.881  14.203  1.00  0.00     0.160 C 
HETATM    5  N2  UNL     1      -4.715   3.311  13.916  1.00  0.00    -0.318 N 
HETATM    6  C12 UNL     1      -5.414   3.978  12.873  1.00  0.00     0.319 C 
HETATM    7  O4  UNL     1      -6.214   3.343  12.146  1.00  0.00    -0.247 OA
HETATM    8  N3  UNL     1      -5.247   5.362  12.606  1.00  0.00    -0.338 N 
ATOM      9  H3  UNL     1      -4.606   5.911  13.177  1.00  0.00     0.164 HD
ENDROOT
BRANCH   1  10
HETATM   10  C1  UNL     1      -2.517   4.304  14.173  1.00  0.00     0.242 C 
HETATM   11  O1  UNL     1      -1.913   5.306  14.594  1.00  0.00    -0.271 OA
HETATM   12  N1  UNL     1      -2.042   3.612  13.049  1.00  0.00    -0.332 N 
ATOM     13  H1  UNL     1      -2.563   2.794  12.732  1.00  0.00     0.165 HD
BRANCH  12  14
HETATM   14  C2  UNL     1      -0.851   3.992  12.311  1.00  0.00     0.241 C 
HETATM   15  O2  UNL     1      -0.204   2.850  11.810  1.00  0.00    -0.365 OA
HETATM   16  C3  UNL     1       0.636   3.339  10.822  1.00  0.00     0.172 C 
HETATM   17  C4  UNL     1      -0.115   4.421  10.089  1.00  0.00     0.051 C 
HETATM   18  C5  UNL     1      -1.278   4.679  11.040  1.00  0.00     0.133 C 
HETATM   19 CL1  UNL     1      -1.438   6.415  11.387  1.00  0.00    -0.120 Cl
ENDBRANCH  12  14
ENDBRANCH   1  10
BRANCH   3  20
HETATM   20  O3  UNL     1      -4.516   0.553  16.165  1.00  0.00    -0.379 OA
BRANCH  20  21
HETATM   21  C9  UNL     1      -5.441   0.298  17.175  1.00  0.00     0.239 C 
BRANCH  21  22
HETATM   22  C10 UNL     1      -6.474   1.409  17.269  1.00  0.00     0.376 C 
HETATM   23  F1  UNL     1      -7.731   0.901  17.006  1.00  0.00    -0.212 F 
HETATM   24  F2  UNL     1      -6.448   2.023  18.516  1.00  0.00    -0.212 F 
ENDBRANCH  21  22
ENDBRANCH  20  21
ENDBRANCH   3  20
BRANCH   8  25
HETATM   25  C13 UNL     1      -5.977   6.003  11.534  1.00  0.00     0.086 C 
HETATM   26  C14 UNL     1      -7.199   6.653  12.130  1.00  0.00     0.025 C 
HETATM   27  C15 UNL     1      -7.506   7.761  11.173  1.00  0.00     0.002 C 
HETATM   28  C16 UNL     1      -6.133   8.306  10.839  1.00  0.00     0.002 C 
HETATM   29  C17 UNL     1      -5.159   7.171  11.033  1.00  0.00     0.025 C 
ENDBRANCH   8  25
TORSDOF 6
ENDMDL
MODEL 2
REMARK VINA RESULT: -8.200352284      1.933      2.220
REMARK  6 active torsions:
REMARK  status: ('A' for Active; 'I' for Inactive)
REMARK       I    between atoms: C1_2  and  N1_3 
REMARK    1  A    between atoms: C1_2  and  C6_11 
REMARK    2  A    between atoms: N1_3  and  C2_5 
REMARK    3  A    between atoms: C8_13  and  O3_14 
REMARK    4  A    between atoms: O3_14  and  C9_15 
REMARK    5  A    between atoms: C9_15  and  C10_16 
REMARK       I    between atoms: N2_20  and  C12_21 
REMARK       I    between atoms: C12_21  and  N3_23 
REMARK    6  A    between atoms: N3_23  and  C13_25 
ROOT
HETATM    1  C6  UNL     1      -4.089   3.958  14.905  1.00  0.00     0.183 C 
HETATM    2  C7  UNL     1      -3.886   2.772  15.804  1.00  0.00     0.068 C 
HETATM    3  C8  UNL     1      -5.036   1.864  15.466  1.00  0.00     0.142 C 
HETATM    4  C11 UNL     1      -5.011   1.999  13.941  1.00  0.00     0.160 C 
HETATM    5  N2  UNL     1      -4.842   3.456  13.785  1.00  0.00    -0.318 N 
HETATM    6  C12 UNL     1      -5.394   4.154  12.677  1.00  0.00     0.319 C 
HETATM    7  O4  UNL     1      -6.008   3.527  11.782  1.00  0.00    -0.247 OA
HETATM    8  N3  UNL     1      -5.284   5.562  12.528  1.00  0.00    -0.338 N 
ATOM      9  H3  UNL     1      -4.793   6.106  13.237  1.00  0.00     0.164 HD
ENDROOT
BRANCH   1  10
HETATM   10  C1  UNL     1      -2.799   4.559  14.490  1.00  0.00     0.242 C 
HETATM   11  O1  UNL     1      -1.819   3.840  14.230  1.00  0.00    -0.271 OA
HETATM   12  N1  UNL     1      -2.697   5.955  14.396  1.00  0.00    -0.332 N 
ATOM     13  H1  UNL     1      -3.522   6.514  14.618  1.00  0.00     0.165 HD
BRANCH  12  14
HETATM   14  C2  UNL     1      -1.486   6.651  14.002  1.00  0.00     0.241 C 
HETATM   15  O2  UNL     1      -1.284   6.529  12.617  1.00  0.00    -0.365 OA
HETATM   16  C3  UNL     1      -0.378   7.533  12.314  1.00  0.00     0.172 C 
HETATM   17  C4  UNL     1      -0.758   8.742  13.131  1.00  0.00     0.051 C 
HETATM   18  C5  UNL     1      -1.720   8.132  14.144  1.00  0.00     0.133 C 
HETATM   19 CL1  UNL     1      -1.272   8.597  15.800  1.00  0.00    -0.120 Cl
ENDBRANCH  12  14
ENDBRANCH   1  10
BRANCH   3  20
HETATM   20  O3  UNL     1      -4.840   0.561  15.863  1.00  0.00    -0.379 OA
BRANCH  20  21
HETATM   21  C9  UNL     1      -5.529   0.351  17.055  1.00  0.00     0.239 C 
BRANCH  21  22
HETATM   22  C10 UNL     1      -6.621   1.390  17.250  1.00  0.00     0.376 C 
HETATM   23  F1  UNL     1      -7.859   0.805  17.074  1.00  0.00    -0.212 F 
HETATM   24  F2  UNL     1      -6.538   1.985  18.504  1.00  0.00    -0.212 F 
ENDBRANCH  21  22
ENDBRANCH  20  21
ENDBRANCH   3  20
BRANCH   8  25
HETATM   25  C13 UNL     1      -5.860   6.233  11.384  1.00  0.00     0.086 C 
HETATM   26  C14 UNL     1      -7.153   6.870  11.824  1.00  0.00     0.025 C 
HETATM   27  C15 UNL     1      -7.327   8.004  10.865  1.00  0.00     0.002 C 
HETATM   28  C16 UNL     1      -5.922   8.554  10.737  1.00  0.00     0.002 C 
HETATM   29  C17 UNL     1      -4.982   7.412  11.032  1.00  0.00     0.025 C 
ENDBRANCH   8  25
TORSDOF 6
ENDMDL
MODEL 3
REMARK VINA RESULT: -7.909360552      1.486      1.595
REMARK  6 active torsions:
REMARK  status: ('A' for Active; 'I' for Inactive)
REMARK       I    between atoms: C1_2  and  N1_3 
REMARK    1  A    between atoms: C1_2  and  C6_11 
REMARK    2  A    between atoms: N1_3  and  C2_5 
REMARK    3  A    between atoms: C8_13  and  O3_14 
REMARK    4  A    between atoms: O3_14  and  C9_15 
REMARK    5  A    between atoms: C9_15  and  C10_16 
REMARK       I    between atoms: N2_20  and  C12_21 
REMARK       I    between atoms: C12_21  and  N3_23 
REMARK    6  A    between atoms: N3_23  and  C13_25 
ROOT
HETATM    1  C6  UNL     1      -3.538   3.836  14.767  1.00  0.00     0.183 C 
HETATM    2  C7  UNL     1      -3.185   2.752  15.745  1.00  0.00     0.068 C 
HETATM    3  C8  UNL     1      -4.465   1.979  15.901  1.00  0.00     0.142 C 
HETATM    4  C11 UNL     1      -4.894   1.922  14.433  1.00  0.00     0.160 C 
HETATM    5  N2  UNL     1      -4.641   3.311  14.006  1.00  0.00    -0.318 N 
HETATM    6  C12 UNL     1      -5.435   3.938  13.008  1.00  0.00     0.319 C 
HETATM    7  O4  UNL     1      -6.351   3.298  12.439  1.00  0.00    -0.247 OA
HETATM    8  N3  UNL     1      -5.240   5.287  12.613  1.00  0.00    -0.338 N 
ATOM      9  H3  UNL     1      -4.507   5.840  13.055  1.00  0.00     0.164 HD
ENDROOT
BRANCH   1  10
HETATM   10  C1  UNL     1      -2.384   4.196  13.908  1.00  0.00     0.242 C 
HETATM   11  O1  UNL     1      -1.679   3.312  13.391  1.00  0.00    -0.271 OA
HETATM   12  N1  UNL     1      -2.096   5.551  13.688  1.00  0.00    -0.332 N 
ATOM     13  H1  UNL     1      -2.696   6.248  14.129  1.00  0.00     0.165 HD
BRANCH  12  14
HETATM   14  C2  UNL     1      -0.993   6.018  12.868  1.00  0.00     0.241 C 
HETATM   15  O2  UNL     1      -1.108   5.509  11.563  1.00  0.00    -0.365 OA
HETATM   16  C3  UNL     1      -0.278   6.320  10.806  1.00  0.00     0.172 C 
HETATM   17  C4  UNL     1      -0.448   7.731  11.309  1.00  0.00     0.051 C 
HETATM   18  C5  UNL     1      -1.168   7.495  12.632  1.00  0.00     0.133 C 
HETATM   19 CL1  UNL     1      -0.356   8.358  13.956  1.00  0.00    -0.120 Cl
ENDBRANCH  12  14
ENDBRANCH   1  10
BRANCH   3  20
HETATM   20  O3  UNL     1      -4.284   0.720  16.427  1.00  0.00    -0.379 OA
BRANCH  20  21
HETATM   21  C9  UNL     1      -5.379   0.412  17.231  1.00  0.00     0.239 C 
BRANCH  21  22
HETATM   22  C10 UNL     1      -6.141   1.665  17.627  1.00  0.00     0.376 C 
HETATM   23  F1  UNL     1      -7.493   1.472  17.428  1.00  0.00    -0.212 F 
HETATM   24  F2  UNL     1      -5.889   2.018  18.948  1.00  0.00    -0.212 F 
ENDBRANCH  21  22
ENDBRANCH  20  21
ENDBRANCH   3  20
BRANCH   8  25
HETATM   25  C13 UNL     1      -6.070   5.888  11.592  1.00  0.00     0.086 C 
HETATM   26  C14 UNL     1      -7.251   6.529  12.274  1.00  0.00     0.025 C 
HETATM   27  C15 UNL     1      -7.660   7.607  11.321  1.00  0.00     0.002 C 
HETATM   28  C16 UNL     1      -6.333   8.170  10.859  1.00  0.00     0.002 C 
HETATM   29  C17 UNL     1      -5.322   7.058  10.997  1.00  0.00     0.025 C 
ENDBRANCH   8  25
TORSDOF 6
ENDMDL
MODEL 4
REMARK VINA RESULT: -7.790826218      1.428      4.956
REMARK  6 active torsions:
REMARK  status: ('A' for Active; 'I' for Inactive)
REMARK       I    between atoms: C1_2  and  N1_3 
REMARK    1  A    between atoms: C1_2  and  C6_11 
REMARK    2  A    between atoms: N1_3  and  C2_5 
REMARK    3  A    between atoms: C8_13  and  O3_14 
REMARK    4  A    between atoms: O3_14  and  C9_15 
REMARK    5  A    between atoms: C9_15  and  C10_16 
REMARK       I    between atoms: N2_20  and  C12_21 
REMARK       I    between atoms: C12_21  and  N3_23 
REMARK    6  A    between atoms: N3_23  and  C13_25 
ROOT
HETATM    1  C6  UNL     1      -4.223   2.203  13.400  1.00  0.00     0.183 C 
HETATM    2  C7  UNL     1      -4.871   1.646  14.636  1.00  0.00     0.068 C 
HETATM    3  C8  UNL     1      -3.778   1.696  15.668  1.00  0.00     0.142 C 
HETATM    4  C11 UNL     1      -3.211   3.083  15.354  1.00  0.00     0.160 C 
HETATM    5  N2  UNL     1      -3.159   3.045  13.880  1.00  0.00    -0.318 N 
HETATM    6  C12 UNL     1      -2.160   3.749  13.154  1.00  0.00     0.319 C 
HETATM    7  O4  UNL     1      -1.322   4.455  13.762  1.00  0.00    -0.247 OA
HETATM    8  N3  UNL     1      -2.062   3.691  11.739  1.00  0.00    -0.338 N 
ATOM      9  H3  UNL     1      -2.726   3.126  11.211  1.00  0.00     0.164 HD
ENDROOT
BRANCH   1  10
HETATM   10  C1  UNL     1      -5.192   2.946  12.561  1.00  0.00     0.242 C 
HETATM   11  O1  UNL     1      -5.756   2.391  11.601  1.00  0.00    -0.271 OA
HETATM   12  N1  UNL     1      -5.467   4.288  12.863  1.00  0.00    -0.332 N 
ATOM     13  H1  UNL     1      -4.986   4.710  13.657  1.00  0.00     0.165 HD
BRANCH  12  14
HETATM   14  C2  UNL     1      -6.396   5.111  12.110  1.00  0.00     0.241 C 
HETATM   15  O2  UNL     1      -7.171   5.892  12.984  1.00  0.00    -0.365 OA
HETATM   16  C3  UNL     1      -7.696   6.889  12.176  1.00  0.00     0.172 C 
HETATM   17  C4  UNL     1      -6.611   7.305  11.215  1.00  0.00     0.051 C 
HETATM   18  C5  UNL     1      -5.610   6.167  11.377  1.00  0.00     0.133 C 
HETATM   19 CL1  UNL     1      -5.148   5.501   9.796  1.00  0.00    -0.120 Cl
ENDBRANCH  12  14
ENDBRANCH   1  10
BRANCH   3  20
HETATM   20  O3  UNL     1      -4.241   1.617  16.961  1.00  0.00    -0.379 OA
BRANCH  20  21
HETATM   21  C9  UNL     1      -5.510   1.044  16.946  1.00  0.00     0.239 C 
BRANCH  21  22
HETATM   22  C10 UNL     1      -6.491   1.855  17.777  1.00  0.00     0.376 C 
HETATM   23  F1  UNL     1      -5.921   2.170  18.994  1.00  0.00    -0.212 F 
HETATM   24  F2  UNL     1      -6.888   3.009  17.112  1.00  0.00    -0.212 F 
ENDBRANCH  21  22
ENDBRANCH  20  21
ENDBRANCH   3  20
BRANCH   8  25
HETATM   25  C13 UNL     1      -1.031   4.424  11.038  1.00  0.00     0.086 C 
HETATM   26  C14 UNL     1       0.183   3.537  10.940  1.00  0.00     0.025 C 
HETATM   27  C15 UNL     1       0.894   4.051   9.729  1.00  0.00     0.002 C 
HETATM   28  C16 UNL     1      -0.240   4.321   8.763  1.00  0.00     0.002 C 
HETATM   29  C17 UNL     1      -1.464   4.597   9.600  1.00  0.00     0.025 C 
ENDBRANCH   8  25
TORSDOF 6
ENDMDL
MODEL 5
REMARK VINA RESULT: -7.717974896      2.290      5.688
REMARK  6 active torsions:
REMARK  status: ('A' for Active; 'I' for Inactive)
REMARK       I    between atoms: C1_2  and  N1_3 
REMARK    1  A    between atoms: C1_2  and  C6_11 
REMARK    2  A    between atoms: N1_3  and  C2_5 
REMARK    3  A    between atoms: C8_13  and  O3_14 
REMARK    4  A    between atoms: O3_14  and  C9_15 
REMARK    5  A    between atoms: C9_15  and  C10_16 
REMARK       I    between atoms: N2_20  and  C12_21 
REMARK       I    between atoms: C12_21  and  N3_23 
REMARK    6  A    between atoms: N3_23  and  C13_25 
ROOT
HETATM    1  C6  UNL     1      -4.478   3.518  11.467  1.00  0.00     0.183 C 
HETATM    2  C7  UNL     1      -5.686   3.192  12.299  1.00  0.00     0.068 C 
HETATM    3  C8  UNL     1      -5.138   3.063  13.693  1.00  0.00     0.142 C 
HETATM    4  C11 UNL     1      -4.198   4.271  13.696  1.00  0.00     0.160 C 
HETATM    5  N2  UNL     1      -3.550   4.134  12.378  1.00  0.00    -0.318 N 
HETATM    6  C12 UNL     1      -2.211   4.558  12.160  1.00  0.00     0.319 C 
HETATM    7  O4  UNL     1      -1.564   5.099  13.088  1.00  0.00    -0.247 OA
HETATM    8  N3  UNL     1      -1.552   4.396  10.914  1.00  0.00    -0.338 N 
ATOM      9  H3  UNL     1      -2.045   3.958  10.136  1.00  0.00     0.164 HD
ENDROOT
BRANCH   1  10
HETATM   10  C1  UNL     1      -4.821   4.403  10.328  1.00  0.00     0.242 C 
HETATM   11  O1  UNL     1      -4.277   4.250   9.221  1.00  0.00    -0.271 OA
HETATM   12  N1  UNL     1      -5.768   5.420  10.517  1.00  0.00    -0.332 N 
ATOM     13  H1  UNL     1      -6.194   5.516  11.439  1.00  0.00     0.165 HD
BRANCH  12  14
HETATM   14  C2  UNL     1      -6.179   6.343   9.475  1.00  0.00     0.241 C 
HETATM   15  O2  UNL     1      -6.900   5.663   8.480  1.00  0.00    -0.365 OA
HETATM   16  C3  UNL     1      -7.564   6.668   7.793  1.00  0.00     0.172 C 
HETATM   17  C4  UNL     1      -8.040   7.670   8.814  1.00  0.00     0.051 C 
HETATM   18  C5  UNL     1      -7.234   7.259  10.040  1.00  0.00     0.133 C 
HETATM   19 CL1  UNL     1      -6.410   8.662  10.755  1.00  0.00    -0.120 Cl
ENDBRANCH  12  14
ENDBRANCH   1  10
BRANCH   3  20
HETATM   20  O3  UNL     1      -6.099   3.165  14.672  1.00  0.00    -0.379 OA
BRANCH  20  21
HETATM   21  C9  UNL     1      -5.675   2.449  15.789  1.00  0.00     0.239 C 
BRANCH  21  22
HETATM   22  C10 UNL     1      -6.673   2.566  16.930  1.00  0.00     0.376 C 
HETATM   23  F1  UNL     1      -7.177   3.850  16.979  1.00  0.00    -0.212 F 
HETATM   24  F2  UNL     1      -7.704   1.643  16.800  1.00  0.00    -0.212 F 
ENDBRANCH  21  22
ENDBRANCH  20  21
ENDBRANCH   3  20
BRANCH   8  25
HETATM   25  C13 UNL     1      -0.188   4.842  10.733  1.00  0.00     0.086 C 
HETATM   26  C14 UNL     1       0.717   3.650  10.910  1.00  0.00     0.025 C 
HETATM   27  C15 UNL     1       1.930   4.012  10.113  1.00  0.00     0.002 C 
HETATM   28  C16 UNL     1       1.340   4.658   8.877  1.00  0.00     0.002 C 
HETATM   29  C17 UNL     1       0.001   5.223   9.283  1.00  0.00     0.025 C 
ENDBRANCH   8  25
TORSDOF 6
ENDMDL
