MODEL 1
REMARK VINA RESULT: -7.624255297      0.000      0.000
REMARK  11 active torsions:
REMARK  status: ('A' for Active; 'I' for Inactive)
REMARK    1  A    between atoms: O1_1  and  C1_3 
REMARK    2  A    between atoms: N1_5  and  C3_6 
REMARK    3  A    between atoms: C3_6  and  C4_7 
REMARK    4  A    between atoms: C4_7  and  C5_8 
REMARK    5  A    between atoms: C5_8  and  C6_9 
REMARK    6  A    between atoms: C6_9  and  C7_10 
REMARK    7  A    between atoms: C8_11  and  C9_12 
REMARK    8  A    between atoms: C11_16  and  N3_17 
REMARK    9  A    between atoms: N3_17  and  C12_19 
REMARK   10  A    between atoms: C12_19  and  C13_20 
REMARK   11  A    between atoms: C18_28  and  C19_29 
ROOT
HETATM    1  C9  UNL     1      -5.606   5.636  10.597  1.00  0.00     0.065 A 
HETATM    2  C10 UNL     1      -5.074   4.425  10.966  1.00  0.00     0.129 A 
HETATM    3  N2  UNL     1      -5.390   3.848  12.136  1.00  0.00    -0.201 N 
ATOM      4  H2  UNL     1      -4.970   2.946  12.366  1.00  0.00     0.183 HD
HETATM    5  C11 UNL     1      -6.234   4.408  13.017  1.00  0.00     0.678 A 
HETATM    6  N4  UNL     1      -6.765   5.614  12.651  1.00  0.00    -0.185 N 
ATOM      7  H4  UNL     1      -7.412   6.069  13.295  1.00  0.00     0.184 HD
HETATM    8  C18 UNL     1      -6.490   6.229  11.504  1.00  0.00     0.152 A 
ENDROOT
BRANCH   1   9
HETATM    9  C8  UNL     1      -5.296   6.306   9.367  1.00  0.00    -0.063 C 
HETATM   10  C7  UNL     1      -5.065   6.849   8.330  1.00  0.00    -0.101 C 
BRANCH  10  11
HETATM   11  C6  UNL     1      -4.814   7.494   7.052  1.00  0.00     0.094 C 
BRANCH  11  12
HETATM   12  C5  UNL     1      -6.021   8.261   6.627  1.00  0.00     0.014 C 
BRANCH  12  13
HETATM   13  C4  UNL     1      -6.461   9.322   7.610  1.00  0.00     0.031 C 
BRANCH  13  14
HETATM   14  C3  UNL     1      -7.551  10.150   6.920  1.00  0.00     0.272 C 
BRANCH  14  15
HETATM   15  N1  UNL     1      -8.638   9.290   6.525  1.00  0.00     0.093 N 
HETATM   16  C2  UNL     1      -9.394   8.791   7.631  1.00  0.00     0.305 C 
HETATM   17  C1  UNL     1     -10.435   9.875   7.330  1.00  0.00     0.174 C 
HETATM   18  C20 UNL     1      -9.789   9.888   5.940  1.00  0.00     0.305 C 
BRANCH  17  19
HETATM   19  O1  UNL     1     -11.745   9.443   7.306  1.00  0.00    -0.392 OA
ATOM     20  H1  UNL     1     -12.398  10.132   7.281  1.00  0.00     0.210 HD
ENDBRANCH  17  19
ENDBRANCH  14  15
ENDBRANCH  13  14
ENDBRANCH  12  13
ENDBRANCH  11  12
ENDBRANCH  10  11
ENDBRANCH   1   9
BRANCH   8  21
HETATM   21  C19 UNL     1      -7.083   7.540  11.118  1.00  0.00     0.434 C 
HETATM   22  F1  UNL     1      -7.973   7.878  12.142  1.00  0.00    -0.165 F 
HETATM   23  F2  UNL     1      -6.117   8.526  11.057  1.00  0.00    -0.165 F 
HETATM   24  F3  UNL     1      -7.797   7.409   9.969  1.00  0.00    -0.165 F 
ENDBRANCH   8  21
BRANCH   5  25
HETATM   25  N3  UNL     1      -6.572   3.910  14.146  1.00  0.00    -0.226 N 
ATOM     26  H3  UNL     1      -7.370   3.277  14.194  1.00  0.00     0.177 HD
BRANCH  25  27
HETATM   27  C12 UNL     1      -5.850   4.223  15.354  1.00  0.00     0.142 C 
BRANCH  27  28
HETATM   28  C13 UNL     1      -5.810   2.942  16.165  1.00  0.00     0.008 C 
HETATM   29  C14 UNL     1      -5.069   1.923  15.321  1.00  0.00     0.032 C 
HETATM   30  C15 UNL     1      -4.868   0.699  16.224  1.00  0.00     0.168 C 
HETATM   31  O2  UNL     1      -6.144   0.204  16.470  1.00  0.00    -0.391 OA
HETATM   32  C16 UNL     1      -6.930   1.061  17.204  1.00  0.00     0.168 C 
HETATM   33  C17 UNL     1      -7.152   2.406  16.536  1.00  0.00     0.032 C 
ENDBRANCH  27  28
ENDBRANCH  25  27
ENDBRANCH   5  25
TORSDOF 11
ENDMDL
MODEL 2
REMARK VINA RESULT: -7.502094946      5.804      9.568
REMARK  11 active torsions:
REMARK  status: ('A' for Active; 'I' for Inactive)
REMARK    1  A    between atoms: O1_1  and  C1_3 
REMARK    2  A    between atoms: N1_5  and  C3_6 
REMARK    3  A    between atoms: C3_6  and  C4_7 
REMARK    4  A    between atoms: C4_7  and  C5_8 
REMARK    5  A    between atoms: C5_8  and  C6_9 
REMARK    6  A    between atoms: C6_9  and  C7_10 
REMARK    7  A    between atoms: C8_11  and  C9_12 
REMARK    8  A    between atoms: C11_16  and  N3_17 
REMARK    9  A    between atoms: N3_17  and  C12_19 
REMARK   10  A    between atoms: C12_19  and  C13_20 
REMARK   11  A    between atoms: C18_28  and  C19_29 
ROOT
HETATM    1  C9  UNL     1      -2.643   4.456  12.105  1.00  0.00     0.065 A 
HETATM    2  C10 UNL     1      -2.120   4.473  10.835  1.00  0.00     0.129 A 
HETATM    3  N2  UNL     1      -0.814   4.263  10.612  1.00  0.00    -0.201 N 
ATOM      4  H2  UNL     1      -0.472   4.284   9.650  1.00  0.00     0.183 HD
HETATM    5  C11 UNL     1       0.063   4.027  11.601  1.00  0.00     0.678 A 
HETATM    6  N4  UNL     1      -0.456   4.010  12.867  1.00  0.00    -0.185 N 
ATOM      7  H4  UNL     1       0.180   3.833  13.644  1.00  0.00     0.184 HD
HETATM    8  C18 UNL     1      -1.741   4.209  13.145  1.00  0.00     0.152 A 
ENDROOT
BRANCH   1   9
HETATM    9  C8  UNL     1      -4.027   4.687  12.406  1.00  0.00    -0.063 C 
HETATM   10  C7  UNL     1      -5.175   4.858  12.682  1.00  0.00    -0.101 C 
BRANCH  10  11
HETATM   11  C6  UNL     1      -6.569   5.043  13.047  1.00  0.00     0.094 C 
BRANCH  11  12
HETATM   12  C5  UNL     1      -6.895   4.202  14.237  1.00  0.00     0.014 C 
BRANCH  12  13
HETATM   13  C4  UNL     1      -6.124   4.567  15.485  1.00  0.00     0.031 C 
BRANCH  13  14
HETATM   14  C3  UNL     1      -6.575   3.603  16.589  1.00  0.00     0.272 C 
BRANCH  14  15
HETATM   15  N1  UNL     1      -6.632   2.260  16.070  1.00  0.00     0.093 N 
HETATM   16  C2  UNL     1      -5.387   1.563  16.169  1.00  0.00     0.305 C 
HETATM   17  C1  UNL     1      -5.947   0.867  17.415  1.00  0.00     0.174 C 
HETATM   18  C20 UNL     1      -7.308   1.271  16.836  1.00  0.00     0.305 C 
BRANCH  17  19
HETATM   19  O1  UNL     1      -5.769  -0.500  17.456  1.00  0.00    -0.392 OA
ATOM     20  H1  UNL     1      -4.903  -0.803  17.213  1.00  0.00     0.210 HD
ENDBRANCH  17  19
ENDBRANCH  14  15
ENDBRANCH  13  14
ENDBRANCH  12  13
ENDBRANCH  11  12
ENDBRANCH  10  11
ENDBRANCH   1   9
BRANCH   8  21
HETATM   21  C19 UNL     1      -2.291   4.180  14.529  1.00  0.00     0.434 C 
HETATM   22  F1  UNL     1      -1.198   3.964  15.374  1.00  0.00    -0.165 F 
HETATM   23  F2  UNL     1      -2.852   5.396  14.869  1.00  0.00    -0.165 F 
HETATM   24  F3  UNL     1      -3.143   3.131  14.671  1.00  0.00    -0.165 F 
ENDBRANCH   8  21
BRANCH   5  25
HETATM   25  N3  UNL     1       1.317   3.822  11.453  1.00  0.00    -0.226 N 
ATOM     26  H3  UNL     1       1.714   2.928  11.743  1.00  0.00     0.177 HD
BRANCH  25  27
HETATM   27  C12 UNL     1       2.182   4.825  10.886  1.00  0.00     0.142 C 
BRANCH  27  28
HETATM   28  C13 UNL     1       2.738   5.614  12.056  1.00  0.00     0.008 C 
HETATM   29  C14 UNL     1       2.739   7.070  11.628  1.00  0.00     0.032 C 
HETATM   30  C15 UNL     1       3.119   7.872  12.880  1.00  0.00     0.168 C 
HETATM   31  O2  UNL     1       4.430   7.510  13.171  1.00  0.00    -0.391 OA
HETATM   32  C16 UNL     1       4.564   6.192  13.540  1.00  0.00     0.168 C 
HETATM   33  C17 UNL     1       4.113   5.212  12.473  1.00  0.00     0.032 C 
ENDBRANCH  27  28
ENDBRANCH  25  27
ENDBRANCH   5  25
TORSDOF 11
ENDMDL
MODEL 3
REMARK VINA RESULT: -7.493960389      0.587      1.050
REMARK  11 active torsions:
REMARK  status: ('A' for Active; 'I' for Inactive)
REMARK    1  A    between atoms: O1_1  and  C1_3 
REMARK    2  A    between atoms: N1_5  and  C3_6 
REMARK    3  A    between atoms: C3_6  and  C4_7 
REMARK    4  A    between atoms: C4_7  and  C5_8 
REMARK    5  A    between atoms: C5_8  and  C6_9 
REMARK    6  A    between atoms: C6_9  and  C7_10 
REMARK    7  A    between atoms: C8_11  and  C9_12 
REMARK    8  A    between atoms: C11_16  and  N3_17 
REMARK    9  A    between atoms: N3_17  and  C12_19 
REMARK   10  A    between atoms: C12_19  and  C13_20 
REMARK   11  A    between atoms: C18_28  and  C19_29 
ROOT
HETATM    1  C9  UNL     1      -5.622   5.820  10.609  1.00  0.00     0.065 A 
HETATM    2  C10 UNL     1      -5.092   4.605  10.967  1.00  0.00     0.129 A 
HETATM    3  N2  UNL     1      -5.462   3.985  12.099  1.00  0.00    -0.201 N 
ATOM      4  H2  UNL     1      -5.042   3.082  12.322  1.00  0.00     0.183 HD
HETATM    5  C11 UNL     1      -6.363   4.503  12.948  1.00  0.00     0.678 A 
HETATM    6  N4  UNL     1      -6.893   5.713  12.592  1.00  0.00    -0.185 N 
ATOM      7  H4  UNL     1      -7.581   6.137  13.214  1.00  0.00     0.184 HD
HETATM    8  C18 UNL     1      -6.564   6.370  11.484  1.00  0.00     0.152 A 
ENDROOT
BRANCH   1   9
HETATM    9  C8  UNL     1      -5.255   6.536   9.420  1.00  0.00    -0.063 C 
HETATM   10  C7  UNL     1      -4.961   7.159   8.446  1.00  0.00    -0.101 C 
BRANCH  10  11
HETATM   11  C6  UNL     1      -4.615   7.949   7.276  1.00  0.00     0.094 C 
BRANCH  11  12
HETATM   12  C5  UNL     1      -5.843   8.591   6.721  1.00  0.00     0.014 C 
BRANCH  12  13
HETATM   13  C4  UNL     1      -6.543   9.526   7.680  1.00  0.00     0.031 C 
BRANCH  13  14
HETATM   14  C3  UNL     1      -7.599  10.290   6.872  1.00  0.00     0.272 C 
BRANCH  14  15
HETATM   15  N1  UNL     1      -8.656   9.393   6.480  1.00  0.00     0.093 N 
HETATM   16  C2  UNL     1      -9.390   8.867   7.590  1.00  0.00     0.305 C 
HETATM   17  C1  UNL     1     -10.470   9.914   7.291  1.00  0.00     0.174 C 
HETATM   18  C20 UNL     1      -9.829   9.949   5.899  1.00  0.00     0.305 C 
BRANCH  17  19
HETATM   19  O1  UNL     1     -11.764   9.436   7.271  1.00  0.00    -0.392 OA
ATOM     20  H1  UNL     1     -12.125   9.208   8.120  1.00  0.00     0.210 HD
ENDBRANCH  17  19
ENDBRANCH  14  15
ENDBRANCH  13  14
ENDBRANCH  12  13
ENDBRANCH  11  12
ENDBRANCH  10  11
ENDBRANCH   1   9
BRANCH   8  21
HETATM   21  C19 UNL     1      -7.155   7.685  11.108  1.00  0.00     0.434 C 
HETATM   22  F1  UNL     1      -8.049   8.013  12.132  1.00  0.00    -0.165 F 
HETATM   23  F2  UNL     1      -6.189   8.671  11.059  1.00  0.00    -0.165 F 
HETATM   24  F3  UNL     1      -7.865   7.564   9.955  1.00  0.00    -0.165 F 
ENDBRANCH   8  21
BRANCH   5  25
HETATM   25  N3  UNL     1      -6.755   3.963  14.040  1.00  0.00    -0.226 N 
ATOM     26  H3  UNL     1      -7.654   3.482  14.064  1.00  0.00     0.177 HD
BRANCH  25  27
HETATM   27  C12 UNL     1      -5.955   4.018  15.237  1.00  0.00     0.142 C 
BRANCH  27  28
HETATM   28  C13 UNL     1      -5.532   2.591  15.528  1.00  0.00     0.008 C 
HETATM   29  C14 UNL     1      -6.156   2.224  16.862  1.00  0.00     0.032 C 
HETATM   30  C15 UNL     1      -5.882   0.726  17.052  1.00  0.00     0.168 C 
HETATM   31  O2  UNL     1      -4.502   0.612  17.180  1.00  0.00    -0.391 OA
HETATM   32  C16 UNL     1      -3.818   0.956  16.037  1.00  0.00     0.168 C 
HETATM   33  C17 UNL     1      -4.056   2.387  15.592  1.00  0.00     0.032 C 
ENDBRANCH  27  28
ENDBRANCH  25  27
ENDBRANCH   5  25
TORSDOF 11
ENDMDL
MODEL 4
REMARK VINA RESULT: -7.324986250      2.811      9.076
REMARK  11 active torsions:
REMARK  status: ('A' for Active; 'I' for Inactive)
REMARK    1  A    between atoms: O1_1  and  C1_3 
REMARK    2  A    between atoms: N1_5  and  C3_6 
REMARK    3  A    between atoms: C3_6  and  C4_7 
REMARK    4  A    between atoms: C4_7  and  C5_8 
REMARK    5  A    between atoms: C5_8  and  C6_9 
REMARK    6  A    between atoms: C6_9  and  C7_10 
REMARK    7  A    between atoms: C8_11  and  C9_12 
REMARK    8  A    between atoms: C11_16  and  N3_17 
REMARK    9  A    between atoms: N3_17  and  C12_19 
REMARK   10  A    between atoms: C12_19  and  C13_20 
REMARK   11  A    between atoms: C18_28  and  C19_29 
ROOT
HETATM    1  C9  UNL     1      -4.556   6.066  12.520  1.00  0.00     0.065 A 
HETATM    2  C10 UNL     1      -3.935   6.957  11.681  1.00  0.00     0.129 A 
HETATM    3  N2  UNL     1      -4.632   7.691  10.798  1.00  0.00    -0.201 N 
ATOM      4  H2  UNL     1      -4.126   8.342  10.196  1.00  0.00     0.183 HD
HETATM    5  C11 UNL     1      -5.966   7.605  10.676  1.00  0.00     0.678 A 
HETATM    6  N4  UNL     1      -6.586   6.717  11.512  1.00  0.00    -0.185 N 
ATOM      7  H4  UNL     1      -7.599   6.625  11.448  1.00  0.00     0.184 HD
HETATM    8  C18 UNL     1      -5.946   5.967  12.405  1.00  0.00     0.152 A 
ENDROOT
BRANCH   1   9
HETATM    9  C8  UNL     1      -3.863   5.246  13.473  1.00  0.00    -0.063 C 
HETATM   10  C7  UNL     1      -3.304   4.538  14.254  1.00  0.00    -0.101 C 
BRANCH  10  11
HETATM   11  C6  UNL     1      -2.643   3.646  15.192  1.00  0.00     0.094 C 
BRANCH  11  12
HETATM   12  C5  UNL     1      -3.649   2.739  15.820  1.00  0.00     0.014 C 
BRANCH  12  13
HETATM   13  C4  UNL     1      -3.543   1.296  15.382  1.00  0.00     0.031 C 
BRANCH  13  14
HETATM   14  C3  UNL     1      -4.467   1.125  14.171  1.00  0.00     0.272 C 
BRANCH  14  15
HETATM   15  N1  UNL     1      -3.679   0.909  12.983  1.00  0.00     0.093 N 
HETATM   16  C2  UNL     1      -4.170  -0.155  12.165  1.00  0.00     0.305 C 
HETATM   17  C1  UNL     1      -4.817   0.911  11.274  1.00  0.00     0.174 C 
HETATM   18  C20 UNL     1      -3.792   1.849  11.922  1.00  0.00     0.305 C 
BRANCH  17  19
HETATM   19  O1  UNL     1      -4.611   0.750   9.919  1.00  0.00    -0.392 OA
ATOM     20  H1  UNL     1      -5.182   1.262   9.359  1.00  0.00     0.210 HD
ENDBRANCH  17  19
ENDBRANCH  14  15
ENDBRANCH  13  14
ENDBRANCH  12  13
ENDBRANCH  11  12
ENDBRANCH  10  11
ENDBRANCH   1   9
BRANCH   8  21
HETATM   21  C19 UNL     1      -6.638   5.011  13.313  1.00  0.00     0.434 C 
HETATM   22  F1  UNL     1      -8.007   5.201  13.104  1.00  0.00    -0.165 F 
HETATM   23  F2  UNL     1      -6.338   3.703  12.983  1.00  0.00    -0.165 F 
HETATM   24  F3  UNL     1      -6.366   5.318  14.609  1.00  0.00    -0.165 F 
ENDBRANCH   8  21
BRANCH   5  25
HETATM   25  N3  UNL     1      -6.684   8.274   9.855  1.00  0.00    -0.226 N 
ATOM     26  H3  UNL     1      -6.544   9.281   9.776  1.00  0.00     0.177 HD
BRANCH  25  27
HETATM   27  C12 UNL     1      -7.687   7.637   9.039  1.00  0.00     0.142 C 
BRANCH  27  28
HETATM   28  C13 UNL     1      -8.264   8.725   8.155  1.00  0.00     0.008 C 
HETATM   29  C14 UNL     1      -9.730   8.385   7.961  1.00  0.00     0.032 C 
HETATM   30  C15 UNL     1     -10.344   9.586   7.230  1.00  0.00     0.168 C 
HETATM   31  O2  UNL     1      -9.741   9.609   5.977  1.00  0.00    -0.391 OA
HETATM   32  C16 UNL     1      -8.392   9.874   6.025  1.00  0.00     0.168 C 
HETATM   33  C17 UNL     1      -7.600   8.857   6.826  1.00  0.00     0.032 C 
ENDBRANCH  27  28
ENDBRANCH  25  27
ENDBRANCH   5  25
TORSDOF 11
ENDMDL
MODEL 5
REMARK VINA RESULT: -7.298997072      5.843      9.709
REMARK  11 active torsions:
REMARK  status: ('A' for Active; 'I' for Inactive)
REMARK    1  A    between atoms: O1_1  and  C1_3 
REMARK    2  A    between atoms: N1_5  and  C3_6 
REMARK    3  A    between atoms: C3_6  and  C4_7 
REMARK    4  A    between atoms: C4_7  and  C5_8 
REMARK    5  A    between atoms: C5_8  and  C6_9 
REMARK    6  A    between atoms: C6_9  and  C7_10 
REMARK    7  A    between atoms: C8_11  and  C9_12 
REMARK    8  A    between atoms: C11_16  and  N3_17 
REMARK    9  A    between atoms: N3_17  and  C12_19 
REMARK   10  A    between atoms: C12_19  and  C13_20 
REMARK   11  A    between atoms: C18_28  and  C19_29 
ROOT
HETATM    1  C9  UNL     1      -2.663   4.416  12.153  1.00  0.00     0.065 A 
HETATM    2  C10 UNL     1      -2.187   4.385  10.866  1.00  0.00     0.129 A 
HETATM    3  N2  UNL     1      -0.889   4.166  10.603  1.00  0.00    -0.201 N 
ATOM      4  H2  UNL     1      -0.583   4.151   9.629  1.00  0.00     0.183 HD
HETATM    5  C11 UNL     1       0.023   3.967  11.567  1.00  0.00     0.678 A 
HETATM    6  N4  UNL     1      -0.450   3.996  12.851  1.00  0.00    -0.185 N 
ATOM      7  H4  UNL     1       0.215   3.848  13.610  1.00  0.00     0.184 HD
HETATM    8  C18 UNL     1      -1.724   4.207  13.168  1.00  0.00     0.152 A 
ENDROOT
BRANCH   1   9
HETATM    9  C8  UNL     1      -4.035   4.659  12.495  1.00  0.00    -0.063 C 
HETATM   10  C7  UNL     1      -5.183   4.829  12.774  1.00  0.00    -0.101 C 
BRANCH  10  11
HETATM   11  C6  UNL     1      -6.588   4.999  13.105  1.00  0.00     0.094 C 
BRANCH  11  12
HETATM   12  C5  UNL     1      -6.926   4.181  14.306  1.00  0.00     0.014 C 
BRANCH  12  13
HETATM   13  C4  UNL     1      -6.150   4.551  15.549  1.00  0.00     0.031 C 
BRANCH  13  14
HETATM   14  C3  UNL     1      -6.566   3.568  16.649  1.00  0.00     0.272 C 
BRANCH  14  15
HETATM   15  N1  UNL     1      -6.621   2.232  16.112  1.00  0.00     0.093 N 
HETATM   16  C2  UNL     1      -5.380   1.529  16.220  1.00  0.00     0.305 C 
HETATM   17  C1  UNL     1      -5.959   0.820  17.450  1.00  0.00     0.174 C 
HETATM   18  C20 UNL     1      -7.311   1.236  16.858  1.00  0.00     0.305 C 
BRANCH  17  19
HETATM   19  O1  UNL     1      -5.786  -0.548  17.476  1.00  0.00    -0.392 OA
ATOM     20  H1  UNL     1      -5.044  -0.853  17.984  1.00  0.00     0.210 HD
ENDBRANCH  17  19
ENDBRANCH  14  15
ENDBRANCH  13  14
ENDBRANCH  12  13
ENDBRANCH  11  12
ENDBRANCH  10  11
ENDBRANCH   1   9
BRANCH   8  21
HETATM   21  C19 UNL     1      -2.223   4.229  14.571  1.00  0.00     0.434 C 
HETATM   22  F1  UNL     1      -1.104   4.012  15.382  1.00  0.00    -0.165 F 
HETATM   23  F2  UNL     1      -2.745   5.467  14.896  1.00  0.00    -0.165 F 
HETATM   24  F3  UNL     1      -3.093   3.204  14.774  1.00  0.00    -0.165 F 
ENDBRANCH   8  21
BRANCH   5  25
HETATM   25  N3  UNL     1       1.271   3.755  11.381  1.00  0.00    -0.226 N 
ATOM     26  H3  UNL     1       1.769   3.126  12.011  1.00  0.00     0.177 HD
BRANCH  25  27
HETATM   27  C12 UNL     1       1.989   4.386  10.303  1.00  0.00     0.142 C 
BRANCH  27  28
HETATM   28  C13 UNL     1       2.087   3.352   9.199  1.00  0.00     0.008 C 
HETATM   29  C14 UNL     1       3.565   3.183   8.900  1.00  0.00     0.032 C 
HETATM   30  C15 UNL     1       3.661   2.003   7.924  1.00  0.00     0.168 C 
HETATM   31  O2  UNL     1       3.036   2.431   6.758  1.00  0.00    -0.391 OA
HETATM   32  C16 UNL     1       1.688   2.654   6.913  1.00  0.00     0.168 C 
HETATM   33  C17 UNL     1       1.361   3.715   7.948  1.00  0.00     0.032 C 
ENDBRANCH  27  28
ENDBRANCH  25  27
ENDBRANCH   5  25
TORSDOF 11
ENDMDL
