MODEL 1
REMARK VINA RESULT: -7.298593475      0.000      0.000
REMARK  6 active torsions:
REMARK  status: ('A' for Active; 'I' for Inactive)
REMARK    1  A    between atoms: N2_4  and  N3_5 
REMARK    2  A    between atoms: N2_4  and  C12_25 
REMARK    3  A    between atoms: N3_5  and  C1_7 
REMARK    4  A    between atoms: C4_14  and  N6_15 
REMARK    5  A    between atoms: N6_15  and  C5_17 
REMARK    6  A    between atoms: C5_17  and  C6_18 
ROOT
HETATM    1  C1  UNL     1      -1.522   2.624  11.261  1.00  0.00     0.166 A 
HETATM    2  N4  UNL     1      -1.166   2.441   9.977  1.00  0.00    -0.347 N 
ATOM      3  H4  UNL     1      -1.432   1.579   9.499  1.00  0.00     0.167 HD
HETATM    4  C2  UNL     1      -0.463   3.377   9.315  1.00  0.00     0.107 A 
HETATM    5  C3  UNL     1      -0.128   4.524  10.001  1.00  0.00     0.107 A 
HETATM    6  N5  UNL     1      -0.489   4.702  11.292  1.00  0.00    -0.348 N 
ATOM      7  H5  UNL     1      -0.224   5.563  11.770  1.00  0.00     0.167 HD
HETATM    8  C4  UNL     1      -1.191   3.767  11.958  1.00  0.00     0.147 A 
ENDROOT
BRANCH   1   9
HETATM    9  N3  UNL     1      -2.197   1.715  11.883  1.00  0.00    -0.258 N 
ATOM     10  H3  UNL     1      -1.746   1.228  12.658  1.00  0.00     0.190 HD
BRANCH   9  11
HETATM   11  N2  UNL     1      -3.493   1.362  11.562  1.00  0.00    -0.137 N 
HETATM   12  N1  UNL     1      -4.366   2.263  11.399  1.00  0.00    -0.321 N 
ATOM     13  H12 UNL     1      -4.090   3.238  11.511  1.00  0.00     0.178 HD
ATOM     14  H11 UNL     1      -5.324   2.002  11.162  1.00  0.00     0.178 HD
BRANCH  11  15
HETATM   15  C12 UNL     1      -3.885  -0.019  11.403  1.00  0.00     0.519 C 
HETATM   16  F1  UNL     1      -4.156  -0.605  12.647  1.00  0.00    -0.148 F 
HETATM   17  F2  UNL     1      -4.984  -0.141  10.600  1.00  0.00    -0.148 F 
HETATM   18  F3  UNL     1      -2.855  -0.766  10.837  1.00  0.00    -0.148 F 
ENDBRANCH  11  15
ENDBRANCH   9  11
ENDBRANCH   1   9
BRANCH   8  19
HETATM   19  N6  UNL     1      -1.544   3.922  13.190  1.00  0.00    -0.369 N 
ATOM     20  H6  UNL     1      -1.193   3.281  13.901  1.00  0.00     0.161 HD
BRANCH  19  21
HETATM   21  C5  UNL     1      -2.440   5.006  13.570  1.00  0.00     0.160 C 
BRANCH  21  22
HETATM   22  C6  UNL     1      -3.669   4.493  14.212  1.00  0.00    -0.039 A 
HETATM   23  C7  UNL     1      -4.815   5.250  14.241  1.00  0.00     0.009 A 
HETATM   24  C8  UNL     1      -5.976   4.776  14.844  1.00  0.00     0.002 A 
HETATM   25  C9  UNL     1      -5.977   3.525  15.421  1.00  0.00     0.019 A 
HETATM   26  C10 UNL     1      -4.849   2.756  15.404  1.00  0.00     0.011 A 
HETATM   27 BR1  UNL     1      -4.915   1.040  16.217  1.00  0.00    -0.051 Br
HETATM   28  C11 UNL     1      -3.698   3.247  14.797  1.00  0.00     0.027 A 
ENDBRANCH  21  22
ENDBRANCH  19  21
ENDBRANCH   8  19
TORSDOF 6
ENDMDL
MODEL 2
REMARK VINA RESULT: -7.268667362      1.025      1.409
REMARK  6 active torsions:
REMARK  status: ('A' for Active; 'I' for Inactive)
REMARK    1  A    between atoms: N2_4  and  N3_5 
REMARK    2  A    between atoms: N2_4  and  C12_25 
REMARK    3  A    between atoms: N3_5  and  C1_7 
REMARK    4  A    between atoms: C4_14  and  N6_15 
REMARK    5  A    between atoms: N6_15  and  C5_17 
REMARK    6  A    between atoms: C5_17  and  C6_18 
ROOT
HETATM    1  C1  UNL     1      -1.507   2.963  11.196  1.00  0.00     0.166 A 
HETATM    2  N4  UNL     1      -1.403   3.062   9.858  1.00  0.00    -0.347 N 
ATOM      3  H4  UNL     1      -1.560   2.236   9.279  1.00  0.00     0.167 HD
HETATM    4  C2  UNL     1      -1.094   4.234   9.274  1.00  0.00     0.107 A 
HETATM    5  C3  UNL     1      -0.893   5.320  10.096  1.00  0.00     0.107 A 
HETATM    6  N5  UNL     1      -0.999   5.214  11.441  1.00  0.00    -0.348 N 
ATOM      7  H5  UNL     1      -0.843   6.039  12.020  1.00  0.00     0.167 HD
HETATM    8  C4  UNL     1      -1.307   4.044  12.028  1.00  0.00     0.147 A 
ENDROOT
BRANCH   1   9
HETATM    9  N3  UNL     1      -1.805   1.830  11.741  1.00  0.00    -0.258 N 
ATOM     10  H3  UNL     1      -1.219   1.498  12.507  1.00  0.00     0.190 HD
BRANCH   9  11
HETATM   11  N2  UNL     1      -2.868   1.042  11.349  1.00  0.00    -0.137 N 
HETATM   12  N1  UNL     1      -2.681   0.103  10.521  1.00  0.00    -0.321 N 
ATOM     13  H12 UNL     1      -1.740  -0.049  10.158  1.00  0.00     0.178 HD
ATOM     14  H11 UNL     1      -3.467  -0.480  10.231  1.00  0.00     0.178 HD
BRANCH  11  15
HETATM   15  C12 UNL     1      -4.201   1.257  11.862  1.00  0.00     0.519 C 
HETATM   16  F1  UNL     1      -5.162   0.749  10.977  1.00  0.00    -0.148 F 
HETATM   17  F2  UNL     1      -4.368   0.677  13.088  1.00  0.00    -0.148 F 
HETATM   18  F3  UNL     1      -4.470   2.617  11.990  1.00  0.00    -0.148 F 
ENDBRANCH  11  15
ENDBRANCH   9  11
ENDBRANCH   1   9
BRANCH   8  19
HETATM   19  N6  UNL     1      -1.413   3.926  13.309  1.00  0.00    -0.369 N 
ATOM     20  H6  UNL     1      -1.005   3.118  13.779  1.00  0.00     0.161 HD
BRANCH  19  21
HETATM   21  C5  UNL     1      -2.113   4.940  14.088  1.00  0.00     0.160 C 
BRANCH  21  22
HETATM   22  C6  UNL     1      -3.447   4.469  14.515  1.00  0.00    -0.039 A 
HETATM   23  C7  UNL     1      -4.564   5.242  14.309  1.00  0.00     0.009 A 
HETATM   24  C8  UNL     1      -5.824   4.808  14.708  1.00  0.00     0.002 A 
HETATM   25  C9  UNL     1      -5.955   3.581  15.320  1.00  0.00     0.019 A 
HETATM   26  C10 UNL     1      -4.859   2.797  15.536  1.00  0.00     0.011 A 
HETATM   27 BR1  UNL     1      -5.105   1.115  16.387  1.00  0.00    -0.051 Br
HETATM   28  C11 UNL     1      -3.607   3.248  15.130  1.00  0.00     0.027 A 
ENDBRANCH  21  22
ENDBRANCH  19  21
ENDBRANCH   8  19
TORSDOF 6
ENDMDL
MODEL 3
REMARK VINA RESULT: -7.218341778      4.053      5.539
REMARK  6 active torsions:
REMARK  status: ('A' for Active; 'I' for Inactive)
REMARK    1  A    between atoms: N2_4  and  N3_5 
REMARK    2  A    between atoms: N2_4  and  C12_25 
REMARK    3  A    between atoms: N3_5  and  C1_7 
REMARK    4  A    between atoms: C4_14  and  N6_15 
REMARK    5  A    between atoms: N6_15  and  C5_17 
REMARK    6  A    between atoms: C5_17  and  C6_18 
ROOT
HETATM    1  C1  UNL     1      -4.190   1.463  14.971  1.00  0.00     0.166 A 
HETATM    2  N4  UNL     1      -4.191   0.249  14.393  1.00  0.00    -0.347 N 
ATOM      3  H4  UNL     1      -4.281  -0.585  14.974  1.00  0.00     0.167 HD
HETATM    4  C2  UNL     1      -4.076   0.119  13.059  1.00  0.00     0.107 A 
HETATM    5  C3  UNL     1      -3.960   1.273  12.316  1.00  0.00     0.107 A 
HETATM    6  N5  UNL     1      -3.959   2.491  12.903  1.00  0.00    -0.348 N 
ATOM      7  H5  UNL     1      -3.871   3.325  12.323  1.00  0.00     0.167 HD
HETATM    8  C4  UNL     1      -4.073   2.625  14.237  1.00  0.00     0.147 A 
ENDROOT
BRANCH   1   9
HETATM    9  N3  UNL     1      -4.301   1.571  16.254  1.00  0.00    -0.258 N 
ATOM     10  H3  UNL     1      -3.531   1.998  16.768  1.00  0.00     0.190 HD
BRANCH   9  11
HETATM   11  N2  UNL     1      -5.400   1.141  16.971  1.00  0.00    -0.137 N 
HETATM   12  N1  UNL     1      -5.495  -0.076  17.304  1.00  0.00    -0.321 N 
ATOM     13  H12 UNL     1      -4.751  -0.717  17.031  1.00  0.00     0.178 HD
ATOM     14  H11 UNL     1      -6.308  -0.393  17.834  1.00  0.00     0.178 HD
BRANCH  11  15
HETATM   15  C12 UNL     1      -6.454   2.050  17.358  1.00  0.00     0.519 C 
HETATM   16  F1  UNL     1      -6.413   2.300  18.736  1.00  0.00    -0.148 F 
HETATM   17  F2  UNL     1      -6.370   3.236  16.683  1.00  0.00    -0.148 F 
HETATM   18  F3  UNL     1      -7.706   1.497  17.099  1.00  0.00    -0.148 F 
ENDBRANCH  11  15
ENDBRANCH   9  11
ENDBRANCH   1   9
BRANCH   8  19
HETATM   19  N6  UNL     1      -4.074   3.779  14.814  1.00  0.00    -0.369 N 
ATOM     20  H6  UNL     1      -3.559   3.912  15.684  1.00  0.00     0.161 HD
BRANCH  19  21
HETATM   21  C5  UNL     1      -4.808   4.895  14.230  1.00  0.00     0.160 C 
BRANCH  21  22
HETATM   22  C6  UNL     1      -3.894   5.951  13.746  1.00  0.00    -0.039 A 
HETATM   23  C7  UNL     1      -3.846   6.284  12.415  1.00  0.00     0.009 A 
HETATM   24  C8  UNL     1      -2.988   7.276  11.950  1.00  0.00     0.002 A 
HETATM   25  C9  UNL     1      -2.171   7.936  12.841  1.00  0.00     0.019 A 
HETATM   26  C10 UNL     1      -2.201   7.621  14.169  1.00  0.00     0.011 A 
HETATM   27 BR1  UNL     1      -1.049   8.567  15.347  1.00  0.00    -0.051 Br
HETATM   28  C11 UNL     1      -3.065   6.626  14.614  1.00  0.00     0.027 A 
ENDBRANCH  21  22
ENDBRANCH  19  21
ENDBRANCH   8  19
TORSDOF 6
ENDMDL
MODEL 4
REMARK VINA RESULT: -7.158471330      4.124      5.567
REMARK  6 active torsions:
REMARK  status: ('A' for Active; 'I' for Inactive)
REMARK    1  A    between atoms: N2_4  and  N3_5 
REMARK    2  A    between atoms: N2_4  and  C12_25 
REMARK    3  A    between atoms: N3_5  and  C1_7 
REMARK    4  A    between atoms: C4_14  and  N6_15 
REMARK    5  A    between atoms: N6_15  and  C5_17 
REMARK    6  A    between atoms: C5_17  and  C6_18 
ROOT
HETATM    1  C1  UNL     1      -4.081   2.037  14.782  1.00  0.00     0.166 A 
HETATM    2  N4  UNL     1      -4.206   0.898  14.076  1.00  0.00    -0.347 N 
ATOM      3  H4  UNL     1      -4.402   0.023  14.563  1.00  0.00     0.167 HD
HETATM    4  C2  UNL     1      -4.074   0.898  12.737  1.00  0.00     0.107 A 
HETATM    5  C3  UNL     1      -3.811   2.103  12.125  1.00  0.00     0.107 A 
HETATM    6  N5  UNL     1      -3.687   3.244  12.840  1.00  0.00    -0.348 N 
ATOM      7  H5  UNL     1      -3.491   4.119  12.354  1.00  0.00     0.167 HD
HETATM    8  C4  UNL     1      -3.816   3.248  14.179  1.00  0.00     0.147 A 
ENDROOT
BRANCH   1   9
HETATM    9  N3  UNL     1      -4.210   2.020  16.067  1.00  0.00    -0.258 N 
ATOM     10  H3  UNL     1      -3.474   2.448  16.629  1.00  0.00     0.190 HD
BRANCH   9  11
HETATM   11  N2  UNL     1      -5.284   1.456  16.727  1.00  0.00    -0.137 N 
HETATM   12  N1  UNL     1      -5.284   0.216  16.981  1.00  0.00    -0.321 N 
ATOM     13  H12 UNL     1      -4.483  -0.343  16.688  1.00  0.00     0.178 HD
ATOM     14  H11 UNL     1      -6.077  -0.200  17.469  1.00  0.00     0.178 HD
BRANCH  11  15
HETATM   15  C12 UNL     1      -6.419   2.248  17.142  1.00  0.00     0.519 C 
HETATM   16  F1  UNL     1      -6.469   3.454  16.432  1.00  0.00    -0.148 F 
HETATM   17  F2  UNL     1      -7.595   1.573  16.964  1.00  0.00    -0.148 F 
HETATM   18  F3  UNL     1      -6.320   2.591  18.488  1.00  0.00    -0.148 F 
ENDBRANCH  11  15
ENDBRANCH   9  11
ENDBRANCH   1   9
BRANCH   8  19
HETATM   19  N6  UNL     1      -3.701   4.328  14.876  1.00  0.00    -0.369 N 
ATOM     20  H6  UNL     1      -3.374   4.275  15.841  1.00  0.00     0.161 HD
BRANCH  19  21
HETATM   21  C5  UNL     1      -4.035   5.622  14.295  1.00  0.00     0.160 C 
BRANCH  21  22
HETATM   22  C6  UNL     1      -2.876   6.539  14.315  1.00  0.00    -0.039 A 
HETATM   23  C7  UNL     1      -2.762   7.505  15.284  1.00  0.00     0.009 A 
HETATM   24  C8  UNL     1      -1.676   8.374  15.311  1.00  0.00     0.002 A 
HETATM   25  C9  UNL     1      -0.697   8.264  14.347  1.00  0.00     0.019 A 
HETATM   26  C10 UNL     1      -0.791   7.312  13.374  1.00  0.00     0.011 A 
HETATM   27 BR1  UNL     1       0.591   7.212  12.073  1.00  0.00    -0.051 Br
HETATM   28  C11 UNL     1      -1.885   6.453  13.364  1.00  0.00     0.027 A 
ENDBRANCH  21  22
ENDBRANCH  19  21
ENDBRANCH   8  19
TORSDOF 6
ENDMDL
MODEL 5
REMARK VINA RESULT: -6.997065608      2.894      4.756
REMARK  6 active torsions:
REMARK  status: ('A' for Active; 'I' for Inactive)
REMARK    1  A    between atoms: N2_4  and  N3_5 
REMARK    2  A    between atoms: N2_4  and  C12_25 
REMARK    3  A    between atoms: N3_5  and  C1_7 
REMARK    4  A    between atoms: C4_14  and  N6_15 
REMARK    5  A    between atoms: N6_15  and  C5_17 
REMARK    6  A    between atoms: C5_17  and  C6_18 
ROOT
HETATM    1  C1  UNL     1      -4.195   1.711  13.922  1.00  0.00     0.166 A 
HETATM    2  N4  UNL     1      -4.125   0.587  14.658  1.00  0.00    -0.347 N 
ATOM      3  H4  UNL     1      -3.632  -0.227  14.288  1.00  0.00     0.167 HD
HETATM    4  C2  UNL     1      -4.696   0.521  15.874  1.00  0.00     0.107 A 
HETATM    5  C3  UNL     1      -5.348   1.645  16.331  1.00  0.00     0.107 A 
HETATM    6  N5  UNL     1      -5.415   2.772  15.586  1.00  0.00    -0.348 N 
ATOM      7  H5  UNL     1      -5.907   3.585  15.955  1.00  0.00     0.167 HD
HETATM    8  C4  UNL     1      -4.846   2.841  14.369  1.00  0.00     0.147 A 
ENDROOT
BRANCH   1   9
HETATM    9  N3  UNL     1      -3.641   1.757  12.756  1.00  0.00    -0.258 N 
ATOM     10  H3  UNL     1      -2.827   2.361  12.635  1.00  0.00     0.190 HD
BRANCH   9  11
HETATM   11  N2  UNL     1      -4.085   1.040  11.662  1.00  0.00    -0.137 N 
HETATM   12  N1  UNL     1      -5.136   1.403  11.059  1.00  0.00    -0.321 N 
ATOM     13  H12 UNL     1      -5.637   2.224  11.399  1.00  0.00     0.178 HD
ATOM     14  H11 UNL     1      -5.464   0.873  10.250  1.00  0.00     0.178 HD
BRANCH  11  15
HETATM   15  C12 UNL     1      -3.376  -0.122  11.180  1.00  0.00     0.519 C 
HETATM   16  F1  UNL     1      -1.991   0.072  11.260  1.00  0.00    -0.148 F 
HETATM   17  F2  UNL     1      -3.713  -1.245  11.885  1.00  0.00    -0.148 F 
HETATM   18  F3  UNL     1      -3.661  -0.357   9.838  1.00  0.00    -0.148 F 
ENDBRANCH  11  15
ENDBRANCH   9  11
ENDBRANCH   1   9
BRANCH   8  19
HETATM   19  N6  UNL     1      -4.900   3.908  13.646  1.00  0.00    -0.369 N 
ATOM     20  H6  UNL     1      -5.071   3.833  12.643  1.00  0.00     0.161 HD
BRANCH  19  21
HETATM   21  C5  UNL     1      -4.719   5.221  14.253  1.00  0.00     0.160 C 
BRANCH  21  22
HETATM   22  C6  UNL     1      -3.413   5.809  13.890  1.00  0.00    -0.039 A 
HETATM   23  C7  UNL     1      -2.706   5.341  12.810  1.00  0.00     0.009 A 
HETATM   24  C8  UNL     1      -1.475   5.887  12.462  1.00  0.00     0.002 A 
HETATM   25  C9  UNL     1      -0.955   6.918  13.214  1.00  0.00     0.019 A 
HETATM   26  C10 UNL     1      -1.640   7.399  14.292  1.00  0.00     0.011 A 
HETATM   27 BR1  UNL     1      -0.869   8.821  15.290  1.00  0.00    -0.051 Br
HETATM   28  C11 UNL     1      -2.869   6.839  14.625  1.00  0.00     0.027 A 
ENDBRANCH  21  22
ENDBRANCH  19  21
ENDBRANCH   8  19
TORSDOF 6
ENDMDL
