MODEL 1
REMARK VINA RESULT: -6.545680023      0.000      0.000
REMARK  10 active torsions:
REMARK  status: ('A' for Active; 'I' for Inactive)
REMARK    1  A    between atoms: C2_2  and  C3_3 
REMARK    2  A    between atoms: C3_3  and  O1_4 
REMARK    3  A    between atoms: O1_4  and  C4_5 
REMARK    4  A    between atoms: C4_5  and  C5_6 
REMARK    5  A    between atoms: C6_7  and  C7_8 
REMARK    6  A    between atoms: C7_8  and  O2_9 
REMARK    7  A    between atoms: C8_11  and  S1_12 
REMARK    8  A    between atoms: C17_22  and  O4_23 
REMARK    9  A    between atoms: O4_23  and  S2_24 
REMARK   10  A    between atoms: C18_28  and  O8_29 
ROOT
HETATM    1  C7  UNL     1      13.612  51.309  96.910  1.00  0.00     0.143 C 
HETATM    2  C8  UNL     1      13.228  51.408  95.445  1.00  0.00     0.127 C 
HETATM    3  C10 UNL     1      13.575  52.850  95.147  1.00  0.00     0.027 C 
HETATM    4  C11 UNL     1      13.289  53.601  96.451  1.00  0.00     0.003 C 
HETATM    5  C12 UNL     1      12.195  54.585  96.233  1.00  0.00    -0.005 C 
HETATM    6  C13 UNL     1      12.851  55.914  95.861  1.00  0.00     0.006 C 
HETATM    7  C14 UNL     1      12.138  57.073  96.478  1.00  0.00     0.006 C 
HETATM    8  C15 UNL     1      10.619  56.943  96.318  1.00  0.00    -0.003 C 
HETATM    9  C16 UNL     1      10.010  58.212  96.791  1.00  0.00     0.041 C 
HETATM   10  C17 UNL     1       8.578  58.127  97.224  1.00  0.00     0.174 C 
HETATM   11  C18 UNL     1       8.282  56.951  98.112  1.00  0.00     0.149 C 
HETATM   12  C19 UNL     1       9.522  56.121  98.385  1.00  0.00     0.044 C 
HETATM   13  C20 UNL     1      10.177  55.717  97.070  1.00  0.00    -0.034 C 
HETATM   14  C21 UNL     1       9.115  54.973  96.279  1.00  0.00     0.016 C 
HETATM   15  C22 UNL     1      11.340  54.819  97.439  1.00  0.00    -0.001 C 
HETATM   16  C23 UNL     1      10.811  53.583  98.081  1.00  0.00     0.007 C 
HETATM   17  C24 UNL     1      11.573  52.334  97.764  1.00  0.00     0.014 C 
HETATM   18  C25 UNL     1      13.029  52.578  97.499  1.00  0.00     0.004 C 
HETATM   19  C26 UNL     1      13.732  52.886  98.810  1.00  0.00     0.020 C 
ENDROOT
BRANCH   1  20
HETATM   20  C6  UNL     1      15.072  51.284  97.032  1.00  0.00    -0.064 C 
HETATM   21  C5  UNL     1      16.274  51.243  97.142  1.00  0.00    -0.077 C 
BRANCH  21  22
HETATM   22  C4  UNL     1      17.730  51.169  97.287  1.00  0.00     0.261 C 
BRANCH  22  23
HETATM   23  O1  UNL     1      18.084  51.130  98.635  1.00  0.00    -0.379 OA
BRANCH  23  24
HETATM   24  C3  UNL     1      17.853  52.318  99.282  1.00  0.00     0.168 C 
BRANCH  24  25
HETATM   25  C2  UNL     1      18.886  52.638 100.349  1.00  0.00     0.022 C 
HETATM   26  C1  UNL     1      18.217  53.017 101.649  1.00  0.00     0.007 C 
ENDBRANCH  24  25
ENDBRANCH  23  24
ENDBRANCH  22  23
ENDBRANCH  21  22
ENDBRANCH   1  20
BRANCH   1  27
HETATM   27  O2  UNL     1      13.089  50.162  97.500  1.00  0.00    -0.375 OA
ATOM     28  H2  UNL     1      13.227  50.207  98.439  1.00  0.00     0.211 HD
ENDBRANCH   1  27
BRANCH   2  29
HETATM   29  S1  UNL     1      14.329  50.375  94.522  1.00  0.00     0.019 S 
HETATM   30  C9  UNL     1      13.455  48.958  93.917  1.00  0.00     0.127 C 
HETATM   31  O3  UNL     1      15.055  51.244  93.309  1.00  0.00    -0.258 OA
ENDBRANCH   2  29
BRANCH  11  32
HETATM   32  O8  UNL     1       7.789  57.322  99.373  1.00  0.00    -0.393 OA
ATOM     33  H8  UNL     1       8.072  56.741 100.070  1.00  0.00     0.210 HD
ENDBRANCH  11  32
BRANCH  10  34
HETATM   34  O4  UNL     1       7.671  58.288  96.203  1.00  0.00    -0.249 OA
BRANCH  34  35
HETATM   35  S2  UNL     1       6.235  58.987  96.600  1.00  0.00     0.252 S 
HETATM   36  O5  UNL     1       6.432  59.737  97.892  1.00  0.00    -0.572 OA
HETATM   37  O6  UNL     1       5.118  58.036  96.819  1.00  0.00    -0.572 OA
HETATM   38  O7  UNL     1       5.729  60.135  95.461  1.00  0.00    -0.572 OA
ENDBRANCH  34  35
ENDBRANCH  10  34
TORSDOF 10
ENDMDL
MODEL 2
REMARK VINA RESULT: -6.378033207      7.827     10.528
REMARK  10 active torsions:
REMARK  status: ('A' for Active; 'I' for Inactive)
REMARK    1  A    between atoms: C2_2  and  C3_3 
REMARK    2  A    between atoms: C3_3  and  O1_4 
REMARK    3  A    between atoms: O1_4  and  C4_5 
REMARK    4  A    between atoms: C4_5  and  C5_6 
REMARK    5  A    between atoms: C6_7  and  C7_8 
REMARK    6  A    between atoms: C7_8  and  O2_9 
REMARK    7  A    between atoms: C8_11  and  S1_12 
REMARK    8  A    between atoms: C17_22  and  O4_23 
REMARK    9  A    between atoms: O4_23  and  S2_24 
REMARK   10  A    between atoms: C18_28  and  O8_29 
ROOT
HETATM    1  C7  UNL     1      10.780  51.530  86.004  1.00  0.00     0.143 C 
HETATM    2  C8  UNL     1      10.096  52.881  85.910  1.00  0.00     0.127 C 
HETATM    3  C10 UNL     1      11.262  53.818  86.130  1.00  0.00     0.027 C 
HETATM    4  C11 UNL     1      12.185  53.076  87.101  1.00  0.00     0.003 C 
HETATM    5  C12 UNL     1      12.282  53.833  88.378  1.00  0.00    -0.005 C 
HETATM    6  C13 UNL     1      13.496  54.755  88.265  1.00  0.00     0.006 C 
HETATM    7  C14 UNL     1      14.244  54.843  89.554  1.00  0.00     0.006 C 
HETATM    8  C15 UNL     1      13.292  55.038  90.740  1.00  0.00    -0.003 C 
HETATM    9  C16 UNL     1      14.124  55.296  91.942  1.00  0.00     0.041 C 
HETATM   10  C17 UNL     1      13.478  54.992  93.260  1.00  0.00     0.174 C 
HETATM   11  C18 UNL     1      12.766  53.668  93.295  1.00  0.00     0.149 C 
HETATM   12  C19 UNL     1      12.884  52.927  91.977  1.00  0.00     0.044 C 
HETATM   13  C20 UNL     1      12.414  53.819  90.835  1.00  0.00    -0.034 C 
HETATM   14  C21 UNL     1      10.990  54.226  91.173  1.00  0.00     0.016 C 
HETATM   15  C22 UNL     1      12.476  52.967  89.583  1.00  0.00    -0.001 C 
HETATM   16  C23 UNL     1      11.503  51.847  89.714  1.00  0.00     0.007 C 
HETATM   17  C24 UNL     1      10.826  51.451  88.438  1.00  0.00     0.014 C 
HETATM   18  C25 UNL     1      11.670  51.685  87.221  1.00  0.00     0.004 C 
HETATM   19  C26 UNL     1      12.773  50.642  87.167  1.00  0.00     0.020 C 
ENDROOT
BRANCH   1  20
HETATM   20  C6  UNL     1      11.569  51.295  84.791  1.00  0.00    -0.064 C 
HETATM   21  C5  UNL     1      12.227  51.084  83.801  1.00  0.00    -0.077 C 
BRANCH  21  22
HETATM   22  C4  UNL     1      13.037  50.808  82.612  1.00  0.00     0.261 C 
BRANCH  22  23
HETATM   23  O1  UNL     1      14.021  51.782  82.456  1.00  0.00    -0.379 OA
BRANCH  23  24
HETATM   24  C3  UNL     1      14.980  51.736  83.436  1.00  0.00     0.168 C 
BRANCH  24  25
HETATM   25  C2  UNL     1      15.699  53.058  83.645  1.00  0.00     0.022 C 
HETATM   26  C1  UNL     1      15.108  53.813  84.812  1.00  0.00     0.007 C 
ENDBRANCH  24  25
ENDBRANCH  23  24
ENDBRANCH  22  23
ENDBRANCH  21  22
ENDBRANCH   1  20
BRANCH   1  27
HETATM   27  O2  UNL     1       9.858  50.497  86.150  1.00  0.00    -0.375 OA
ATOM     28  H2  UNL     1       9.634  50.412  87.069  1.00  0.00     0.211 HD
ENDBRANCH   1  27
BRANCH   2  29
HETATM   29  S1  UNL     1       9.528  53.090  84.247  1.00  0.00     0.019 S 
HETATM   30  C9  UNL     1       8.207  51.956  83.917  1.00  0.00     0.127 C 
HETATM   31  O3  UNL     1       9.098  54.670  83.978  1.00  0.00    -0.258 OA
ENDBRANCH   2  29
BRANCH  11  32
HETATM   32  O8  UNL     1      13.274  52.794  94.268  1.00  0.00    -0.393 OA
ATOM     33  H8  UNL     1      14.081  53.104  94.664  1.00  0.00     0.210 HD
ENDBRANCH  11  32
BRANCH  10  34
HETATM   34  O4  UNL     1      12.737  56.029  93.777  1.00  0.00    -0.249 OA
BRANCH  34  35
HETATM   35  S2  UNL     1      12.363  55.938  95.377  1.00  0.00     0.252 S 
HETATM   36  O5  UNL     1      12.465  57.327  95.951  1.00  0.00    -0.572 OA
HETATM   37  O6  UNL     1      13.260  55.072  96.179  1.00  0.00    -0.572 OA
HETATM   38  O7  UNL     1      10.768  55.432  95.647  1.00  0.00    -0.572 OA
ENDBRANCH  34  35
ENDBRANCH  10  34
TORSDOF 10
ENDMDL
MODEL 3
REMARK VINA RESULT: -6.300176268      6.571      9.066
REMARK  10 active torsions:
REMARK  status: ('A' for Active; 'I' for Inactive)
REMARK    1  A    between atoms: C2_2  and  C3_3 
REMARK    2  A    between atoms: C3_3  and  O1_4 
REMARK    3  A    between atoms: O1_4  and  C4_5 
REMARK    4  A    between atoms: C4_5  and  C5_6 
REMARK    5  A    between atoms: C6_7  and  C7_8 
REMARK    6  A    between atoms: C7_8  and  O2_9 
REMARK    7  A    between atoms: C8_11  and  S1_12 
REMARK    8  A    between atoms: C17_22  and  O4_23 
REMARK    9  A    between atoms: O4_23  and  S2_24 
REMARK   10  A    between atoms: C18_28  and  O8_29 
ROOT
HETATM    1  C7  UNL     1      10.755  51.496  88.066  1.00  0.00     0.143 C 
HETATM    2  C8  UNL     1      10.074  52.832  87.832  1.00  0.00     0.127 C 
HETATM    3  C10 UNL     1      11.215  53.792  88.087  1.00  0.00     0.027 C 
HETATM    4  C11 UNL     1      12.059  53.120  89.174  1.00  0.00     0.003 C 
HETATM    5  C12 UNL     1      12.048  53.957  90.404  1.00  0.00    -0.005 C 
HETATM    6  C13 UNL     1      13.263  54.881  90.332  1.00  0.00     0.006 C 
HETATM    7  C14 UNL     1      13.904  55.056  91.670  1.00  0.00     0.006 C 
HETATM    8  C15 UNL     1      12.857  55.316  92.759  1.00  0.00    -0.003 C 
HETATM    9  C16 UNL     1      13.588  55.657  94.007  1.00  0.00     0.041 C 
HETATM   10  C17 UNL     1      12.838  55.429  95.285  1.00  0.00     0.174 C 
HETATM   11  C18 UNL     1      12.132  54.104  95.345  1.00  0.00     0.149 C 
HETATM   12  C19 UNL     1      12.359  53.283  94.090  1.00  0.00     0.044 C 
HETATM   13  C20 UNL     1      11.980  54.097  92.860  1.00  0.00    -0.034 C 
HETATM   14  C21 UNL     1      10.532  54.511  93.056  1.00  0.00     0.016 C 
HETATM   15  C22 UNL     1      12.148  53.170  91.674  1.00  0.00    -0.001 C 
HETATM   16  C23 UNL     1      11.172  52.051  91.795  1.00  0.00     0.007 C 
HETATM   17  C24 UNL     1      10.603  51.569  90.497  1.00  0.00     0.014 C 
HETATM   18  C25 UNL     1      11.542  51.735  89.339  1.00  0.00     0.004 C 
HETATM   19  C26 UNL     1      12.650  50.702  89.440  1.00  0.00     0.020 C 
ENDROOT
BRANCH   1  20
HETATM   20  C6  UNL     1      11.640  51.194  86.938  1.00  0.00    -0.064 C 
HETATM   21  C5  UNL     1      12.366  50.963  86.000  1.00  0.00    -0.077 C 
BRANCH  21  22
HETATM   22  C4  UNL     1      13.238  50.708  84.852  1.00  0.00     0.261 C 
BRANCH  22  23
HETATM   23  O1  UNL     1      13.725  51.907  84.334  1.00  0.00    -0.379 OA
BRANCH  23  24
HETATM   24  C3  UNL     1      14.807  51.732  83.508  1.00  0.00     0.168 C 
BRANCH  24  25
HETATM   25  C2  UNL     1      15.815  52.866  83.580  1.00  0.00     0.022 C 
HETATM   26  C1  UNL     1      15.477  53.815  84.705  1.00  0.00     0.007 C 
ENDBRANCH  24  25
ENDBRANCH  23  24
ENDBRANCH  22  23
ENDBRANCH  21  22
ENDBRANCH   1  20
BRANCH   1  27
HETATM   27  O2  UNL     1       9.828  50.466  88.202  1.00  0.00    -0.375 OA
ATOM     28  H2  UNL     1       9.277  50.644  88.955  1.00  0.00     0.211 HD
ENDBRANCH   1  27
BRANCH   2  29
HETATM   29  S1  UNL     1       9.643  52.931  86.119  1.00  0.00     0.019 S 
HETATM   30  C9  UNL     1       7.883  53.053  85.950  1.00  0.00     0.127 C 
HETATM   31  O3  UNL     1      10.444  54.190  85.394  1.00  0.00    -0.258 OA
ENDBRANCH   2  29
BRANCH  11  32
HETATM   32  O8  UNL     1      12.563  53.297  96.409  1.00  0.00    -0.393 OA
ATOM     33  H8  UNL     1      12.225  52.409  96.365  1.00  0.00     0.210 HD
ENDBRANCH  11  32
BRANCH  10  34
HETATM   34  O4  UNL     1      12.053  56.489  95.674  1.00  0.00    -0.249 OA
BRANCH  34  35
HETATM   35  S2  UNL     1      11.288  56.343  97.123  1.00  0.00     0.252 S 
HETATM   36  O5  UNL     1      10.920  57.728  97.588  1.00  0.00    -0.572 OA
HETATM   37  O6  UNL     1      12.102  55.729  98.199  1.00  0.00    -0.572 OA
HETATM   38  O7  UNL     1       9.833  55.482  97.011  1.00  0.00    -0.572 OA
ENDBRANCH  34  35
ENDBRANCH  10  34
TORSDOF 10
ENDMDL
MODEL 4
REMARK VINA RESULT: -6.242527458      8.792     11.675
REMARK  10 active torsions:
REMARK  status: ('A' for Active; 'I' for Inactive)
REMARK    1  A    between atoms: C2_2  and  C3_3 
REMARK    2  A    between atoms: C3_3  and  O1_4 
REMARK    3  A    between atoms: O1_4  and  C4_5 
REMARK    4  A    between atoms: C4_5  and  C5_6 
REMARK    5  A    between atoms: C6_7  and  C7_8 
REMARK    6  A    between atoms: C7_8  and  O2_9 
REMARK    7  A    between atoms: C8_11  and  S1_12 
REMARK    8  A    between atoms: C17_22  and  O4_23 
REMARK    9  A    between atoms: O4_23  and  S2_24 
REMARK   10  A    between atoms: C18_28  and  O8_29 
ROOT
HETATM    1  C7  UNL     1      11.513  50.283  84.098  1.00  0.00     0.143 C 
HETATM    2  C8  UNL     1      10.421  51.331  83.988  1.00  0.00     0.127 C 
HETATM    3  C10 UNL     1      11.155  52.570  84.449  1.00  0.00     0.027 C 
HETATM    4  C11 UNL     1      12.150  52.071  85.500  1.00  0.00     0.003 C 
HETATM    5  C12 UNL     1      11.819  52.665  86.824  1.00  0.00    -0.005 C 
HETATM    6  C13 UNL     1      12.644  53.945  86.962  1.00  0.00     0.006 C 
HETATM    7  C14 UNL     1      13.150  54.127  88.356  1.00  0.00     0.006 C 
HETATM    8  C15 UNL     1      12.049  53.856  89.388  1.00  0.00    -0.003 C 
HETATM    9  C16 UNL     1      12.585  54.236  90.720  1.00  0.00     0.041 C 
HETATM   10  C17 UNL     1      11.927  53.585  91.899  1.00  0.00     0.174 C 
HETATM   11  C18 UNL     1      11.718  52.105  91.735  1.00  0.00     0.149 C 
HETATM   12  C19 UNL     1      12.246  51.602  90.405  1.00  0.00     0.044 C 
HETATM   13  C20 UNL     1      11.643  52.412  89.265  1.00  0.00    -0.034 C 
HETATM   14  C21 UNL     1      10.136  52.281  89.404  1.00  0.00     0.016 C 
HETATM   15  C22 UNL     1      12.150  51.780  87.985  1.00  0.00    -0.001 C 
HETATM   16  C23 UNL     1      11.616  50.393  87.888  1.00  0.00     0.007 C 
HETATM   17  C24 UNL     1      11.282  49.944  86.499  1.00  0.00     0.014 C 
HETATM   18  C25 UNL     1      12.136  50.585  85.446  1.00  0.00     0.004 C 
HETATM   19  C26 UNL     1      13.529  49.981  85.496  1.00  0.00     0.020 C 
ENDROOT
BRANCH   1  20
HETATM   20  C6  UNL     1      12.478  50.466  83.010  1.00  0.00    -0.064 C 
HETATM   21  C5  UNL     1      13.284  50.629  82.126  1.00  0.00    -0.077 C 
BRANCH  21  22
HETATM   22  C4  UNL     1      14.276  50.844  81.069  1.00  0.00     0.261 C 
BRANCH  22  23
HETATM   23  O1  UNL     1      15.507  51.196  81.621  1.00  0.00    -0.379 OA
BRANCH  23  24
HETATM   24  C3  UNL     1      15.523  52.475  82.119  1.00  0.00     0.168 C 
BRANCH  24  25
HETATM   25  C2  UNL     1      16.221  52.595  83.463  1.00  0.00     0.022 C 
HETATM   26  C1  UNL     1      15.432  53.477  84.402  1.00  0.00     0.007 C 
ENDBRANCH  24  25
ENDBRANCH  23  24
ENDBRANCH  22  23
ENDBRANCH  21  22
ENDBRANCH   1  20
BRANCH   1  27
HETATM   27  O2  UNL     1      10.994  48.993  84.030  1.00  0.00    -0.375 OA
ATOM     28  H2  UNL     1      10.319  48.898  84.691  1.00  0.00     0.211 HD
ENDBRANCH   1  27
BRANCH   2  29
HETATM   29  S1  UNL     1      10.027  51.530  82.274  1.00  0.00     0.019 S 
HETATM   30  C9  UNL     1       8.340  51.069  81.990  1.00  0.00     0.127 C 
HETATM   31  O3  UNL     1      10.359  53.079  81.781  1.00  0.00    -0.258 OA
ENDBRANCH   2  29
BRANCH  11  32
HETATM   32  O8  UNL     1      12.372  51.343  92.715  1.00  0.00    -0.393 OA
ATOM     33  H8  UNL     1      12.162  51.616  93.601  1.00  0.00     0.210 HD
ENDBRANCH  11  32
BRANCH  10  34
HETATM   34  O4  UNL     1      10.815  54.249  92.361  1.00  0.00    -0.249 OA
BRANCH  34  35
HETATM   35  S2  UNL     1      10.665  54.381  93.994  1.00  0.00     0.252 S 
HETATM   36  O5  UNL     1      11.822  55.206  94.496  1.00  0.00    -0.572 OA
HETATM   37  O6  UNL     1      10.702  53.095  94.730  1.00  0.00    -0.572 OA
HETATM   38  O7  UNL     1       9.260  55.209  94.457  1.00  0.00    -0.572 OA
ENDBRANCH  34  35
ENDBRANCH  10  34
TORSDOF 10
ENDMDL
MODEL 5
REMARK VINA RESULT: -6.141082546      1.007      1.897
REMARK  10 active torsions:
REMARK  status: ('A' for Active; 'I' for Inactive)
REMARK    1  A    between atoms: C2_2  and  C3_3 
REMARK    2  A    between atoms: C3_3  and  O1_4 
REMARK    3  A    between atoms: O1_4  and  C4_5 
REMARK    4  A    between atoms: C4_5  and  C5_6 
REMARK    5  A    between atoms: C6_7  and  C7_8 
REMARK    6  A    between atoms: C7_8  and  O2_9 
REMARK    7  A    between atoms: C8_11  and  S1_12 
REMARK    8  A    between atoms: C17_22  and  O4_23 
REMARK    9  A    between atoms: O4_23  and  S2_24 
REMARK   10  A    between atoms: C18_28  and  O8_29 
ROOT
HETATM    1  C7  UNL     1      13.635  51.521  97.009  1.00  0.00     0.143 C 
HETATM    2  C8  UNL     1      13.343  51.641  95.525  1.00  0.00     0.127 C 
HETATM    3  C10 UNL     1      13.679  53.094  95.275  1.00  0.00     0.027 C 
HETATM    4  C11 UNL     1      13.296  53.815  96.571  1.00  0.00     0.003 C 
HETATM    5  C12 UNL     1      12.199  54.782  96.301  1.00  0.00    -0.005 C 
HETATM    6  C13 UNL     1      12.851  56.131  95.996  1.00  0.00     0.006 C 
HETATM    7  C14 UNL     1      12.077  57.264  96.586  1.00  0.00     0.006 C 
HETATM    8  C15 UNL     1      10.574  57.108  96.327  1.00  0.00    -0.003 C 
HETATM    9  C16 UNL     1       9.911  58.357  96.783  1.00  0.00     0.041 C 
HETATM   10  C17 UNL     1       8.456  58.237  97.122  1.00  0.00     0.174 C 
HETATM   11  C18 UNL     1       8.128  57.039  97.968  1.00  0.00     0.149 C 
HETATM   12  C19 UNL     1       9.364  56.227  98.305  1.00  0.00     0.044 C 
HETATM   13  C20 UNL     1      10.109  55.860  97.028  1.00  0.00    -0.034 C 
HETATM   14  C21 UNL     1       9.115  55.112  96.157  1.00  0.00     0.016 C 
HETATM   15  C22 UNL     1      11.265  54.977  97.454  1.00  0.00    -0.001 C 
HETATM   16  C23 UNL     1      10.720  53.720  98.039  1.00  0.00     0.007 C 
HETATM   17  C24 UNL     1      11.525  52.491  97.749  1.00  0.00     0.014 C 
HETATM   18  C25 UNL     1      12.990  52.768  97.582  1.00  0.00     0.004 C 
HETATM   19  C26 UNL     1      13.602  53.064  98.940  1.00  0.00     0.020 C 
ENDROOT
BRANCH   1  20
HETATM   20  C6  UNL     1      15.084  51.521  97.225  1.00  0.00    -0.064 C 
HETATM   21  C5  UNL     1      16.275  51.519  97.423  1.00  0.00    -0.077 C 
BRANCH  21  22
HETATM   22  C4  UNL     1      17.715  51.518  97.691  1.00  0.00     0.261 C 
BRANCH  22  23
HETATM   23  O1  UNL     1      18.322  50.419  97.086  1.00  0.00    -0.379 OA
BRANCH  23  24
HETATM   24  C3  UNL     1      18.103  49.246  97.765  1.00  0.00     0.168 C 
BRANCH  24  25
HETATM   25  C2  UNL     1      18.099  48.019  96.869  1.00  0.00     0.022 C 
HETATM   26  C1  UNL     1      16.762  47.855  96.187  1.00  0.00     0.007 C 
ENDBRANCH  24  25
ENDBRANCH  23  24
ENDBRANCH  22  23
ENDBRANCH  21  22
ENDBRANCH   1  20
BRANCH   1  27
HETATM   27  O2  UNL     1      13.098  50.353  97.544  1.00  0.00    -0.375 OA
ATOM     28  H2  UNL     1      12.353  50.578  98.090  1.00  0.00     0.211 HD
ENDBRANCH   1  27
BRANCH   2  29
HETATM   29  S1  UNL     1      14.520  50.647  94.656  1.00  0.00     0.019 S 
HETATM   30  C9  UNL     1      13.792  49.088  94.231  1.00  0.00     0.127 C 
HETATM   31  O3  UNL     1      15.101  51.463  93.333  1.00  0.00    -0.258 OA
ENDBRANCH   2  29
BRANCH  11  32
HETATM   32  O8  UNL     1       7.548  57.376  99.201  1.00  0.00    -0.393 OA
ATOM     33  H8  UNL     1       7.040  56.668  99.581  1.00  0.00     0.210 HD
ENDBRANCH  11  32
BRANCH  10  34
HETATM   34  O4  UNL     1       7.613  58.400  96.048  1.00  0.00    -0.249 OA
BRANCH  34  35
HETATM   35  S2  UNL     1       6.190  59.173  96.342  1.00  0.00     0.252 S 
HETATM   36  O5  UNL     1       5.098  58.135  96.353  1.00  0.00    -0.572 OA
HETATM   37  O6  UNL     1       5.811  60.187  95.330  1.00  0.00    -0.572 OA
HETATM   38  O7  UNL     1       6.151  59.914  97.865  1.00  0.00    -0.572 OA
ENDBRANCH  34  35
ENDBRANCH  10  34
TORSDOF 10
ENDMDL
