MODEL 1
REMARK VINA RESULT: -8.089885982      0.000      0.000
REMARK  7 active torsions:
REMARK  status: ('A' for Active; 'I' for Inactive)
REMARK    1  A    between atoms: C2_2  and  N1_3 
REMARK       I    between atoms: N1_3  and  C3_5 
REMARK    2  A    between atoms: C3_5  and  C4_7 
REMARK    3  A    between atoms: C6_9  and  N2_10 
REMARK    4  A    between atoms: N2_10  and  C7_12 
REMARK    5  A    between atoms: C13_18  and  C14_19 
REMARK       I    between atoms: N3_26  and  C18_27 
REMARK       I    between atoms: C18_27  and  N4_29 
REMARK    6  A    between atoms: N4_29  and  C19_31 
REMARK    7  A    between atoms: C19_31  and  C20_32 
ROOT
HETATM    1  C4  UNL     1      25.338  11.274  12.698  1.00  0.00     0.183 C 
HETATM    2  C5  UNL     1      25.983  11.405  11.305  1.00  0.00     0.061 C 
HETATM    3  C6  UNL     1      26.539  10.046  11.049  1.00  0.00     0.097 C 
HETATM    4  C17 UNL     1      25.424   9.174  11.608  1.00  0.00     0.153 C 
HETATM    5  N3  UNL     1      25.003   9.894  12.788  1.00  0.00    -0.319 N 
HETATM    6  C18 UNL     1      24.337   9.220  13.851  1.00  0.00     0.319 C 
HETATM    7  O2  UNL     1      23.989   9.911  14.839  1.00  0.00    -0.247 OA
HETATM    8  N4  UNL     1      24.046   7.844  13.864  1.00  0.00    -0.337 N 
ATOM      9  H4  UNL     1      24.326   7.272  13.067  1.00  0.00     0.164 HD
ENDROOT
BRANCH   3  10
HETATM   10  N2  UNL     1      26.726   9.717   9.719  1.00  0.00    -0.411 N 
ATOM     11  H2  UNL     1      26.329  10.342   9.018  1.00  0.00     0.154 HD
BRANCH  10  12
HETATM   12  C7  UNL     1      27.424   8.581   9.262  1.00  0.00     0.078 C 
HETATM   13  C8  UNL     1      26.843   7.302   9.677  1.00  0.00     0.034 C 
HETATM   14  C9  UNL     1      27.870   6.169   9.751  1.00  0.00    -0.041 C 
HETATM   15  C10 UNL     1      27.165   4.880  10.019  1.00  0.00     0.015 C 
HETATM   16  C11 UNL     1      28.686   6.182   8.501  1.00  0.00     0.010 C 
HETATM   17  C16 UNL     1      28.799   6.595  10.875  1.00  0.00     0.027 C 
HETATM   18  C12 UNL     1      30.032   6.755   8.901  1.00  0.00     0.019 C 
HETATM   19  C13 UNL     1      29.623   7.611  10.107  1.00  0.00     0.060 C 
HETATM   20  C15 UNL     1      28.881   8.776   9.601  1.00  0.00     0.043 C 
BRANCH  19  21
HETATM   21  C14 UNL     1      30.825   8.071  10.895  1.00  0.00     0.395 C 
HETATM   22  F1  UNL     1      30.374   8.736  12.000  1.00  0.00    -0.170 F 
HETATM   23  F2  UNL     1      31.516   8.975  10.107  1.00  0.00    -0.170 F 
HETATM   24  F3  UNL     1      31.615   6.997  11.274  1.00  0.00    -0.170 F 
ENDBRANCH  19  21
ENDBRANCH  10  12
ENDBRANCH   3  10
BRANCH   1  25
HETATM   25  C3  UNL     1      26.335  11.767  13.652  1.00  0.00     0.240 C 
HETATM   26  N1  UNL     1      26.959  11.052  14.676  1.00  0.00    -0.360 N 
ATOM     27  H1  UNL     1      26.720  10.070  14.809  1.00  0.00     0.162 HD
HETATM   28  O1  UNL     1      26.662  12.997  13.515  1.00  0.00    -0.271 OA
BRANCH  26  29
HETATM   29  C2  UNL     1      27.921  11.654  15.543  1.00  0.00     0.118 C 
HETATM   30  C1  UNL     1      29.264  10.998  15.335  1.00  0.00     0.026 C 
ENDBRANCH  26  29
ENDBRANCH   1  25
BRANCH   8  31
HETATM   31  C19 UNL     1      23.364   7.217  14.966  1.00  0.00     0.185 C 
BRANCH  31  32
HETATM   32  C20 UNL     1      23.286   5.735  14.831  1.00  0.00     0.069 A 
HETATM   33  C21 UNL     1      22.801   4.891  15.788  1.00  0.00     0.145 A 
HETATM   34  N5  UNL     1      22.914   3.643  15.249  1.00  0.00    -0.251 N 
HETATM   35  O3  UNL     1      23.422   3.742  14.076  1.00  0.00    -0.157 OA
ATOM     36  H5  UNL     1      22.638   2.773  15.705  1.00  0.00     0.196 HD
HETATM   37  N6  UNL     1      23.664   4.982  13.775  1.00  0.00    -0.243 N 
ATOM     38  H6  UNL     1      24.066   5.325  12.903  1.00  0.00     0.196 HD
ENDBRANCH  31  32
ENDBRANCH   8  31
TORSDOF 7
ENDMDL
MODEL 2
REMARK VINA RESULT: -7.835518629      4.216      6.709
REMARK  7 active torsions:
REMARK  status: ('A' for Active; 'I' for Inactive)
REMARK    1  A    between atoms: C2_2  and  N1_3 
REMARK       I    between atoms: N1_3  and  C3_5 
REMARK    2  A    between atoms: C3_5  and  C4_7 
REMARK    3  A    between atoms: C6_9  and  N2_10 
REMARK    4  A    between atoms: N2_10  and  C7_12 
REMARK    5  A    between atoms: C13_18  and  C14_19 
REMARK       I    between atoms: N3_26  and  C18_27 
REMARK       I    between atoms: C18_27  and  N4_29 
REMARK    6  A    between atoms: N4_29  and  C19_31 
REMARK    7  A    between atoms: C19_31  and  C20_32 
ROOT
HETATM    1  C4  UNL     1      25.381   8.205  15.001  1.00  0.00     0.183 C 
HETATM    2  C5  UNL     1      24.599   9.511  15.240  1.00  0.00     0.061 C 
HETATM    3  C6  UNL     1      24.352  10.026  13.864  1.00  0.00     0.097 C 
HETATM    4  C17 UNL     1      24.028   8.733  13.131  1.00  0.00     0.153 C 
HETATM    5  N3  UNL     1      24.953   7.786  13.710  1.00  0.00    -0.319 N 
HETATM    6  C18 UNL     1      25.324   6.607  13.003  1.00  0.00     0.319 C 
HETATM    7  O2  UNL     1      26.121   5.823  13.572  1.00  0.00    -0.247 OA
HETATM    8  N4  UNL     1      24.856   6.266  11.721  1.00  0.00    -0.337 N 
ATOM      9  H4  UNL     1      24.208   6.897  11.247  1.00  0.00     0.164 HD
ENDROOT
BRANCH   3  10
HETATM   10  N2  UNL     1      23.276  10.885  13.732  1.00  0.00    -0.411 N 
ATOM     11  H2  UNL     1      22.351  10.522  13.961  1.00  0.00     0.154 HD
BRANCH  10  12
HETATM   12  C7  UNL     1      23.363  12.224  13.302  1.00  0.00     0.078 C 
HETATM   13  C8  UNL     1      24.353  12.462  12.248  1.00  0.00     0.034 C 
HETATM   14  C9  UNL     1      24.892  13.894  12.240  1.00  0.00    -0.041 C 
HETATM   15  C10 UNL     1      25.762  14.088  11.041  1.00  0.00     0.015 C 
HETATM   16  C11 UNL     1      23.740  14.840  12.329  1.00  0.00     0.010 C 
HETATM   17  C16 UNL     1      25.643  14.007  13.556  1.00  0.00     0.027 C 
HETATM   18  C12 UNL     1      23.761  15.373  13.748  1.00  0.00     0.019 C 
HETATM   19  C13 UNL     1      24.451  14.209  14.473  1.00  0.00     0.060 C 
HETATM   20  C15 UNL     1      23.500  13.089  14.532  1.00  0.00     0.043 C 
BRANCH  19  21
HETATM   21  C14 UNL     1      24.876  14.596  15.868  1.00  0.00     0.395 C 
HETATM   22  F1  UNL     1      26.215  14.350  15.984  1.00  0.00    -0.170 F 
HETATM   23  F2  UNL     1      24.211  13.761  16.749  1.00  0.00    -0.170 F 
HETATM   24  F3  UNL     1      24.614  15.934  16.117  1.00  0.00    -0.170 F 
ENDBRANCH  19  21
ENDBRANCH  10  12
ENDBRANCH   3  10
BRANCH   1  25
HETATM   25  C3  UNL     1      26.798   8.553  15.138  1.00  0.00     0.240 C 
HETATM   26  N1  UNL     1      27.808   8.398  14.185  1.00  0.00    -0.360 N 
ATOM     27  H1  UNL     1      27.573   8.000  13.277  1.00  0.00     0.162 HD
HETATM   28  O1  UNL     1      27.131   9.057  16.266  1.00  0.00    -0.271 OA
BRANCH  26  29
HETATM   29  C2  UNL     1      29.159   8.780  14.446  1.00  0.00     0.118 C 
HETATM   30  C1  UNL     1      30.079   7.633  14.107  1.00  0.00     0.026 C 
ENDBRANCH  26  29
ENDBRANCH   1  25
BRANCH   8  31
HETATM   31  C19 UNL     1      25.260   5.056  11.055  1.00  0.00     0.185 C 
BRANCH  31  32
HETATM   32  C20 UNL     1      24.189   4.021  11.033  1.00  0.00     0.069 A 
HETATM   33  C21 UNL     1      23.965   3.154  10.003  1.00  0.00     0.145 A 
HETATM   34  N5  UNL     1      22.906   2.394  10.403  1.00  0.00    -0.251 N 
HETATM   35  O3  UNL     1      22.536   2.779  11.569  1.00  0.00    -0.157 OA
ATOM     36  H5  UNL     1      22.478   1.641   9.863  1.00  0.00     0.196 HD
HETATM   37  N6  UNL     1      23.278   3.757  11.994  1.00  0.00    -0.243 N 
ATOM     38  H6  UNL     1      23.189   4.238  12.889  1.00  0.00     0.196 HD
ENDBRANCH  31  32
ENDBRANCH   8  31
TORSDOF 7
ENDMDL
MODEL 3
REMARK VINA RESULT: -7.815912831      2.196      2.917
REMARK  7 active torsions:
REMARK  status: ('A' for Active; 'I' for Inactive)
REMARK    1  A    between atoms: C2_2  and  N1_3 
REMARK       I    between atoms: N1_3  and  C3_5 
REMARK    2  A    between atoms: C3_5  and  C4_7 
REMARK    3  A    between atoms: C6_9  and  N2_10 
REMARK    4  A    between atoms: N2_10  and  C7_12 
REMARK    5  A    between atoms: C13_18  and  C14_19 
REMARK       I    between atoms: N3_26  and  C18_27 
REMARK       I    between atoms: C18_27  and  N4_29 
REMARK    6  A    between atoms: N4_29  and  C19_31 
REMARK    7  A    between atoms: C19_31  and  C20_32 
ROOT
HETATM    1  C4  UNL     1      24.756  10.065  13.313  1.00  0.00     0.183 C 
HETATM    2  C5  UNL     1      25.783  10.878  12.502  1.00  0.00     0.061 C 
HETATM    3  C6  UNL     1      26.951   9.960  12.397  1.00  0.00     0.097 C 
HETATM    4  C17 UNL     1      26.247   8.632  12.160  1.00  0.00     0.153 C 
HETATM    5  N3  UNL     1      25.092   8.712  13.025  1.00  0.00    -0.319 N 
HETATM    6  C18 UNL     1      24.437   7.531  13.474  1.00  0.00     0.319 C 
HETATM    7  O2  UNL     1      23.433   7.676  14.213  1.00  0.00    -0.247 OA
HETATM    8  N4  UNL     1      24.838   6.223  13.145  1.00  0.00    -0.337 N 
ATOM      9  H4  UNL     1      25.654   6.092  12.547  1.00  0.00     0.164 HD
ENDROOT
BRANCH   3  10
HETATM   10  N2  UNL     1      27.805  10.197  11.336  1.00  0.00    -0.411 N 
ATOM     11  H2  UNL     1      27.497  10.854  10.619  1.00  0.00     0.154 HD
BRANCH  10  12
HETATM   12  C7  UNL     1      29.070   9.597  11.171  1.00  0.00     0.078 C 
HETATM   13  C8  UNL     1      29.097   8.483  10.221  1.00  0.00     0.034 C 
HETATM   14  C9  UNL     1      30.213   7.475  10.506  1.00  0.00    -0.041 C 
HETATM   15  C10 UNL     1      30.266   6.472   9.400  1.00  0.00     0.015 C 
HETATM   16  C11 UNL     1      31.487   8.222  10.726  1.00  0.00     0.010 C 
HETATM   17  C16 UNL     1      29.827   6.875  11.847  1.00  0.00     0.027 C 
HETATM   18  C12 UNL     1      31.737   8.164  12.221  1.00  0.00     0.019 C 
HETATM   19  C13 UNL     1      30.300   8.009  12.739  1.00  0.00     0.060 C 
HETATM   20  C15 UNL     1      29.612   9.295  12.547  1.00  0.00     0.043 C 
BRANCH  19  21
HETATM   21  C14 UNL     1      30.273   7.625  14.197  1.00  0.00     0.395 C 
HETATM   22  F1  UNL     1      28.987   7.297  14.523  1.00  0.00    -0.170 F 
HETATM   23  F2  UNL     1      30.624   8.747  14.928  1.00  0.00    -0.170 F 
HETATM   24  F3  UNL     1      31.116   6.554  14.448  1.00  0.00    -0.170 F 
ENDBRANCH  19  21
ENDBRANCH  10  12
ENDBRANCH   3  10
BRANCH   1  25
HETATM   25  C3  UNL     1      24.910  10.493  14.705  1.00  0.00     0.240 C 
HETATM   26  N1  UNL     1      25.369   9.733  15.783  1.00  0.00    -0.360 N 
ATOM     27  H1  UNL     1      25.637   8.762  15.625  1.00  0.00     0.162 HD
HETATM   28  O1  UNL     1      24.585  11.708  14.943  1.00  0.00    -0.271 OA
BRANCH  26  29
HETATM   29  C2  UNL     1      25.474  10.274  17.101  1.00  0.00     0.118 C 
HETATM   30  C1  UNL     1      26.901  10.687  17.362  1.00  0.00     0.026 C 
ENDBRANCH  26  29
ENDBRANCH   1  25
BRANCH   8  31
HETATM   31  C19 UNL     1      24.133   5.063  13.624  1.00  0.00     0.185 C 
BRANCH  31  32
HETATM   32  C20 UNL     1      23.697   4.155  12.527  1.00  0.00     0.069 A 
HETATM   33  C21 UNL     1      24.276   4.091  11.292  1.00  0.00     0.145 A 
HETATM   34  N5  UNL     1      23.571   3.138  10.619  1.00  0.00    -0.251 N 
HETATM   35  O3  UNL     1      22.654   2.678  11.390  1.00  0.00    -0.157 OA
ATOM     36  H5  UNL     1      23.745   2.838   9.659  1.00  0.00     0.196 HD
HETATM   37  N6  UNL     1      22.688   3.258  12.551  1.00  0.00    -0.243 N 
ATOM     38  H6  UNL     1      22.066   3.070  13.338  1.00  0.00     0.196 HD
ENDBRANCH  31  32
ENDBRANCH   8  31
TORSDOF 7
ENDMDL
MODEL 4
REMARK VINA RESULT: -7.799404772      3.409      6.755
REMARK  7 active torsions:
REMARK  status: ('A' for Active; 'I' for Inactive)
REMARK    1  A    between atoms: C2_2  and  N1_3 
REMARK       I    between atoms: N1_3  and  C3_5 
REMARK    2  A    between atoms: C3_5  and  C4_7 
REMARK    3  A    between atoms: C6_9  and  N2_10 
REMARK    4  A    between atoms: N2_10  and  C7_12 
REMARK    5  A    between atoms: C13_18  and  C14_19 
REMARK       I    between atoms: N3_26  and  C18_27 
REMARK       I    between atoms: C18_27  and  N4_29 
REMARK    6  A    between atoms: N4_29  and  C19_31 
REMARK    7  A    between atoms: C19_31  and  C20_32 
ROOT
HETATM    1  C4  UNL     1      26.968   7.377   9.513  1.00  0.00     0.183 C 
HETATM    2  C5  UNL     1      26.582   5.939   9.909  1.00  0.00     0.061 C 
HETATM    3  C6  UNL     1      26.217   6.060  11.348  1.00  0.00     0.097 C 
HETATM    4  C17 UNL     1      25.461   7.380  11.340  1.00  0.00     0.153 C 
HETATM    5  N3  UNL     1      26.221   8.188  10.413  1.00  0.00    -0.319 N 
HETATM    6  C18 UNL     1      26.158   9.609  10.468  1.00  0.00     0.319 C 
HETATM    7  O2  UNL     1      26.834  10.246   9.624  1.00  0.00    -0.247 OA
HETATM    8  N4  UNL     1      25.393  10.339  11.396  1.00  0.00    -0.337 N 
ATOM      9  H4  UNL     1      24.842   9.831  12.089  1.00  0.00     0.164 HD
ENDROOT
BRANCH   3  10
HETATM   10  N2  UNL     1      25.375   5.078  11.836  1.00  0.00    -0.411 N 
ATOM     11  H2  UNL     1      24.869   4.509  11.158  1.00  0.00     0.154 HD
BRANCH  10  12
HETATM   12  C7  UNL     1      25.164   4.805  13.203  1.00  0.00     0.078 C 
HETATM   13  C8  UNL     1      23.846   4.247  13.516  1.00  0.00     0.034 C 
HETATM   14  C9  UNL     1      23.389   4.545  14.946  1.00  0.00    -0.041 C 
HETATM   15  C10 UNL     1      22.122   3.804  15.224  1.00  0.00     0.015 C 
HETATM   16  C11 UNL     1      24.509   4.231  15.881  1.00  0.00     0.010 C 
HETATM   17  C16 UNL     1      23.222   6.055  14.966  1.00  0.00     0.027 C 
HETATM   18  C12 UNL     1      25.066   5.574  16.313  1.00  0.00     0.019 C 
HETATM   19  C13 UNL     1      24.685   6.436  15.101  1.00  0.00     0.060 C 
HETATM   20  C15 UNL     1      25.549   6.041  13.979  1.00  0.00     0.043 C 
BRANCH  19  21
HETATM   21  C14 UNL     1      24.857   7.907  15.389  1.00  0.00     0.395 C 
HETATM   22  F1  UNL     1      24.166   8.196  16.533  1.00  0.00    -0.170 F 
HETATM   23  F2  UNL     1      24.269   8.605  14.349  1.00  0.00    -0.170 F 
HETATM   24  F3  UNL     1      26.195   8.232  15.546  1.00  0.00    -0.170 F 
ENDBRANCH  19  21
ENDBRANCH  10  12
ENDBRANCH   3  10
BRANCH   1  25
HETATM   25  C3  UNL     1      28.426   7.450   9.627  1.00  0.00     0.240 C 
HETATM   26  N1  UNL     1      29.171   8.083  10.624  1.00  0.00    -0.360 N 
ATOM     27  H1  UNL     1      28.681   8.562  11.378  1.00  0.00     0.162 HD
HETATM   28  O1  UNL     1      29.078   6.857   8.699  1.00  0.00    -0.271 OA
BRANCH  26  29
HETATM   29  C2  UNL     1      30.600   8.079  10.620  1.00  0.00     0.118 C 
HETATM   30  C1  UNL     1      31.102   6.987  11.532  1.00  0.00     0.026 C 
ENDBRANCH  26  29
ENDBRANCH   1  25
BRANCH   8  31
HETATM   31  C19 UNL     1      25.364  11.777  11.401  1.00  0.00     0.185 C 
BRANCH  31  32
HETATM   32  C20 UNL     1      24.209  12.331  12.163  1.00  0.00     0.069 A 
HETATM   33  C21 UNL     1      23.711  13.593  12.013  1.00  0.00     0.145 A 
HETATM   34  N5  UNL     1      22.671  13.670  12.892  1.00  0.00    -0.251 N 
HETATM   35  O3  UNL     1      22.565  12.549  13.508  1.00  0.00    -0.157 OA
ATOM     36  H5  UNL     1      22.075  14.485  13.037  1.00  0.00     0.196 HD
HETATM   37  N6  UNL     1      23.468  11.708  13.104  1.00  0.00    -0.243 N 
ATOM     38  H6  UNL     1      23.594  10.752  13.437  1.00  0.00     0.196 HD
ENDBRANCH  31  32
ENDBRANCH   8  31
TORSDOF 7
ENDMDL
MODEL 5
REMARK VINA RESULT: -7.794698271      3.942      6.036
REMARK  7 active torsions:
REMARK  status: ('A' for Active; 'I' for Inactive)
REMARK    1  A    between atoms: C2_2  and  N1_3 
REMARK       I    between atoms: N1_3  and  C3_5 
REMARK    2  A    between atoms: C3_5  and  C4_7 
REMARK    3  A    between atoms: C6_9  and  N2_10 
REMARK    4  A    between atoms: N2_10  and  C7_12 
REMARK    5  A    between atoms: C13_18  and  C14_19 
REMARK       I    between atoms: N3_26  and  C18_27 
REMARK       I    between atoms: C18_27  and  N4_29 
REMARK    6  A    between atoms: N4_29  and  C19_31 
REMARK    7  A    between atoms: C19_31  and  C20_32 
ROOT
HETATM    1  C4  UNL     1      23.565  10.346  14.527  1.00  0.00     0.183 C 
HETATM    2  C5  UNL     1      23.926   9.025  13.822  1.00  0.00     0.061 C 
HETATM    3  C6  UNL     1      25.344   8.796  14.216  1.00  0.00     0.097 C 
HETATM    4  C17 UNL     1      25.306   9.225  15.675  1.00  0.00     0.153 C 
HETATM    5  N3  UNL     1      24.430  10.374  15.657  1.00  0.00    -0.319 N 
HETATM    6  C18 UNL     1      24.494  11.353  16.688  1.00  0.00     0.319 C 
HETATM    7  O2  UNL     1      23.694  12.317  16.615  1.00  0.00    -0.247 OA
HETATM    8  N4  UNL     1      25.387  11.309  17.775  1.00  0.00    -0.337 N 
ATOM      9  H4  UNL     1      26.043  10.531  17.844  1.00  0.00     0.164 HD
ENDROOT
BRANCH   3  10
HETATM   10  N2  UNL     1      25.777   7.483  14.158  1.00  0.00    -0.411 N 
ATOM     11  H2  UNL     1      25.616   6.896  14.976  1.00  0.00     0.154 HD
BRANCH  10  12
HETATM   12  C7  UNL     1      26.423   6.897  13.052  1.00  0.00     0.078 C 
HETATM   13  C8  UNL     1      26.676   7.815  11.938  1.00  0.00     0.034 C 
HETATM   14  C9  UNL     1      26.762   7.108  10.583  1.00  0.00    -0.041 C 
HETATM   15  C10 UNL     1      27.182   8.091   9.539  1.00  0.00     0.015 C 
HETATM   16  C11 UNL     1      27.662   5.925  10.717  1.00  0.00     0.010 C 
HETATM   17  C16 UNL     1      25.361   6.561  10.369  1.00  0.00     0.027 C 
HETATM   18  C12 UNL     1      26.745   4.717  10.725  1.00  0.00     0.019 C 
HETATM   19  C13 UNL     1      25.458   5.347  11.274  1.00  0.00     0.060 C 
HETATM   20  C15 UNL     1      25.672   5.636  12.700  1.00  0.00     0.043 C 
BRANCH  19  21
HETATM   21  C14 UNL     1      24.274   4.428  11.109  1.00  0.00     0.395 C 
HETATM   22  F1  UNL     1      24.735   3.225  10.652  1.00  0.00    -0.170 F 
HETATM   23  F2  UNL     1      23.461   4.971  10.129  1.00  0.00    -0.170 F 
HETATM   24  F3  UNL     1      23.602   4.257  12.309  1.00  0.00    -0.170 F 
ENDBRANCH  19  21
ENDBRANCH  10  12
ENDBRANCH   3  10
BRANCH   1  25
HETATM   25  C3  UNL     1      23.759  11.402  13.530  1.00  0.00     0.240 C 
HETATM   26  N1  UNL     1      24.864  11.594  12.699  1.00  0.00    -0.360 N 
ATOM     27  H1  UNL     1      25.649  10.945  12.762  1.00  0.00     0.162 HD
HETATM   28  O1  UNL     1      22.794  12.235  13.420  1.00  0.00    -0.271 OA
BRANCH  26  29
HETATM   29  C2  UNL     1      24.929  12.670  11.762  1.00  0.00     0.118 C 
HETATM   30  C1  UNL     1      26.182  12.537  10.931  1.00  0.00     0.026 C 
ENDBRANCH  26  29
ENDBRANCH   1  25
BRANCH   8  31
HETATM   31  C19 UNL     1      25.403  12.326  18.794  1.00  0.00     0.185 C 
BRANCH  31  32
HETATM   32  C20 UNL     1      26.359  12.027  19.896  1.00  0.00     0.069 A 
HETATM   33  C21 UNL     1      27.683  11.743  19.723  1.00  0.00     0.145 A 
HETATM   34  N5  UNL     1      28.169  11.540  20.981  1.00  0.00    -0.251 N 
HETATM   35  O3  UNL     1      27.214  11.692  21.824  1.00  0.00    -0.157 OA
ATOM     36  H5  UNL     1      29.135  11.307  21.214  1.00  0.00     0.196 HD
HETATM   37  N6  UNL     1      26.102  11.987  21.222  1.00  0.00    -0.243 N 
ATOM     38  H6  UNL     1      25.201  12.157  21.667  1.00  0.00     0.196 HD
ENDBRANCH  31  32
ENDBRANCH   8  31
TORSDOF 7
ENDMDL
