MODEL 1
REMARK VINA RESULT: -7.217579418      0.000      0.000
REMARK  11 active torsions:
REMARK  status: ('A' for Active; 'I' for Inactive)
REMARK    1  A    between atoms: C3_3  and  O1_4 
REMARK    2  A    between atoms: C4_6  and  C5_7 
REMARK       I    between atoms: C5_7  and  N1_9 
REMARK    3  A    between atoms: N1_9  and  N2_11 
REMARK    4  A    between atoms: C6_14  and  N3_15 
REMARK    5  A    between atoms: N3_15  and  C7_17 
REMARK    6  A    between atoms: C8_22  and  C9_23 
REMARK    7  A    between atoms: C10_24  and  C11_25 
REMARK    8  A    between atoms: C10_24  and  C12_28 
REMARK    9  A    between atoms: C11_25  and  O3_26 
REMARK   10  A    between atoms: C12_28  and  O4_29 
REMARK   11  A    between atoms: N8_38  and  O6_39 
ROOT
HETATM    1  C1  UNL     1     -15.261 -19.192  38.357  1.00  0.00     0.017 C 
HETATM    2  C2  UNL     1     -14.620 -19.473  37.375  1.00  0.00    -0.053 C 
HETATM    3  C3  UNL     1     -13.821 -19.792  36.152  1.00  0.00     0.243 C 
HETATM    4  C4  UNL     1     -12.373 -19.599  36.491  1.00  0.00     0.218 C 
HETATM    5  C6  UNL     1     -11.820 -20.840  37.051  1.00  0.00     0.117 C 
HETATM    6  N7  UNL     1     -12.339 -21.991  36.839  1.00  0.00    -0.339 N 
ATOM      7  H7  UNL     1     -11.896 -22.805  37.265  1.00  0.00     0.168 HD
HETATM    8  C14 UNL     1     -13.514 -22.204  36.030  1.00  0.00     0.213 C 
HETATM    9  N8  UNL     1     -14.229 -21.047  35.672  1.00  0.00    -0.207 N 
ENDROOT
BRANCH   3  10
HETATM   10  O1  UNL     1     -14.173 -18.847  35.147  1.00  0.00    -0.358 OA
ATOM     11  H1  UNL     1     -13.706 -19.082  34.354  1.00  0.00     0.213 HD
ENDBRANCH   3  10
BRANCH   4  12
HETATM   12  C5  UNL     1     -11.561 -19.043  35.380  1.00  0.00     0.253 C 
HETATM   13  O2  UNL     1     -11.279 -19.838  34.417  1.00  0.00    -0.271 OA
HETATM   14  N1  UNL     1     -11.076 -17.745  35.282  1.00  0.00    -0.276 N 
ATOM     15  H1  UNL     1     -11.270 -17.070  36.023  1.00  0.00     0.189 HD
BRANCH  14  16
HETATM   16  N2  UNL     1     -10.317 -17.363  34.162  1.00  0.00    -0.343 N 
ATOM     17  H22 UNL     1     -10.324 -17.957  33.333  1.00  0.00     0.176 HD
ATOM     18  H21 UNL     1      -9.771 -16.503  34.189  1.00  0.00     0.176 HD
ENDBRANCH  14  16
ENDBRANCH   4  12
BRANCH   9  19
HETATM   19  O6  UNL     1     -14.597 -21.054  34.398  1.00  0.00    -0.283 OA
ATOM     20  H6  UNL     1     -15.035 -21.850  34.120  1.00  0.00     0.245 HD
ENDBRANCH   9  19
BRANCH   5  21
HETATM   21  N3  UNL     1     -10.646 -20.736  37.852  1.00  0.00    -0.178 N 
ATOM     22  H3  UNL     1     -10.050 -19.919  37.718  1.00  0.00     0.185 HD
BRANCH  21  23
HETATM   23  C7  UNL     1     -10.248 -21.694  38.823  1.00  0.00     0.701 A 
HETATM   24  N4  UNL     1      -9.483 -22.763  38.470  1.00  0.00    -0.131 N 
HETATM   25  N5  UNL     1      -9.111 -23.667  39.350  1.00  0.00    -0.281 N 
ATOM     26  H4  UNL     1      -9.192 -22.866  37.498  1.00  0.00     0.205 HD
HETATM   27  C8  UNL     1      -9.424 -23.653  40.648  1.00  0.00     0.117 A 
ATOM     28  H5  UNL     1      -8.538 -24.441  39.013  1.00  0.00     0.187 HD
HETATM   29  C13 UNL     1     -10.217 -22.547  41.016  1.00  0.00     0.287 A 
HETATM   30  O5  UNL     1     -10.552 -22.465  42.230  1.00  0.00    -0.265 OA
HETATM   31  N6  UNL     1     -10.596 -21.623  40.119  1.00  0.00    -0.153 N 
ATOM     32  H6  UNL     1     -11.169 -20.840  40.432  1.00  0.00     0.187 HD
BRANCH  27  33
HETATM   33  C9  UNL     1      -9.037 -24.632  41.630  1.00  0.00     0.044 C 
HETATM   34  C10 UNL     1      -9.460 -25.861  41.664  1.00  0.00    -0.031 C 
BRANCH  34  35
HETATM   35  C11 UNL     1     -10.410 -26.411  40.679  1.00  0.00     0.200 C 
BRANCH  35  36
HETATM   36  O3  UNL     1      -9.743 -26.757  39.486  1.00  0.00    -0.397 OA
ATOM     37  H3  UNL     1     -10.063 -26.234  38.760  1.00  0.00     0.209 HD
ENDBRANCH  35  36
ENDBRANCH  34  35
BRANCH  34  38
HETATM   38  C12 UNL     1      -8.962 -26.784  42.769  1.00  0.00     0.200 C 
BRANCH  38  39
HETATM   39  O4  UNL     1      -8.654 -27.993  42.184  1.00  0.00    -0.397 OA
ATOM     40  H4  UNL     1      -7.816 -28.270  42.534  1.00  0.00     0.209 HD
ENDBRANCH  38  39
ENDBRANCH  34  38
ENDBRANCH  27  33
ENDBRANCH  21  23
ENDBRANCH   5  21
TORSDOF 11
ENDMDL
MODEL 2
REMARK VINA RESULT: -6.849725210      2.360      3.749
REMARK  11 active torsions:
REMARK  status: ('A' for Active; 'I' for Inactive)
REMARK    1  A    between atoms: C3_3  and  O1_4 
REMARK    2  A    between atoms: C4_6  and  C5_7 
REMARK       I    between atoms: C5_7  and  N1_9 
REMARK    3  A    between atoms: N1_9  and  N2_11 
REMARK    4  A    between atoms: C6_14  and  N3_15 
REMARK    5  A    between atoms: N3_15  and  C7_17 
REMARK    6  A    between atoms: C8_22  and  C9_23 
REMARK    7  A    between atoms: C10_24  and  C11_25 
REMARK    8  A    between atoms: C10_24  and  C12_28 
REMARK    9  A    between atoms: C11_25  and  O3_26 
REMARK   10  A    between atoms: C12_28  and  O4_29 
REMARK   11  A    between atoms: N8_38  and  O6_39 
ROOT
HETATM    1  C1  UNL     1     -14.620 -18.903  38.613  1.00  0.00     0.017 C 
HETATM    2  C2  UNL     1     -14.175 -19.242  37.546  1.00  0.00    -0.053 C 
HETATM    3  C3  UNL     1     -13.608 -19.637  36.220  1.00  0.00     0.243 C 
HETATM    4  C4  UNL     1     -12.190 -20.072  36.441  1.00  0.00     0.218 C 
HETATM    5  C6  UNL     1     -12.151 -21.504  36.770  1.00  0.00     0.117 C 
HETATM    6  N7  UNL     1     -13.088 -22.317  36.451  1.00  0.00    -0.339 N 
ATOM      7  H7  UNL     1     -12.986 -23.296  36.717  1.00  0.00     0.168 HD
HETATM    8  C14 UNL     1     -14.279 -21.927  35.738  1.00  0.00     0.213 C 
HETATM    9  N8  UNL     1     -14.493 -20.543  35.612  1.00  0.00    -0.207 N 
ENDROOT
BRANCH   3  10
HETATM   10  O1  UNL     1     -13.595 -18.479  35.393  1.00  0.00    -0.358 OA
ATOM     11  H1  UNL     1     -13.856 -18.745  34.518  1.00  0.00     0.213 HD
ENDBRANCH   3  10
BRANCH   4  12
HETATM   12  C5  UNL     1     -11.264 -19.695  35.345  1.00  0.00     0.253 C 
HETATM   13  O2  UNL     1     -11.366 -20.352  34.251  1.00  0.00    -0.271 OA
HETATM   14  N1  UNL     1     -10.295 -18.700  35.389  1.00  0.00    -0.276 N 
ATOM     15  H1  UNL     1     -10.170 -18.147  36.237  1.00  0.00     0.189 HD
BRANCH  14  16
HETATM   16  N2  UNL     1      -9.489 -18.457  34.264  1.00  0.00    -0.343 N 
ATOM     17  H22 UNL     1      -9.831 -17.832  33.535  1.00  0.00     0.176 HD
ATOM     18  H21 UNL     1      -8.576 -18.905  34.187  1.00  0.00     0.176 HD
ENDBRANCH  14  16
ENDBRANCH   4  12
BRANCH   9  19
HETATM   19  O6  UNL     1     -14.877 -20.200  34.391  1.00  0.00    -0.283 OA
ATOM     20  H6  UNL     1     -15.699 -20.587  34.114  1.00  0.00     0.245 HD
ENDBRANCH   9  19
BRANCH   5  21
HETATM   21  N3  UNL     1     -11.004 -21.991  37.461  1.00  0.00    -0.178 N 
ATOM     22  H3  UNL     1     -10.330 -22.545  36.932  1.00  0.00     0.185 HD
BRANCH  21  23
HETATM   23  C7  UNL     1     -10.735 -21.757  38.836  1.00  0.00     0.701 A 
HETATM   24  N4  UNL     1      -9.909 -20.746  39.219  1.00  0.00    -0.131 N 
HETATM   25  N5  UNL     1      -9.638 -20.516  40.486  1.00  0.00    -0.281 N 
ATOM     26  H4  UNL     1      -9.489 -20.150  38.506  1.00  0.00     0.205 HD
HETATM   27  C8  UNL     1     -10.119 -21.218  41.515  1.00  0.00     0.117 A 
ATOM     28  H5  UNL     1      -9.012 -19.740  40.698  1.00  0.00     0.187 HD
HETATM   29  C13 UNL     1     -10.974 -22.267  41.121  1.00  0.00     0.287 A 
HETATM   30  O5  UNL     1     -11.467 -22.976  42.041  1.00  0.00    -0.265 OA
HETATM   31  N6  UNL     1     -11.251 -22.502  39.829  1.00  0.00    -0.153 N 
ATOM     32  H6  UNL     1     -11.876 -23.272  39.592  1.00  0.00     0.187 HD
BRANCH  27  33
HETATM   33  C9  UNL     1      -9.833 -20.994  42.909  1.00  0.00     0.044 C 
HETATM   34  C10 UNL     1     -10.267 -19.986  43.605  1.00  0.00    -0.031 C 
BRANCH  34  35
HETATM   35  C11 UNL     1     -11.122 -18.926  43.038  1.00  0.00     0.200 C 
BRANCH  35  36
HETATM   36  O3  UNL     1     -10.340 -17.961  42.372  1.00  0.00    -0.397 OA
ATOM     37  H3  UNL     1     -10.109 -18.261  41.501  1.00  0.00     0.209 HD
ENDBRANCH  35  36
ENDBRANCH  34  35
BRANCH  34  38
HETATM   38  C12 UNL     1      -9.880 -19.882  45.075  1.00  0.00     0.200 C 
BRANCH  38  39
HETATM   39  O4  UNL     1      -9.524 -18.572  45.312  1.00  0.00    -0.397 OA
ATOM     40  H4  UNL     1     -10.248 -18.162  45.770  1.00  0.00     0.209 HD
ENDBRANCH  38  39
ENDBRANCH  34  38
ENDBRANCH  27  33
ENDBRANCH  21  23
ENDBRANCH   5  21
TORSDOF 11
ENDMDL
MODEL 3
REMARK VINA RESULT: -6.803741011      1.174      1.490
REMARK  11 active torsions:
REMARK  status: ('A' for Active; 'I' for Inactive)
REMARK    1  A    between atoms: C3_3  and  O1_4 
REMARK    2  A    between atoms: C4_6  and  C5_7 
REMARK       I    between atoms: C5_7  and  N1_9 
REMARK    3  A    between atoms: N1_9  and  N2_11 
REMARK    4  A    between atoms: C6_14  and  N3_15 
REMARK    5  A    between atoms: N3_15  and  C7_17 
REMARK    6  A    between atoms: C8_22  and  C9_23 
REMARK    7  A    between atoms: C10_24  and  C11_25 
REMARK    8  A    between atoms: C10_24  and  C12_28 
REMARK    9  A    between atoms: C11_25  and  O3_26 
REMARK   10  A    between atoms: C12_28  and  O4_29 
REMARK   11  A    between atoms: N8_38  and  O6_39 
ROOT
HETATM    1  C1  UNL     1     -14.922 -18.766  38.403  1.00  0.00     0.017 C 
HETATM    2  C2  UNL     1     -14.348 -19.193  37.434  1.00  0.00    -0.053 C 
HETATM    3  C3  UNL     1     -13.626 -19.695  36.225  1.00  0.00     0.243 C 
HETATM    4  C4  UNL     1     -12.162 -19.730  36.549  1.00  0.00     0.218 C 
HETATM    5  C6  UNL     1     -11.817 -21.019  37.164  1.00  0.00     0.117 C 
HETATM    6  N7  UNL     1     -12.522 -22.077  37.007  1.00  0.00    -0.339 N 
ATOM      7  H7  UNL     1     -12.215 -22.933  37.469  1.00  0.00     0.168 HD
HETATM    8  C14 UNL     1     -13.725 -22.127  36.214  1.00  0.00     0.213 C 
HETATM    9  N8  UNL     1     -14.242 -20.885  35.804  1.00  0.00    -0.207 N 
ENDROOT
BRANCH   3  10
HETATM   10  O1  UNL     1     -13.828 -18.752  35.178  1.00  0.00    -0.358 OA
ATOM     11  H1  UNL     1     -13.193 -18.937  34.495  1.00  0.00     0.213 HD
ENDBRANCH   3  10
BRANCH   4  12
HETATM   12  C5  UNL     1     -11.281 -19.368  35.410  1.00  0.00     0.253 C 
HETATM   13  O2  UNL     1     -11.240 -20.188  34.429  1.00  0.00    -0.271 OA
HETATM   14  N1  UNL     1     -10.497 -18.226  35.306  1.00  0.00    -0.276 N 
ATOM     15  H1  UNL     1     -10.492 -17.539  36.060  1.00  0.00     0.189 HD
BRANCH  14  16
HETATM   16  N2  UNL     1      -9.711 -18.019  34.159  1.00  0.00    -0.343 N 
ATOM     17  H22 UNL     1      -8.966 -18.681  33.942  1.00  0.00     0.176 HD
ATOM     18  H21 UNL     1      -9.891 -17.215  33.559  1.00  0.00     0.176 HD
ENDBRANCH  14  16
ENDBRANCH   4  12
BRANCH   9  19
HETATM   19  O6  UNL     1     -14.619 -20.889  34.534  1.00  0.00    -0.283 OA
ATOM     20  H6  UNL     1     -13.908 -20.798  33.912  1.00  0.00     0.245 HD
ENDBRANCH   9  19
BRANCH   5  21
HETATM   21  N3  UNL     1     -10.632 -21.076  37.955  1.00  0.00    -0.178 N 
ATOM     22  H3  UNL     1      -9.954 -20.321  37.851  1.00  0.00     0.185 HD
BRANCH  21  23
HETATM   23  C7  UNL     1     -10.332 -22.114  38.878  1.00  0.00     0.701 A 
HETATM   24  N4  UNL     1      -9.306 -22.976  38.643  1.00  0.00    -0.131 N 
HETATM   25  N5  UNL     1      -9.015 -23.949  39.479  1.00  0.00    -0.281 N 
ATOM     26  H4  UNL     1      -8.748 -22.865  37.797  1.00  0.00     0.205 HD
HETATM   27  C8  UNL     1      -9.664 -24.205  40.618  1.00  0.00     0.117 A 
ATOM     28  H5  UNL     1      -8.232 -24.556  39.238  1.00  0.00     0.187 HD
HETATM   29  C13 UNL     1     -10.728 -23.314  40.864  1.00  0.00     0.287 A 
HETATM   30  O5  UNL     1     -11.388 -23.494  41.924  1.00  0.00    -0.265 OA
HETATM   31  N6  UNL     1     -11.025 -22.320  40.012  1.00  0.00    -0.153 N 
ATOM     32  H6  UNL     1     -11.803 -21.699  40.232  1.00  0.00     0.187 HD
BRANCH  27  33
HETATM   33  C9  UNL     1      -9.373 -25.267  41.546  1.00  0.00     0.044 C 
HETATM   34  C10 UNL     1      -8.598 -25.158  42.584  1.00  0.00    -0.031 C 
BRANCH  34  35
HETATM   35  C11 UNL     1      -7.907 -23.904  42.942  1.00  0.00     0.200 C 
BRANCH  35  36
HETATM   36  O3  UNL     1      -6.603 -23.885  42.407  1.00  0.00    -0.397 OA
ATOM     37  H3  UNL     1      -5.956 -23.908  43.102  1.00  0.00     0.209 HD
ENDBRANCH  35  36
ENDBRANCH  34  35
BRANCH  34  38
HETATM   38  C12 UNL     1      -8.383 -26.372  43.477  1.00  0.00     0.200 C 
BRANCH  38  39
HETATM   39  O4  UNL     1      -7.029 -26.475  43.709  1.00  0.00    -0.397 OA
ATOM     40  H4  UNL     1      -6.797 -25.796  44.331  1.00  0.00     0.209 HD
ENDBRANCH  38  39
ENDBRANCH  34  38
ENDBRANCH  27  33
ENDBRANCH  21  23
ENDBRANCH   5  21
TORSDOF 11
ENDMDL
MODEL 4
REMARK VINA RESULT: -6.779661633      2.159      2.795
REMARK  11 active torsions:
REMARK  status: ('A' for Active; 'I' for Inactive)
REMARK    1  A    between atoms: C3_3  and  O1_4 
REMARK    2  A    between atoms: C4_6  and  C5_7 
REMARK       I    between atoms: C5_7  and  N1_9 
REMARK    3  A    between atoms: N1_9  and  N2_11 
REMARK    4  A    between atoms: C6_14  and  N3_15 
REMARK    5  A    between atoms: N3_15  and  C7_17 
REMARK    6  A    between atoms: C8_22  and  C9_23 
REMARK    7  A    between atoms: C10_24  and  C11_25 
REMARK    8  A    between atoms: C10_24  and  C12_28 
REMARK    9  A    between atoms: C11_25  and  O3_26 
REMARK   10  A    between atoms: C12_28  and  O4_29 
REMARK   11  A    between atoms: N8_38  and  O6_39 
ROOT
HETATM    1  C1  UNL     1     -14.597 -19.111  38.590  1.00  0.00     0.017 C 
HETATM    2  C2  UNL     1     -14.142 -19.400  37.512  1.00  0.00    -0.053 C 
HETATM    3  C3  UNL     1     -13.564 -19.734  36.174  1.00  0.00     0.243 C 
HETATM    4  C4  UNL     1     -12.124 -20.099  36.377  1.00  0.00     0.218 C 
HETATM    5  C6  UNL     1     -12.007 -21.533  36.671  1.00  0.00     0.117 C 
HETATM    6  N7  UNL     1     -12.902 -22.387  36.339  1.00  0.00    -0.339 N 
ATOM      7  H7  UNL     1     -12.748 -23.366  36.581  1.00  0.00     0.168 HD
HETATM    8  C14 UNL     1     -14.117 -22.044  35.641  1.00  0.00     0.213 C 
HETATM    9  N8  UNL     1     -14.405 -20.671  35.550  1.00  0.00    -0.207 N 
ENDROOT
BRANCH   3  10
HETATM   10  O1  UNL     1     -13.617 -18.557  35.374  1.00  0.00    -0.358 OA
ATOM     11  H1  UNL     1     -14.292 -18.684  34.718  1.00  0.00     0.213 HD
ENDBRANCH   3  10
BRANCH   4  12
HETATM   12  C5  UNL     1     -11.226 -19.648  35.285  1.00  0.00     0.253 C 
HETATM   13  O2  UNL     1     -11.309 -20.276  34.173  1.00  0.00    -0.271 OA
HETATM   14  N1  UNL     1     -10.303 -18.612  35.351  1.00  0.00    -0.276 N 
ATOM     15  H1  UNL     1     -10.194 -18.079  36.214  1.00  0.00     0.189 HD
BRANCH  14  16
HETATM   16  N2  UNL     1      -9.519 -18.299  34.227  1.00  0.00    -0.343 N 
ATOM     17  H22 UNL     1      -8.664 -18.828  34.056  1.00  0.00     0.176 HD
ATOM     18  H21 UNL     1      -9.809 -17.552  33.597  1.00  0.00     0.176 HD
ENDBRANCH  14  16
ENDBRANCH   4  12
BRANCH   9  19
HETATM   19  O6  UNL     1     -14.815 -20.320  34.339  1.00  0.00    -0.283 OA
ATOM     20  H6  UNL     1     -14.181 -20.476  33.649  1.00  0.00     0.245 HD
ENDBRANCH   9  19
BRANCH   5  21
HETATM   21  N3  UNL     1     -10.831 -21.975  37.344  1.00  0.00    -0.178 N 
ATOM     22  H3  UNL     1     -10.124 -22.465  36.794  1.00  0.00     0.185 HD
BRANCH  21  23
HETATM   23  C7  UNL     1     -10.576 -21.781  38.728  1.00  0.00     0.701 A 
HETATM   24  N4  UNL     1      -9.894 -20.687  39.161  1.00  0.00    -0.131 N 
HETATM   25  N5  UNL     1      -9.638 -20.490  40.436  1.00  0.00    -0.281 N 
ATOM     26  H4  UNL     1      -9.571 -20.000  38.478  1.00  0.00     0.205 HD
HETATM   27  C8  UNL     1     -10.001 -21.307  41.428  1.00  0.00     0.117 A 
ATOM     28  H5  UNL     1      -9.122 -19.647  40.687  1.00  0.00     0.187 HD
HETATM   29  C13 UNL     1     -10.708 -22.443  40.983  1.00  0.00     0.287 A 
HETATM   30  O5  UNL     1     -11.084 -23.262  41.866  1.00  0.00    -0.265 OA
HETATM   31  N6  UNL     1     -10.969 -22.643  39.682  1.00  0.00    -0.153 N 
ATOM     32  H6  UNL     1     -11.485 -23.479  39.407  1.00  0.00     0.187 HD
BRANCH  27  33
HETATM   33  C9  UNL     1      -9.728 -21.122  42.830  1.00  0.00     0.044 C 
HETATM   34  C10 UNL     1      -8.587 -21.360  43.405  1.00  0.00    -0.031 C 
BRANCH  34  35
HETATM   35  C11 UNL     1      -7.408 -21.863  42.674  1.00  0.00     0.200 C 
BRANCH  35  36
HETATM   36  O3  UNL     1      -7.394 -23.273  42.664  1.00  0.00    -0.397 OA
ATOM     37  H3  UNL     1      -7.728 -23.605  41.839  1.00  0.00     0.209 HD
ENDBRANCH  35  36
ENDBRANCH  34  35
BRANCH  34  38
HETATM   38  C12 UNL     1      -8.449 -21.117  44.902  1.00  0.00     0.200 C 
BRANCH  38  39
HETATM   39  O4  UNL     1      -7.575 -22.063  45.392  1.00  0.00    -0.397 OA
ATOM     40  H4  UNL     1      -7.997 -22.480  46.133  1.00  0.00     0.209 HD
ENDBRANCH  38  39
ENDBRANCH  34  38
ENDBRANCH  27  33
ENDBRANCH  21  23
ENDBRANCH   5  21
TORSDOF 11
ENDMDL
MODEL 5
REMARK VINA RESULT: -6.754233556      0.990      1.169
REMARK  11 active torsions:
REMARK  status: ('A' for Active; 'I' for Inactive)
REMARK    1  A    between atoms: C3_3  and  O1_4 
REMARK    2  A    between atoms: C4_6  and  C5_7 
REMARK       I    between atoms: C5_7  and  N1_9 
REMARK    3  A    between atoms: N1_9  and  N2_11 
REMARK    4  A    between atoms: C6_14  and  N3_15 
REMARK    5  A    between atoms: N3_15  and  C7_17 
REMARK    6  A    between atoms: C8_22  and  C9_23 
REMARK    7  A    between atoms: C10_24  and  C11_25 
REMARK    8  A    between atoms: C10_24  and  C12_28 
REMARK    9  A    between atoms: C11_25  and  O3_26 
REMARK   10  A    between atoms: C12_28  and  O4_29 
REMARK   11  A    between atoms: N8_38  and  O6_39 
ROOT
HETATM    1  C1  UNL     1     -14.999 -18.695  38.324  1.00  0.00     0.017 C 
HETATM    2  C2  UNL     1     -14.409 -19.134  37.369  1.00  0.00    -0.053 C 
HETATM    3  C3  UNL     1     -13.667 -19.651  36.178  1.00  0.00     0.243 C 
HETATM    4  C4  UNL     1     -12.211 -19.701  36.534  1.00  0.00     0.218 C 
HETATM    5  C6  UNL     1     -11.893 -20.989  37.163  1.00  0.00     0.117 C 
HETATM    6  N7  UNL     1     -12.606 -22.040  36.997  1.00  0.00    -0.339 N 
ATOM      7  H7  UNL     1     -12.319 -22.897  37.470  1.00  0.00     0.168 HD
HETATM    8  C14 UNL     1     -13.793 -22.082  36.178  1.00  0.00     0.213 C 
HETATM    9  N8  UNL     1     -14.287 -20.837  35.751  1.00  0.00    -0.207 N 
ENDROOT
BRANCH   3  10
HETATM   10  O1  UNL     1     -13.836 -18.711  35.122  1.00  0.00    -0.358 OA
ATOM     11  H1  UNL     1     -13.089 -18.793  34.540  1.00  0.00     0.213 HD
ENDBRANCH   3  10
BRANCH   4  12
HETATM   12  C5  UNL     1     -11.302 -19.355  35.412  1.00  0.00     0.253 C 
HETATM   13  O2  UNL     1     -11.254 -20.178  34.433  1.00  0.00    -0.271 OA
HETATM   14  N1  UNL     1     -10.499 -18.225  35.321  1.00  0.00    -0.276 N 
ATOM     15  H1  UNL     1     -10.497 -17.537  36.074  1.00  0.00     0.189 HD
BRANCH  14  16
HETATM   16  N2  UNL     1      -9.687 -18.033  34.189  1.00  0.00    -0.343 N 
ATOM     17  H22 UNL     1      -9.974 -17.356  33.483  1.00  0.00     0.176 HD
ATOM     18  H21 UNL     1      -8.826 -18.568  34.086  1.00  0.00     0.176 HD
ENDBRANCH  14  16
ENDBRANCH   4  12
BRANCH   9  19
HETATM   19  O6  UNL     1     -14.638 -20.844  34.473  1.00  0.00    -0.283 OA
ATOM     20  H6  UNL     1     -15.106 -21.623  34.198  1.00  0.00     0.245 HD
ENDBRANCH   9  19
BRANCH   5  21
HETATM   21  N3  UNL     1     -10.727 -21.055  37.979  1.00  0.00    -0.178 N 
ATOM     22  H3  UNL     1      -9.983 -20.380  37.801  1.00  0.00     0.185 HD
BRANCH  21  23
HETATM   23  C7  UNL     1     -10.529 -21.997  39.024  1.00  0.00     0.701 A 
HETATM   24  N4  UNL     1     -11.590 -22.512  39.704  1.00  0.00    -0.131 N 
HETATM   25  N5  UNL     1     -11.431 -23.378  40.681  1.00  0.00    -0.281 N 
ATOM     26  H4  UNL     1     -12.533 -22.217  39.450  1.00  0.00     0.205 HD
HETATM   27  C8  UNL     1     -10.256 -23.844  41.113  1.00  0.00     0.117 A 
ATOM     28  H5  UNL     1     -12.271 -23.722  41.145  1.00  0.00     0.187 HD
HETATM   29  C13 UNL     1      -9.155 -23.312  40.411  1.00  0.00     0.287 A 
HETATM   30  O5  UNL     1      -8.010 -23.707  40.764  1.00  0.00    -0.265 OA
HETATM   31  N6  UNL     1      -9.317 -22.429  39.414  1.00  0.00    -0.153 N 
ATOM     32  H6  UNL     1      -8.491 -22.072  38.934  1.00  0.00     0.187 HD
BRANCH  27  33
HETATM   33  C9  UNL     1     -10.052 -24.785  42.184  1.00  0.00     0.044 C 
HETATM   34  C10 UNL     1     -10.284 -26.062  42.108  1.00  0.00    -0.031 C 
BRANCH  34  35
HETATM   35  C11 UNL     1     -10.796 -26.714  40.887  1.00  0.00     0.200 C 
BRANCH  35  36
HETATM   36  O3  UNL     1      -9.734 -27.068  40.030  1.00  0.00    -0.397 OA
ATOM     37  H3  UNL     1      -9.889 -26.739  39.153  1.00  0.00     0.209 HD
ENDBRANCH  35  36
ENDBRANCH  34  35
BRANCH  34  38
HETATM   38  C12 UNL     1     -10.021 -26.935  43.328  1.00  0.00     0.200 C 
BRANCH  38  39
HETATM   39  O4  UNL     1      -9.671 -28.186  42.868  1.00  0.00    -0.397 OA
ATOM     40  H4  UNL     1      -8.938 -28.484  43.392  1.00  0.00     0.209 HD
ENDBRANCH  38  39
ENDBRANCH  34  38
ENDBRANCH  27  33
ENDBRANCH  21  23
ENDBRANCH   5  21
TORSDOF 11
ENDMDL
