MODEL 1
REMARK VINA RESULT: -6.634409239      0.000      0.000
REMARK  14 active torsions:
REMARK  status: ('A' for Active; 'I' for Inactive)
REMARK    1  A    between atoms: C2_2  and  O1_3 
REMARK    2  A    between atoms: C3_6  and  N1_7 
REMARK    3  A    between atoms: C5_11  and  N3_12 
REMARK       I    between atoms: N3_12  and  C6_14 
REMARK    4  A    between atoms: C6_14  and  C7_16 
REMARK    5  A    between atoms: C7_16  and  N4_17 
REMARK    6  A    between atoms: C7_16  and  C8_21 
REMARK    7  A    between atoms: C8_21  and  C9_22 
REMARK    8  A    between atoms: C9_22  and  C10_23 
REMARK    9  A    between atoms: C10_23  and  N5_24 
REMARK   10  A    between atoms: C11_31  and  O5_32 
REMARK   11  A    between atoms: C11_31  and  C12_34 
REMARK   12  A    between atoms: C12_34  and  N9_40 
REMARK   13  A    between atoms: N7_35  and  N8_37 
REMARK   14  A    between atoms: N9_40  and  N10_42 
ROOT
HETATM    1  N1  UNL     1     -14.506 -19.250  36.097  1.00  0.00    -0.220 N 
HETATM    2  C4  UNL     1     -14.444 -18.285  37.032  1.00  0.00     0.223 A 
HETATM    3  N2  UNL     1     -15.511 -17.466  36.898  1.00  0.00    -0.185 N 
ATOM      4  H2  UNL     1     -15.722 -16.649  37.471  1.00  0.00     0.185 HD
HETATM    5  C5  UNL     1     -16.243 -17.926  35.869  1.00  0.00     0.700 A 
HETATM    6  N6  UNL     1     -15.606 -19.006  35.407  1.00  0.00    -0.125 N 
ATOM      7  H6  UNL     1     -15.929 -19.571  34.621  1.00  0.00     0.206 HD
ENDROOT
BRANCH   1   8
HETATM    8  C3  UNL     1     -13.532 -20.304  35.938  1.00  0.00     0.400 C 
HETATM    9  O2  UNL     1     -12.572 -19.997  34.977  1.00  0.00    -0.300 OA
HETATM   10  C2  UNL     1     -11.335 -20.390  35.507  1.00  0.00     0.228 C 
HETATM   11  C1  UNL     1     -10.632 -19.168  35.967  1.00  0.00     0.085 C 
HETATM   12  C11 UNL     1     -11.772 -21.338  36.589  1.00  0.00     0.287 C 
HETATM   13  O4  UNL     1     -12.855 -20.586  37.124  1.00  0.00    -0.294 OA
BRANCH  10  14
HETATM   14  O1  UNL     1     -10.588 -21.060  34.563  1.00  0.00    -0.361 OA
ATOM     15  H1  UNL     1     -10.150 -21.810  34.948  1.00  0.00     0.213 HD
ENDBRANCH  10  14
BRANCH  12  16
HETATM   16  O5  UNL     1     -12.319 -22.449  35.994  1.00  0.00    -0.355 OA
ATOM     17  H5  UNL     1     -12.277 -23.169  36.612  1.00  0.00     0.213 HD
ENDBRANCH  12  16
BRANCH  12  18
HETATM   18  C12 UNL     1     -10.766 -21.642  37.585  1.00  0.00     0.179 C 
HETATM   19  N7  UNL     1      -9.811 -22.476  37.400  1.00  0.00    -0.290 N 
ATOM     20  H7  UNL     1      -9.135 -22.642  38.145  1.00  0.00     0.188 HD
BRANCH  19  21
HETATM   21  N8  UNL     1      -9.685 -23.153  36.202  1.00  0.00    -0.344 N 
ATOM     22  H82 UNL     1     -10.523 -23.321  35.647  1.00  0.00     0.176 HD
ATOM     23  H81 UNL     1      -8.774 -23.479  35.880  1.00  0.00     0.176 HD
ENDBRANCH  19  21
BRANCH  18  24
HETATM   24  N9  UNL     1     -10.748 -21.023  38.877  1.00  0.00    -0.290 N 
ATOM     25  H9  UNL     1     -11.626 -20.838  39.362  1.00  0.00     0.188 HD
BRANCH  24  26
HETATM   26  N10 UNL     1      -9.546 -20.672  39.474  1.00  0.00    -0.344 N 
ATOM     27 2H10 UNL     1      -9.251 -19.696  39.444  1.00  0.00     0.176 HD
ATOM     28 1H10 UNL     1      -8.970 -21.377  39.933  1.00  0.00     0.176 HD
ENDBRANCH  24  26
ENDBRANCH  18  24
ENDBRANCH  12  18
ENDBRANCH   1   8
BRANCH   5  29
HETATM   29  N3  UNL     1     -17.356 -17.380  35.448  1.00  0.00    -0.156 N 
HETATM   30  C6  UNL     1     -18.350 -18.179  34.790  1.00  0.00     0.266 C 
HETATM   31  O3  UNL     1     -18.736 -19.245  35.318  1.00  0.00    -0.270 OA
ATOM     32  H3  UNL     1     -17.517 -16.382  35.588  1.00  0.00     0.187 HD
BRANCH  30  33
HETATM   33  C7  UNL     1     -18.861 -17.694  33.505  1.00  0.00     0.275 C 
BRANCH  33  34
HETATM   34  N4  UNL     1     -17.918 -18.293  32.504  1.00  0.00    -0.066 N 
ATOM     35  H43 UNL     1     -17.215 -17.646  32.145  1.00  0.00     0.275 HD
ATOM     36  H42 UNL     1     -17.256 -18.963  32.896  1.00  0.00     0.275 HD
ATOM     37  H41 UNL     1     -18.539 -18.679  31.793  1.00  0.00     0.275 HD
ENDBRANCH  33  34
BRANCH  33  38
HETATM   38  C8  UNL     1     -20.227 -18.111  33.159  1.00  0.00     0.044 C 
BRANCH  38  39
HETATM   39  C9  UNL     1     -20.551 -18.492  31.780  1.00  0.00     0.030 C 
BRANCH  39  40
HETATM   40  C10 UNL     1     -21.846 -19.111  31.453  1.00  0.00     0.230 C 
BRANCH  40  41
HETATM   41  N5  UNL     1     -22.860 -18.024  31.502  1.00  0.00    -0.079 N 
ATOM     42  H53 UNL     1     -23.363 -17.982  32.389  1.00  0.00     0.274 HD
ATOM     43  H52 UNL     1     -22.450 -17.092  31.542  1.00  0.00     0.274 HD
ATOM     44  H51 UNL     1     -23.472 -18.162  30.698  1.00  0.00     0.274 HD
ENDBRANCH  40  41
ENDBRANCH  39  40
ENDBRANCH  38  39
ENDBRANCH  33  38
ENDBRANCH  30  33
ENDBRANCH   5  29
TORSDOF 14
ENDMDL
MODEL 2
REMARK VINA RESULT: -6.426806245      2.462      8.520
REMARK  14 active torsions:
REMARK  status: ('A' for Active; 'I' for Inactive)
REMARK    1  A    between atoms: C2_2  and  O1_3 
REMARK    2  A    between atoms: C3_6  and  N1_7 
REMARK    3  A    between atoms: C5_11  and  N3_12 
REMARK       I    between atoms: N3_12  and  C6_14 
REMARK    4  A    between atoms: C6_14  and  C7_16 
REMARK    5  A    between atoms: C7_16  and  N4_17 
REMARK    6  A    between atoms: C7_16  and  C8_21 
REMARK    7  A    between atoms: C8_21  and  C9_22 
REMARK    8  A    between atoms: C9_22  and  C10_23 
REMARK    9  A    between atoms: C10_23  and  N5_24 
REMARK   10  A    between atoms: C11_31  and  O5_32 
REMARK   11  A    between atoms: C11_31  and  C12_34 
REMARK   12  A    between atoms: C12_34  and  N9_40 
REMARK   13  A    between atoms: N7_35  and  N8_37 
REMARK   14  A    between atoms: N9_40  and  N10_42 
ROOT
HETATM    1  N1  UNL     1     -16.114 -21.195  34.947  1.00  0.00    -0.220 N 
HETATM    2  C4  UNL     1     -16.549 -21.714  36.110  1.00  0.00     0.223 A 
HETATM    3  N2  UNL     1     -15.490 -22.151  36.827  1.00  0.00    -0.185 N 
ATOM      4  H2  UNL     1     -15.523 -22.589  37.748  1.00  0.00     0.185 HD
HETATM    5  C5  UNL     1     -14.385 -21.901  36.104  1.00  0.00     0.700 A 
HETATM    6  N6  UNL     1     -14.799 -21.323  34.972  1.00  0.00    -0.125 N 
ATOM      7  H6  UNL     1     -14.178 -21.019  34.222  1.00  0.00     0.206 HD
ENDROOT
BRANCH   1   8
HETATM    8  C3  UNL     1     -16.968 -20.633  33.928  1.00  0.00     0.400 C 
HETATM    9  O2  UNL     1     -18.275 -21.104  34.012  1.00  0.00    -0.300 OA
HETATM   10  C2  UNL     1     -19.113 -19.998  33.819  1.00  0.00     0.228 C 
HETATM   11  C1  UNL     1     -19.640 -19.594  35.146  1.00  0.00     0.085 C 
HETATM   12  C11 UNL     1     -18.167 -19.028  33.169  1.00  0.00     0.287 C 
HETATM   13  O4  UNL     1     -17.025 -19.241  33.991  1.00  0.00    -0.294 OA
BRANCH  10  14
HETATM   14  O1  UNL     1     -20.142 -20.307  32.957  1.00  0.00    -0.361 OA
ATOM     15  H1  UNL     1     -19.941 -20.019  32.073  1.00  0.00     0.213 HD
ENDBRANCH  10  14
BRANCH  12  16
HETATM   16  O5  UNL     1     -17.849 -19.506  31.921  1.00  0.00    -0.355 OA
ATOM     17  H5  UNL     1     -18.621 -19.438  31.371  1.00  0.00     0.213 HD
ENDBRANCH  12  16
BRANCH  12  18
HETATM   18  C12 UNL     1     -18.601 -17.646  33.175  1.00  0.00     0.179 C 
HETATM   19  N7  UNL     1     -19.473 -17.171  32.365  1.00  0.00    -0.290 N 
ATOM     20  H7  UNL     1     -19.733 -16.187  32.425  1.00  0.00     0.188 HD
BRANCH  19  21
HETATM   21  N8  UNL     1     -20.065 -17.976  31.411  1.00  0.00    -0.344 N 
ATOM     22  H82 UNL     1     -20.344 -18.920  31.675  1.00  0.00     0.176 HD
ATOM     23  H81 UNL     1     -20.221 -17.634  30.463  1.00  0.00     0.176 HD
ENDBRANCH  19  21
BRANCH  18  24
HETATM   24  N9  UNL     1     -18.091 -16.681  34.103  1.00  0.00    -0.290 N 
ATOM     25  H9  UNL     1     -17.750 -16.987  35.015  1.00  0.00     0.188 HD
BRANCH  24  26
HETATM   26  N10 UNL     1     -18.057 -15.335  33.773  1.00  0.00    -0.344 N 
ATOM     27 2H10 UNL     1     -18.472 -14.662  34.417  1.00  0.00     0.176 HD
ATOM     28 1H10 UNL     1     -17.624 -15.025  32.903  1.00  0.00     0.176 HD
ENDBRANCH  24  26
ENDBRANCH  18  24
ENDBRANCH  12  18
ENDBRANCH   1   8
BRANCH   5  29
HETATM   29  N3  UNL     1     -13.167 -22.191  36.486  1.00  0.00    -0.156 N 
HETATM   30  C6  UNL     1     -12.417 -21.259  37.277  1.00  0.00     0.266 C 
HETATM   31  O3  UNL     1     -12.931 -20.767  38.306  1.00  0.00    -0.270 OA
ATOM     32  H3  UNL     1     -12.750 -23.083  36.220  1.00  0.00     0.187 HD
BRANCH  30  33
HETATM   33  C7  UNL     1     -11.065 -20.924  36.822  1.00  0.00     0.275 C 
BRANCH  33  34
HETATM   34  N4  UNL     1     -10.451 -22.262  36.534  1.00  0.00    -0.066 N 
ATOM     35  H43 UNL     1     -10.509 -22.928  37.304  1.00  0.00     0.275 HD
ATOM     36  H42 UNL     1     -10.968 -22.829  35.862  1.00  0.00     0.275 HD
ATOM     37  H41 UNL     1      -9.500 -22.030  36.248  1.00  0.00     0.275 HD
ENDBRANCH  33  34
BRANCH  33  38
HETATM   38  C8  UNL     1     -10.983 -20.107  35.603  1.00  0.00     0.044 C 
BRANCH  38  39
HETATM   39  C9  UNL     1     -11.450 -18.716  35.618  1.00  0.00     0.030 C 
BRANCH  39  40
HETATM   40  C10 UNL     1     -10.718 -17.666  34.891  1.00  0.00     0.230 C 
BRANCH  40  41
HETATM   41  N5  UNL     1      -9.521 -18.319  34.296  1.00  0.00    -0.079 N 
ATOM     42  H53 UNL     1      -9.669 -19.304  34.071  1.00  0.00     0.274 HD
ATOM     43  H52 UNL     1      -9.318 -18.001  33.349  1.00  0.00     0.274 HD
ATOM     44  H51 UNL     1      -8.753 -18.165  34.947  1.00  0.00     0.274 HD
ENDBRANCH  40  41
ENDBRANCH  39  40
ENDBRANCH  38  39
ENDBRANCH  33  38
ENDBRANCH  30  33
ENDBRANCH   5  29
TORSDOF 14
ENDMDL
MODEL 3
REMARK VINA RESULT: -6.418752443      1.608      1.777
REMARK  14 active torsions:
REMARK  status: ('A' for Active; 'I' for Inactive)
REMARK    1  A    between atoms: C2_2  and  O1_3 
REMARK    2  A    between atoms: C3_6  and  N1_7 
REMARK    3  A    between atoms: C5_11  and  N3_12 
REMARK       I    between atoms: N3_12  and  C6_14 
REMARK    4  A    between atoms: C6_14  and  C7_16 
REMARK    5  A    between atoms: C7_16  and  N4_17 
REMARK    6  A    between atoms: C7_16  and  C8_21 
REMARK    7  A    between atoms: C8_21  and  C9_22 
REMARK    8  A    between atoms: C9_22  and  C10_23 
REMARK    9  A    between atoms: C10_23  and  N5_24 
REMARK   10  A    between atoms: C11_31  and  O5_32 
REMARK   11  A    between atoms: C11_31  and  C12_34 
REMARK   12  A    between atoms: C12_34  and  N9_40 
REMARK   13  A    between atoms: N7_35  and  N8_37 
REMARK   14  A    between atoms: N9_40  and  N10_42 
ROOT
HETATM    1  N1  UNL     1     -15.066 -19.709  36.134  1.00  0.00    -0.220 N 
HETATM    2  C4  UNL     1     -16.100 -19.945  36.962  1.00  0.00     0.223 A 
HETATM    3  N2  UNL     1     -16.951 -18.895  36.923  1.00  0.00    -0.185 N 
ATOM      4  H2  UNL     1     -17.820 -18.801  37.450  1.00  0.00     0.185 HD
HETATM    5  C5  UNL     1     -16.441 -17.997  36.063  1.00  0.00     0.700 A 
HETATM    6  N6  UNL     1     -15.300 -18.521  35.604  1.00  0.00    -0.125 N 
ATOM      7  H6  UNL     1     -14.688 -18.062  34.930  1.00  0.00     0.206 HD
ENDROOT
BRANCH   1   8
HETATM    8  C3  UNL     1     -13.962 -20.614  35.920  1.00  0.00     0.400 C 
HETATM    9  O2  UNL     1     -13.057 -20.131  34.979  1.00  0.00    -0.300 OA
HETATM   10  C2  UNL     1     -11.776 -20.384  35.489  1.00  0.00     0.228 C 
HETATM   11  C1  UNL     1     -11.239 -19.106  36.015  1.00  0.00     0.085 C 
HETATM   12  C11 UNL     1     -12.077 -21.439  36.516  1.00  0.00     0.287 C 
HETATM   13  O4  UNL     1     -13.247 -20.868  37.089  1.00  0.00    -0.294 OA
BRANCH  10  14
HETATM   14  O1  UNL     1     -10.952 -20.897  34.511  1.00  0.00    -0.361 OA
ATOM     15  H1  UNL     1     -11.160 -21.808  34.336  1.00  0.00     0.213 HD
ENDBRANCH  10  14
BRANCH  12  16
HETATM   16  O5  UNL     1     -12.475 -22.579  35.861  1.00  0.00    -0.355 OA
ATOM     17  H5  UNL     1     -13.343 -22.812  36.168  1.00  0.00     0.213 HD
ENDBRANCH  12  16
BRANCH  12  18
HETATM   18  C12 UNL     1     -11.034 -21.660  37.496  1.00  0.00     0.179 C 
HETATM   19  N7  UNL     1      -9.995 -22.378  37.279  1.00  0.00    -0.290 N 
ATOM     20  H7  UNL     1      -9.298 -22.491  38.015  1.00  0.00     0.188 HD
BRANCH  19  21
HETATM   21  N8  UNL     1      -9.807 -23.001  36.061  1.00  0.00    -0.344 N 
ATOM     22  H82 UNL     1     -10.621 -23.375  35.574  1.00  0.00     0.176 HD
ATOM     23  H81 UNL     1      -8.875 -23.086  35.656  1.00  0.00     0.176 HD
ENDBRANCH  19  21
BRANCH  18  24
HETATM   24  N9  UNL     1     -11.071 -21.082  38.806  1.00  0.00    -0.290 N 
ATOM     25  H9  UNL     1     -11.970 -20.917  39.262  1.00  0.00     0.188 HD
BRANCH  24  26
HETATM   26  N10 UNL     1      -9.897 -20.743  39.462  1.00  0.00    -0.344 N 
ATOM     27 2H10 UNL     1      -9.651 -19.757  39.548  1.00  0.00     0.176 HD
ATOM     28 1H10 UNL     1      -9.292 -21.467  39.849  1.00  0.00     0.176 HD
ENDBRANCH  24  26
ENDBRANCH  18  24
ENDBRANCH  12  18
ENDBRANCH   1   8
BRANCH   5  29
HETATM   29  N3  UNL     1     -16.999 -16.849  35.772  1.00  0.00    -0.156 N 
HETATM   30  C6  UNL     1     -18.415 -16.674  35.922  1.00  0.00     0.266 C 
HETATM   31  O3  UNL     1     -18.966 -16.997  36.998  1.00  0.00    -0.270 OA
ATOM     32  H3  UNL     1     -16.424 -16.076  35.436  1.00  0.00     0.187 HD
BRANCH  30  33
HETATM   33  C7  UNL     1     -19.150 -16.124  34.781  1.00  0.00     0.275 C 
BRANCH  33  34
HETATM   34  N4  UNL     1     -18.066 -15.608  33.882  1.00  0.00    -0.066 N 
ATOM     35  H43 UNL     1     -17.922 -16.157  33.035  1.00  0.00     0.275 HD
ATOM     36  H42 UNL     1     -18.293 -14.734  33.406  1.00  0.00     0.275 HD
ATOM     37  H41 UNL     1     -17.253 -15.556  34.495  1.00  0.00     0.275 HD
ENDBRANCH  33  34
BRANCH  33  38
HETATM   38  C8  UNL     1     -19.964 -17.082  34.020  1.00  0.00     0.044 C 
BRANCH  38  39
HETATM   39  C9  UNL     1     -19.462 -17.628  32.754  1.00  0.00     0.030 C 
BRANCH  39  40
HETATM   40  C10 UNL     1     -18.851 -18.966  32.698  1.00  0.00     0.230 C 
BRANCH  40  41
HETATM   41  N5  UNL     1     -17.378 -18.759  32.674  1.00  0.00    -0.079 N 
ATOM     42  H53 UNL     1     -17.079 -17.929  33.187  1.00  0.00     0.274 HD
ATOM     43  H52 UNL     1     -16.866 -19.443  33.229  1.00  0.00     0.274 HD
ATOM     44  H51 UNL     1     -17.103 -18.747  31.693  1.00  0.00     0.274 HD
ENDBRANCH  40  41
ENDBRANCH  39  40
ENDBRANCH  38  39
ENDBRANCH  33  38
ENDBRANCH  30  33
ENDBRANCH   5  29
TORSDOF 14
ENDMDL
MODEL 4
REMARK VINA RESULT: -6.360730451      1.331      1.970
REMARK  14 active torsions:
REMARK  status: ('A' for Active; 'I' for Inactive)
REMARK    1  A    between atoms: C2_2  and  O1_3 
REMARK    2  A    between atoms: C3_6  and  N1_7 
REMARK    3  A    between atoms: C5_11  and  N3_12 
REMARK       I    between atoms: N3_12  and  C6_14 
REMARK    4  A    between atoms: C6_14  and  C7_16 
REMARK    5  A    between atoms: C7_16  and  N4_17 
REMARK    6  A    between atoms: C7_16  and  C8_21 
REMARK    7  A    between atoms: C8_21  and  C9_22 
REMARK    8  A    between atoms: C9_22  and  C10_23 
REMARK    9  A    between atoms: C10_23  and  N5_24 
REMARK   10  A    between atoms: C11_31  and  O5_32 
REMARK   11  A    between atoms: C11_31  and  C12_34 
REMARK   12  A    between atoms: C12_34  and  N9_40 
REMARK   13  A    between atoms: N7_35  and  N8_37 
REMARK   14  A    between atoms: N9_40  and  N10_42 
ROOT
HETATM    1  N1  UNL     1     -14.508 -19.145  36.163  1.00  0.00    -0.220 N 
HETATM    2  C4  UNL     1     -14.400 -18.185  37.099  1.00  0.00     0.223 A 
HETATM    3  N2  UNL     1     -15.457 -17.348  37.003  1.00  0.00    -0.185 N 
ATOM      4  H2  UNL     1     -15.636 -16.530  37.586  1.00  0.00     0.185 HD
HETATM    5  C5  UNL     1     -16.230 -17.792  35.997  1.00  0.00     0.700 A 
HETATM    6  N6  UNL     1     -15.626 -18.880  35.510  1.00  0.00    -0.125 N 
ATOM      7  H6  UNL     1     -15.983 -19.437  34.733  1.00  0.00     0.206 HD
ENDROOT
BRANCH   1   8
HETATM    8  C3  UNL     1     -13.557 -20.214  35.969  1.00  0.00     0.400 C 
HETATM    9  O2  UNL     1     -12.601 -19.903  35.006  1.00  0.00    -0.300 OA
HETATM   10  C2  UNL     1     -11.367 -20.334  35.513  1.00  0.00     0.228 C 
HETATM   11  C1  UNL     1     -10.635 -19.137  35.994  1.00  0.00     0.085 C 
HETATM   12  C11 UNL     1     -11.812 -21.298  36.577  1.00  0.00     0.287 C 
HETATM   13  O4  UNL     1     -12.874 -20.538  37.141  1.00  0.00    -0.294 OA
BRANCH  10  14
HETATM   14  O1  UNL     1     -10.643 -20.996  34.545  1.00  0.00    -0.361 OA
ATOM     15  H1  UNL     1     -11.221 -21.426  33.926  1.00  0.00     0.213 HD
ENDBRANCH  10  14
BRANCH  12  16
HETATM   16  O5  UNL     1     -12.387 -22.383  35.961  1.00  0.00    -0.355 OA
ATOM     17  H5  UNL     1     -12.629 -23.012  36.631  1.00  0.00     0.213 HD
ENDBRANCH  12  16
BRANCH  12  18
HETATM   18  C12 UNL     1     -10.802 -21.646  37.555  1.00  0.00     0.179 C 
HETATM   19  N7  UNL     1      -9.861 -22.488  37.336  1.00  0.00    -0.290 N 
ATOM     20  H7  UNL     1      -9.181 -22.686  38.071  1.00  0.00     0.188 HD
BRANCH  19  21
HETATM   21  N8  UNL     1      -9.754 -23.130  36.119  1.00  0.00    -0.344 N 
ATOM     22  H82 UNL     1     -10.355 -23.935  35.938  1.00  0.00     0.176 HD
ATOM     23  H81 UNL     1      -9.090 -22.810  35.414  1.00  0.00     0.176 HD
ENDBRANCH  19  21
BRANCH  18  24
HETATM   24  N9  UNL     1     -10.764 -21.066  38.864  1.00  0.00    -0.290 N 
ATOM     25  H9  UNL     1     -11.633 -20.923  39.379  1.00  0.00     0.188 HD
BRANCH  24  26
HETATM   26  N10 UNL     1      -9.557 -20.697  39.437  1.00  0.00    -0.344 N 
ATOM     27 2H10 UNL     1      -8.893 -20.161  38.879  1.00  0.00     0.176 HD
ATOM     28 1H10 UNL     1      -9.338 -20.957  40.399  1.00  0.00     0.176 HD
ENDBRANCH  24  26
ENDBRANCH  18  24
ENDBRANCH  12  18
ENDBRANCH   1   8
BRANCH   5  29
HETATM   29  N3  UNL     1     -17.346 -17.226  35.614  1.00  0.00    -0.156 N 
HETATM   30  C6  UNL     1     -18.210 -17.889  34.679  1.00  0.00     0.266 C 
HETATM   31  O3  UNL     1     -18.546 -19.076  34.882  1.00  0.00    -0.270 OA
ATOM     32  H3  UNL     1     -17.604 -16.310  35.981  1.00  0.00     0.187 HD
BRANCH  30  33
HETATM   33  C7  UNL     1     -18.652 -17.123  33.511  1.00  0.00     0.275 C 
BRANCH  33  34
HETATM   34  N4  UNL     1     -18.920 -18.180  32.480  1.00  0.00    -0.066 N 
ATOM     35  H43 UNL     1     -19.154 -19.095  32.864  1.00  0.00     0.275 HD
ATOM     36  H42 UNL     1     -19.790 -18.055  31.963  1.00  0.00     0.275 HD
ATOM     37  H41 UNL     1     -18.080 -18.167  31.902  1.00  0.00     0.275 HD
ENDBRANCH  33  34
BRANCH  33  38
HETATM   38  C8  UNL     1     -19.877 -16.331  33.689  1.00  0.00     0.044 C 
BRANCH  38  39
HETATM   39  C9  UNL     1     -19.832 -14.870  33.567  1.00  0.00     0.030 C 
BRANCH  39  40
HETATM   40  C10 UNL     1     -18.566 -14.138  33.733  1.00  0.00     0.230 C 
BRANCH  40  41
HETATM   41  N5  UNL     1     -18.150 -13.696  32.375  1.00  0.00    -0.079 N 
ATOM     42  H53 UNL     1     -18.565 -14.251  31.626  1.00  0.00     0.274 HD
ATOM     43  H52 UNL     1     -18.548 -12.797  32.104  1.00  0.00     0.274 HD
ATOM     44  H51 UNL     1     -17.131 -13.705  32.366  1.00  0.00     0.274 HD
ENDBRANCH  40  41
ENDBRANCH  39  40
ENDBRANCH  38  39
ENDBRANCH  33  38
ENDBRANCH  30  33
ENDBRANCH   5  29
TORSDOF 14
ENDMDL
MODEL 5
REMARK VINA RESULT: -6.332596748      1.510      2.145
REMARK  14 active torsions:
REMARK  status: ('A' for Active; 'I' for Inactive)
REMARK    1  A    between atoms: C2_2  and  O1_3 
REMARK    2  A    between atoms: C3_6  and  N1_7 
REMARK    3  A    between atoms: C5_11  and  N3_12 
REMARK       I    between atoms: N3_12  and  C6_14 
REMARK    4  A    between atoms: C6_14  and  C7_16 
REMARK    5  A    between atoms: C7_16  and  N4_17 
REMARK    6  A    between atoms: C7_16  and  C8_21 
REMARK    7  A    between atoms: C8_21  and  C9_22 
REMARK    8  A    between atoms: C9_22  and  C10_23 
REMARK    9  A    between atoms: C10_23  and  N5_24 
REMARK   10  A    between atoms: C11_31  and  O5_32 
REMARK   11  A    between atoms: C11_31  and  C12_34 
REMARK   12  A    between atoms: C12_34  and  N9_40 
REMARK   13  A    between atoms: N7_35  and  N8_37 
REMARK   14  A    between atoms: N9_40  and  N10_42 
ROOT
HETATM    1  N1  UNL     1     -14.876 -18.338  36.786  1.00  0.00    -0.220 N 
HETATM    2  C4  UNL     1     -15.067 -17.187  37.455  1.00  0.00     0.223 A 
HETATM    3  N2  UNL     1     -16.144 -16.549  36.947  1.00  0.00    -0.185 N 
ATOM      4  H2  UNL     1     -16.521 -15.654  37.261  1.00  0.00     0.185 HD
HETATM    5  C5  UNL     1     -16.629 -17.310  35.951  1.00  0.00     0.700 A 
HETATM    6  N6  UNL     1     -15.837 -18.385  35.880  1.00  0.00    -0.125 N 
ATOM      7  H6  UNL     1     -15.960 -19.145  35.211  1.00  0.00     0.206 HD
ENDROOT
BRANCH   1   8
HETATM    8  C3  UNL     1     -13.815 -19.279  37.055  1.00  0.00     0.400 C 
HETATM    9  O2  UNL     1     -14.239 -20.600  36.942  1.00  0.00    -0.300 OA
HETATM   10  C2  UNL     1     -13.228 -21.287  36.256  1.00  0.00     0.228 C 
HETATM   11  C1  UNL     1     -13.683 -21.482  34.857  1.00  0.00     0.085 C 
HETATM   12  C11 UNL     1     -12.066 -20.352  36.440  1.00  0.00     0.287 C 
HETATM   13  O4  UNL     1     -12.729 -19.118  36.196  1.00  0.00    -0.294 OA
BRANCH  10  14
HETATM   14  O1  UNL     1     -12.963 -22.498  36.858  1.00  0.00    -0.361 OA
ATOM     15  H1  UNL     1     -13.105 -23.216  36.252  1.00  0.00     0.213 HD
ENDBRANCH  10  14
BRANCH  12  16
HETATM   16  O5  UNL     1     -11.716 -20.356  37.769  1.00  0.00    -0.355 OA
ATOM     17  H5  UNL     1     -11.506 -19.466  38.024  1.00  0.00     0.213 HD
ENDBRANCH  12  16
BRANCH  12  18
HETATM   18  C12 UNL     1     -10.952 -20.569  35.540  1.00  0.00     0.179 C 
HETATM   19  N7  UNL     1     -10.104 -21.520  35.674  1.00  0.00    -0.290 N 
ATOM     20  H7  UNL     1      -9.343 -21.614  35.001  1.00  0.00     0.188 HD
BRANCH  19  21
HETATM   21  N8  UNL     1     -10.208 -22.419  36.716  1.00  0.00    -0.344 N 
ATOM     22  H82 UNL     1     -10.989 -23.074  36.719  1.00  0.00     0.176 HD
ATOM     23  H81 UNL     1      -9.519 -22.429  37.469  1.00  0.00     0.176 HD
ENDBRANCH  19  21
BRANCH  18  24
HETATM   24  N9  UNL     1     -10.705 -19.731  34.404  1.00  0.00    -0.290 N 
ATOM     25  H9  UNL     1     -11.387 -19.690  33.647  1.00  0.00     0.188 HD
BRANCH  24  26
HETATM   26  N10 UNL     1      -9.545 -18.974  34.326  1.00  0.00    -0.344 N 
ATOM     27 2H10 UNL     1      -8.731 -19.267  34.867  1.00  0.00     0.176 HD
ATOM     28 1H10 UNL     1      -9.508 -18.141  33.738  1.00  0.00     0.176 HD
ENDBRANCH  24  26
ENDBRANCH  18  24
ENDBRANCH  12  18
ENDBRANCH   1   8
BRANCH   5  29
HETATM   29  N3  UNL     1     -17.676 -17.006  35.227  1.00  0.00    -0.156 N 
HETATM   30  C6  UNL     1     -18.520 -18.042  34.705  1.00  0.00     0.266 C 
HETATM   31  O3  UNL     1     -18.950 -18.933  35.471  1.00  0.00    -0.270 OA
ATOM     32  H3  UNL     1     -17.892 -16.028  35.032  1.00  0.00     0.187 HD
BRANCH  30  33
HETATM   33  C7  UNL     1     -18.832 -18.001  33.274  1.00  0.00     0.275 C 
BRANCH  33  34
HETATM   34  N4  UNL     1     -17.543 -18.409  32.624  1.00  0.00    -0.066 N 
ATOM     35  H43 UNL     1     -16.768 -17.764  32.778  1.00  0.00     0.275 HD
ATOM     36  H42 UNL     1     -17.092 -19.219  33.050  1.00  0.00     0.275 HD
ATOM     37  H41 UNL     1     -17.799 -18.535  31.645  1.00  0.00     0.275 HD
ENDBRANCH  33  34
BRANCH  33  38
HETATM   38  C8  UNL     1     -19.887 -18.916  32.821  1.00  0.00     0.044 C 
BRANCH  38  39
HETATM   39  C9  UNL     1     -20.691 -18.582  31.639  1.00  0.00     0.030 C 
BRANCH  39  40
HETATM   40  C10 UNL     1     -22.082 -19.047  31.517  1.00  0.00     0.230 C 
BRANCH  40  41
HETATM   41  N5  UNL     1     -22.943 -17.836  31.597  1.00  0.00    -0.079 N 
ATOM     42  H53 UNL     1     -22.438 -16.970  31.408  1.00  0.00     0.274 HD
ATOM     43  H52 UNL     1     -23.611 -17.765  30.831  1.00  0.00     0.274 HD
ATOM     44  H51 UNL     1     -23.383 -17.854  32.517  1.00  0.00     0.274 HD
ENDBRANCH  40  41
ENDBRANCH  39  40
ENDBRANCH  38  39
ENDBRANCH  33  38
ENDBRANCH  30  33
ENDBRANCH   5  29
TORSDOF 14
ENDMDL
