MODEL 1
REMARK VINA RESULT: -7.001605179      0.000      0.000
REMARK  11 active torsions:
REMARK  status: ('A' for Active; 'I' for Inactive)
REMARK       I    between atoms: C2_2  and  N1_4 
REMARK    1  A    between atoms: N1_4  and  N2_6 
REMARK    2  A    between atoms: N2_6  and  C3_8 
REMARK    3  A    between atoms: C3_8  and  C4_12 
REMARK    4  A    between atoms: C4_12  and  N4_13 
REMARK    5  A    between atoms: C4_12  and  C8_27 
REMARK       I    between atoms: N4_13  and  C5_15 
REMARK    6  A    between atoms: C5_15  and  C6_17 
REMARK    7  A    between atoms: C6_17  and  N5_18 
REMARK    8  A    between atoms: C6_17  and  C7_22 
REMARK    9  A    between atoms: C7_22  and  N6_23 
REMARK       I    between atoms: C8_27  and  N7_29 
REMARK   10  A    between atoms: N7_29  and  N8_31 
REMARK   11  A    between atoms: N8_31  and  C9_33 
ROOT
HETATM    1  C4  UNL     1      41.415 -64.702  32.337  1.00  0.00     0.247 C 
ENDROOT
BRANCH   1   2
HETATM    2  C3  UNL     1      40.567 -64.221  33.484  1.00  0.00     0.122 C 
HETATM    3  N3  UNL     1      40.100 -63.035  33.479  1.00  0.00    -0.386 N 
ATOM      4  H32 UNL     1      39.526 -62.710  34.256  1.00  0.00     0.157 HD
ATOM      5  H31 UNL     1      40.271 -62.372  32.723  1.00  0.00     0.157 HD
BRANCH   2   6
HETATM    6  N2  UNL     1      40.328 -65.147  34.541  1.00  0.00    -0.285 N 
ATOM      7  H2  UNL     1      39.383 -65.476  34.736  1.00  0.00     0.188 HD
BRANCH   6   8
HETATM    8  N1  UNL     1      41.399 -65.594  35.300  1.00  0.00    -0.269 N 
HETATM    9  C2  UNL     1      42.338 -64.707  35.854  1.00  0.00     0.232 C 
HETATM   10  C1  UNL     1      43.472 -65.214  36.651  1.00  0.00     0.119 C 
HETATM   11  O1  UNL     1      42.232 -63.465  35.678  1.00  0.00    -0.272 OA
ATOM     12  H1  UNL     1      41.508 -66.595  35.462  1.00  0.00     0.190 HD
ENDBRANCH   6   8
ENDBRANCH   2   6
ENDBRANCH   1   2
BRANCH   1  13
HETATM   13  N4  UNL     1      41.697 -66.116  32.384  1.00  0.00    -0.340 N 
HETATM   14  C5  UNL     1      41.526 -67.125  31.440  1.00  0.00     0.251 C 
HETATM   15  O2  UNL     1      41.047 -67.001  30.311  1.00  0.00    -0.271 OA
ATOM     16  H4  UNL     1      42.093 -66.434  33.268  1.00  0.00     0.163 HD
BRANCH  14  17
HETATM   17  C6  UNL     1      41.980 -68.516  31.842  1.00  0.00     0.299 C 
BRANCH  17  18
HETATM   18  N5  UNL     1      42.888 -69.063  30.869  1.00  0.00    -0.065 N 
ATOM     19  H53 UNL     1      42.455 -69.130  29.947  1.00  0.00     0.275 HD
ATOM     20  H52 UNL     1      43.636 -68.408  30.642  1.00  0.00     0.275 HD
ATOM     21  H51 UNL     1      43.255 -69.963  31.177  1.00  0.00     0.275 HD
ENDBRANCH  17  18
BRANCH  17  22
HETATM   22  C7  UNL     1      40.744 -69.359  32.015  1.00  0.00     0.272 C 
BRANCH  22  23
HETATM   23  N6  UNL     1      40.668 -70.223  30.852  1.00  0.00    -0.077 N 
ATOM     24  H63 UNL     1      41.151 -71.112  30.978  1.00  0.00     0.274 HD
ATOM     25  H62 UNL     1      39.736 -70.607  30.694  1.00  0.00     0.274 HD
ATOM     26  H61 UNL     1      41.020 -69.680  30.063  1.00  0.00     0.274 HD
ENDBRANCH  22  23
ENDBRANCH  17  22
ENDBRANCH  14  17
ENDBRANCH   1  13
BRANCH   1  27
HETATM   27  C8  UNL     1      42.661 -63.974  32.194  1.00  0.00     0.266 C 
HETATM   28  O3  UNL     1      42.764 -63.071  31.324  1.00  0.00    -0.269 OA
HETATM   29  N7  UNL     1      43.795 -64.237  33.019  1.00  0.00    -0.266 N 
ATOM     30  H7  UNL     1      43.756 -64.966  33.731  1.00  0.00     0.190 HD
BRANCH  29  31
HETATM   31  N8  UNL     1      44.974 -63.473  32.839  1.00  0.00    -0.275 N 
ATOM     32  H8  UNL     1      45.605 -63.677  32.063  1.00  0.00     0.189 HD
BRANCH  31  33
HETATM   33  C9  UNL     1      45.269 -62.428  33.742  1.00  0.00     0.368 C 
HETATM   34  O4  UNL     1      45.329 -62.650  34.964  1.00  0.00    -0.282 OA
ENDBRANCH  31  33
ENDBRANCH  29  31
ENDBRANCH   1  27
TORSDOF 11
ENDMDL
MODEL 2
REMARK VINA RESULT: -6.716277007      4.388      7.386
REMARK  11 active torsions:
REMARK  status: ('A' for Active; 'I' for Inactive)
REMARK       I    between atoms: C2_2  and  N1_4 
REMARK    1  A    between atoms: N1_4  and  N2_6 
REMARK    2  A    between atoms: N2_6  and  C3_8 
REMARK    3  A    between atoms: C3_8  and  C4_12 
REMARK    4  A    between atoms: C4_12  and  N4_13 
REMARK    5  A    between atoms: C4_12  and  C8_27 
REMARK       I    between atoms: N4_13  and  C5_15 
REMARK    6  A    between atoms: C5_15  and  C6_17 
REMARK    7  A    between atoms: C6_17  and  N5_18 
REMARK    8  A    between atoms: C6_17  and  C7_22 
REMARK    9  A    between atoms: C7_22  and  N6_23 
REMARK       I    between atoms: C8_27  and  N7_29 
REMARK   10  A    between atoms: N7_29  and  N8_31 
REMARK   11  A    between atoms: N8_31  and  C9_33 
ROOT
HETATM    1  C4  UNL     1      46.023 -61.422  35.585  1.00  0.00     0.247 C 
ENDROOT
BRANCH   1   2
HETATM    2  C3  UNL     1      46.599 -61.009  34.257  1.00  0.00     0.122 C 
HETATM    3  N3  UNL     1      46.422 -61.741  33.229  1.00  0.00    -0.386 N 
ATOM      4  H32 UNL     1      46.812 -61.461  32.329  1.00  0.00     0.157 HD
ATOM      5  H31 UNL     1      45.900 -62.617  33.252  1.00  0.00     0.157 HD
BRANCH   2   6
HETATM    6  N2  UNL     1      47.329 -59.785  34.224  1.00  0.00    -0.285 N 
ATOM      7  H2  UNL     1      48.348 -59.792  34.193  1.00  0.00     0.188 HD
BRANCH   6   8
HETATM    8  N1  UNL     1      46.634 -58.585  34.236  1.00  0.00    -0.269 N 
HETATM    9  C2  UNL     1      47.290 -57.346  34.131  1.00  0.00     0.232 C 
HETATM   10  C1  UNL     1      46.524 -56.085  34.155  1.00  0.00     0.119 C 
HETATM   11  O1  UNL     1      48.542 -57.290  34.019  1.00  0.00    -0.272 OA
ATOM     12  H1  UNL     1      45.618 -58.601  34.324  1.00  0.00     0.190 HD
ENDBRANCH   6   8
ENDBRANCH   2   6
ENDBRANCH   1   2
BRANCH   1  13
HETATM   13  N4  UNL     1      44.643 -61.838  35.509  1.00  0.00    -0.340 N 
HETATM   14  C5  UNL     1      44.050 -62.986  34.991  1.00  0.00     0.251 C 
HETATM   15  O2  UNL     1      44.627 -63.926  34.439  1.00  0.00    -0.271 OA
ATOM     16  H4  UNL     1      43.983 -61.170  35.906  1.00  0.00     0.163 HD
BRANCH  14  17
HETATM   17  C6  UNL     1      42.543 -63.092  35.125  1.00  0.00     0.299 C 
BRANCH  17  18
HETATM   18  N5  UNL     1      42.179 -64.120  36.063  1.00  0.00    -0.065 N 
ATOM     19  H53 UNL     1      41.373 -64.655  35.741  1.00  0.00     0.275 HD
ATOM     20  H52 UNL     1      42.867 -64.873  36.081  1.00  0.00     0.275 HD
ATOM     21  H51 UNL     1      42.024 -63.730  36.992  1.00  0.00     0.275 HD
ENDBRANCH  17  18
BRANCH  17  22
HETATM   22  C7  UNL     1      41.987 -63.347  33.748  1.00  0.00     0.272 C 
BRANCH  22  23
HETATM   23  N6  UNL     1      40.592 -62.952  33.787  1.00  0.00    -0.077 N 
ATOM     24  H63 UNL     1      39.993 -63.529  33.196  1.00  0.00     0.274 HD
ATOM     25  H62 UNL     1      40.137 -63.165  34.675  1.00  0.00     0.274 HD
ATOM     26  H61 UNL     1      40.563 -61.962  33.547  1.00  0.00     0.274 HD
ENDBRANCH  22  23
ENDBRANCH  17  22
ENDBRANCH  14  17
ENDBRANCH   1  13
BRANCH   1  27
HETATM   27  C8  UNL     1      46.157 -60.410  36.614  1.00  0.00     0.266 C 
HETATM   28  O3  UNL     1      47.167 -60.408  37.365  1.00  0.00    -0.269 OA
HETATM   29  N7  UNL     1      45.179 -59.389  36.811  1.00  0.00    -0.266 N 
ATOM     30  H7  UNL     1      44.342 -59.360  36.229  1.00  0.00     0.190 HD
BRANCH  29  31
HETATM   31  N8  UNL     1      45.384 -58.419  37.821  1.00  0.00    -0.275 N 
ATOM     32  H8  UNL     1      46.298 -57.980  37.934  1.00  0.00     0.189 HD
BRANCH  31  33
HETATM   33  C9  UNL     1      44.314 -58.064  38.671  1.00  0.00     0.368 C 
HETATM   34  O4  UNL     1      44.527 -57.759  39.857  1.00  0.00    -0.282 OA
ENDBRANCH  31  33
ENDBRANCH  29  31
ENDBRANCH   1  27
TORSDOF 11
ENDMDL
MODEL 3
REMARK VINA RESULT: -6.656500380      4.510      6.924
REMARK  11 active torsions:
REMARK  status: ('A' for Active; 'I' for Inactive)
REMARK       I    between atoms: C2_2  and  N1_4 
REMARK    1  A    between atoms: N1_4  and  N2_6 
REMARK    2  A    between atoms: N2_6  and  C3_8 
REMARK    3  A    between atoms: C3_8  and  C4_12 
REMARK    4  A    between atoms: C4_12  and  N4_13 
REMARK    5  A    between atoms: C4_12  and  C8_27 
REMARK       I    between atoms: N4_13  and  C5_15 
REMARK    6  A    between atoms: C5_15  and  C6_17 
REMARK    7  A    between atoms: C6_17  and  N5_18 
REMARK    8  A    between atoms: C6_17  and  C7_22 
REMARK    9  A    between atoms: C7_22  and  N6_23 
REMARK       I    between atoms: C8_27  and  N7_29 
REMARK   10  A    between atoms: N7_29  and  N8_31 
REMARK   11  A    between atoms: N8_31  and  C9_33 
ROOT
HETATM    1  C4  UNL     1      43.208 -70.888  31.387  1.00  0.00     0.247 C 
ENDROOT
BRANCH   1   2
HETATM    2  C3  UNL     1      43.560 -70.874  32.850  1.00  0.00     0.122 C 
HETATM    3  N3  UNL     1      42.701 -70.487  33.710  1.00  0.00    -0.386 N 
ATOM      4  H32 UNL     1      42.939 -70.479  34.701  1.00  0.00     0.157 HD
ATOM      5  H31 UNL     1      41.762 -70.177  33.458  1.00  0.00     0.157 HD
BRANCH   2   6
HETATM    6  N2  UNL     1      44.870 -71.309  33.202  1.00  0.00    -0.285 N 
ATOM      7  H2  UNL     1      45.062 -72.297  33.364  1.00  0.00     0.188 HD
BRANCH   6   8
HETATM    8  N1  UNL     1      45.883 -70.368  33.320  1.00  0.00    -0.269 N 
HETATM    9  C2  UNL     1      47.201 -70.642  32.916  1.00  0.00     0.232 C 
HETATM   10  C1  UNL     1      48.260 -69.624  33.062  1.00  0.00     0.119 C 
HETATM   11  O1  UNL     1      47.504 -71.762  32.426  1.00  0.00    -0.272 OA
ATOM     12  H1  UNL     1      45.666 -69.451  33.710  1.00  0.00     0.190 HD
ENDBRANCH   6   8
ENDBRANCH   2   6
ENDBRANCH   1   2
BRANCH   1  13
HETATM   13  N4  UNL     1      44.352 -70.748  30.519  1.00  0.00    -0.340 N 
HETATM   14  C5  UNL     1      45.302 -71.669  30.086  1.00  0.00     0.251 C 
HETATM   15  O2  UNL     1      45.367 -72.860  30.399  1.00  0.00    -0.271 OA
ATOM     16  H4  UNL     1      44.490 -69.805  30.158  1.00  0.00     0.163 HD
BRANCH  14  17
HETATM   17  C6  UNL     1      46.360 -71.154  29.129  1.00  0.00     0.299 C 
BRANCH  17  18
HETATM   18  N5  UNL     1      47.227 -70.208  29.778  1.00  0.00    -0.065 N 
ATOM     19  H53 UNL     1      46.986 -69.247  29.534  1.00  0.00     0.275 HD
ATOM     20  H52 UNL     1      47.050 -70.162  30.781  1.00  0.00     0.275 HD
ATOM     21  H51 UNL     1      48.206 -70.411  29.578  1.00  0.00     0.275 HD
ENDBRANCH  17  18
BRANCH  17  22
HETATM   22  C7  UNL     1      45.643 -70.560  27.945  1.00  0.00     0.272 C 
BRANCH  22  23
HETATM   23  N6  UNL     1      46.229 -71.160  26.762  1.00  0.00    -0.077 N 
ATOM     24  H63 UNL     1      46.419 -70.487  26.020  1.00  0.00     0.274 HD
ATOM     25  H62 UNL     1      47.192 -71.470  26.902  1.00  0.00     0.274 HD
ATOM     26  H61 UNL     1      45.602 -71.911  26.476  1.00  0.00     0.274 HD
ENDBRANCH  22  23
ENDBRANCH  17  22
ENDBRANCH  14  17
ENDBRANCH   1  13
BRANCH   1  27
HETATM   27  C8  UNL     1      42.212 -69.897  31.022  1.00  0.00     0.266 C 
HETATM   28  O3  UNL     1      41.009 -70.238  30.887  1.00  0.00    -0.269 OA
HETATM   29  N7  UNL     1      42.544 -68.525  30.816  1.00  0.00    -0.266 N 
ATOM     30  H7  UNL     1      43.509 -68.209  30.907  1.00  0.00     0.190 HD
BRANCH  29  31
HETATM   31  N8  UNL     1      41.519 -67.608  30.482  1.00  0.00    -0.275 N 
ATOM     32  H8  UNL     1      41.140 -67.582  29.535  1.00  0.00     0.189 HD
BRANCH  31  33
HETATM   33  C9  UNL     1      41.023 -66.730  31.471  1.00  0.00     0.368 C 
HETATM   34  O4  UNL     1      40.343 -67.166  32.416  1.00  0.00    -0.282 OA
ENDBRANCH  31  33
ENDBRANCH  29  31
ENDBRANCH   1  27
TORSDOF 11
ENDMDL
MODEL 4
REMARK VINA RESULT: -6.346287342      2.074      5.465
REMARK  11 active torsions:
REMARK  status: ('A' for Active; 'I' for Inactive)
REMARK       I    between atoms: C2_2  and  N1_4 
REMARK    1  A    between atoms: N1_4  and  N2_6 
REMARK    2  A    between atoms: N2_6  and  C3_8 
REMARK    3  A    between atoms: C3_8  and  C4_12 
REMARK    4  A    between atoms: C4_12  and  N4_13 
REMARK    5  A    between atoms: C4_12  and  C8_27 
REMARK       I    between atoms: N4_13  and  C5_15 
REMARK    6  A    between atoms: C5_15  and  C6_17 
REMARK    7  A    between atoms: C6_17  and  N5_18 
REMARK    8  A    between atoms: C6_17  and  C7_22 
REMARK    9  A    between atoms: C7_22  and  N6_23 
REMARK       I    between atoms: C8_27  and  N7_29 
REMARK   10  A    between atoms: N7_29  and  N8_31 
REMARK   11  A    between atoms: N8_31  and  C9_33 
ROOT
HETATM    1  C4  UNL     1      40.449 -66.825  32.143  1.00  0.00     0.247 C 
ENDROOT
BRANCH   1   2
HETATM    2  C3  UNL     1      41.150 -66.108  31.020  1.00  0.00     0.122 C 
HETATM    3  N3  UNL     1      41.424 -66.727  29.940  1.00  0.00    -0.386 N 
ATOM      4  H32 UNL     1      41.898 -66.241  29.179  1.00  0.00     0.157 HD
ATOM      5  H31 UNL     1      41.190 -67.708  29.786  1.00  0.00     0.157 HD
BRANCH   2   6
HETATM    6  N2  UNL     1      41.477 -64.738  31.235  1.00  0.00    -0.285 N 
ATOM      7  H2  UNL     1      40.771 -64.012  31.108  1.00  0.00     0.188 HD
BRANCH   6   8
HETATM    8  N1  UNL     1      42.767 -64.404  31.619  1.00  0.00    -0.269 N 
HETATM    9  C2  UNL     1      43.028 -63.341  32.501  1.00  0.00     0.232 C 
HETATM   10  C1  UNL     1      44.412 -63.005  32.885  1.00  0.00     0.119 C 
HETATM   11  O1  UNL     1      42.086 -62.654  32.977  1.00  0.00    -0.272 OA
ATOM     12  H1  UNL     1      43.549 -64.945  31.251  1.00  0.00     0.190 HD
ENDBRANCH   6   8
ENDBRANCH   2   6
ENDBRANCH   1   2
BRANCH   1  13
HETATM   13  N4  UNL     1      40.497 -66.114  33.397  1.00  0.00    -0.340 N 
HETATM   14  C5  UNL     1      41.562 -65.770  34.225  1.00  0.00     0.251 C 
HETATM   15  O2  UNL     1      42.750 -66.043  34.045  1.00  0.00    -0.271 OA
ATOM     16  H4  UNL     1      39.587 -65.808  33.739  1.00  0.00     0.163 HD
BRANCH  14  17
HETATM   17  C6  UNL     1      41.224 -64.973  35.471  1.00  0.00     0.299 C 
BRANCH  17  18
HETATM   18  N5  UNL     1      40.434 -63.816  35.145  1.00  0.00    -0.065 N 
ATOM     19  H53 UNL     1      40.905 -63.218  34.466  1.00  0.00     0.275 HD
ATOM     20  H52 UNL     1      39.614 -64.064  34.591  1.00  0.00     0.275 HD
ATOM     21  H51 UNL     1      40.178 -63.299  35.986  1.00  0.00     0.275 HD
ENDBRANCH  17  18
BRANCH  17  22
HETATM   22  C7  UNL     1      42.526 -64.612  36.139  1.00  0.00     0.272 C 
BRANCH  22  23
HETATM   23  N6  UNL     1      42.751 -63.205  35.870  1.00  0.00    -0.077 N 
ATOM     24  H63 UNL     1      42.155 -62.835  35.129  1.00  0.00     0.274 HD
ATOM     25  H62 UNL     1      42.419 -62.593  36.616  1.00  0.00     0.274 HD
ATOM     26  H61 UNL     1      43.747 -63.102  35.676  1.00  0.00     0.274 HD
ENDBRANCH  22  23
ENDBRANCH  17  22
ENDBRANCH  14  17
ENDBRANCH   1  13
BRANCH   1  27
HETATM   27  C8  UNL     1      40.921 -68.181  32.347  1.00  0.00     0.266 C 
HETATM   28  O3  UNL     1      40.096 -69.127  32.430  1.00  0.00    -0.269 OA
HETATM   29  N7  UNL     1      42.309 -68.496  32.451  1.00  0.00    -0.266 N 
ATOM     30  H7  UNL     1      43.010 -67.757  32.398  1.00  0.00     0.190 HD
BRANCH  29  31
HETATM   31  N8  UNL     1      42.701 -69.844  32.629  1.00  0.00    -0.275 N 
ATOM     32  H8  UNL     1      42.648 -70.278  33.551  1.00  0.00     0.189 HD
BRANCH  31  33
HETATM   33  C9  UNL     1      43.166 -70.585  31.520  1.00  0.00     0.368 C 
HETATM   34  O4  UNL     1      43.858 -70.038  30.644  1.00  0.00    -0.282 OA
ENDBRANCH  31  33
ENDBRANCH  29  31
ENDBRANCH   1  27
TORSDOF 11
ENDMDL
MODEL 5
REMARK VINA RESULT: -6.324620584      4.042      6.339
REMARK  11 active torsions:
REMARK  status: ('A' for Active; 'I' for Inactive)
REMARK       I    between atoms: C2_2  and  N1_4 
REMARK    1  A    between atoms: N1_4  and  N2_6 
REMARK    2  A    between atoms: N2_6  and  C3_8 
REMARK    3  A    between atoms: C3_8  and  C4_12 
REMARK    4  A    between atoms: C4_12  and  N4_13 
REMARK    5  A    between atoms: C4_12  and  C8_27 
REMARK       I    between atoms: N4_13  and  C5_15 
REMARK    6  A    between atoms: C5_15  and  C6_17 
REMARK    7  A    between atoms: C6_17  and  N5_18 
REMARK    8  A    between atoms: C6_17  and  C7_22 
REMARK    9  A    between atoms: C7_22  and  N6_23 
REMARK       I    between atoms: C8_27  and  N7_29 
REMARK   10  A    between atoms: N7_29  and  N8_31 
REMARK   11  A    between atoms: N8_31  and  C9_33 
ROOT
HETATM    1  C4  UNL     1      43.346 -69.646  31.051  1.00  0.00     0.247 C 
ENDROOT
BRANCH   1   2
HETATM    2  C3  UNL     1      41.881 -69.616  30.705  1.00  0.00     0.122 C 
HETATM    3  N3  UNL     1      41.140 -70.617  30.979  1.00  0.00    -0.386 N 
ATOM      4  H32 UNL     1      40.148 -70.597  30.745  1.00  0.00     0.157 HD
ATOM      5  H31 UNL     1      41.490 -71.462  31.432  1.00  0.00     0.157 HD
BRANCH   2   6
HETATM    6  N2  UNL     1      41.392 -68.437  30.072  1.00  0.00    -0.285 N 
ATOM      7  H2  UNL     1      40.913 -68.492  29.174  1.00  0.00     0.188 HD
BRANCH   6   8
HETATM    8  N1  UNL     1      41.577 -67.212  30.696  1.00  0.00    -0.269 N 
HETATM    9  C2  UNL     1      40.946 -66.895  31.911  1.00  0.00     0.232 C 
HETATM   10  C1  UNL     1      41.156 -65.579  32.547  1.00  0.00     0.119 C 
HETATM   11  O1  UNL     1      40.189 -67.725  32.478  1.00  0.00    -0.272 OA
ATOM     12  H1  UNL     1      42.188 -66.521  30.260  1.00  0.00     0.190 HD
ENDBRANCH   6   8
ENDBRANCH   2   6
ENDBRANCH   1   2
BRANCH   1  13
HETATM   13  N4  UNL     1      44.171 -70.208  30.010  1.00  0.00    -0.340 N 
HETATM   14  C5  UNL     1      45.521 -70.045  29.711  1.00  0.00     0.251 C 
HETATM   15  O2  UNL     1      46.323 -69.322  30.306  1.00  0.00    -0.271 OA
ATOM     16  H4  UNL     1      43.677 -70.839  29.380  1.00  0.00     0.163 HD
BRANCH  14  17
HETATM   17  C6  UNL     1      46.058 -70.843  28.538  1.00  0.00     0.299 C 
BRANCH  17  18
HETATM   18  N5  UNL     1      45.273 -70.613  27.355  1.00  0.00    -0.065 N 
ATOM     19  H53 UNL     1      44.405 -71.148  27.370  1.00  0.00     0.275 HD
ATOM     20  H52 UNL     1      44.876 -69.674  27.344  1.00  0.00     0.275 HD
ATOM     21  H51 UNL     1      45.816 -70.802  26.513  1.00  0.00     0.275 HD
ENDBRANCH  17  18
BRANCH  17  22
HETATM   22  C7  UNL     1      46.069 -72.292  28.949  1.00  0.00     0.272 C 
BRANCH  22  23
HETATM   23  N6  UNL     1      46.791 -72.359  30.206  1.00  0.00    -0.077 N 
ATOM     24  H63 UNL     1      47.580 -73.005  30.184  1.00  0.00     0.274 HD
ATOM     25  H62 UNL     1      47.324 -71.514  30.411  1.00  0.00     0.274 HD
ATOM     26  H61 UNL     1      46.103 -72.586  30.924  1.00  0.00     0.274 HD
ENDBRANCH  22  23
ENDBRANCH  17  22
ENDBRANCH  14  17
ENDBRANCH   1  13
BRANCH   1  27
HETATM   27  C8  UNL     1      43.631 -70.324  32.301  1.00  0.00     0.266 C 
HETATM   28  O3  UNL     1      42.777 -70.320  33.226  1.00  0.00    -0.269 OA
HETATM   29  N7  UNL     1      44.857 -71.017  32.529  1.00  0.00    -0.266 N 
ATOM     30  H7  UNL     1      45.579 -71.037  31.809  1.00  0.00     0.190 HD
BRANCH  29  31
HETATM   31  N8  UNL     1      45.061 -71.675  33.765  1.00  0.00    -0.275 N 
ATOM     32  H8  UNL     1      44.538 -72.522  33.990  1.00  0.00     0.189 HD
BRANCH  31  33
HETATM   33  C9  UNL     1      45.995 -71.151  34.686  1.00  0.00     0.368 C 
HETATM   34  O4  UNL     1      46.477 -70.017  34.517  1.00  0.00    -0.282 OA
ENDBRANCH  31  33
ENDBRANCH  29  31
ENDBRANCH   1  27
TORSDOF 11
ENDMDL
