MODEL 1
REMARK VINA RESULT: -10.620592955      0.000      0.000
REMARK  2 active torsions:
REMARK  status: ('A' for Active; 'I' for Inactive)
REMARK    1  A    between atoms: C5_5  and  C6_6 
REMARK    2  A    between atoms: C10_12  and  C11_13 
ROOT
HETATM    1  C6  UNL     1      17.628  22.650   8.071  1.00  0.00    -0.010 A 
HETATM    2  C7  UNL     1      18.996  22.198   7.977  1.00  0.00     0.030 A 
HETATM    3  C8  UNL     1      19.360  20.994   8.501  1.00  0.00     0.089 A 
HETATM    4  N1  UNL     1      18.484  20.203   9.109  1.00  0.00    -0.364 N 
ATOM      5  H1  UNL     1      18.782  19.306   9.490  1.00  0.00     0.165 HD
HETATM    6  C9  UNL     1      17.204  20.588   9.220  1.00  0.00     0.056 A 
HETATM    7  C10 UNL     1      16.360  19.704   9.849  1.00  0.00     0.002 A 
HETATM    8  C17 UNL     1      15.052  20.042   9.983  1.00  0.00     0.024 A 
HETATM    9  C18 UNL     1      14.608  21.248   9.496  1.00  0.00    -0.025 A 
HETATM   10  C19 UNL     1      15.432  22.179   8.850  1.00  0.00     0.053 A 
HETATM   11  C20 UNL     1      16.782  21.815   8.704  1.00  0.00     0.030 A 
HETATM   12  N2  UNL     1      14.967  23.429   8.462  1.00  0.00    -0.350 N 
ATOM     13  H2  UNL     1      15.604  24.083   8.008  1.00  0.00     0.166 HD
HETATM   14  C21 UNL     1      13.595  23.815   8.691  1.00  0.00     0.109 A 
HETATM   15  C22 UNL     1      12.774  22.906   9.296  1.00  0.00    -0.009 A 
HETATM   16  C23 UNL     1      11.461  23.293   9.530  1.00  0.00    -0.000 A 
HETATM   17  C24 UNL     1      10.618  22.388  10.138  1.00  0.00     0.014 A 
HETATM   18  C25 UNL     1       9.302  22.725  10.389  1.00  0.00     0.001 A 
HETATM   19  C26 UNL     1       8.839  23.972  10.027  1.00  0.00     0.002 A 
HETATM   20  C27 UNL     1       9.683  24.888   9.414  1.00  0.00     0.030 A 
HETATM   21  C28 UNL     1      10.993  24.538   9.171  1.00  0.00     0.046 A 
HETATM   22  N3  UNL     1      11.826  25.421   8.572  1.00  0.00    -0.321 N 
ATOM     23  H3  UNL     1      11.498  26.347   8.298  1.00  0.00     0.169 HD
HETATM   24  C29 UNL     1      13.093  25.047   8.347  1.00  0.00     0.273 A 
HETATM   25  O1  UNL     1      13.864  25.892   7.782  1.00  0.00    -0.266 OA
HETATM   26  C30 UNL     1      13.182  21.574   9.681  1.00  0.00     0.083 A 
ENDROOT
BRANCH   1  27
HETATM   27  C5  UNL     1      17.384  23.811   7.289  1.00  0.00    -0.025 A 
HETATM   28  C4  UNL     1      16.801  23.623   6.021  1.00  0.00     0.013 A 
HETATM   29  C3  UNL     1      16.345  24.641   5.243  1.00  0.00     0.007 A 
HETATM   30  C2  UNL     1      16.452  25.931   5.706  1.00  0.00    -0.062 A 
HETATM   31  C1  UNL     1      15.965  27.097   4.891  1.00  0.00     0.048 C 
HETATM   32  C32 UNL     1      17.011  26.194   6.937  1.00  0.00     0.007 A 
HETATM   33  C31 UNL     1      17.460  25.143   7.695  1.00  0.00     0.013 A 
ENDBRANCH   1  27
BRANCH   7  34
HETATM   34  C11 UNL     1      16.863  18.415  10.355  1.00  0.00    -0.024 A 
HETATM   35  C12 UNL     1      17.013  18.241  11.702  1.00  0.00     0.012 A 
HETATM   36  C13 UNL     1      17.475  17.020  12.198  1.00  0.00     0.001 A 
HETATM   37  C14 UNL     1      17.776  15.995  11.315  1.00  0.00     0.000 A 
HETATM   38  C15 UNL     1      17.618  16.195   9.969  1.00  0.00     0.001 A 
HETATM   39  C16 UNL     1      17.157  17.416   9.494  1.00  0.00     0.012 A 
ENDBRANCH   7  34
TORSDOF 2
ENDMDL
MODEL 2
REMARK VINA RESULT: -10.106454833      0.897      1.288
REMARK  2 active torsions:
REMARK  status: ('A' for Active; 'I' for Inactive)
REMARK    1  A    between atoms: C5_5  and  C6_6 
REMARK    2  A    between atoms: C10_12  and  C11_13 
ROOT
HETATM    1  C6  UNL     1      17.418  22.745   7.783  1.00  0.00    -0.010 A 
HETATM    2  C7  UNL     1      18.714  22.109   7.808  1.00  0.00     0.030 A 
HETATM    3  C8  UNL     1      18.897  20.945   8.493  1.00  0.00     0.089 A 
HETATM    4  N1  UNL     1      17.904  20.362   9.154  1.00  0.00    -0.364 N 
ATOM      5  H1  UNL     1      18.068  19.489   9.656  1.00  0.00     0.165 HD
HETATM    6  C9  UNL     1      16.686  20.922   9.159  1.00  0.00     0.056 A 
HETATM    7  C10 UNL     1      15.713  20.245   9.855  1.00  0.00     0.002 A 
HETATM    8  C17 UNL     1      14.459  20.766   9.887  1.00  0.00     0.024 A 
HETATM    9  C18 UNL     1      14.197  21.947   9.234  1.00  0.00    -0.025 A 
HETATM   10  C19 UNL     1      15.157  22.670   8.515  1.00  0.00     0.053 A 
HETATM   11  C20 UNL     1      16.450  22.116   8.476  1.00  0.00     0.030 A 
HETATM   12  N2  UNL     1      14.878  23.910   7.954  1.00  0.00    -0.350 N 
ATOM     13  H2  UNL     1      15.610  24.411   7.452  1.00  0.00     0.166 HD
HETATM   14  C21 UNL     1      13.565  24.499   8.072  1.00  0.00     0.109 A 
HETATM   15  C22 UNL     1      12.612  23.791   8.748  1.00  0.00    -0.009 A 
HETATM   16  C23 UNL     1      11.357  24.373   8.873  1.00  0.00    -0.000 A 
HETATM   17  C24 UNL     1      10.383  23.673   9.549  1.00  0.00     0.014 A 
HETATM   18  C25 UNL     1       9.118  24.209   9.697  1.00  0.00     0.001 A 
HETATM   19  C26 UNL     1       8.839  25.449   9.163  1.00  0.00     0.002 A 
HETATM   20  C27 UNL     1       9.816  26.160   8.480  1.00  0.00     0.030 A 
HETATM   21  C28 UNL     1      11.073  25.612   8.341  1.00  0.00     0.046 A 
HETATM   22  N3  UNL     1      12.035  26.293   7.675  1.00  0.00    -0.321 N 
ATOM     23  H3  UNL     1      11.843  27.212   7.274  1.00  0.00     0.169 HD
HETATM   24  C29 UNL     1      13.245  25.732   7.555  1.00  0.00     0.273 A 
HETATM   25  O1  UNL     1      14.138  26.388   6.925  1.00  0.00    -0.266 OA
HETATM   26  C30 UNL     1      12.824  22.478   9.313  1.00  0.00     0.083 A 
ENDROOT
BRANCH   1  27
HETATM   27  C5  UNL     1      17.356  23.817   6.854  1.00  0.00    -0.025 A 
HETATM   28  C4  UNL     1      16.866  23.526   5.565  1.00  0.00     0.013 A 
HETATM   29  C3  UNL     1      16.579  24.476   4.636  1.00  0.00     0.007 A 
HETATM   30  C2  UNL     1      16.773  25.799   4.955  1.00  0.00    -0.062 A 
HETATM   31  C1  UNL     1      16.473  26.893   3.968  1.00  0.00     0.048 C 
HETATM   32  C32 UNL     1      17.250  26.162   6.195  1.00  0.00     0.007 A 
HETATM   33  C31 UNL     1      17.529  25.177   7.109  1.00  0.00     0.013 A 
ENDBRANCH   1  27
BRANCH   7  34
HETATM   34  C11 UNL     1      16.022  18.977  10.538  1.00  0.00    -0.024 A 
HETATM   35  C12 UNL     1      16.058  17.821   9.811  1.00  0.00     0.012 A 
HETATM   36  C13 UNL     1      16.365  16.612  10.441  1.00  0.00     0.001 A 
HETATM   37  C14 UNL     1      16.630  16.601  11.802  1.00  0.00     0.000 A 
HETATM   38  C15 UNL     1      16.587  17.774  12.508  1.00  0.00     0.001 A 
HETATM   39  C16 UNL     1      16.281  18.966  11.864  1.00  0.00     0.012 A 
ENDBRANCH   7  34
TORSDOF 2
ENDMDL
MODEL 3
REMARK VINA RESULT: -9.985474856      1.331      1.620
REMARK  2 active torsions:
REMARK  status: ('A' for Active; 'I' for Inactive)
REMARK    1  A    between atoms: C5_5  and  C6_6 
REMARK    2  A    between atoms: C10_12  and  C11_13 
ROOT
HETATM    1  C6  UNL     1      17.139  22.491   7.694  1.00  0.00    -0.010 A 
HETATM    2  C7  UNL     1      18.386  21.763   7.722  1.00  0.00     0.030 A 
HETATM    3  C8  UNL     1      18.511  20.642   8.484  1.00  0.00     0.089 A 
HETATM    4  N1  UNL     1      17.507  20.183   9.220  1.00  0.00    -0.364 N 
ATOM      5  H1  UNL     1      17.626  19.339   9.780  1.00  0.00     0.165 HD
HETATM    6  C9  UNL     1      16.333  20.831   9.226  1.00  0.00     0.056 A 
HETATM    7  C10 UNL     1      15.342  20.281  10.003  1.00  0.00     0.002 A 
HETATM    8  C17 UNL     1      14.132  20.896  10.040  1.00  0.00     0.024 A 
HETATM    9  C18 UNL     1      13.930  22.042   9.310  1.00  0.00    -0.025 A 
HETATM   10  C19 UNL     1      14.910  22.639   8.507  1.00  0.00     0.053 A 
HETATM   11  C20 UNL     1      16.156  21.988   8.465  1.00  0.00     0.030 A 
HETATM   12  N2  UNL     1      14.699  23.853   7.866  1.00  0.00    -0.350 N 
ATOM     13  H2  UNL     1      15.445  24.260   7.303  1.00  0.00     0.166 HD
HETATM   14  C21 UNL     1      13.438  24.545   7.985  1.00  0.00     0.109 A 
HETATM   15  C22 UNL     1      12.464  23.961   8.744  1.00  0.00    -0.009 A 
HETATM   16  C23 UNL     1      11.260  24.643   8.869  1.00  0.00    -0.000 A 
HETATM   17  C24 UNL     1      10.266  24.068   9.628  1.00  0.00     0.014 A 
HETATM   18  C25 UNL     1       9.050  24.706   9.780  1.00  0.00     0.001 A 
HETATM   19  C26 UNL     1       8.840  25.922   9.165  1.00  0.00     0.002 A 
HETATM   20  C27 UNL     1       9.838  26.507   8.398  1.00  0.00     0.030 A 
HETATM   21  C28 UNL     1      11.045  25.859   8.256  1.00  0.00     0.046 A 
HETATM   22  N3  UNL     1      12.027  26.417   7.509  1.00  0.00    -0.321 N 
ATOM     23  H3  UNL     1      11.886  27.316   7.048  1.00  0.00     0.169 HD
HETATM   24  C29 UNL     1      13.187  25.759   7.390  1.00  0.00     0.273 A 
HETATM   25  O1  UNL     1      14.100  26.299   6.682  1.00  0.00    -0.266 OA
HETATM   26  C30 UNL     1      12.603  22.679   9.397  1.00  0.00     0.083 A 
ENDROOT
BRANCH   1  27
HETATM   27  C5  UNL     1      17.118  23.496   6.690  1.00  0.00    -0.025 A 
HETATM   28  C4  UNL     1      18.295  24.248   6.506  1.00  0.00     0.013 A 
HETATM   29  C3  UNL     1      18.485  25.109   5.471  1.00  0.00     0.007 A 
HETATM   30  C2  UNL     1      17.481  25.267   4.545  1.00  0.00    -0.062 A 
HETATM   31  C1  UNL     1      17.634  26.205   3.379  1.00  0.00     0.048 C 
HETATM   32  C32 UNL     1      16.301  24.566   4.658  1.00  0.00     0.007 A 
HETATM   33  C31 UNL     1      16.144  23.705   5.714  1.00  0.00     0.013 A 
ENDBRANCH   1  27
BRANCH   7  34
HETATM   34  C11 UNL     1      15.586  19.045  10.768  1.00  0.00    -0.024 A 
HETATM   35  C12 UNL     1      16.340  19.105  11.906  1.00  0.00     0.012 A 
HETATM   36  C13 UNL     1      16.568  17.946  12.651  1.00  0.00     0.001 A 
HETATM   37  C14 UNL     1      16.024  16.744  12.225  1.00  0.00     0.000 A 
HETATM   38  C15 UNL     1      15.273  16.710  11.080  1.00  0.00     0.001 A 
HETATM   39  C16 UNL     1      15.056  17.874  10.353  1.00  0.00     0.012 A 
ENDBRANCH   7  34
TORSDOF 2
ENDMDL
MODEL 4
REMARK VINA RESULT: -8.738655220      3.055      7.004
REMARK  2 active torsions:
REMARK  status: ('A' for Active; 'I' for Inactive)
REMARK    1  A    between atoms: C5_5  and  C6_6 
REMARK    2  A    between atoms: C10_12  and  C11_13 
ROOT
HETATM    1  C6  UNL     1      17.441  20.429   9.008  1.00  0.00    -0.010 A 
HETATM    2  C7  UNL     1      18.659  21.129   8.674  1.00  0.00     0.030 A 
HETATM    3  C8  UNL     1      18.615  22.423   8.252  1.00  0.00     0.089 A 
HETATM    4  N1  UNL     1      17.467  23.079   8.132  1.00  0.00    -0.364 N 
ATOM      5  H1  UNL     1      17.463  24.049   7.816  1.00  0.00     0.165 HD
HETATM    6  C9  UNL     1      16.313  22.464   8.428  1.00  0.00     0.056 A 
HETATM    7  C10 UNL     1      15.173  23.219   8.291  1.00  0.00     0.002 A 
HETATM    8  C17 UNL     1      13.978  22.646   8.584  1.00  0.00     0.024 A 
HETATM    9  C18 UNL     1      13.936  21.337   9.001  1.00  0.00    -0.025 A 
HETATM   10  C19 UNL     1      15.071  20.531   9.153  1.00  0.00     0.053 A 
HETATM   11  C20 UNL     1      16.306  21.137   8.860  1.00  0.00     0.030 A 
HETATM   12  N2  UNL     1      14.978  19.184   9.480  1.00  0.00    -0.350 N 
ATOM     13  H2  UNL     1      15.830  18.628   9.566  1.00  0.00     0.166 HD
HETATM   14  C21 UNL     1      13.695  18.559   9.700  1.00  0.00     0.109 A 
HETATM   15  C22 UNL     1      12.582  19.341   9.581  1.00  0.00    -0.009 A 
HETATM   16  C23 UNL     1      11.351  18.729   9.776  1.00  0.00    -0.000 A 
HETATM   17  C24 UNL     1      10.217  19.503   9.663  1.00  0.00     0.014 A 
HETATM   18  C25 UNL     1       8.970  18.940   9.851  1.00  0.00     0.001 A 
HETATM   19  C26 UNL     1       8.869  17.599  10.153  1.00  0.00     0.002 A 
HETATM   20  C27 UNL     1      10.007  16.813  10.269  1.00  0.00     0.030 A 
HETATM   21  C28 UNL     1      11.244  17.389  10.079  1.00  0.00     0.046 A 
HETATM   22  N3  UNL     1      12.363  16.635  10.191  1.00  0.00    -0.321 N 
ATOM     23  H3  UNL     1      12.304  15.641  10.415  1.00  0.00     0.169 HD
HETATM   24  C29 UNL     1      13.550  17.226  10.003  1.00  0.00     0.273 A 
HETATM   25  O1  UNL     1      14.593  16.501  10.113  1.00  0.00    -0.266 OA
HETATM   26  C30 UNL     1      12.612  20.757   9.291  1.00  0.00     0.083 A 
ENDROOT
BRANCH   1  27
HETATM   27  C5  UNL     1      17.688  19.176   9.631  1.00  0.00    -0.025 A 
HETATM   28  C4  UNL     1      17.394  19.071  11.005  1.00  0.00     0.013 A 
HETATM   29  C3  UNL     1      17.404  17.896  11.689  1.00  0.00     0.007 A 
HETATM   30  C2  UNL     1      17.717  16.738  11.018  1.00  0.00    -0.062 A 
HETATM   31  C1  UNL     1      17.744  15.409  11.723  1.00  0.00     0.048 C 
HETATM   32  C32 UNL     1      18.016  16.761   9.674  1.00  0.00     0.007 A 
HETATM   33  C31 UNL     1      17.996  17.964   9.015  1.00  0.00     0.013 A 
ENDBRANCH   1  27
BRANCH   7  34
HETATM   34  C11 UNL     1      15.250  24.623   7.849  1.00  0.00    -0.024 A 
HETATM   35  C12 UNL     1      15.272  24.898   6.511  1.00  0.00     0.012 A 
HETATM   36  C13 UNL     1      15.330  26.224   6.075  1.00  0.00     0.001 A 
HETATM   37  C14 UNL     1      15.364  27.248   7.008  1.00  0.00     0.000 A 
HETATM   38  C15 UNL     1      15.342  26.945   8.344  1.00  0.00     0.001 A 
HETATM   39  C16 UNL     1      15.283  25.620   8.758  1.00  0.00     0.012 A 
ENDBRANCH   7  34
TORSDOF 2
ENDMDL
MODEL 5
REMARK VINA RESULT: -8.142984454      1.810      6.844
REMARK  2 active torsions:
REMARK  status: ('A' for Active; 'I' for Inactive)
REMARK    1  A    between atoms: C5_5  and  C6_6 
REMARK    2  A    between atoms: C10_12  and  C11_13 
ROOT
HETATM    1  C6  UNL     1      15.570  24.624   7.571  1.00  0.00    -0.010 A 
HETATM    2  C7  UNL     1      14.803  25.796   7.222  1.00  0.00     0.030 A 
HETATM    3  C8  UNL     1      13.498  25.902   7.598  1.00  0.00     0.089 A 
HETATM    4  N1  UNL     1      12.891  24.944   8.289  1.00  0.00    -0.364 N 
ATOM      5  H1  UNL     1      11.913  25.050   8.560  1.00  0.00     0.165 HD
HETATM    6  C9  UNL     1      13.567  23.837   8.630  1.00  0.00     0.056 A 
HETATM    7  C10 UNL     1      12.869  22.903   9.358  1.00  0.00     0.002 A 
HETATM    8  C17 UNL     1      13.509  21.766   9.734  1.00  0.00     0.024 A 
HETATM    9  C18 UNL     1      14.823  21.577   9.379  1.00  0.00    -0.025 A 
HETATM   10  C19 UNL     1      15.571  22.500   8.639  1.00  0.00     0.053 A 
HETATM   11  C20 UNL     1      14.905  23.680   8.264  1.00  0.00     0.030 A 
HETATM   12  N2  UNL     1      16.866  22.227   8.214  1.00  0.00    -0.350 N 
ATOM     13  H2  UNL     1      17.371  22.921   7.663  1.00  0.00     0.166 HD
HETATM   14  C21 UNL     1      17.506  20.975   8.542  1.00  0.00     0.109 A 
HETATM   15  C22 UNL     1      16.796  20.077   9.287  1.00  0.00    -0.009 A 
HETATM   16  C23 UNL     1      17.413  18.868   9.582  1.00  0.00    -0.000 A 
HETATM   17  C24 UNL     1      16.712  17.951  10.335  1.00  0.00     0.014 A 
HETATM   18  C25 UNL     1      17.284  16.735  10.657  1.00  0.00     0.001 A 
HETATM   19  C26 UNL     1      18.559  16.447  10.220  1.00  0.00     0.002 A 
HETATM   20  C27 UNL     1      19.271  17.367   9.462  1.00  0.00     0.030 A 
HETATM   21  C28 UNL     1      18.687  18.575   9.149  1.00  0.00     0.046 A 
HETATM   22  N3  UNL     1      19.370  19.482   8.412  1.00  0.00    -0.321 N 
ATOM     23  H3  UNL     1      20.315  19.283   8.081  1.00  0.00     0.169 HD
HETATM   24  C29 UNL     1      18.775  20.648   8.127  1.00  0.00     0.273 A 
HETATM   25  O1  UNL     1      19.433  21.490   7.432  1.00  0.00    -0.266 OA
HETATM   26  C30 UNL     1      15.466  20.319   9.799  1.00  0.00     0.083 A 
ENDROOT
BRANCH   1  27
HETATM   27  C5  UNL     1      16.954  24.778   7.293  1.00  0.00    -0.025 A 
HETATM   28  C4  UNL     1      17.392  24.444   5.996  1.00  0.00     0.013 A 
HETATM   29  C3  UNL     1      18.642  24.711   5.531  1.00  0.00     0.007 A 
HETATM   30  C2  UNL     1      19.540  25.339   6.360  1.00  0.00    -0.062 A 
HETATM   31  C1  UNL     1      20.936  25.660   5.901  1.00  0.00     0.048 C 
HETATM   32  C32 UNL     1      19.185  25.696   7.642  1.00  0.00     0.007 A 
HETATM   33  C31 UNL     1      17.916  25.412   8.078  1.00  0.00     0.013 A 
ENDBRANCH   1  27
BRANCH   7  34
HETATM   34  C11 UNL     1      11.463  23.138   9.730  1.00  0.00    -0.024 A 
HETATM   35  C12 UNL     1      10.821  22.223  10.514  1.00  0.00     0.012 A 
HETATM   36  C13 UNL     1       9.492  22.438  10.889  1.00  0.00     0.001 A 
HETATM   37  C14 UNL     1       8.839  23.582  10.458  1.00  0.00     0.000 A 
HETATM   38  C15 UNL     1       9.505  24.484   9.671  1.00  0.00     0.001 A 
HETATM   39  C16 UNL     1      10.827  24.253   9.310  1.00  0.00     0.012 A 
ENDBRANCH   7  34
TORSDOF 2
ENDMDL
