MODEL 1
REMARK VINA RESULT: -7.083014932      0.000      0.000
REMARK  15 active torsions:
REMARK  status: ('A' for Active; 'I' for Inactive)
REMARK    1  A    between atoms: C2_2  and  N1_5 
REMARK       I    between atoms: C5_7  and  N2_8 
REMARK       I    between atoms: C5_7  and  N4_12 
REMARK    2  A    between atoms: N4_12  and  C7_14 
REMARK    3  A    between atoms: C7_14  and  C8_15 
REMARK    4  A    between atoms: C8_15  and  C9_16 
REMARK    5  A    between atoms: C9_16  and  C10_17 
REMARK    6  A    between atoms: C10_17  and  C11_18 
REMARK    7  A    between atoms: C11_18  and  C12_19 
REMARK    8  A    between atoms: C12_19  and  C13_20 
REMARK    9  A    between atoms: C13_20  and  C14_21 
REMARK   10  A    between atoms: C14_21  and  C15_22 
REMARK   11  A    between atoms: C15_22  and  N5_23 
REMARK   12  A    between atoms: C17_25  and  O1_26 
REMARK   13  A    between atoms: C18_28  and  O2_29 
REMARK   14  A    between atoms: C19_31  and  O3_32 
REMARK   15  A    between atoms: C20_34  and  O4_35 
ROOT
HETATM    1  N1  UNL     1       9.568  39.929  -1.084  1.00  0.00    -0.218 N 
ATOM      2  H1  UNL     1       9.823  40.772  -0.571  1.00  0.00     0.178 HD
HETATM    3  C5  UNL     1       9.009  40.079  -2.206  1.00  0.00     0.683 C 
HETATM    4  N2  UNL     1       8.624  38.958  -2.982  1.00  0.00    -0.126 N 
ATOM      5  H2  UNL     1       7.927  38.318  -2.600  1.00  0.00     0.197 HD
HETATM    6  C6  UNL     1       9.160  38.684  -4.260  1.00  0.00     0.196 C 
HETATM    7  N3  UNL     1       9.605  38.453  -5.311  1.00  0.00    -0.171 NA
HETATM    8  N4  UNL     1       8.759  41.405  -2.699  1.00  0.00    -0.226 N 
ATOM      9  H4  UNL     1       9.175  42.211  -2.232  1.00  0.00     0.177 HD
ENDROOT
BRANCH   1  10
HETATM   10  C2  UNL     1       9.868  38.684  -0.482  1.00  0.00     0.036 C 
HETATM   11  C1  UNL     1      11.338  38.379  -0.832  1.00  0.00     0.038 C 
HETATM   12  C3  UNL     1       9.083  37.505  -0.971  1.00  0.00     0.038 C 
HETATM   13  C4  UNL     1       9.730  38.820   1.026  1.00  0.00     0.038 C 
ENDBRANCH   1  10
BRANCH   8  14
HETATM   14  C7  UNL     1       7.909  41.595  -3.868  1.00  0.00     0.138 C 
BRANCH  14  15
HETATM   15  C8  UNL     1       8.608  42.325  -4.976  1.00  0.00     0.020 C 
BRANCH  15  16
HETATM   16  C9  UNL     1       7.715  43.340  -5.592  1.00  0.00     0.002 C 
BRANCH  16  17
HETATM   17  C10 UNL     1       8.475  44.434  -6.251  1.00  0.00     0.000 C 
BRANCH  17  18
HETATM   18  C11 UNL     1       8.622  44.180  -7.711  1.00  0.00     0.000 C 
BRANCH  18  19
HETATM   19  C12 UNL     1      10.027  44.336  -8.246  1.00  0.00     0.000 C 
BRANCH  19  20
HETATM   20  C13 UNL     1      10.144  43.554  -9.518  1.00  0.00     0.005 C 
BRANCH  20  21
HETATM   21  C14 UNL     1      10.939  42.311  -9.440  1.00  0.00     0.044 C 
BRANCH  21  22
HETATM   22  C15 UNL     1      11.248  41.730  -8.127  1.00  0.00     0.061 C 
BRANCH  22  23
HETATM   23  N5  UNL     1      12.081  40.610  -8.029  1.00  0.00    -0.363 N 
HETATM   24  C16 UNL     1      13.146  40.391  -8.915  1.00  0.00     0.159 C 
HETATM   25  C17 UNL     1      13.300  38.864  -9.083  1.00  0.00     0.167 C 
HETATM   26  C18 UNL     1      12.587  38.181  -7.938  1.00  0.00     0.181 C 
HETATM   27  C19 UNL     1      12.980  38.878  -6.654  1.00  0.00     0.198 C 
HETATM   28  C20 UNL     1      12.547  40.326  -6.681  1.00  0.00     0.251 C 
BRANCH  25  29
HETATM   29  O1  UNL     1      14.636  38.489  -9.158  1.00  0.00    -0.391 OA
ATOM     30  H1  UNL     1      14.769  37.791  -9.788  1.00  0.00     0.210 HD
ENDBRANCH  25  29
BRANCH  26  31
HETATM   31  O2  UNL     1      11.206  38.253  -8.128  1.00  0.00    -0.390 OA
ATOM     32  H2  UNL     1      10.784  38.545  -7.328  1.00  0.00     0.210 HD
ENDBRANCH  26  31
BRANCH  27  33
HETATM   33  O3  UNL     1      12.391  38.235  -5.553  1.00  0.00    -0.389 OA
ATOM     34  H3  UNL     1      12.826  38.496  -4.749  1.00  0.00     0.210 HD
ENDBRANCH  27  33
BRANCH  28  35
HETATM   35  O4  UNL     1      11.617  40.634  -5.707  1.00  0.00    -0.374 OA
ATOM     36  H4  UNL     1      11.518  41.569  -5.568  1.00  0.00     0.212 HD
ENDBRANCH  28  35
ENDBRANCH  22  23
ENDBRANCH  21  22
ENDBRANCH  20  21
ENDBRANCH  19  20
ENDBRANCH  18  19
ENDBRANCH  17  18
ENDBRANCH  16  17
ENDBRANCH  15  16
ENDBRANCH  14  15
ENDBRANCH   8  14
TORSDOF 15
ENDMDL
MODEL 2
REMARK VINA RESULT: -6.935773935      4.379      6.496
REMARK  15 active torsions:
REMARK  status: ('A' for Active; 'I' for Inactive)
REMARK    1  A    between atoms: C2_2  and  N1_5 
REMARK       I    between atoms: C5_7  and  N2_8 
REMARK       I    between atoms: C5_7  and  N4_12 
REMARK    2  A    between atoms: N4_12  and  C7_14 
REMARK    3  A    between atoms: C7_14  and  C8_15 
REMARK    4  A    between atoms: C8_15  and  C9_16 
REMARK    5  A    between atoms: C9_16  and  C10_17 
REMARK    6  A    between atoms: C10_17  and  C11_18 
REMARK    7  A    between atoms: C11_18  and  C12_19 
REMARK    8  A    between atoms: C12_19  and  C13_20 
REMARK    9  A    between atoms: C13_20  and  C14_21 
REMARK   10  A    between atoms: C14_21  and  C15_22 
REMARK   11  A    between atoms: C15_22  and  N5_23 
REMARK   12  A    between atoms: C17_25  and  O1_26 
REMARK   13  A    between atoms: C18_28  and  O2_29 
REMARK   14  A    between atoms: C19_31  and  O3_32 
REMARK   15  A    between atoms: C20_34  and  O4_35 
ROOT
HETATM    1  N1  UNL     1      10.234  37.694  -2.944  1.00  0.00    -0.218 N 
ATOM      2  H1  UNL     1      10.632  36.870  -3.394  1.00  0.00     0.178 HD
HETATM    3  C5  UNL     1      10.179  38.757  -3.623  1.00  0.00     0.683 C 
HETATM    4  N2  UNL     1       9.641  39.945  -3.070  1.00  0.00    -0.126 N 
ATOM      5  H2  UNL     1      10.104  40.359  -2.261  1.00  0.00     0.197 HD
HETATM    6  C6  UNL     1       8.492  40.584  -3.588  1.00  0.00     0.196 C 
HETATM    7  N3  UNL     1       7.541  41.109  -4.009  1.00  0.00    -0.171 NA
HETATM    8  N4  UNL     1      10.673  38.760  -4.972  1.00  0.00    -0.226 N 
ATOM      9  H4  UNL     1      10.908  37.881  -5.432  1.00  0.00     0.177 HD
ENDROOT
BRANCH   1  10
HETATM   10  C2  UNL     1       9.788  37.555  -1.608  1.00  0.00     0.036 C 
HETATM   11  C1  UNL     1      10.084  36.098  -1.204  1.00  0.00     0.038 C 
HETATM   12  C3  UNL     1       8.321  37.749  -1.376  1.00  0.00     0.038 C 
HETATM   13  C4  UNL     1      10.590  38.495  -0.721  1.00  0.00     0.038 C 
ENDBRANCH   1  10
BRANCH   8  14
HETATM   14  C7  UNL     1      10.835  40.023  -5.681  1.00  0.00     0.138 C 
BRANCH  14  15
HETATM   15  C8  UNL     1      11.588  39.868  -6.969  1.00  0.00     0.020 C 
BRANCH  15  16
HETATM   16  C9  UNL     1      12.117  38.487  -7.114  1.00  0.00     0.002 C 
BRANCH  16  17
HETATM   17  C10 UNL     1      13.287  38.426  -8.028  1.00  0.00     0.000 C 
BRANCH  17  18
HETATM   18  C11 UNL     1      13.126  39.370  -9.168  1.00  0.00     0.000 C 
BRANCH  18  19
HETATM   19  C12 UNL     1      13.480  38.798 -10.523  1.00  0.00     0.000 C 
BRANCH  19  20
HETATM   20  C13 UNL     1      13.572  37.308 -10.403  1.00  0.00     0.005 C 
BRANCH  20  21
HETATM   21  C14 UNL     1      13.239  36.541 -11.620  1.00  0.00     0.044 C 
BRANCH  21  22
HETATM   22  C15 UNL     1      14.318  36.074 -12.500  1.00  0.00     0.061 C 
BRANCH  22  23
HETATM   23  N5  UNL     1      14.243  36.281 -13.882  1.00  0.00    -0.363 N 
HETATM   24  C16 UNL     1      13.160  35.823 -14.648  1.00  0.00     0.159 C 
HETATM   25  C17 UNL     1      13.704  35.469 -16.049  1.00  0.00     0.167 C 
HETATM   26  C18 UNL     1      15.046  36.142 -16.227  1.00  0.00     0.181 C 
HETATM   27  C19 UNL     1      14.919  37.578 -15.768  1.00  0.00     0.198 C 
HETATM   28  C20 UNL     1      14.554  37.637 -14.303  1.00  0.00     0.251 C 
BRANCH  25  29
HETATM   29  O1  UNL     1      12.810  35.827 -17.051  1.00  0.00    -0.391 OA
ATOM     30  H1  UNL     1      13.029  36.669 -17.432  1.00  0.00     0.210 HD
ENDBRANCH  25  29
BRANCH  26  31
HETATM   31  O2  UNL     1      16.015  35.475 -15.476  1.00  0.00    -0.390 OA
ATOM     32  H2  UNL     1      16.211  35.969 -14.688  1.00  0.00     0.210 HD
ENDBRANCH  26  31
BRANCH  27  33
HETATM   33  O3  UNL     1      16.127  38.263 -15.976  1.00  0.00    -0.389 OA
ATOM     34  H3  UNL     1      16.130  39.079 -15.490  1.00  0.00     0.210 HD
ENDBRANCH  27  33
BRANCH  28  35
HETATM   35  O4  UNL     1      15.522  38.240 -13.524  1.00  0.00    -0.374 OA
ATOM     36  H4  UNL     1      15.942  38.977 -13.953  1.00  0.00     0.212 HD
ENDBRANCH  28  35
ENDBRANCH  22  23
ENDBRANCH  21  22
ENDBRANCH  20  21
ENDBRANCH  19  20
ENDBRANCH  18  19
ENDBRANCH  17  18
ENDBRANCH  16  17
ENDBRANCH  15  16
ENDBRANCH  14  15
ENDBRANCH   8  14
TORSDOF 15
ENDMDL
MODEL 3
REMARK VINA RESULT: -6.888952366      3.455      5.373
REMARK  15 active torsions:
REMARK  status: ('A' for Active; 'I' for Inactive)
REMARK    1  A    between atoms: C2_2  and  N1_5 
REMARK       I    between atoms: C5_7  and  N2_8 
REMARK       I    between atoms: C5_7  and  N4_12 
REMARK    2  A    between atoms: N4_12  and  C7_14 
REMARK    3  A    between atoms: C7_14  and  C8_15 
REMARK    4  A    between atoms: C8_15  and  C9_16 
REMARK    5  A    between atoms: C9_16  and  C10_17 
REMARK    6  A    between atoms: C10_17  and  C11_18 
REMARK    7  A    between atoms: C11_18  and  C12_19 
REMARK    8  A    between atoms: C12_19  and  C13_20 
REMARK    9  A    between atoms: C13_20  and  C14_21 
REMARK   10  A    between atoms: C14_21  and  C15_22 
REMARK   11  A    between atoms: C15_22  and  N5_23 
REMARK   12  A    between atoms: C17_25  and  O1_26 
REMARK   13  A    between atoms: C18_28  and  O2_29 
REMARK   14  A    between atoms: C19_31  and  O3_32 
REMARK   15  A    between atoms: C20_34  and  O4_35 
ROOT
HETATM    1  N1  UNL     1      10.172  37.680  -2.991  1.00  0.00    -0.218 N 
ATOM      2  H1  UNL     1      10.486  36.830  -3.459  1.00  0.00     0.178 HD
HETATM    3  C5  UNL     1      10.187  38.750  -3.661  1.00  0.00     0.683 C 
HETATM    4  N2  UNL     1       9.766  39.974  -3.084  1.00  0.00    -0.126 N 
ATOM      5  H2  UNL     1      10.286  40.339  -2.286  1.00  0.00     0.197 HD
HETATM    6  C6  UNL     1       8.660  40.711  -3.563  1.00  0.00     0.196 C 
HETATM    7  N3  UNL     1       7.745  41.318  -3.952  1.00  0.00    -0.171 NA
HETATM    8  N4  UNL     1      10.640  38.724  -5.024  1.00  0.00    -0.226 N 
ATOM      9  H4  UNL     1      10.787  37.832  -5.497  1.00  0.00     0.177 HD
ENDROOT
BRANCH   1  10
HETATM   10  C2  UNL     1       9.755  37.566  -1.644  1.00  0.00     0.036 C 
HETATM   11  C1  UNL     1      10.041  36.111  -1.225  1.00  0.00     0.038 C 
HETATM   12  C3  UNL     1       8.296  37.784  -1.381  1.00  0.00     0.038 C 
HETATM   13  C4  UNL     1      10.589  38.507  -0.789  1.00  0.00     0.038 C 
ENDBRANCH   1  10
BRANCH   8  14
HETATM   14  C7  UNL     1      10.887  39.975  -5.729  1.00  0.00     0.138 C 
BRANCH  14  15
HETATM   15  C8  UNL     1      11.634  39.775  -7.014  1.00  0.00     0.020 C 
BRANCH  15  16
HETATM   16  C9  UNL     1      11.820  41.065  -7.729  1.00  0.00     0.002 C 
BRANCH  16  17
HETATM   17  C10 UNL     1      13.159  41.167  -8.366  1.00  0.00     0.000 C 
BRANCH  17  18
HETATM   18  C11 UNL     1      13.038  41.411  -9.830  1.00  0.00     0.000 C 
BRANCH  18  19
HETATM   19  C12 UNL     1      13.759  40.410 -10.704  1.00  0.00     0.000 C 
BRANCH  19  20
HETATM   20  C13 UNL     1      14.098  39.210  -9.875  1.00  0.00     0.005 C 
BRANCH  20  21
HETATM   21  C14 UNL     1      13.330  37.984 -10.171  1.00  0.00     0.044 C 
BRANCH  21  22
HETATM   22  C15 UNL     1      14.042  36.756 -10.550  1.00  0.00     0.061 C 
BRANCH  22  23
HETATM   23  N5  UNL     1      14.468  36.565 -11.868  1.00  0.00    -0.363 N 
HETATM   24  C16 UNL     1      15.827  36.514 -12.214  1.00  0.00     0.159 C 
HETATM   25  C17 UNL     1      15.963  37.100 -13.636  1.00  0.00     0.167 C 
HETATM   26  C18 UNL     1      14.601  37.092 -14.291  1.00  0.00     0.181 C 
HETATM   27  C19 UNL     1      13.969  35.738 -14.051  1.00  0.00     0.198 C 
HETATM   28  C20 UNL     1      13.781  35.494 -12.572  1.00  0.00     0.251 C 
BRANCH  25  29
HETATM   29  O1  UNL     1      16.902  36.405 -14.388  1.00  0.00    -0.391 OA
ATOM     30  H1  UNL     1      16.713  36.454 -15.318  1.00  0.00     0.210 HD
ENDBRANCH  25  29
BRANCH  26  31
HETATM   31  O2  UNL     1      13.807  38.103 -13.747  1.00  0.00    -0.390 OA
ATOM     32  H2  UNL     1      13.842  38.875 -14.300  1.00  0.00     0.210 HD
ENDBRANCH  26  31
BRANCH  27  33
HETATM   33  O3  UNL     1      12.726  35.661 -14.699  1.00  0.00    -0.389 OA
ATOM     34  H3  UNL     1      12.762  36.112 -15.534  1.00  0.00     0.210 HD
ENDBRANCH  27  33
BRANCH  28  35
HETATM   35  O4  UNL     1      12.456  35.364 -12.205  1.00  0.00    -0.374 OA
ATOM     36  H4  UNL     1      12.334  34.843 -11.420  1.00  0.00     0.212 HD
ENDBRANCH  28  35
ENDBRANCH  22  23
ENDBRANCH  21  22
ENDBRANCH  20  21
ENDBRANCH  19  20
ENDBRANCH  18  19
ENDBRANCH  17  18
ENDBRANCH  16  17
ENDBRANCH  15  16
ENDBRANCH  14  15
ENDBRANCH   8  14
TORSDOF 15
ENDMDL
MODEL 4
REMARK VINA RESULT: -6.870534588      2.944      5.568
REMARK  15 active torsions:
REMARK  status: ('A' for Active; 'I' for Inactive)
REMARK    1  A    between atoms: C2_2  and  N1_5 
REMARK       I    between atoms: C5_7  and  N2_8 
REMARK       I    between atoms: C5_7  and  N4_12 
REMARK    2  A    between atoms: N4_12  and  C7_14 
REMARK    3  A    between atoms: C7_14  and  C8_15 
REMARK    4  A    between atoms: C8_15  and  C9_16 
REMARK    5  A    between atoms: C9_16  and  C10_17 
REMARK    6  A    between atoms: C10_17  and  C11_18 
REMARK    7  A    between atoms: C11_18  and  C12_19 
REMARK    8  A    between atoms: C12_19  and  C13_20 
REMARK    9  A    between atoms: C13_20  and  C14_21 
REMARK   10  A    between atoms: C14_21  and  C15_22 
REMARK   11  A    between atoms: C15_22  and  N5_23 
REMARK   12  A    between atoms: C17_25  and  O1_26 
REMARK   13  A    between atoms: C18_28  and  O2_29 
REMARK   14  A    between atoms: C19_31  and  O3_32 
REMARK   15  A    between atoms: C20_34  and  O4_35 
ROOT
HETATM    1  N1  UNL     1      10.605  38.026  -4.336  1.00  0.00    -0.218 N 
ATOM      2  H1  UNL     1      10.546  37.020  -4.491  1.00  0.00     0.178 HD
HETATM    3  C5  UNL     1      11.243  38.707  -5.185  1.00  0.00     0.683 C 
HETATM    4  N2  UNL     1      11.371  40.112  -5.042  1.00  0.00    -0.126 N 
ATOM      5  H2  UNL     1      11.859  40.475  -4.224  1.00  0.00     0.197 HD
HETATM    6  C6  UNL     1      10.853  41.031  -5.982  1.00  0.00     0.196 C 
HETATM    7  N3  UNL     1      10.421  41.792  -6.751  1.00  0.00    -0.171 NA
HETATM    8  N4  UNL     1      11.851  38.048  -6.308  1.00  0.00    -0.226 N 
ATOM      9  H4  UNL     1      11.630  37.073  -6.509  1.00  0.00     0.177 HD
ENDROOT
BRANCH   1  10
HETATM   10  C2  UNL     1       9.964  38.547  -3.187  1.00  0.00     0.036 C 
HETATM   11  C1  UNL     1       9.335  37.342  -2.460  1.00  0.00     0.038 C 
HETATM   12  C3  UNL     1       8.838  39.505  -3.433  1.00  0.00     0.038 C 
HETATM   13  C4  UNL     1      11.010  39.186  -2.287  1.00  0.00     0.038 C 
ENDBRANCH   1  10
BRANCH   8  14
HETATM   14  C7  UNL     1      12.783  38.778  -7.158  1.00  0.00     0.138 C 
BRANCH  14  15
HETATM   15  C8  UNL     1      13.531  37.878  -8.097  1.00  0.00     0.020 C 
BRANCH  15  16
HETATM   16  C9  UNL     1      12.979  37.968  -9.474  1.00  0.00     0.002 C 
BRANCH  16  17
HETATM   17  C10 UNL     1      13.832  37.268 -10.469  1.00  0.00     0.000 C 
BRANCH  17  18
HETATM   18  C11 UNL     1      13.871  38.011 -11.759  1.00  0.00     0.000 C 
BRANCH  18  19
HETATM   19  C12 UNL     1      13.907  39.517 -11.625  1.00  0.00     0.000 C 
BRANCH  19  20
HETATM   20  C13 UNL     1      15.308  39.934 -11.302  1.00  0.00     0.005 C 
BRANCH  20  21
HETATM   21  C14 UNL     1      15.468  40.787 -10.107  1.00  0.00     0.044 C 
BRANCH  21  22
HETATM   22  C15 UNL     1      14.276  41.319  -9.432  1.00  0.00     0.061 C 
BRANCH  22  23
HETATM   23  N5  UNL     1      14.336  42.539  -8.750  1.00  0.00    -0.363 N 
HETATM   24  C16 UNL     1      15.484  43.347  -8.763  1.00  0.00     0.159 C 
HETATM   25  C17 UNL     1      15.550  44.077  -7.404  1.00  0.00     0.167 C 
HETATM   26  C18 UNL     1      14.184  44.016  -6.759  1.00  0.00     0.181 C 
HETATM   27  C19 UNL     1      13.152  44.383  -7.803  1.00  0.00     0.198 C 
HETATM   28  C20 UNL     1      13.177  43.394  -8.946  1.00  0.00     0.251 C 
BRANCH  25  29
HETATM   29  O1  UNL     1      15.997  45.385  -7.547  1.00  0.00    -0.391 OA
ATOM     30  H1  UNL     1      15.338  46.012  -7.274  1.00  0.00     0.210 HD
ENDBRANCH  25  29
BRANCH  26  31
HETATM   31  O2  UNL     1      13.946  42.730  -6.271  1.00  0.00    -0.390 OA
ATOM     32  H2  UNL     1      13.476  42.779  -5.447  1.00  0.00     0.210 HD
ENDBRANCH  26  31
BRANCH  27  33
HETATM   33  O3  UNL     1      11.870  44.404  -7.232  1.00  0.00    -0.389 OA
ATOM     34  H3  UNL     1      11.207  44.340  -7.910  1.00  0.00     0.210 HD
ENDBRANCH  27  33
BRANCH  28  35
HETATM   35  O4  UNL     1      11.997  42.689  -9.082  1.00  0.00    -0.374 OA
ATOM     36  H4  UNL     1      11.748  42.222  -8.292  1.00  0.00     0.212 HD
ENDBRANCH  28  35
ENDBRANCH  22  23
ENDBRANCH  21  22
ENDBRANCH  20  21
ENDBRANCH  19  20
ENDBRANCH  18  19
ENDBRANCH  17  18
ENDBRANCH  16  17
ENDBRANCH  15  16
ENDBRANCH  14  15
ENDBRANCH   8  14
TORSDOF 15
ENDMDL
MODEL 5
REMARK VINA RESULT: -6.768847778      4.038      7.996
REMARK  15 active torsions:
REMARK  status: ('A' for Active; 'I' for Inactive)
REMARK    1  A    between atoms: C2_2  and  N1_5 
REMARK       I    between atoms: C5_7  and  N2_8 
REMARK       I    between atoms: C5_7  and  N4_12 
REMARK    2  A    between atoms: N4_12  and  C7_14 
REMARK    3  A    between atoms: C7_14  and  C8_15 
REMARK    4  A    between atoms: C8_15  and  C9_16 
REMARK    5  A    between atoms: C9_16  and  C10_17 
REMARK    6  A    between atoms: C10_17  and  C11_18 
REMARK    7  A    between atoms: C11_18  and  C12_19 
REMARK    8  A    between atoms: C12_19  and  C13_20 
REMARK    9  A    between atoms: C13_20  and  C14_21 
REMARK   10  A    between atoms: C14_21  and  C15_22 
REMARK   11  A    between atoms: C15_22  and  N5_23 
REMARK   12  A    between atoms: C17_25  and  O1_26 
REMARK   13  A    between atoms: C18_28  and  O2_29 
REMARK   14  A    between atoms: C19_31  and  O3_32 
REMARK   15  A    between atoms: C20_34  and  O4_35 
ROOT
HETATM    1  N1  UNL     1      15.428  37.885 -11.822  1.00  0.00    -0.218 N 
ATOM      2  H1  UNL     1      16.327  37.473 -11.575  1.00  0.00     0.178 HD
HETATM    3  C5  UNL     1      15.356  39.144 -11.856  1.00  0.00     0.683 C 
HETATM    4  N2  UNL     1      14.142  39.794 -12.191  1.00  0.00    -0.126 N 
ATOM      5  H2  UNL     1      13.334  39.657 -11.584  1.00  0.00     0.197 HD
HETATM    6  C6  UNL     1      14.000  40.623 -13.326  1.00  0.00     0.196 C 
HETATM    7  N3  UNL     1      13.878  41.302 -14.265  1.00  0.00    -0.171 NA
HETATM    8  N4  UNL     1      16.521  39.927 -11.548  1.00  0.00    -0.226 N 
ATOM      9  H4  UNL     1      17.433  39.477 -11.468  1.00  0.00     0.177 HD
ENDROOT
BRANCH   1  10
HETATM   10  C2  UNL     1      14.360  36.999 -12.099  1.00  0.00     0.036 C 
HETATM   11  C1  UNL     1      14.893  35.579 -11.824  1.00  0.00     0.038 C 
HETATM   12  C3  UNL     1      13.865  36.978 -13.514  1.00  0.00     0.038 C 
HETATM   13  C4  UNL     1      13.213  37.297 -11.146  1.00  0.00     0.038 C 
ENDBRANCH   1  10
BRANCH   8  14
HETATM   14  C7  UNL     1      16.395  41.365 -11.351  1.00  0.00     0.138 C 
BRANCH  14  15
HETATM   15  C8  UNL     1      16.223  41.736  -9.908  1.00  0.00     0.020 C 
BRANCH  15  16
HETATM   16  C9  UNL     1      16.681  43.128  -9.657  1.00  0.00     0.002 C 
BRANCH  16  17
HETATM   17  C10 UNL     1      15.994  43.745  -8.493  1.00  0.00     0.000 C 
BRANCH  17  18
HETATM   18  C11 UNL     1      14.752  42.999  -8.146  1.00  0.00     0.000 C 
BRANCH  18  19
HETATM   19  C12 UNL     1      13.467  43.764  -8.368  1.00  0.00     0.000 C 
BRANCH  19  20
HETATM   20  C13 UNL     1      12.957  43.454  -9.741  1.00  0.00     0.005 C 
BRANCH  20  21
HETATM   21  C14 UNL     1      12.266  42.158  -9.895  1.00  0.00     0.044 C 
BRANCH  21  22
HETATM   22  C15 UNL     1      11.442  41.641  -8.793  1.00  0.00     0.061 C 
BRANCH  22  23
HETATM   23  N5  UNL     1      11.904  40.583  -8.002  1.00  0.00    -0.363 N 
HETATM   24  C16 UNL     1      12.990  39.782  -8.386  1.00  0.00     0.159 C 
HETATM   25  C17 UNL     1      12.735  38.364  -7.831  1.00  0.00     0.167 C 
HETATM   26  C18 UNL     1      11.692  38.454  -6.741  1.00  0.00     0.181 C 
HETATM   27  C19 UNL     1      12.059  39.605  -5.830  1.00  0.00     0.198 C 
HETATM   28  C20 UNL     1      12.057  40.910  -6.593  1.00  0.00     0.251 C 
BRANCH  25  29
HETATM   29  O1  UNL     1      13.908  37.774  -7.376  1.00  0.00    -0.391 OA
ATOM     30  H1  UNL     1      14.311  37.234  -8.045  1.00  0.00     0.210 HD
ENDBRANCH  25  29
BRANCH  26  31
HETATM   31  O2  UNL     1      10.432  38.664  -7.306  1.00  0.00    -0.390 OA
ATOM     32  H2  UNL     1       9.802  38.064  -6.925  1.00  0.00     0.210 HD
ENDBRANCH  26  31
BRANCH  27  33
HETATM   33  O3  UNL     1      11.151  39.688  -4.762  1.00  0.00    -0.389 OA
ATOM     34  H3  UNL     1      11.441  40.339  -4.134  1.00  0.00     0.210 HD
ENDBRANCH  27  33
BRANCH  28  35
HETATM   35  O4  UNL     1      11.111  41.806  -6.137  1.00  0.00    -0.374 OA
ATOM     36  H4  UNL     1      10.601  41.473  -5.407  1.00  0.00     0.212 HD
ENDBRANCH  28  35
ENDBRANCH  22  23
ENDBRANCH  21  22
ENDBRANCH  20  21
ENDBRANCH  19  20
ENDBRANCH  18  19
ENDBRANCH  17  18
ENDBRANCH  16  17
ENDBRANCH  15  16
ENDBRANCH  14  15
ENDBRANCH   8  14
TORSDOF 15
ENDMDL
