MODEL 1
REMARK VINA RESULT: -7.610426844      0.000      0.000
REMARK  10 active torsions:
REMARK  status: ('A' for Active; 'I' for Inactive)
REMARK    1  A    between atoms: N1_1  and  C1_5 
REMARK    2  A    between atoms: C1_5  and  C2_6 
REMARK    3  A    between atoms: C1_5  and  C3_11 
REMARK    4  A    between atoms: C2_6  and  O1_7 
REMARK    5  A    between atoms: C2_6  and  O2_9 
REMARK    6  A    between atoms: C3_11  and  O3_12 
REMARK    7  A    between atoms: C3_11  and  C4_14 
REMARK    8  A    between atoms: C4_14  and  C5_16 
REMARK       I    between atoms: C5_16  and  N2_18 
REMARK    9  A    between atoms: N2_18  and  N3_20 
REMARK       I    between atoms: N3_20  and  C6_21 
REMARK   10  A    between atoms: C6_21  and  C7_23 
ROOT
HETATM    1  C5  UNL     1       5.288  19.978   2.011  1.00  0.00     0.319 C 
HETATM    2  O5  UNL     1       5.074  21.177   1.643  1.00  0.00    -0.262 OA
HETATM    3  N2  UNL     1       5.075  19.730   3.427  1.00  0.00    -0.192 N 
ATOM      4  H2  UNL     1       5.254  18.818   3.847  1.00  0.00     0.205 HD
ENDROOT
BRANCH   1   5
HETATM    5  C4  UNL     1       5.699  18.925   1.086  1.00  0.00     0.249 C 
HETATM    6  O4  UNL     1       4.809  18.224   0.569  1.00  0.00    -0.284 OA
BRANCH   5   7
HETATM    7  C3  UNL     1       7.144  18.801   0.836  1.00  0.00     0.233 C 
BRANCH   7   8
HETATM    8  C1  UNL     1       7.698  17.436   1.056  1.00  0.00     0.274 C 
BRANCH   8   9
HETATM    9  N1  UNL     1       9.094  17.428   0.607  1.00  0.00    -0.068 N 
ATOM     10  H13 UNL     1       9.720  17.070   1.328  1.00  0.00     0.275 HD
ATOM     11  H12 UNL     1       9.258  16.715  -0.105  1.00  0.00     0.275 HD
ATOM     12  H11 UNL     1       9.377  18.354   0.286  1.00  0.00     0.275 HD
ENDBRANCH   8   9
BRANCH   8  13
HETATM   13  C2  UNL     1       7.563  16.763   2.382  1.00  0.00     0.287 C 
BRANCH  13  14
HETATM   14  O1  UNL     1       8.632  17.128   3.159  1.00  0.00    -0.369 OA
ATOM     15  H1  UNL     1       8.768  16.452   3.813  1.00  0.00     0.212 HD
ENDBRANCH  13  14
BRANCH  13  16
HETATM   16  O2  UNL     1       6.355  16.808   3.009  1.00  0.00    -0.369 OA
ATOM     17  H2  UNL     1       6.282  16.423   3.874  1.00  0.00     0.212 HD
ENDBRANCH  13  16
ENDBRANCH   8  13
ENDBRANCH   7   8
BRANCH   7  18
HETATM   18  O3  UNL     1       7.766  19.742   1.677  1.00  0.00    -0.385 OA
ATOM     19  H3  UNL     1       7.355  20.595   1.598  1.00  0.00     0.210 HD
ENDBRANCH   7  18
ENDBRANCH   5   7
ENDBRANCH   1   5
BRANCH   3  20
HETATM   20  N3  UNL     1       4.632  20.763   4.149  1.00  0.00    -0.276 NA
HETATM   21  C6  UNL     1       4.185  21.795   4.899  1.00  0.00     0.369 C 
HETATM   22  O6  UNL     1       3.956  21.830   6.160  1.00  0.00    -0.247 OA
BRANCH  21  23
HETATM   23  C7  UNL     1       3.937  23.084   4.176  1.00  0.00     0.201 A 
HETATM   24  N4  UNL     1       4.899  23.980   3.987  1.00  0.00    -0.286 N 
HETATM   25  N5  UNL     1       4.672  25.099   3.344  1.00  0.00    -0.251 N 
ATOM     26  H4  UNL     1       5.834  23.793   4.349  1.00  0.00     0.187 HD
HETATM   27  C8  UNL     1       3.398  25.314   2.859  1.00  0.00     0.341 A 
ATOM     28  H5  UNL     1       5.412  25.788   3.207  1.00  0.00     0.191 HD
HETATM   29  O7  UNL     1       3.215  26.406   2.231  1.00  0.00    -0.245 OA
HETATM   30  N6  UNL     1       2.414  24.443   3.021  1.00  0.00    -0.272 N 
HETATM   31  C9  UNL     1       2.684  23.326   3.689  1.00  0.00     0.284 A 
ATOM     32  H6  UNL     1       1.482  24.624   2.647  1.00  0.00     0.174 HD
HETATM   33  O8  UNL     1       1.776  22.442   3.898  1.00  0.00    -0.265 OA
ENDBRANCH  21  23
ENDBRANCH   3  20
TORSDOF 10
ENDMDL
MODEL 2
REMARK VINA RESULT: -7.343209273      1.735      2.766
REMARK  10 active torsions:
REMARK  status: ('A' for Active; 'I' for Inactive)
REMARK    1  A    between atoms: N1_1  and  C1_5 
REMARK    2  A    between atoms: C1_5  and  C2_6 
REMARK    3  A    between atoms: C1_5  and  C3_11 
REMARK    4  A    between atoms: C2_6  and  O1_7 
REMARK    5  A    between atoms: C2_6  and  O2_9 
REMARK    6  A    between atoms: C3_11  and  O3_12 
REMARK    7  A    between atoms: C3_11  and  C4_14 
REMARK    8  A    between atoms: C4_14  and  C5_16 
REMARK       I    between atoms: C5_16  and  N2_18 
REMARK    9  A    between atoms: N2_18  and  N3_20 
REMARK       I    between atoms: N3_20  and  C6_21 
REMARK   10  A    between atoms: C6_21  and  C7_23 
ROOT
HETATM    1  C5  UNL     1       5.208  20.591   2.060  1.00  0.00     0.319 C 
HETATM    2  O5  UNL     1       4.907  20.460   3.290  1.00  0.00    -0.262 OA
HETATM    3  N2  UNL     1       5.244  21.964   1.586  1.00  0.00    -0.192 N 
ATOM      4  H2  UNL     1       5.433  22.191   0.610  1.00  0.00     0.205 HD
ENDROOT
BRANCH   1   5
HETATM    5  C4  UNL     1       5.513  19.456   1.193  1.00  0.00     0.249 C 
HETATM    6  O4  UNL     1       4.558  18.832   0.693  1.00  0.00    -0.284 OA
BRANCH   5   7
HETATM    7  C3  UNL     1       6.938  19.164   0.973  1.00  0.00     0.233 C 
BRANCH   7   8
HETATM    8  C1  UNL     1       7.332  17.752   1.238  1.00  0.00     0.274 C 
BRANCH   8   9
HETATM    9  N1  UNL     1       8.631  17.508   0.603  1.00  0.00    -0.068 N 
ATOM     10  H13 UNL     1       9.365  18.085   1.012  1.00  0.00     0.275 HD
ATOM     11  H12 UNL     1       9.004  16.590   0.845  1.00  0.00     0.275 HD
ATOM     12  H11 UNL     1       8.569  17.635  -0.407  1.00  0.00     0.275 HD
ENDBRANCH   8   9
BRANCH   8  13
HETATM   13  C2  UNL     1       7.309  17.201   2.627  1.00  0.00     0.287 C 
BRANCH  13  14
HETATM   14  O1  UNL     1       8.599  17.146   3.088  1.00  0.00    -0.369 OA
ATOM     15  H1  UNL     1       8.649  16.466   3.749  1.00  0.00     0.212 HD
ENDBRANCH  13  14
BRANCH  13  16
HETATM   16  O2  UNL     1       6.405  17.712   3.508  1.00  0.00    -0.369 OA
ATOM     17  H2  UNL     1       6.157  17.181   4.256  1.00  0.00     0.212 HD
ENDBRANCH  13  16
ENDBRANCH   8  13
ENDBRANCH   7   8
BRANCH   7  18
HETATM   18  O3  UNL     1       7.649  20.052   1.802  1.00  0.00    -0.385 OA
ATOM     19  H3  UNL     1       7.056  20.594   2.309  1.00  0.00     0.210 HD
ENDBRANCH   7  18
ENDBRANCH   5   7
ENDBRANCH   1   5
BRANCH   3  20
HETATM   20  N3  UNL     1       5.015  22.911   2.499  1.00  0.00    -0.276 NA
HETATM   21  C6  UNL     1       4.785  23.887   3.406  1.00  0.00     0.369 C 
HETATM   22  O6  UNL     1       4.778  25.158   3.233  1.00  0.00    -0.247 OA
BRANCH  21  23
HETATM   23  C7  UNL     1       4.479  23.438   4.803  1.00  0.00     0.201 A 
HETATM   24  N4  UNL     1       5.398  22.873   5.576  1.00  0.00    -0.286 N 
HETATM   25  N5  UNL     1       5.121  22.493   6.799  1.00  0.00    -0.251 N 
ATOM     26  H4  UNL     1       6.340  22.732   5.211  1.00  0.00     0.187 HD
HETATM   27  C8  UNL     1       3.839  22.709   7.264  1.00  0.00     0.341 A 
ATOM     28  H5  UNL     1       5.828  22.052   7.388  1.00  0.00     0.191 HD
HETATM   29  O7  UNL     1       3.606  22.337   8.459  1.00  0.00    -0.245 OA
HETATM   30  N6  UNL     1       2.896  23.275   6.526  1.00  0.00    -0.272 N 
HETATM   31  C9  UNL     1       3.217  23.635   5.287  1.00  0.00     0.284 A 
ATOM     32  H6  UNL     1       1.958  23.429   6.896  1.00  0.00     0.174 HD
HETATM   33  O8  UNL     1       2.351  24.176   4.508  1.00  0.00    -0.265 OA
ENDBRANCH  21  23
ENDBRANCH   3  20
TORSDOF 10
ENDMDL
MODEL 3
REMARK VINA RESULT: -7.239434089      2.016      2.982
REMARK  10 active torsions:
REMARK  status: ('A' for Active; 'I' for Inactive)
REMARK    1  A    between atoms: N1_1  and  C1_5 
REMARK    2  A    between atoms: C1_5  and  C2_6 
REMARK    3  A    between atoms: C1_5  and  C3_11 
REMARK    4  A    between atoms: C2_6  and  O1_7 
REMARK    5  A    between atoms: C2_6  and  O2_9 
REMARK    6  A    between atoms: C3_11  and  O3_12 
REMARK    7  A    between atoms: C3_11  and  C4_14 
REMARK    8  A    between atoms: C4_14  and  C5_16 
REMARK       I    between atoms: C5_16  and  N2_18 
REMARK    9  A    between atoms: N2_18  and  N3_20 
REMARK       I    between atoms: N3_20  and  C6_21 
REMARK   10  A    between atoms: C6_21  and  C7_23 
ROOT
HETATM    1  C5  UNL     1       4.966  20.442   2.284  1.00  0.00     0.319 C 
HETATM    2  O5  UNL     1       4.729  20.360   3.531  1.00  0.00    -0.262 OA
HETATM    3  N2  UNL     1       5.071  21.799   1.774  1.00  0.00    -0.192 N 
ATOM      4  H2  UNL     1       5.217  21.991   0.782  1.00  0.00     0.205 HD
ENDROOT
BRANCH   1   5
HETATM    5  C4  UNL     1       5.135  19.270   1.429  1.00  0.00     0.249 C 
HETATM    6  O4  UNL     1       4.191  18.951   0.682  1.00  0.00    -0.284 OA
BRANCH   5   7
HETATM    7  C3  UNL     1       6.430  18.577   1.519  1.00  0.00     0.233 C 
BRANCH   7   8
HETATM    8  C1  UNL     1       6.446  17.405   2.439  1.00  0.00     0.274 C 
BRANCH   8   9
HETATM    9  N1  UNL     1       5.222  16.628   2.218  1.00  0.00    -0.068 N 
ATOM     10  H13 UNL     1       4.576  17.111   1.594  1.00  0.00     0.275 HD
ATOM     11  H12 UNL     1       5.398  15.802   1.646  1.00  0.00     0.275 HD
ATOM     12  H11 UNL     1       4.781  16.387   3.105  1.00  0.00     0.275 HD
ENDBRANCH   8   9
BRANCH   8  13
HETATM   13  C2  UNL     1       7.639  16.508   2.511  1.00  0.00     0.287 C 
BRANCH  13  14
HETATM   14  O1  UNL     1       8.696  17.238   2.989  1.00  0.00    -0.369 OA
ATOM     15  H1  UNL     1       9.443  17.082   2.425  1.00  0.00     0.212 HD
ENDBRANCH  13  14
BRANCH  13  16
HETATM   16  O2  UNL     1       7.488  15.278   3.074  1.00  0.00    -0.369 OA
ATOM     17  H2  UNL     1       6.729  14.761   2.829  1.00  0.00     0.212 HD
ENDBRANCH  13  16
ENDBRANCH   8  13
ENDBRANCH   7   8
BRANCH   7  18
HETATM   18  O3  UNL     1       7.364  19.549   1.921  1.00  0.00    -0.385 OA
ATOM     19  H3  UNL     1       6.938  20.379   2.103  1.00  0.00     0.210 HD
ENDBRANCH   7  18
ENDBRANCH   5   7
ENDBRANCH   1   5
BRANCH   3  20
HETATM   20  N3  UNL     1       4.966  22.779   2.674  1.00  0.00    -0.276 NA
HETATM   21  C6  UNL     1       4.863  23.789   3.568  1.00  0.00     0.369 C 
HETATM   22  O6  UNL     1       5.006  25.048   3.376  1.00  0.00    -0.247 OA
BRANCH  21  23
HETATM   23  C7  UNL     1       4.518  23.399   4.973  1.00  0.00     0.201 A 
HETATM   24  N4  UNL     1       5.408  22.844   5.786  1.00  0.00    -0.286 N 
HETATM   25  N5  UNL     1       5.097  22.516   7.016  1.00  0.00    -0.251 N 
ATOM     26  H4  UNL     1       6.354  22.668   5.447  1.00  0.00     0.187 HD
HETATM   27  C8  UNL     1       3.811  22.778   7.445  1.00  0.00     0.341 A 
ATOM     28  H5  UNL     1       5.782  22.082   7.636  1.00  0.00     0.191 HD
HETATM   29  O7  UNL     1       3.546  22.456   8.648  1.00  0.00    -0.245 OA
HETATM   30  N6  UNL     1       2.897  23.336   6.667  1.00  0.00    -0.272 N 
HETATM   31  C9  UNL     1       3.251  23.642   5.423  1.00  0.00     0.284 A 
ATOM     32  H6  UNL     1       1.955  23.524   7.011  1.00  0.00     0.174 HD
HETATM   33  O8  UNL     1       2.414  24.173   4.606  1.00  0.00    -0.265 OA
ENDBRANCH  21  23
ENDBRANCH   3  20
TORSDOF 10
ENDMDL
MODEL 4
REMARK VINA RESULT: -7.171209397      0.921      1.512
REMARK  10 active torsions:
REMARK  status: ('A' for Active; 'I' for Inactive)
REMARK    1  A    between atoms: N1_1  and  C1_5 
REMARK    2  A    between atoms: C1_5  and  C2_6 
REMARK    3  A    between atoms: C1_5  and  C3_11 
REMARK    4  A    between atoms: C2_6  and  O1_7 
REMARK    5  A    between atoms: C2_6  and  O2_9 
REMARK    6  A    between atoms: C3_11  and  O3_12 
REMARK    7  A    between atoms: C3_11  and  C4_14 
REMARK    8  A    between atoms: C4_14  and  C5_16 
REMARK       I    between atoms: C5_16  and  N2_18 
REMARK    9  A    between atoms: N2_18  and  N3_20 
REMARK       I    between atoms: N3_20  and  C6_21 
REMARK   10  A    between atoms: C6_21  and  C7_23 
ROOT
HETATM    1  C5  UNL     1       5.196  20.083   2.041  1.00  0.00     0.319 C 
HETATM    2  O5  UNL     1       4.957  21.261   1.623  1.00  0.00    -0.262 OA
HETATM    3  N2  UNL     1       4.926  19.872   3.453  1.00  0.00    -0.192 N 
ATOM      4  H2  UNL     1       5.118  18.981   3.911  1.00  0.00     0.205 HD
ENDROOT
BRANCH   1   5
HETATM    5  C4  UNL     1       5.687  19.017   1.171  1.00  0.00     0.249 C 
HETATM    6  O4  UNL     1       4.869  18.167   0.771  1.00  0.00    -0.284 OA
BRANCH   5   7
HETATM    7  C3  UNL     1       7.118  19.058   0.831  1.00  0.00     0.233 C 
BRANCH   7   8
HETATM    8  C1  UNL     1       7.794  17.730   0.822  1.00  0.00     0.274 C 
BRANCH   8   9
HETATM    9  N1  UNL     1       9.157  17.909   0.313  1.00  0.00    -0.068 N 
ATOM     10  H13 UNL     1       9.853  17.532   0.956  1.00  0.00     0.275 HD
ATOM     11  H12 UNL     1       9.344  17.305  -0.487  1.00  0.00     0.275 HD
ATOM     12  H11 UNL     1       9.336  18.890   0.096  1.00  0.00     0.275 HD
ENDBRANCH   8   9
BRANCH   8  13
HETATM   13  C2  UNL     1       7.792  16.866   2.041  1.00  0.00     0.287 C 
BRANCH  13  14
HETATM   14  O1  UNL     1       7.894  15.559   1.640  1.00  0.00    -0.369 OA
ATOM     15  H1  UNL     1       7.856  15.008   2.412  1.00  0.00     0.212 HD
ENDBRANCH  13  14
BRANCH  13  16
HETATM   16  O2  UNL     1       8.600  17.213   3.080  1.00  0.00    -0.369 OA
ATOM     17  H2  UNL     1       9.056  16.522   3.546  1.00  0.00     0.212 HD
ENDBRANCH  13  16
ENDBRANCH   8  13
ENDBRANCH   7   8
BRANCH   7  18
HETATM   18  O3  UNL     1       7.716  19.924   1.765  1.00  0.00    -0.385 OA
ATOM     19  H3  UNL     1       8.506  20.315   1.412  1.00  0.00     0.210 HD
ENDBRANCH   7  18
ENDBRANCH   5   7
ENDBRANCH   1   5
BRANCH   3  20
HETATM   20  N3  UNL     1       4.413  20.910   4.118  1.00  0.00    -0.276 NA
HETATM   21  C6  UNL     1       3.894  21.948   4.813  1.00  0.00     0.369 C 
HETATM   22  O6  UNL     1       3.590  22.009   6.057  1.00  0.00    -0.247 OA
BRANCH  21  23
HETATM   23  C7  UNL     1       3.653  23.210   4.041  1.00  0.00     0.201 A 
HETATM   24  N4  UNL     1       2.524  23.422   3.377  1.00  0.00    -0.286 N 
HETATM   25  N5  UNL     1       2.321  24.533   2.713  1.00  0.00    -0.251 N 
ATOM     26  H4  UNL     1       1.798  22.705   3.383  1.00  0.00     0.187 HD
HETATM   27  C8  UNL     1       3.320  25.486   2.735  1.00  0.00     0.341 A 
ATOM     28  H5  UNL     1       1.454  24.690   2.198  1.00  0.00     0.191 HD
HETATM   29  O7  UNL     1       3.086  26.557   2.089  1.00  0.00    -0.245 OA
HETATM   30  N6  UNL     1       4.458  25.315   3.391  1.00  0.00    -0.272 N 
HETATM   31  C9  UNL     1       4.627  24.168   4.041  1.00  0.00     0.284 A 
ATOM     32  H6  UNL     1       5.178  26.037   3.396  1.00  0.00     0.174 HD
HETATM   33  O8  UNL     1       5.711  23.926   4.687  1.00  0.00    -0.265 OA
ENDBRANCH  21  23
ENDBRANCH   3  20
TORSDOF 10
ENDMDL
MODEL 5
REMARK VINA RESULT: -6.906617809      2.181      7.520
REMARK  10 active torsions:
REMARK  status: ('A' for Active; 'I' for Inactive)
REMARK    1  A    between atoms: N1_1  and  C1_5 
REMARK    2  A    between atoms: C1_5  and  C2_6 
REMARK    3  A    between atoms: C1_5  and  C3_11 
REMARK    4  A    between atoms: C2_6  and  O1_7 
REMARK    5  A    between atoms: C2_6  and  O2_9 
REMARK    6  A    between atoms: C3_11  and  O3_12 
REMARK    7  A    between atoms: C3_11  and  C4_14 
REMARK    8  A    between atoms: C4_14  and  C5_16 
REMARK       I    between atoms: C5_16  and  N2_18 
REMARK    9  A    between atoms: N2_18  and  N3_20 
REMARK       I    between atoms: N3_20  and  C6_21 
REMARK   10  A    between atoms: C6_21  and  C7_23 
ROOT
HETATM    1  C5  UNL     1       5.229  21.478   2.058  1.00  0.00     0.319 C 
HETATM    2  O5  UNL     1       4.656  20.342   2.099  1.00  0.00    -0.262 OA
HETATM    3  N2  UNL     1       6.590  21.453   1.551  1.00  0.00    -0.192 N 
ATOM      4  H2  UNL     1       7.165  22.295   1.510  1.00  0.00     0.205 HD
ENDROOT
BRANCH   1   5
HETATM    5  C4  UNL     1       4.571  22.714   2.471  1.00  0.00     0.249 C 
HETATM    6  O4  UNL     1       4.312  23.559   1.593  1.00  0.00    -0.284 OA
BRANCH   5   7
HETATM    7  C3  UNL     1       4.256  22.841   3.903  1.00  0.00     0.233 C 
BRANCH   7   8
HETATM    8  C1  UNL     1       4.473  24.201   4.470  1.00  0.00     0.274 C 
BRANCH   8   9
HETATM    9  N1  UNL     1       5.720  24.738   3.918  1.00  0.00    -0.068 N 
ATOM     10  H13 UNL     1       6.528  24.466   4.477  1.00  0.00     0.275 HD
ATOM     11  H12 UNL     1       5.976  24.276   3.045  1.00  0.00     0.275 HD
ATOM     12  H11 UNL     1       5.661  25.750   3.806  1.00  0.00     0.275 HD
ENDBRANCH   8   9
BRANCH   8  13
HETATM   13  C2  UNL     1       3.388  25.228   4.425  1.00  0.00     0.287 C 
BRANCH  13  14
HETATM   14  O1  UNL     1       3.468  25.884   3.225  1.00  0.00    -0.369 OA
ATOM     15  H1  UNL     1       3.959  25.340   2.621  1.00  0.00     0.212 HD
ENDBRANCH  13  14
BRANCH  13  16
HETATM   16  O2  UNL     1       2.131  24.855   4.794  1.00  0.00    -0.369 OA
ATOM     17  H2  UNL     1       2.012  23.995   5.181  1.00  0.00     0.212 HD
ENDBRANCH  13  16
ENDBRANCH   8  13
ENDBRANCH   7   8
BRANCH   7  18
HETATM   18  O3  UNL     1       5.051  21.885   4.562  1.00  0.00    -0.385 OA
ATOM     19  H3  UNL     1       5.969  22.126   4.533  1.00  0.00     0.210 HD
ENDBRANCH   7  18
ENDBRANCH   5   7
ENDBRANCH   1   5
BRANCH   3  20
HETATM   20  N3  UNL     1       7.048  20.268   1.141  1.00  0.00    -0.276 NA
HETATM   21  C6  UNL     1       7.531  19.078   0.716  1.00  0.00     0.369 C 
HETATM   22  O6  UNL     1       8.583  18.840   0.024  1.00  0.00    -0.247 OA
BRANCH  21  23
HETATM   23  C7  UNL     1       6.749  17.863   1.116  1.00  0.00     0.201 A 
HETATM   24  N4  UNL     1       5.588  17.557   0.549  1.00  0.00    -0.286 N 
HETATM   25  N5  UNL     1       4.919  16.487   0.901  1.00  0.00    -0.251 N 
ATOM     26  H4  UNL     1       5.209  18.167  -0.175  1.00  0.00     0.187 HD
HETATM   27  C8  UNL     1       5.467  15.678   1.876  1.00  0.00     0.341 A 
ATOM     28  H5  UNL     1       4.023  16.259   0.469  1.00  0.00     0.191 HD
HETATM   29  O7  UNL     1       4.796  14.642   2.186  1.00  0.00    -0.245 OA
HETATM   30  N6  UNL     1       6.625  15.945   2.460  1.00  0.00    -0.272 N 
HETATM   31  C9  UNL     1       7.266  17.047   2.082  1.00  0.00     0.284 A 
ATOM     32  H6  UNL     1       7.011  15.327   3.174  1.00  0.00     0.174 HD
HETATM   33  O8  UNL     1       8.387  17.378   2.614  1.00  0.00    -0.265 OA
ENDBRANCH  21  23
ENDBRANCH   3  20
TORSDOF 10
ENDMDL
