MODEL 1
REMARK VINA RESULT: -7.684485624      0.000      0.000
REMARK  5 active torsions:
REMARK  status: ('A' for Active; 'I' for Inactive)
REMARK    1  A    between atoms: C1_2  and  O2_3 
REMARK    2  A    between atoms: C1_2  and  C3_6 
REMARK    3  A    between atoms: O2_3  and  C2_4 
REMARK       I    between atoms: N1_9  and  C6_10 
REMARK    4  A    between atoms: C6_10  and  C7_12 
REMARK    5  A    between atoms: C7_12  and  C8_13 
ROOT
HETATM    1  C3  UNL     1      22.952   7.309  -3.363  1.00  0.00     0.188 C 
HETATM    2  C4  UNL     1      23.813   7.136  -4.605  1.00  0.00     0.055 C 
HETATM    3  C5  UNL     1      22.593   7.690  -5.303  1.00  0.00     0.129 C 
HETATM    4  N1  UNL     1      21.789   7.144  -4.218  1.00  0.00    -0.338 N 
HETATM    5  C6  UNL     1      20.464   6.665  -4.070  1.00  0.00     0.220 C 
HETATM    6  O3  UNL     1      20.066   6.246  -2.962  1.00  0.00    -0.273 OA
ENDROOT
BRANCH   1   7
HETATM    7  C1  UNL     1      23.121   8.688  -2.841  1.00  0.00     0.283 C 
HETATM    8  O1  UNL     1      24.030   9.026  -2.042  1.00  0.00    -0.263 OA
BRANCH   7   9
HETATM    9  O2  UNL     1      22.226   9.662  -3.257  1.00  0.00    -0.305 OA
BRANCH   9  10
HETATM   10  C2  UNL     1      21.228  10.152  -2.360  1.00  0.00     0.293 C 
HETATM   11 CL1  UNL     1      21.310  11.916  -2.362  1.00  0.00    -0.101 Cl
ENDBRANCH   9  10
ENDBRANCH   7   9
ENDBRANCH   1   7
BRANCH   5  12
HETATM   12  C7  UNL     1      19.564   6.663  -5.218  1.00  0.00     0.107 C 
BRANCH  12  13
HETATM   13  C8  UNL     1      18.685   7.894  -5.281  1.00  0.00    -0.006 C 
HETATM   14  C9  UNL     1      17.282   7.498  -5.005  1.00  0.00     0.005 C 
HETATM   15  C10 UNL     1      16.259   8.054  -5.924  1.00  0.00     0.000 C 
HETATM   16  C11 UNL     1      16.635   8.097  -7.359  1.00  0.00     0.000 C 
HETATM   17  C12 UNL     1      18.077   7.748  -7.627  1.00  0.00     0.000 C 
HETATM   18  C13 UNL     1      18.901   8.532  -6.626  1.00  0.00     0.005 C 
ENDBRANCH  12  13
ENDBRANCH   5  12
TORSDOF 5
ENDMDL
MODEL 2
REMARK VINA RESULT: -7.611092327      2.485      3.239
REMARK  5 active torsions:
REMARK  status: ('A' for Active; 'I' for Inactive)
REMARK    1  A    between atoms: C1_2  and  O2_3 
REMARK    2  A    between atoms: C1_2  and  C3_6 
REMARK    3  A    between atoms: O2_3  and  C2_4 
REMARK       I    between atoms: N1_9  and  C6_10 
REMARK    4  A    between atoms: C6_10  and  C7_12 
REMARK    5  A    between atoms: C7_12  and  C8_13 
ROOT
HETATM    1  C3  UNL     1      23.242   8.971  -3.473  1.00  0.00     0.188 C 
HETATM    2  C4  UNL     1      22.878  10.315  -2.861  1.00  0.00     0.055 C 
HETATM    3  C5  UNL     1      21.565   9.622  -2.575  1.00  0.00     0.129 C 
HETATM    4  N1  UNL     1      21.825   8.770  -3.727  1.00  0.00    -0.338 N 
HETATM    5  C6  UNL     1      21.041   8.064  -4.672  1.00  0.00     0.220 C 
HETATM    6  O3  UNL     1      21.591   7.400  -5.577  1.00  0.00    -0.273 OA
ENDROOT
BRANCH   1   7
HETATM    7  C1  UNL     1      23.791   8.086  -2.415  1.00  0.00     0.283 C 
HETATM    8  O1  UNL     1      24.230   8.504  -1.314  1.00  0.00    -0.263 OA
BRANCH   7   9
HETATM    9  O2  UNL     1      23.823   6.721  -2.652  1.00  0.00    -0.305 OA
BRANCH   9  10
HETATM   10  C2  UNL     1      24.988   5.962  -2.325  1.00  0.00     0.293 C 
HETATM   11 CL1  UNL     1      24.628   4.257  -2.614  1.00  0.00    -0.101 Cl
ENDBRANCH   9  10
ENDBRANCH   7   9
ENDBRANCH   1   7
BRANCH   5  12
HETATM   12  C7  UNL     1      19.585   8.115  -4.587  1.00  0.00     0.107 C 
BRANCH  12  13
HETATM   13  C8  UNL     1      18.901   7.440  -5.756  1.00  0.00    -0.006 C 
HETATM   14  C9  UNL     1      18.558   8.466  -6.771  1.00  0.00     0.005 C 
HETATM   15  C10 UNL     1      17.186   8.392  -7.329  1.00  0.00     0.000 C 
HETATM   16  C11 UNL     1      16.110   8.075  -6.358  1.00  0.00     0.000 C 
HETATM   17  C12 UNL     1      16.611   7.687  -4.990  1.00  0.00     0.000 C 
HETATM   18  C13 UNL     1      17.723   6.681  -5.211  1.00  0.00     0.005 C 
ENDBRANCH  12  13
ENDBRANCH   5  12
TORSDOF 5
ENDMDL
MODEL 3
REMARK VINA RESULT: -7.496164616      2.458      3.190
REMARK  5 active torsions:
REMARK  status: ('A' for Active; 'I' for Inactive)
REMARK    1  A    between atoms: C1_2  and  O2_3 
REMARK    2  A    between atoms: C1_2  and  C3_6 
REMARK    3  A    between atoms: O2_3  and  C2_4 
REMARK       I    between atoms: N1_9  and  C6_10 
REMARK    4  A    between atoms: C6_10  and  C7_12 
REMARK    5  A    between atoms: C7_12  and  C8_13 
ROOT
HETATM    1  C3  UNL     1      23.051   8.169  -4.013  1.00  0.00     0.188 C 
HETATM    2  C4  UNL     1      22.953   9.491  -3.268  1.00  0.00     0.055 C 
HETATM    3  C5  UNL     1      21.524   9.051  -3.050  1.00  0.00     0.129 C 
HETATM    4  N1  UNL     1      21.628   8.282  -4.282  1.00  0.00    -0.338 N 
HETATM    5  C6  UNL     1      20.735   7.844  -5.291  1.00  0.00     0.220 C 
HETATM    6  O3  UNL     1      21.157   7.175  -6.259  1.00  0.00    -0.273 OA
ENDROOT
BRANCH   1   7
HETATM    7  C1  UNL     1      23.394   7.092  -3.050  1.00  0.00     0.283 C 
HETATM    8  O1  UNL     1      22.941   5.921  -3.122  1.00  0.00    -0.263 OA
BRANCH   7   9
HETATM    9  O2  UNL     1      24.262   7.391  -2.011  1.00  0.00    -0.305 OA
BRANCH   9  10
HETATM   10  C2  UNL     1      25.622   6.955  -2.064  1.00  0.00     0.293 C 
HETATM   11 CL1  UNL     1      25.749   5.454  -1.141  1.00  0.00    -0.101 Cl
ENDBRANCH   9  10
ENDBRANCH   7   9
ENDBRANCH   1   7
BRANCH   5  12
HETATM   12  C7  UNL     1      19.317   8.178  -5.196  1.00  0.00     0.107 C 
BRANCH  12  13
HETATM   13  C8  UNL     1      18.477   7.484  -6.247  1.00  0.00    -0.006 C 
HETATM   14  C9  UNL     1      18.068   8.478  -7.269  1.00  0.00     0.005 C 
HETATM   15  C10 UNL     1      16.640   8.448  -7.668  1.00  0.00     0.000 C 
HETATM   16  C11 UNL     1      15.666   8.231  -6.569  1.00  0.00     0.000 C 
HETATM   17  C12 UNL     1      16.301   7.881  -5.247  1.00  0.00     0.000 C 
HETATM   18  C13 UNL     1      17.334   6.812  -5.537  1.00  0.00     0.005 C 
ENDBRANCH  12  13
ENDBRANCH   5  12
TORSDOF 5
ENDMDL
MODEL 4
REMARK VINA RESULT: -7.422083849      2.342      3.001
REMARK  5 active torsions:
REMARK  status: ('A' for Active; 'I' for Inactive)
REMARK    1  A    between atoms: C1_2  and  O2_3 
REMARK    2  A    between atoms: C1_2  and  C3_6 
REMARK    3  A    between atoms: O2_3  and  C2_4 
REMARK       I    between atoms: N1_9  and  C6_10 
REMARK    4  A    between atoms: C6_10  and  C7_12 
REMARK    5  A    between atoms: C7_12  and  C8_13 
ROOT
HETATM    1  C3  UNL     1      23.273   7.667  -3.822  1.00  0.00     0.188 C 
HETATM    2  C4  UNL     1      23.093   8.893  -4.704  1.00  0.00     0.055 C 
HETATM    3  C5  UNL     1      21.755   8.971  -4.007  1.00  0.00     0.129 C 
HETATM    4  N1  UNL     1      21.827   7.528  -3.822  1.00  0.00    -0.338 N 
HETATM    5  C6  UNL     1      20.896   6.467  -3.699  1.00  0.00     0.220 C 
HETATM    6  O3  UNL     1      21.296   5.293  -3.545  1.00  0.00    -0.273 OA
ENDROOT
BRANCH   1   7
HETATM    7  C1  UNL     1      23.834   8.086  -2.513  1.00  0.00     0.283 C 
HETATM    8  O1  UNL     1      23.920   9.284  -2.141  1.00  0.00    -0.263 OA
BRANCH   7   9
HETATM    9  O2  UNL     1      24.289   7.103  -1.648  1.00  0.00    -0.305 OA
BRANCH   9  10
HETATM   10  C2  UNL     1      25.617   6.591  -1.776  1.00  0.00     0.293 C 
HETATM   11 CL1  UNL     1      25.671   5.011  -0.990  1.00  0.00    -0.101 Cl
ENDBRANCH   9  10
ENDBRANCH   7   9
ENDBRANCH   1   7
BRANCH   5  12
HETATM   12  C7  UNL     1      19.466   6.750  -3.753  1.00  0.00     0.107 C 
BRANCH  12  13
HETATM   13  C8  UNL     1      18.840   6.375  -5.079  1.00  0.00    -0.006 C 
HETATM   14  C9  UNL     1      19.280   7.347  -6.110  1.00  0.00     0.005 C 
HETATM   15  C10 UNL     1      18.217   7.879  -6.996  1.00  0.00     0.000 C 
HETATM   16  C11 UNL     1      16.925   8.196  -6.336  1.00  0.00     0.000 C 
HETATM   17  C12 UNL     1      16.841   7.740  -4.901  1.00  0.00     0.000 C 
HETATM   18  C13 UNL     1      17.352   6.314  -4.873  1.00  0.00     0.005 C 
ENDBRANCH  12  13
ENDBRANCH   5  12
TORSDOF 5
ENDMDL
MODEL 5
REMARK VINA RESULT: -7.365831345      2.179      2.770
REMARK  5 active torsions:
REMARK  status: ('A' for Active; 'I' for Inactive)
REMARK    1  A    between atoms: C1_2  and  O2_3 
REMARK    2  A    between atoms: C1_2  and  C3_6 
REMARK    3  A    between atoms: O2_3  and  C2_4 
REMARK       I    between atoms: N1_9  and  C6_10 
REMARK    4  A    between atoms: C6_10  and  C7_12 
REMARK    5  A    between atoms: C7_12  and  C8_13 
ROOT
HETATM    1  C3  UNL     1      22.665   9.219  -3.632  1.00  0.00     0.188 C 
HETATM    2  C4  UNL     1      21.750  10.221  -2.944  1.00  0.00     0.055 C 
HETATM    3  C5  UNL     1      20.825   9.030  -2.846  1.00  0.00     0.129 C 
HETATM    4  N1  UNL     1      21.471   8.496  -4.037  1.00  0.00    -0.338 N 
HETATM    5  C6  UNL     1      21.097   7.651  -5.110  1.00  0.00     0.220 C 
HETATM    6  O3  UNL     1      21.918   7.375  -6.011  1.00  0.00    -0.273 OA
ENDROOT
BRANCH   1   7
HETATM    7  C1  UNL     1      23.472   8.512  -2.605  1.00  0.00     0.283 C 
HETATM    8  O1  UNL     1      24.223   9.095  -1.783  1.00  0.00    -0.263 OA
BRANCH   7   9
HETATM    9  O2  UNL     1      23.396   7.128  -2.548  1.00  0.00    -0.305 OA
BRANCH   9  10
HETATM   10  C2  UNL     1      24.419   6.327  -3.141  1.00  0.00     0.293 C 
HETATM   11 CL1  UNL     1      25.668   6.047  -1.924  1.00  0.00    -0.101 Cl
ENDBRANCH   9  10
ENDBRANCH   7   9
ENDBRANCH   1   7
BRANCH   5  12
HETATM   12  C7  UNL     1      19.746   7.102  -5.161  1.00  0.00     0.107 C 
BRANCH  12  13
HETATM   13  C8  UNL     1      18.682   8.167  -5.324  1.00  0.00    -0.006 C 
HETATM   14  C9  UNL     1      17.384   7.628  -4.850  1.00  0.00     0.005 C 
HETATM   15  C10 UNL     1      16.219   7.870  -5.736  1.00  0.00     0.000 C 
HETATM   16  C11 UNL     1      16.473   7.726  -7.191  1.00  0.00     0.000 C 
HETATM   17  C12 UNL     1      17.927   7.546  -7.546  1.00  0.00     0.000 C 
HETATM   18  C13 UNL     1      18.692   8.596  -6.765  1.00  0.00     0.005 C 
ENDBRANCH  12  13
ENDBRANCH   5  12
TORSDOF 5
ENDMDL
