MODEL 1
REMARK VINA RESULT: -5.820479830      0.000      0.000
REMARK  6 active torsions:
REMARK  status: ('A' for Active; 'I' for Inactive)
REMARK    1  A    between atoms: C2_2  and  C3_3 
REMARK    2  A    between atoms: C6_6  and  S1_7 
REMARK    3  A    between atoms: S1_7  and  C7_10 
REMARK    4  A    between atoms: C7_10  and  C8_11 
REMARK    5  A    between atoms: C7_10  and  C9_13 
REMARK       I    between atoms: C9_13  and  N1_15 
REMARK    6  A    between atoms: N1_15  and  C11_17 
ROOT
HETATM    1  C7  UNL     1      24.793   3.311  -2.621  1.00  0.00     0.214 C 
ENDROOT
BRANCH   1   2
HETATM    2  S1  UNL     1      23.416   2.370  -2.130  1.00  0.00     0.162 S 
HETATM    3  O1  UNL     1      22.870   3.032  -0.862  1.00  0.00    -0.227 OA
HETATM    4  O2  UNL     1      23.818   0.979  -1.641  1.00  0.00    -0.227 OA
BRANCH   2   5
HETATM    5  C6  UNL     1      22.096   2.185  -3.217  1.00  0.00     0.109 C 
HETATM    6  C5  UNL     1      21.149   1.060  -2.937  1.00  0.00     0.020 C 
HETATM    7  C4  UNL     1      20.107   1.627  -1.963  1.00  0.00     0.006 C 
HETATM    8  C3  UNL     1      19.929   3.012  -2.490  1.00  0.00    -0.014 C 
HETATM    9  C15 UNL     1      21.201   3.432  -3.145  1.00  0.00     0.024 C 
BRANCH   8  10
HETATM   10  C2  UNL     1      18.818   3.109  -3.514  1.00  0.00     0.000 C 
HETATM   11  C1  UNL     1      18.903   4.412  -4.285  1.00  0.00     0.005 C 
ENDBRANCH   8  10
ENDBRANCH   2   5
ENDBRANCH   1   2
BRANCH   1  12
HETATM   12  C8  UNL     1      24.719   4.735  -2.126  1.00  0.00     0.144 C 
HETATM   13 CL1  UNL     1      23.909   5.845  -3.225  1.00  0.00    -0.129 Cl
ENDBRANCH   1  12
BRANCH   1  14
HETATM   14  C9  UNL     1      26.059   2.657  -2.122  1.00  0.00     0.239 C 
HETATM   15  O3  UNL     1      26.509   3.033  -1.011  1.00  0.00    -0.272 OA
HETATM   16  N1  UNL     1      26.766   1.669  -2.805  1.00  0.00    -0.347 N 
HETATM   17  C10 UNL     1      26.317   1.161  -4.073  1.00  0.00     0.153 C 
BRANCH  16  18
HETATM   18  C11 UNL     1      27.977   1.145  -2.223  1.00  0.00     0.024 C 
HETATM   19  C12 UNL     1      28.548   0.006  -3.053  1.00  0.00     0.037 C 
HETATM   20  C13 UNL     1      27.720   0.594  -0.837  1.00  0.00     0.037 C 
HETATM   21  C14 UNL     1      29.020   2.255  -2.112  1.00  0.00     0.037 C 
ENDBRANCH  16  18
ENDBRANCH   1  14
TORSDOF 6
ENDMDL
MODEL 2
REMARK VINA RESULT: -5.661372854      2.640      3.910
REMARK  6 active torsions:
REMARK  status: ('A' for Active; 'I' for Inactive)
REMARK    1  A    between atoms: C2_2  and  C3_3 
REMARK    2  A    between atoms: C6_6  and  S1_7 
REMARK    3  A    between atoms: S1_7  and  C7_10 
REMARK    4  A    between atoms: C7_10  and  C8_11 
REMARK    5  A    between atoms: C7_10  and  C9_13 
REMARK       I    between atoms: C9_13  and  N1_15 
REMARK    6  A    between atoms: N1_15  and  C11_17 
ROOT
HETATM    1  C7  UNL     1      24.602   2.801  -2.304  1.00  0.00     0.214 C 
ENDROOT
BRANCH   1   2
HETATM    2  S1  UNL     1      23.372   1.788  -1.606  1.00  0.00     0.162 S 
HETATM    3  O1  UNL     1      22.767   0.985  -2.760  1.00  0.00    -0.227 OA
HETATM    4  O2  UNL     1      22.182   2.601  -1.097  1.00  0.00    -0.227 OA
BRANCH   2   5
HETATM    5  C6  UNL     1      23.808   0.667  -0.377  1.00  0.00     0.109 C 
HETATM    6  C5  UNL     1      22.768   0.368   0.658  1.00  0.00     0.020 C 
HETATM    7  C4  UNL     1      21.927  -0.779   0.081  1.00  0.00     0.006 C 
HETATM    8  C3  UNL     1      22.971  -1.605  -0.593  1.00  0.00    -0.014 C 
HETATM    9  C15 UNL     1      24.082  -0.703  -1.015  1.00  0.00     0.024 C 
BRANCH   8  10
HETATM   10  C2  UNL     1      23.548  -2.671   0.313  1.00  0.00     0.000 C 
HETATM   11  C1  UNL     1      25.038  -2.834   0.079  1.00  0.00     0.005 C 
ENDBRANCH   8  10
ENDBRANCH   2   5
ENDBRANCH   1   2
BRANCH   1  12
HETATM   12  C8  UNL     1      24.482   4.237  -1.856  1.00  0.00     0.144 C 
HETATM   13 CL1  UNL     1      23.942   5.347  -3.111  1.00  0.00    -0.129 Cl
ENDBRANCH   1  12
BRANCH   1  14
HETATM   14  C9  UNL     1      25.966   2.261  -1.947  1.00  0.00     0.239 C 
HETATM   15  O3  UNL     1      26.522   2.721  -0.919  1.00  0.00    -0.272 OA
HETATM   16  N1  UNL     1      26.654   1.293  -2.676  1.00  0.00    -0.347 N 
HETATM   17  C10 UNL     1      26.089   0.693  -3.854  1.00  0.00     0.153 C 
BRANCH  16  18
HETATM   18  C11 UNL     1      27.964   0.883  -2.234  1.00  0.00     0.024 C 
HETATM   19  C12 UNL     1      28.929   2.057  -2.186  1.00  0.00     0.037 C 
HETATM   20  C13 UNL     1      28.560  -0.139  -3.177  1.00  0.00     0.037 C 
HETATM   21  C14 UNL     1      27.869   0.256  -0.845  1.00  0.00     0.037 C 
ENDBRANCH  16  18
ENDBRANCH   1  14
TORSDOF 6
ENDMDL
MODEL 3
REMARK VINA RESULT: -5.633932898      1.621      2.570
REMARK  6 active torsions:
REMARK  status: ('A' for Active; 'I' for Inactive)
REMARK    1  A    between atoms: C2_2  and  C3_3 
REMARK    2  A    between atoms: C6_6  and  S1_7 
REMARK    3  A    between atoms: S1_7  and  C7_10 
REMARK    4  A    between atoms: C7_10  and  C8_11 
REMARK    5  A    between atoms: C7_10  and  C9_13 
REMARK       I    between atoms: C9_13  and  N1_15 
REMARK    6  A    between atoms: N1_15  and  C11_17 
ROOT
HETATM    1  C7  UNL     1      24.558   2.706  -2.461  1.00  0.00     0.214 C 
ENDROOT
BRANCH   1   2
HETATM    2  S1  UNL     1      23.314   1.596  -1.965  1.00  0.00     0.162 S 
HETATM    3  O1  UNL     1      23.885   0.807  -0.784  1.00  0.00    -0.227 OA
HETATM    4  O2  UNL     1      23.065   0.510  -3.011  1.00  0.00    -0.227 OA
BRANCH   2   5
HETATM    5  C6  UNL     1      21.787   2.215  -1.474  1.00  0.00     0.109 C 
HETATM    6  C5  UNL     1      20.577   1.465  -1.940  1.00  0.00     0.020 C 
HETATM    7  C4  UNL     1      20.335   0.374  -0.887  1.00  0.00     0.006 C 
HETATM    8  C3  UNL     1      20.672   1.097   0.374  1.00  0.00    -0.014 C 
HETATM    9  C15 UNL     1      21.681   2.149   0.057  1.00  0.00     0.024 C 
BRANCH   8  10
HETATM   10  C2  UNL     1      19.470   1.771   1.000  1.00  0.00     0.000 C 
HETATM   11  C1  UNL     1      19.428   1.524   2.496  1.00  0.00     0.005 C 
ENDBRANCH   8  10
ENDBRANCH   2   5
ENDBRANCH   1   2
BRANCH   1  12
HETATM   12  C8  UNL     1      24.346   4.090  -1.899  1.00  0.00     0.144 C 
HETATM   13 CL1  UNL     1      23.972   5.315  -3.106  1.00  0.00    -0.129 Cl
ENDBRANCH   1  12
BRANCH   1  14
HETATM   14  C9  UNL     1      25.907   2.178  -2.037  1.00  0.00     0.239 C 
HETATM   15  O3  UNL     1      26.372   2.583  -0.943  1.00  0.00    -0.272 OA
HETATM   16  N1  UNL     1      26.676   1.277  -2.771  1.00  0.00    -0.347 N 
HETATM   17  C10 UNL     1      26.217   0.742  -4.025  1.00  0.00     0.153 C 
BRANCH  16  18
HETATM   18  C11 UNL     1      27.962   0.872  -2.259  1.00  0.00     0.024 C 
HETATM   19  C12 UNL     1      27.848   0.302  -0.855  1.00  0.00     0.037 C 
HETATM   20  C13 UNL     1      28.911   2.047  -2.184  1.00  0.00     0.037 C 
HETATM   21  C14 UNL     1      28.574  -0.183  -3.179  1.00  0.00     0.037 C 
ENDBRANCH  16  18
ENDBRANCH   1  14
TORSDOF 6
ENDMDL
MODEL 4
REMARK VINA RESULT: -5.627807708      1.184      1.762
REMARK  6 active torsions:
REMARK  status: ('A' for Active; 'I' for Inactive)
REMARK    1  A    between atoms: C2_2  and  C3_3 
REMARK    2  A    between atoms: C6_6  and  S1_7 
REMARK    3  A    between atoms: S1_7  and  C7_10 
REMARK    4  A    between atoms: C7_10  and  C8_11 
REMARK    5  A    between atoms: C7_10  and  C9_13 
REMARK       I    between atoms: C9_13  and  N1_15 
REMARK    6  A    between atoms: N1_15  and  C11_17 
ROOT
HETATM    1  C7  UNL     1      24.496   2.720  -2.281  1.00  0.00     0.214 C 
ENDROOT
BRANCH   1   2
HETATM    2  S1  UNL     1      23.269   1.753  -1.518  1.00  0.00     0.162 S 
HETATM    3  O1  UNL     1      22.536   2.675  -0.541  1.00  0.00    -0.227 OA
HETATM    4  O2  UNL     1      23.869   0.690  -0.597  1.00  0.00    -0.227 OA
BRANCH   2   5
HETATM    5  C6  UNL     1      22.075   0.991  -2.494  1.00  0.00     0.109 C 
HETATM    6  C5  UNL     1      20.646   1.279  -2.151  1.00  0.00     0.020 C 
HETATM    7  C4  UNL     1      20.284   2.557  -2.922  1.00  0.00     0.006 C 
HETATM    8  C3  UNL     1      21.009   2.344  -4.209  1.00  0.00    -0.014 C 
HETATM    9  C15 UNL     1      22.205   1.495  -3.939  1.00  0.00     0.024 C 
BRANCH   8  10
HETATM   10  C2  UNL     1      20.160   1.645  -5.249  1.00  0.00     0.000 C 
HETATM   11  C1  UNL     1      21.008   1.174  -6.415  1.00  0.00     0.005 C 
ENDBRANCH   8  10
ENDBRANCH   2   5
ENDBRANCH   1   2
BRANCH   1  12
HETATM   12  C8  UNL     1      24.389   4.178  -1.906  1.00  0.00     0.144 C 
HETATM   13 CL1  UNL     1      23.632   5.190  -3.131  1.00  0.00    -0.129 Cl
ENDBRANCH   1  12
BRANCH   1  14
HETATM   14  C9  UNL     1      25.861   2.192  -1.913  1.00  0.00     0.239 C 
HETATM   15  O3  UNL     1      26.407   2.658  -0.882  1.00  0.00    -0.272 OA
HETATM   16  N1  UNL     1      26.562   1.227  -2.634  1.00  0.00    -0.347 N 
HETATM   17  C10 UNL     1      26.010   0.621  -3.816  1.00  0.00     0.153 C 
BRANCH  16  18
HETATM   18  C11 UNL     1      27.872   0.828  -2.183  1.00  0.00     0.024 C 
HETATM   19  C12 UNL     1      28.823   2.012  -2.113  1.00  0.00     0.037 C 
HETATM   20  C13 UNL     1      28.490  -0.178  -3.129  1.00  0.00     0.037 C 
HETATM   21  C14 UNL     1      27.769   0.187  -0.800  1.00  0.00     0.037 C 
ENDBRANCH  16  18
ENDBRANCH   1  14
TORSDOF 6
ENDMDL
MODEL 5
REMARK VINA RESULT: -5.624687756      2.488      6.727
REMARK  6 active torsions:
REMARK  status: ('A' for Active; 'I' for Inactive)
REMARK    1  A    between atoms: C2_2  and  C3_3 
REMARK    2  A    between atoms: C6_6  and  S1_7 
REMARK    3  A    between atoms: S1_7  and  C7_10 
REMARK    4  A    between atoms: C7_10  and  C8_11 
REMARK    5  A    between atoms: C7_10  and  C9_13 
REMARK       I    between atoms: C9_13  and  N1_15 
REMARK    6  A    between atoms: N1_15  and  C11_17 
ROOT
HETATM    1  C7  UNL     1      24.389   1.192  -1.962  1.00  0.00     0.214 C 
ENDROOT
BRANCH   1   2
HETATM    2  S1  UNL     1      25.687   2.290  -2.324  1.00  0.00     0.162 S 
HETATM    3  O1  UNL     1      26.203   2.809  -0.980  1.00  0.00    -0.227 OA
HETATM    4  O2  UNL     1      25.188   3.562  -3.010  1.00  0.00    -0.227 OA
BRANCH   2   5
HETATM    5  C6  UNL     1      27.048   1.717  -3.206  1.00  0.00     0.109 C 
HETATM    6  C5  UNL     1      28.296   1.458  -2.419  1.00  0.00     0.020 C 
HETATM    7  C4  UNL     1      28.173   0.015  -1.909  1.00  0.00     0.006 C 
HETATM    8  C3  UNL     1      27.537  -0.661  -3.079  1.00  0.00    -0.014 C 
HETATM    9  C15 UNL     1      26.717   0.345  -3.813  1.00  0.00     0.024 C 
BRANCH   8  10
HETATM   10  C2  UNL     1      28.551  -1.237  -4.043  1.00  0.00     0.000 C 
HETATM   11  C1  UNL     1      28.546  -2.753  -3.995  1.00  0.00     0.005 C 
ENDBRANCH   8  10
ENDBRANCH   2   5
ENDBRANCH   1   2
BRANCH   1  12
HETATM   12  C8  UNL     1      24.528   0.576  -0.591  1.00  0.00     0.144 C 
HETATM   13 CL1  UNL     1      24.911  -1.142  -0.602  1.00  0.00    -0.129 Cl
ENDBRANCH   1  12
BRANCH   1  14
HETATM   14  C9  UNL     1      23.068   1.915  -2.070  1.00  0.00     0.239 C 
HETATM   15  O3  UNL     1      22.754   2.696  -1.138  1.00  0.00    -0.272 OA
HETATM   16  N1  UNL     1      22.170   1.777  -3.127  1.00  0.00    -0.347 N 
HETATM   17  C10 UNL     1      22.452   0.922  -4.248  1.00  0.00     0.153 C 
BRANCH  16  18
HETATM   18  C11 UNL     1      20.929   2.511  -3.093  1.00  0.00     0.024 C 
HETATM   19  C12 UNL     1      20.191   2.299  -1.781  1.00  0.00     0.037 C 
HETATM   20  C13 UNL     1      20.000   2.059  -4.199  1.00  0.00     0.037 C 
HETATM   21  C14 UNL     1      21.206   4.002  -3.277  1.00  0.00     0.037 C 
ENDBRANCH  16  18
ENDBRANCH   1  14
TORSDOF 6
ENDMDL
