MODEL 1
REMARK VINA RESULT: -7.107668879      0.000      0.000
REMARK  13 active torsions:
REMARK  status: ('A' for Active; 'I' for Inactive)
REMARK    1  A    between atoms: N1_1  and  N2_4 
REMARK       I    between atoms: N2_4  and  C1_6 
REMARK    2  A    between atoms: C1_6  and  C2_8 
REMARK    3  A    between atoms: C3_9  and  N3_10 
REMARK       I    between atoms: N3_10  and  C4_12 
REMARK    4  A    between atoms: C4_12  and  C5_14 
REMARK    5  A    between atoms: C7_21  and  O4_22 
REMARK    6  A    between atoms: C10_26  and  N6_27 
REMARK       I    between atoms: N7_31  and  C11_32 
REMARK    7  A    between atoms: C11_32  and  C12_34 
REMARK    8  A    between atoms: C12_34  and  C13_35 
REMARK    9  A    between atoms: C13_35  and  N8_36 
REMARK   10  A    between atoms: N8_36  and  C14_38 
REMARK   11  A    between atoms: C14_38  and  O6_39 
REMARK   12  A    between atoms: N9_41  and  O7_43 
REMARK   13  A    between atoms: C15_45  and  O8_46 
ROOT
HETATM    1  C2  UNL     1       6.195 -31.988 -12.583  1.00  0.00     0.076 C 
HETATM    2  C3  UNL     1       4.922 -31.335 -13.004  1.00  0.00     0.137 C 
HETATM    3  C8  UNL     1       4.990 -30.792 -14.408  1.00  0.00     0.095 C 
HETATM    4  C9  UNL     1       5.534 -29.429 -14.556  1.00  0.00     0.069 C 
HETATM    5  C10 UNL     1       6.932 -29.176 -14.140  1.00  0.00     0.290 C 
HETATM    6  N7  UNL     1       7.700 -30.285 -13.658  1.00  0.00    -0.280 N 
HETATM    7  C11 UNL     1       9.072 -29.925 -13.423  1.00  0.00     0.226 C 
HETATM    8  O5  UNL     1       9.841 -30.794 -12.960  1.00  0.00    -0.273 OA
HETATM    9  C15 UNL     1       7.389 -31.647 -13.439  1.00  0.00     0.241 C 
HETATM   10  C16 UNL     1       7.027 -32.185 -14.837  1.00  0.00     0.255 C 
HETATM   11  O9  UNL     1       7.826 -32.860 -15.492  1.00  0.00    -0.283 OA
HETATM   12  C17 UNL     1       5.682 -31.808 -15.252  1.00  0.00     0.206 C 
HETATM   13  O10 UNL     1       5.165 -32.321 -16.259  1.00  0.00    -0.289 OA
ENDROOT
BRANCH   2  14
HETATM   14  N3  UNL     1       4.333 -30.431 -12.047  1.00  0.00    -0.346 N 
HETATM   15  C4  UNL     1       3.139 -30.766 -11.367  1.00  0.00     0.273 C 
HETATM   16  O2  UNL     1       2.552 -31.876 -11.591  1.00  0.00    -0.266 OA
ATOM     17  H3  UNL     1       4.785 -29.536 -11.857  1.00  0.00     0.163 HD
BRANCH  15  18
HETATM   18  C5  UNL     1       2.520 -29.894 -10.398  1.00  0.00     0.156 A 
HETATM   19  N4  UNL     1       1.246 -29.385 -10.465  1.00  0.00    -0.300 N 
HETATM   20  C6  UNL     1       1.031 -28.621  -9.400  1.00  0.00     0.327 A 
ATOM     21  H4  UNL     1       0.574 -29.564 -11.212  1.00  0.00     0.171 HD
HETATM   22  O3  UNL     1      -0.009 -27.969  -9.079  1.00  0.00    -0.247 OA
HETATM   23  N5  UNL     1       2.125 -28.597  -8.610  1.00  0.00    -0.287 N 
HETATM   24  C7  UNL     1       3.042 -29.390  -9.239  1.00  0.00     0.177 A 
ATOM     25  H5  UNL     1       2.242 -28.094  -7.730  1.00  0.00     0.172 HD
BRANCH  24  26
HETATM   26  O4  UNL     1       4.300 -29.581  -8.679  1.00  0.00    -0.344 OA
ATOM     27  H4  UNL     1       5.039 -28.986  -8.633  1.00  0.00     0.219 HD
ENDBRANCH  24  26
ENDBRANCH  15  18
ENDBRANCH   2  14
BRANCH   1  28
HETATM   28  C1  UNL     1       6.504 -31.996 -11.148  1.00  0.00     0.269 C 
HETATM   29  N2  UNL     1       7.502 -31.228 -10.515  1.00  0.00    -0.273 N 
ATOM     30  H2  UNL     1       8.087 -30.598 -11.065  1.00  0.00     0.189 HD
HETATM   31  O1  UNL     1       5.841 -32.754 -10.330  1.00  0.00    -0.266 OA
BRANCH  29  32
HETATM   32  N1  UNL     1       7.689 -31.328  -9.135  1.00  0.00    -0.342 N 
ATOM     33  H12 UNL     1       8.288 -30.648  -8.667  1.00  0.00     0.176 HD
ATOM     34  H11 UNL     1       7.231 -32.073  -8.611  1.00  0.00     0.176 HD
ENDBRANCH  29  32
ENDBRANCH   1  28
BRANCH   9  35
HETATM   35  O8  UNL     1       8.436 -32.463 -13.033  1.00  0.00    -0.360 OA
ATOM     36  H8  UNL     1       8.536 -32.348 -12.095  1.00  0.00     0.213 HD
ENDBRANCH   9  35
BRANCH   5  37
HETATM   37  N6  UNL     1       6.926 -28.012 -13.268  1.00  0.00    -0.058 N 
ATOM     38  H63 UNL     1       6.970 -27.131 -13.781  1.00  0.00     0.276 HD
ATOM     39  H62 UNL     1       6.024 -27.859 -12.816  1.00  0.00     0.276 HD
ATOM     40  H61 UNL     1       7.690 -28.122 -12.602  1.00  0.00     0.276 HD
ENDBRANCH   5  37
BRANCH   7  41
HETATM   41  C12 UNL     1       9.648 -28.594 -13.693  1.00  0.00     0.123 C 
BRANCH  41  42
HETATM   42  C13 UNL     1      10.424 -28.180 -12.424  1.00  0.00     0.132 C 
BRANCH  42  43
HETATM   43  N8  UNL     1       9.549 -28.215 -11.277  1.00  0.00    -0.354 N 
ATOM     44  H8  UNL     1       8.625 -27.783 -11.311  1.00  0.00     0.163 HD
BRANCH  43  45
HETATM   45  C14 UNL     1      10.004 -28.863 -10.102  1.00  0.00     0.237 C 
HETATM   46  N9  UNL     1       9.940 -28.241  -8.953  1.00  0.00    -0.233 N 
ATOM     47  H9  UNL     1      10.272 -28.722  -8.117  1.00  0.00     0.198 HD
BRANCH  45  48
HETATM   48  O6  UNL     1      10.509 -30.149 -10.194  1.00  0.00    -0.331 OA
ATOM     49  H6  UNL     1      11.028 -30.391 -10.952  1.00  0.00     0.221 HD
ENDBRANCH  45  48
BRANCH  46  50
HETATM   50  O7  UNL     1       9.452 -26.984  -8.828  1.00  0.00    -0.287 OA
ATOM     51  H7  UNL     1       9.975 -26.211  -9.002  1.00  0.00     0.244 HD
ENDBRANCH  46  50
ENDBRANCH  43  45
ENDBRANCH  42  43
ENDBRANCH  41  42
ENDBRANCH   7  41
TORSDOF 13
ENDMDL
MODEL 2
REMARK VINA RESULT: -7.016498712      5.741      8.402
REMARK  13 active torsions:
REMARK  status: ('A' for Active; 'I' for Inactive)
REMARK    1  A    between atoms: N1_1  and  N2_4 
REMARK       I    between atoms: N2_4  and  C1_6 
REMARK    2  A    between atoms: C1_6  and  C2_8 
REMARK    3  A    between atoms: C3_9  and  N3_10 
REMARK       I    between atoms: N3_10  and  C4_12 
REMARK    4  A    between atoms: C4_12  and  C5_14 
REMARK    5  A    between atoms: C7_21  and  O4_22 
REMARK    6  A    between atoms: C10_26  and  N6_27 
REMARK       I    between atoms: N7_31  and  C11_32 
REMARK    7  A    between atoms: C11_32  and  C12_34 
REMARK    8  A    between atoms: C12_34  and  C13_35 
REMARK    9  A    between atoms: C13_35  and  N8_36 
REMARK   10  A    between atoms: N8_36  and  C14_38 
REMARK   11  A    between atoms: C14_38  and  O6_39 
REMARK   12  A    between atoms: N9_41  and  O7_43 
REMARK   13  A    between atoms: C15_45  and  O8_46 
ROOT
HETATM    1  C2  UNL     1       4.818 -32.209  -5.481  1.00  0.00     0.076 C 
HETATM    2  C3  UNL     1       5.049 -31.592  -6.819  1.00  0.00     0.137 C 
HETATM    3  C8  UNL     1       6.395 -30.921  -6.921  1.00  0.00     0.095 C 
HETATM    4  C9  UNL     1       6.466 -29.523  -6.458  1.00  0.00     0.069 C 
HETATM    5  C10 UNL     1       6.165 -29.231  -5.038  1.00  0.00     0.290 C 
HETATM    6  N7  UNL     1       5.868 -30.335  -4.175  1.00  0.00    -0.280 N 
HETATM    7  C11 UNL     1       5.734 -29.922  -2.803  1.00  0.00     0.226 C 
HETATM    8  O5  UNL     1       5.434 -30.785  -1.952  1.00  0.00    -0.273 OA
HETATM    9  C15 UNL     1       5.750 -31.726  -4.398  1.00  0.00     0.241 C 
HETATM   10  C16 UNL     1       7.151 -32.155  -4.876  1.00  0.00     0.255 C 
HETATM   11  O9  UNL     1       7.942 -32.723  -4.118  1.00  0.00    -0.283 OA
HETATM   12  C17 UNL     1       7.395 -31.817  -6.272  1.00  0.00     0.206 C 
HETATM   13  O10 UNL     1       8.391 -32.266  -6.864  1.00  0.00    -0.289 OA
ENDROOT
BRANCH   2  14
HETATM   14  N3  UNL     1       3.958 -30.812  -7.349  1.00  0.00    -0.346 N 
HETATM   15  C4  UNL     1       3.629 -30.858  -8.724  1.00  0.00     0.273 C 
HETATM   16  O2  UNL     1       4.296 -31.588  -9.528  1.00  0.00    -0.266 OA
ATOM     17  H3  UNL     1       3.415 -30.217  -6.722  1.00  0.00     0.163 HD
BRANCH  15  18
HETATM   18  C5  UNL     1       2.541 -30.098  -9.293  1.00  0.00     0.156 A 
HETATM   19  N4  UNL     1       1.629 -29.344  -8.596  1.00  0.00    -0.300 N 
HETATM   20  C6  UNL     1       0.778 -28.797  -9.456  1.00  0.00     0.327 A 
ATOM     21  H4  UNL     1       1.609 -29.224  -7.583  1.00  0.00     0.171 HD
HETATM   22  O3  UNL     1      -0.211 -28.034  -9.228  1.00  0.00    -0.247 OA
HETATM   23  N5  UNL     1       1.086 -29.158 -10.719  1.00  0.00    -0.287 N 
HETATM   24  C7  UNL     1       2.182 -29.966 -10.606  1.00  0.00     0.177 A 
ATOM     25  H5  UNL     1       0.603 -28.886 -11.576  1.00  0.00     0.172 HD
BRANCH  24  26
HETATM   26  O4  UNL     1       2.761 -30.517 -11.742  1.00  0.00    -0.344 OA
ATOM     27  H4  UNL     1       3.025 -30.097 -12.553  1.00  0.00     0.219 HD
ENDBRANCH  24  26
ENDBRANCH  15  18
ENDBRANCH   2  14
BRANCH   1  28
HETATM   28  C1  UNL     1       3.427 -32.328  -5.027  1.00  0.00     0.269 C 
HETATM   29  N2  UNL     1       2.691 -31.333  -4.355  1.00  0.00    -0.273 N 
ATOM     30  H2  UNL     1       3.125 -30.434  -4.141  1.00  0.00     0.189 HD
HETATM   31  O1  UNL     1       2.754 -33.419  -5.229  1.00  0.00    -0.266 OA
BRANCH  29  32
HETATM   32  N1  UNL     1       1.368 -31.576  -3.981  1.00  0.00    -0.342 N 
ATOM     33  H12 UNL     1       0.765 -32.106  -4.611  1.00  0.00     0.176 HD
ATOM     34  H11 UNL     1       1.018 -31.225  -3.089  1.00  0.00     0.176 HD
ENDBRANCH  29  32
ENDBRANCH   1  28
BRANCH   9  35
HETATM   35  O8  UNL     1       5.527 -32.516  -3.279  1.00  0.00    -0.360 OA
ATOM     36  H8  UNL     1       5.368 -31.931  -2.547  1.00  0.00     0.213 HD
ENDBRANCH   9  35
BRANCH   5  37
HETATM   37  N6  UNL     1       5.191 -28.152  -5.009  1.00  0.00    -0.058 N 
ATOM     38  H63 UNL     1       5.496 -27.327  -5.524  1.00  0.00     0.276 HD
ATOM     39  H62 UNL     1       4.357 -28.354  -5.562  1.00  0.00     0.276 HD
ATOM     40  H61 UNL     1       4.979 -27.954  -4.031  1.00  0.00     0.276 HD
ENDBRANCH   5  37
BRANCH   7  41
HETATM   41  C12 UNL     1       5.932 -28.542  -2.320  1.00  0.00     0.123 C 
BRANCH  41  42
HETATM   42  C13 UNL     1       4.642 -28.145  -1.569  1.00  0.00     0.132 C 
BRANCH  42  43
HETATM   43  N8  UNL     1       4.707 -28.602  -0.202  1.00  0.00    -0.354 N 
ATOM     44  H8  UNL     1       3.893 -29.020   0.249  1.00  0.00     0.163 HD
BRANCH  43  45
HETATM   45  C14 UNL     1       5.929 -28.454   0.500  1.00  0.00     0.237 C 
HETATM   46  N9  UNL     1       6.583 -29.518   0.893  1.00  0.00    -0.233 N 
ATOM     47  H9  UNL     1       7.461 -29.394   1.397  1.00  0.00     0.198 HD
BRANCH  45  48
HETATM   48  O6  UNL     1       6.410 -27.182   0.759  1.00  0.00    -0.331 OA
ATOM     49  H6  UNL     1       7.348 -27.047   0.831  1.00  0.00     0.221 HD
ENDBRANCH  45  48
BRANCH  46  50
HETATM   50  O7  UNL     1       6.141 -30.776   0.656  1.00  0.00    -0.287 OA
ATOM     51  H7  UNL     1       6.339 -31.506   1.231  1.00  0.00     0.244 HD
ENDBRANCH  46  50
ENDBRANCH  43  45
ENDBRANCH  42  43
ENDBRANCH  41  42
ENDBRANCH   7  41
TORSDOF 13
ENDMDL
MODEL 3
REMARK VINA RESULT: -6.926547088      0.902      1.336
REMARK  13 active torsions:
REMARK  status: ('A' for Active; 'I' for Inactive)
REMARK    1  A    between atoms: N1_1  and  N2_4 
REMARK       I    between atoms: N2_4  and  C1_6 
REMARK    2  A    between atoms: C1_6  and  C2_8 
REMARK    3  A    between atoms: C3_9  and  N3_10 
REMARK       I    between atoms: N3_10  and  C4_12 
REMARK    4  A    between atoms: C4_12  and  C5_14 
REMARK    5  A    between atoms: C7_21  and  O4_22 
REMARK    6  A    between atoms: C10_26  and  N6_27 
REMARK       I    between atoms: N7_31  and  C11_32 
REMARK    7  A    between atoms: C11_32  and  C12_34 
REMARK    8  A    between atoms: C12_34  and  C13_35 
REMARK    9  A    between atoms: C13_35  and  N8_36 
REMARK   10  A    between atoms: N8_36  and  C14_38 
REMARK   11  A    between atoms: C14_38  and  O6_39 
REMARK   12  A    between atoms: N9_41  and  O7_43 
REMARK   13  A    between atoms: C15_45  and  O8_46 
ROOT
HETATM    1  C2  UNL     1       6.492 -32.136 -12.447  1.00  0.00     0.076 C 
HETATM    2  C3  UNL     1       5.263 -31.314 -12.643  1.00  0.00     0.137 C 
HETATM    3  C8  UNL     1       5.240 -30.621 -13.982  1.00  0.00     0.095 C 
HETATM    4  C9  UNL     1       5.914 -29.311 -14.050  1.00  0.00     0.069 C 
HETATM    5  C10 UNL     1       7.368 -29.248 -13.779  1.00  0.00     0.290 C 
HETATM    6  N7  UNL     1       8.054 -30.477 -13.510  1.00  0.00    -0.280 N 
HETATM    7  C11 UNL     1       9.476 -30.286 -13.404  1.00  0.00     0.226 C 
HETATM    8  O5  UNL     1      10.187 -31.274 -13.129  1.00  0.00    -0.273 OA
HETATM    9  C15 UNL     1       7.618 -31.818 -13.399  1.00  0.00     0.241 C 
HETATM   10  C16 UNL     1       7.050 -32.150 -14.792  1.00  0.00     0.255 C 
HETATM   11  O9  UNL     1       7.693 -32.821 -15.605  1.00  0.00    -0.283 OA
HETATM   12  C17 UNL     1       5.719 -31.595 -15.003  1.00  0.00     0.206 C 
HETATM   13  O10 UNL     1       5.043 -31.935 -15.989  1.00  0.00    -0.289 OA
ENDROOT
BRANCH   2  14
HETATM   14  N3  UNL     1       4.885 -30.474 -11.534  1.00  0.00    -0.346 N 
HETATM   15  C4  UNL     1       3.643 -30.648 -10.878  1.00  0.00     0.273 C 
HETATM   16  O2  UNL     1       2.827 -31.550 -11.258  1.00  0.00    -0.266 OA
ATOM     17  H3  UNL     1       5.522 -29.743 -11.218  1.00  0.00     0.163 HD
BRANCH  15  18
HETATM   18  C5  UNL     1       3.229 -29.833  -9.761  1.00  0.00     0.156 A 
HETATM   19  N4  UNL     1       3.973 -29.560  -8.638  1.00  0.00    -0.300 N 
HETATM   20  C6  UNL     1       3.261 -28.783  -7.830  1.00  0.00     0.327 A 
ATOM     21  H4  UNL     1       4.917 -29.901  -8.455  1.00  0.00     0.171 HD
HETATM   22  O3  UNL     1       3.577 -28.305  -6.697  1.00  0.00    -0.247 OA
HETATM   23  N5  UNL     1       2.054 -28.518  -8.372  1.00  0.00    -0.287 N 
HETATM   24  C7  UNL     1       2.046 -29.175  -9.570  1.00  0.00     0.177 A 
ATOM     25  H5  UNL     1       1.308 -27.949  -7.972  1.00  0.00     0.172 HD
BRANCH  24  26
HETATM   26  O4  UNL     1       0.928 -29.108 -10.393  1.00  0.00    -0.344 OA
ATOM     27  H4  UNL     1       0.151 -28.566 -10.317  1.00  0.00     0.219 HD
ENDBRANCH  24  26
ENDBRANCH  15  18
ENDBRANCH   2  14
BRANCH   1  28
HETATM   28  C1  UNL     1       6.950 -32.341 -11.068  1.00  0.00     0.269 C 
HETATM   29  N2  UNL     1       8.189 -31.924 -10.540  1.00  0.00    -0.273 N 
ATOM     30  H2  UNL     1       8.858 -31.435 -11.134  1.00  0.00     0.189 HD
HETATM   31  O1  UNL     1       6.202 -32.953 -10.203  1.00  0.00    -0.266 OA
BRANCH  29  32
HETATM   32  N1  UNL     1       8.499 -32.181  -9.203  1.00  0.00    -0.342 N 
ATOM     33  H12 UNL     1       8.284 -31.473  -8.500  1.00  0.00     0.176 HD
ATOM     34  H11 UNL     1       8.935 -33.065  -8.942  1.00  0.00     0.176 HD
ENDBRANCH  29  32
ENDBRANCH   1  28
BRANCH   9  35
HETATM   35  O8  UNL     1       8.604 -32.775 -13.207  1.00  0.00    -0.360 OA
ATOM     36  H8  UNL     1       9.138 -32.793 -13.993  1.00  0.00     0.213 HD
ENDBRANCH   9  35
BRANCH   5  37
HETATM   37  N6  UNL     1       7.586 -28.199 -12.797  1.00  0.00    -0.058 N 
ATOM     38  H63 UNL     1       7.944 -27.337 -13.209  1.00  0.00     0.276 HD
ATOM     39  H62 UNL     1       6.716 -27.818 -12.423  1.00  0.00     0.276 HD
ATOM     40  H61 UNL     1       8.197 -28.577 -12.073  1.00  0.00     0.276 HD
ENDBRANCH   5  37
BRANCH   7  41
HETATM   41  C12 UNL     1      10.165 -28.995 -13.600  1.00  0.00     0.123 C 
BRANCH  41  42
HETATM   42  C13 UNL     1      11.194 -28.863 -12.457  1.00  0.00     0.132 C 
BRANCH  42  43
HETATM   43  N8  UNL     1      10.595 -28.193 -11.329  1.00  0.00    -0.354 N 
ATOM     44  H8  UNL     1      10.366 -27.199 -11.372  1.00  0.00     0.163 HD
BRANCH  43  45
HETATM   45  C14 UNL     1      10.331 -28.947 -10.159  1.00  0.00     0.237 C 
HETATM   46  N9  UNL     1       9.787 -28.365  -9.121  1.00  0.00    -0.233 N 
ATOM     47  H9  UNL     1       9.604 -28.922  -8.287  1.00  0.00     0.198 HD
BRANCH  45  48
HETATM   48  O6  UNL     1      10.654 -30.293 -10.137  1.00  0.00    -0.331 OA
ATOM     49  H6  UNL     1      11.110 -30.648  -9.382  1.00  0.00     0.221 HD
ENDBRANCH  45  48
BRANCH  46  50
HETATM   50  O7  UNL     1       9.457 -27.051  -9.110  1.00  0.00    -0.287 OA
ATOM     51  H7  UNL     1       8.558 -26.748  -9.123  1.00  0.00     0.244 HD
ENDBRANCH  46  50
ENDBRANCH  43  45
ENDBRANCH  42  43
ENDBRANCH  41  42
ENDBRANCH   7  41
TORSDOF 13
ENDMDL
MODEL 4
REMARK VINA RESULT: -6.857279712      5.903      8.524
REMARK  13 active torsions:
REMARK  status: ('A' for Active; 'I' for Inactive)
REMARK    1  A    between atoms: N1_1  and  N2_4 
REMARK       I    between atoms: N2_4  and  C1_6 
REMARK    2  A    between atoms: C1_6  and  C2_8 
REMARK    3  A    between atoms: C3_9  and  N3_10 
REMARK       I    between atoms: N3_10  and  C4_12 
REMARK    4  A    between atoms: C4_12  and  C5_14 
REMARK    5  A    between atoms: C7_21  and  O4_22 
REMARK    6  A    between atoms: C10_26  and  N6_27 
REMARK       I    between atoms: N7_31  and  C11_32 
REMARK    7  A    between atoms: C11_32  and  C12_34 
REMARK    8  A    between atoms: C12_34  and  C13_35 
REMARK    9  A    between atoms: C13_35  and  N8_36 
REMARK   10  A    between atoms: N8_36  and  C14_38 
REMARK   11  A    between atoms: C14_38  and  O6_39 
REMARK   12  A    between atoms: N9_41  and  O7_43 
REMARK   13  A    between atoms: C15_45  and  O8_46 
ROOT
HETATM    1  C2  UNL     1       4.767 -32.078  -5.243  1.00  0.00     0.076 C 
HETATM    2  C3  UNL     1       5.050 -31.446  -6.564  1.00  0.00     0.137 C 
HETATM    3  C8  UNL     1       6.369 -30.717  -6.584  1.00  0.00     0.095 C 
HETATM    4  C9  UNL     1       6.350 -29.318  -6.116  1.00  0.00     0.069 C 
HETATM    5  C10 UNL     1       5.954 -29.046  -4.716  1.00  0.00     0.290 C 
HETATM    6  N7  UNL     1       5.654 -30.166  -3.873  1.00  0.00    -0.280 N 
HETATM    7  C11 UNL     1       5.422 -29.766  -2.511  1.00  0.00     0.226 C 
HETATM    8  O5  UNL     1       5.109 -30.644  -1.681  1.00  0.00    -0.273 OA
HETATM    9  C15 UNL     1       5.611 -31.560  -4.106  1.00  0.00     0.241 C 
HETATM   10  C16 UNL     1       7.055 -31.926  -4.500  1.00  0.00     0.255 C 
HETATM   11  O9  UNL     1       7.824 -32.462  -3.698  1.00  0.00    -0.283 OA
HETATM   12  C17 UNL     1       7.367 -31.571  -5.879  1.00  0.00     0.206 C 
HETATM   13  O10 UNL     1       8.415 -31.973  -6.412  1.00  0.00    -0.289 OA
ENDROOT
BRANCH   2  14
HETATM   14  N3  UNL     1       3.959 -30.712  -7.156  1.00  0.00    -0.346 N 
HETATM   15  C4  UNL     1       3.710 -30.772  -8.547  1.00  0.00     0.273 C 
HETATM   16  O2  UNL     1       4.451 -31.474  -9.311  1.00  0.00    -0.266 OA
ATOM     17  H3  UNL     1       3.357 -30.140  -6.563  1.00  0.00     0.163 HD
BRANCH  15  18
HETATM   18  C5  UNL     1       2.625 -30.059  -9.179  1.00  0.00     0.156 A 
HETATM   19  N4  UNL     1       1.677 -29.297  -8.540  1.00  0.00    -0.300 N 
HETATM   20  C6  UNL     1       0.842 -28.802  -9.446  1.00  0.00     0.327 A 
ATOM     21  H4  UNL     1       1.624 -29.138  -7.534  1.00  0.00     0.171 HD
HETATM   22  O3  UNL     1      -0.168 -28.051  -9.278  1.00  0.00    -0.247 OA
HETATM   23  N5  UNL     1       1.196 -29.206 -10.684  1.00  0.00    -0.287 N 
HETATM   24  C7  UNL     1       2.304 -29.986 -10.506  1.00  0.00     0.177 A 
ATOM     25  H5  UNL     1       0.735 -28.978 -11.565  1.00  0.00     0.172 HD
BRANCH  24  26
HETATM   26  O4  UNL     1       2.929 -30.569 -11.602  1.00  0.00    -0.344 OA
ATOM     27  H4  UNL     1       3.286 -30.162 -12.383  1.00  0.00     0.219 HD
ENDBRANCH  24  26
ENDBRANCH  15  18
ENDBRANCH   2  14
BRANCH   1  28
HETATM   28  C1  UNL     1       3.358 -32.261  -4.873  1.00  0.00     0.269 C 
HETATM   29  N2  UNL     1       2.549 -31.312  -4.217  1.00  0.00    -0.273 N 
ATOM     30  H2  UNL     1       2.936 -30.405  -3.955  1.00  0.00     0.189 HD
HETATM   31  O1  UNL     1       2.739 -33.368  -5.142  1.00  0.00    -0.266 OA
BRANCH  29  32
HETATM   32  N1  UNL     1       1.217 -31.613  -3.926  1.00  0.00    -0.342 N 
ATOM     33  H12 UNL     1       0.498 -31.393  -4.615  1.00  0.00     0.176 HD
ATOM     34  H11 UNL     1       0.975 -32.047  -3.035  1.00  0.00     0.176 HD
ENDBRANCH  29  32
ENDBRANCH   1  28
BRANCH   9  35
HETATM   35  O8  UNL     1       5.357 -32.364  -3.003  1.00  0.00    -0.360 OA
ATOM     36  H8  UNL     1       4.851 -31.847  -2.387  1.00  0.00     0.213 HD
ENDBRANCH   9  35
BRANCH   5  37
HETATM   37  N6  UNL     1       4.932 -28.011  -4.742  1.00  0.00    -0.058 N 
ATOM     38  H63 UNL     1       4.734 -27.674  -5.684  1.00  0.00     0.276 HD
ATOM     39  H62 UNL     1       4.000 -28.367  -4.528  1.00  0.00     0.276 HD
ATOM     40  H61 UNL     1       5.229 -27.269  -4.109  1.00  0.00     0.276 HD
ENDBRANCH   5  37
BRANCH   7  41
HETATM   41  C12 UNL     1       5.529 -28.380  -2.015  1.00  0.00     0.123 C 
BRANCH  41  42
HETATM   42  C13 UNL     1       6.138 -28.462  -0.599  1.00  0.00     0.132 C 
BRANCH  42  43
HETATM   43  N8  UNL     1       7.313 -29.299  -0.614  1.00  0.00    -0.354 N 
ATOM     44  H8  UNL     1       7.908 -29.350  -1.442  1.00  0.00     0.163 HD
BRANCH  43  45
HETATM   45  C14 UNL     1       7.621 -30.049   0.548  1.00  0.00     0.237 C 
HETATM   46  N9  UNL     1       7.536 -31.355   0.518  1.00  0.00    -0.233 N 
ATOM     47  H9  UNL     1       7.761 -31.880   1.362  1.00  0.00     0.198 HD
BRANCH  45  48
HETATM   48  O6  UNL     1       8.009 -29.384   1.698  1.00  0.00    -0.331 OA
ATOM     49  H6  UNL     1       8.341 -28.496   1.630  1.00  0.00     0.221 HD
ENDBRANCH  45  48
BRANCH  46  50
HETATM   50  O7  UNL     1       7.161 -32.038  -0.591  1.00  0.00    -0.287 OA
ATOM     51  H7  UNL     1       7.546 -31.881  -1.445  1.00  0.00     0.244 HD
ENDBRANCH  46  50
ENDBRANCH  43  45
ENDBRANCH  42  43
ENDBRANCH  41  42
ENDBRANCH   7  41
TORSDOF 13
ENDMDL
MODEL 5
REMARK VINA RESULT: -6.853857528      5.995      9.217
REMARK  13 active torsions:
REMARK  status: ('A' for Active; 'I' for Inactive)
REMARK    1  A    between atoms: N1_1  and  N2_4 
REMARK       I    between atoms: N2_4  and  C1_6 
REMARK    2  A    between atoms: C1_6  and  C2_8 
REMARK    3  A    between atoms: C3_9  and  N3_10 
REMARK       I    between atoms: N3_10  and  C4_12 
REMARK    4  A    between atoms: C4_12  and  C5_14 
REMARK    5  A    between atoms: C7_21  and  O4_22 
REMARK    6  A    between atoms: C10_26  and  N6_27 
REMARK       I    between atoms: N7_31  and  C11_32 
REMARK    7  A    between atoms: C11_32  and  C12_34 
REMARK    8  A    between atoms: C12_34  and  C13_35 
REMARK    9  A    between atoms: C13_35  and  N8_36 
REMARK   10  A    between atoms: N8_36  and  C14_38 
REMARK   11  A    between atoms: C14_38  and  O6_39 
REMARK   12  A    between atoms: N9_41  and  O7_43 
REMARK   13  A    between atoms: C15_45  and  O8_46 
ROOT
HETATM    1  C2  UNL     1       5.143 -31.717  -3.673  1.00  0.00     0.076 C 
HETATM    2  C3  UNL     1       4.760 -30.334  -3.268  1.00  0.00     0.137 C 
HETATM    3  C8  UNL     1       3.793 -29.698  -4.234  1.00  0.00     0.095 C 
HETATM    4  C9  UNL     1       4.387 -29.006  -5.393  1.00  0.00     0.069 C 
HETATM    5  C10 UNL     1       5.191 -29.795  -6.353  1.00  0.00     0.290 C 
HETATM    6  N7  UNL     1       5.309 -31.206  -6.129  1.00  0.00    -0.280 N 
HETATM    7  C11 UNL     1       5.997 -31.865  -7.207  1.00  0.00     0.226 C 
HETATM    8  O5  UNL     1       6.203 -33.093  -7.115  1.00  0.00    -0.273 OA
HETATM    9  C15 UNL     1       4.833 -32.061  -5.108  1.00  0.00     0.241 C 
HETATM   10  C16 UNL     1       3.299 -31.953  -5.206  1.00  0.00     0.255 C 
HETATM   11  O9  UNL     1       2.625 -32.836  -5.745  1.00  0.00    -0.283 OA
HETATM   12  C17 UNL     1       2.782 -30.729  -4.606  1.00  0.00     0.206 C 
HETATM   13  O10 UNL     1       1.562 -30.582  -4.426  1.00  0.00    -0.289 OA
ENDROOT
BRANCH   2  14
HETATM   14  N3  UNL     1       5.844 -29.474  -2.863  1.00  0.00    -0.346 N 
HETATM   15  C4  UNL     1       5.988 -29.069  -1.515  1.00  0.00     0.273 C 
HETATM   16  O2  UNL     1       5.157 -29.452  -0.628  1.00  0.00    -0.266 OA
ATOM     17  H3  UNL     1       6.517 -29.152  -3.559  1.00  0.00     0.163 HD
BRANCH  15  18
HETATM   18  C5  UNL     1       7.062 -28.215  -1.067  1.00  0.00     0.156 A 
HETATM   19  N4  UNL     1       7.046 -27.413   0.049  1.00  0.00    -0.300 N 
HETATM   20  C6  UNL     1       8.206 -26.773   0.135  1.00  0.00     0.327 A 
ATOM     21  H4  UNL     1       6.269 -27.324   0.704  1.00  0.00     0.171 HD
HETATM   22  O3  UNL     1       8.599 -25.942   1.010  1.00  0.00    -0.247 OA
HETATM   23  N5  UNL     1       9.012 -27.118  -0.892  1.00  0.00    -0.287 N 
HETATM   24  C7  UNL     1       8.291 -28.013  -1.631  1.00  0.00     0.177 A 
ATOM     25  H5  UNL     1       9.957 -26.781  -1.076  1.00  0.00     0.172 HD
BRANCH  24  26
HETATM   26  O4  UNL     1       8.841 -28.572  -2.778  1.00  0.00    -0.344 OA
ATOM     27  H4  UNL     1       9.438 -29.306  -2.868  1.00  0.00     0.219 HD
ENDBRANCH  24  26
ENDBRANCH  15  18
ENDBRANCH   2  14
BRANCH   1  28
HETATM   28  C1  UNL     1       6.460 -32.204  -3.241  1.00  0.00     0.269 C 
HETATM   29  N2  UNL     1       7.547 -32.500  -4.087  1.00  0.00    -0.273 N 
ATOM     30  H2  UNL     1       7.455 -32.384  -5.096  1.00  0.00     0.189 HD
HETATM   31  O1  UNL     1       6.715 -32.401  -1.984  1.00  0.00    -0.266 OA
BRANCH  29  32
HETATM   32  N1  UNL     1       8.750 -32.953  -3.543  1.00  0.00    -0.342 N 
ATOM     33  H12 UNL     1       8.774 -33.865  -3.085  1.00  0.00     0.176 HD
ATOM     34  H11 UNL     1       9.588 -32.375  -3.606  1.00  0.00     0.176 HD
ENDBRANCH  29  32
ENDBRANCH   1  28
BRANCH   9  35
HETATM   35  O8  UNL     1       5.079 -33.417  -5.272  1.00  0.00    -0.360 OA
ATOM     36  H8  UNL     1       4.284 -33.810  -5.611  1.00  0.00     0.213 HD
ENDBRANCH   9  35
BRANCH   5  37
HETATM   37  N6  UNL     1       6.453 -29.099  -6.545  1.00  0.00    -0.058 N 
ATOM     38  H63 UNL     1       6.382 -28.095  -6.379  1.00  0.00     0.276 HD
ATOM     39  H62 UNL     1       7.136 -29.307  -5.816  1.00  0.00     0.276 HD
ATOM     40  H61 UNL     1       6.791 -29.325  -7.480  1.00  0.00     0.276 HD
ENDBRANCH   5  37
BRANCH   7  41
HETATM   41  C12 UNL     1       6.479 -31.192  -8.429  1.00  0.00     0.123 C 
BRANCH  41  42
HETATM   42  C13 UNL     1       5.565 -31.659  -9.583  1.00  0.00     0.132 C 
BRANCH  42  43
HETATM   43  N8  UNL     1       4.522 -30.687  -9.810  1.00  0.00    -0.354 N 
ATOM     44  H8  UNL     1       4.751 -29.713 -10.008  1.00  0.00     0.163 HD
BRANCH  43  45
HETATM   45  C14 UNL     1       3.175 -31.119  -9.752  1.00  0.00     0.237 C 
HETATM   46  N9  UNL     1       2.541 -31.416 -10.858  1.00  0.00    -0.233 N 
ATOM     47  H9  UNL     1       1.571 -31.725 -10.799  1.00  0.00     0.198 HD
BRANCH  45  48
HETATM   48  O6  UNL     1       2.551 -31.220  -8.521  1.00  0.00    -0.331 OA
ATOM     49  H6  UNL     1       1.706 -31.652  -8.463  1.00  0.00     0.221 HD
ENDBRANCH  45  48
BRANCH  46  50
HETATM   50  O7  UNL     1       3.122 -31.329 -12.079  1.00  0.00    -0.287 OA
ATOM     51  H7  UNL     1       2.619 -31.292 -12.884  1.00  0.00     0.244 HD
ENDBRANCH  46  50
ENDBRANCH  43  45
ENDBRANCH  42  43
ENDBRANCH  41  42
ENDBRANCH   7  41
TORSDOF 13
ENDMDL
