MODEL 1
REMARK VINA RESULT: -7.968706094      0.000      0.000
REMARK  7 active torsions:
REMARK  status: ('A' for Active; 'I' for Inactive)
REMARK    1  A    between atoms: C1_2  and  C2_4 
REMARK    2  A    between atoms: C2_4  and  N2_5 
REMARK    3  A    between atoms: C2_4  and  C9_19 
REMARK       I    between atoms: N2_5  and  C3_7 
REMARK    4  A    between atoms: C3_7  and  C4_9 
REMARK    5  A    between atoms: C5_12  and  C6_13 
REMARK       I    between atoms: C9_19  and  N5_21 
REMARK    6  A    between atoms: N5_21  and  C10_23 
REMARK    7  A    between atoms: C10_23  and  C11_24 
ROOT
HETATM    1  N2  UNL     1     -13.889   5.253  37.199  1.00  0.00    -0.335 N 
ATOM      2  H2  UNL     1     -13.197   4.698  36.693  1.00  0.00     0.164 HD
HETATM    3  C3  UNL     1     -14.235   6.515  36.755  1.00  0.00     0.270 C 
HETATM    4  O2  UNL     1     -15.120   7.135  37.464  1.00  0.00    -0.266 OA
ENDROOT
BRANCH   1   5
HETATM    5  C2  UNL     1     -14.535   4.717  38.418  1.00  0.00     0.266 C 
BRANCH   5   6
HETATM    6  C1  UNL     1     -13.548   4.155  39.320  1.00  0.00     0.263 C 
HETATM    7  N1  UNL     1     -13.112   2.805  39.272  1.00  0.00    -0.060 NA
HETATM    8  O1  UNL     1     -13.035   4.887  40.211  1.00  0.00    -0.274 OA
ENDBRANCH   5   6
BRANCH   5   9
HETATM    9  C9  UNL     1     -15.641   3.802  37.985  1.00  0.00     0.249 C 
HETATM   10  O4  UNL     1     -15.382   3.118  36.934  1.00  0.00    -0.271 OA
HETATM   11  N5  UNL     1     -16.859   3.672  38.642  1.00  0.00    -0.354 N 
ATOM     12  H5  UNL     1     -16.957   4.242  39.482  1.00  0.00     0.162 HD
BRANCH  11  13
HETATM   13  C10 UNL     1     -17.994   2.865  38.324  1.00  0.00     0.193 C 
BRANCH  13  14
HETATM   14  C11 UNL     1     -18.563   2.132  39.472  1.00  0.00     0.370 C 
HETATM   15  F1  UNL     1     -18.057   2.714  40.628  1.00  0.00    -0.213 F 
HETATM   16  F2  UNL     1     -19.912   2.154  39.512  1.00  0.00    -0.213 F 
ENDBRANCH  13  14
ENDBRANCH  11  13
ENDBRANCH   5   9
ENDBRANCH   1   5
BRANCH   3  17
HETATM   17  C4  UNL     1     -13.732   7.234  35.593  1.00  0.00     0.120 A 
HETATM   18  N3  UNL     1     -12.572   7.967  35.580  1.00  0.00    -0.347 N 
HETATM   19  C5  UNL     1     -12.369   8.502  34.375  1.00  0.00     0.096 A 
ATOM     20  H3  UNL     1     -11.951   8.086  36.381  1.00  0.00     0.166 HD
HETATM   21  C7  UNL     1     -13.393   8.145  33.533  1.00  0.00     0.096 A 
HETATM   22  N4  UNL     1     -13.581   8.493  32.155  1.00  0.00    -0.098 NA
HETATM   23  C8  UNL     1     -14.225   7.356  34.318  1.00  0.00     0.069 A 
HETATM   24 BR1  UNL     1     -15.823   6.568  33.643  1.00  0.00    -0.046 Br
BRANCH  19  25
HETATM   25  C6  UNL     1     -11.228   9.353  34.000  1.00  0.00     0.290 C 
HETATM   26  O3  UNL     1     -10.271   8.893  33.327  1.00  0.00    -0.300 OA
ENDBRANCH  19  25
ENDBRANCH   3  17
TORSDOF 7
ENDMDL
MODEL 2
REMARK VINA RESULT: -7.931866638      1.551      1.895
REMARK  7 active torsions:
REMARK  status: ('A' for Active; 'I' for Inactive)
REMARK    1  A    between atoms: C1_2  and  C2_4 
REMARK    2  A    between atoms: C2_4  and  N2_5 
REMARK    3  A    between atoms: C2_4  and  C9_19 
REMARK       I    between atoms: N2_5  and  C3_7 
REMARK    4  A    between atoms: C3_7  and  C4_9 
REMARK    5  A    between atoms: C5_12  and  C6_13 
REMARK       I    between atoms: C9_19  and  N5_21 
REMARK    6  A    between atoms: N5_21  and  C10_23 
REMARK    7  A    between atoms: C10_23  and  C11_24 
ROOT
HETATM    1  N2  UNL     1     -14.854   4.808  37.248  1.00  0.00    -0.335 N 
ATOM      2  H2  UNL     1     -15.283   4.661  36.334  1.00  0.00     0.164 HD
HETATM    3  C3  UNL     1     -14.133   5.959  37.505  1.00  0.00     0.270 C 
HETATM    4  O2  UNL     1     -13.630   6.051  38.692  1.00  0.00    -0.266 OA
ENDROOT
BRANCH   1   5
HETATM    5  C2  UNL     1     -14.993   3.794  38.316  1.00  0.00     0.266 C 
BRANCH   5   6
HETATM    6  C1  UNL     1     -13.979   2.765  38.185  1.00  0.00     0.263 C 
HETATM    7  N1  UNL     1     -12.897   2.604  39.088  1.00  0.00    -0.060 NA
HETATM    8  O1  UNL     1     -14.038   1.957  37.218  1.00  0.00    -0.274 OA
ENDBRANCH   5   6
BRANCH   5   9
HETATM    9  C9  UNL     1     -16.419   3.328  38.320  1.00  0.00     0.249 C 
HETATM   10  O4  UNL     1     -17.259   4.189  37.883  1.00  0.00    -0.271 OA
HETATM   11  N5  UNL     1     -16.836   2.074  38.751  1.00  0.00    -0.354 N 
ATOM     12  H5  UNL     1     -16.087   1.452  39.058  1.00  0.00     0.162 HD
BRANCH  11  13
HETATM   13  C10 UNL     1     -18.150   1.519  38.831  1.00  0.00     0.193 C 
BRANCH  13  14
HETATM   14  C11 UNL     1     -19.000   2.111  39.883  1.00  0.00     0.370 C 
HETATM   15  F1  UNL     1     -19.906   1.137  40.283  1.00  0.00    -0.213 F 
HETATM   16  F2  UNL     1     -18.306   2.547  40.955  1.00  0.00    -0.213 F 
ENDBRANCH  13  14
ENDBRANCH  11  13
ENDBRANCH   5   9
ENDBRANCH   1   5
BRANCH   3  17
HETATM   17  C4  UNL     1     -13.868   7.079  36.612  1.00  0.00     0.120 A 
HETATM   18  N3  UNL     1     -12.624   7.417  36.145  1.00  0.00    -0.347 N 
HETATM   19  C5  UNL     1     -12.697   8.480  35.342  1.00  0.00     0.096 A 
ATOM     20  H3  UNL     1     -11.762   6.924  36.378  1.00  0.00     0.166 HD
HETATM   21  C7  UNL     1     -14.003   8.895  35.245  1.00  0.00     0.096 A 
HETATM   22  N4  UNL     1     -14.540   9.992  34.494  1.00  0.00    -0.098 NA
HETATM   23  C8  UNL     1     -14.708   8.005  36.044  1.00  0.00     0.069 A 
HETATM   24 BR1  UNL     1     -16.597   8.107  36.271  1.00  0.00    -0.046 Br
BRANCH  19  25
HETATM   25  C6  UNL     1     -11.558   9.121  34.667  1.00  0.00     0.290 C 
HETATM   26  O3  UNL     1     -10.833   8.478  33.867  1.00  0.00    -0.300 OA
ENDBRANCH  19  25
ENDBRANCH   3  17
TORSDOF 7
ENDMDL
MODEL 3
REMARK VINA RESULT: -7.924006406      4.088      7.811
REMARK  7 active torsions:
REMARK  status: ('A' for Active; 'I' for Inactive)
REMARK    1  A    between atoms: C1_2  and  C2_4 
REMARK    2  A    between atoms: C2_4  and  N2_5 
REMARK    3  A    between atoms: C2_4  and  C9_19 
REMARK       I    between atoms: N2_5  and  C3_7 
REMARK    4  A    between atoms: C3_7  and  C4_9 
REMARK    5  A    between atoms: C5_12  and  C6_13 
REMARK       I    between atoms: C9_19  and  N5_21 
REMARK    6  A    between atoms: N5_21  and  C10_23 
REMARK    7  A    between atoms: C10_23  and  C11_24 
ROOT
HETATM    1  N2  UNL     1     -15.737   6.416  35.052  1.00  0.00    -0.335 N 
ATOM      2  H2  UNL     1     -15.124   5.758  34.571  1.00  0.00     0.164 HD
HETATM    3  C3  UNL     1     -16.083   6.214  36.375  1.00  0.00     0.270 C 
HETATM    4  O2  UNL     1     -16.862   7.104  36.893  1.00  0.00    -0.266 OA
ENDROOT
BRANCH   1   5
HETATM    5  C2  UNL     1     -16.270   7.602  34.344  1.00  0.00     0.266 C 
BRANCH   5   6
HETATM    6  C1  UNL     1     -16.911   7.215  33.102  1.00  0.00     0.263 C 
HETATM    7  N1  UNL     1     -16.405   6.219  32.228  1.00  0.00    -0.060 NA
HETATM    8  O1  UNL     1     -17.982   7.787  32.754  1.00  0.00    -0.274 OA
ENDBRANCH   5   6
BRANCH   5   9
HETATM    9  C9  UNL     1     -15.162   8.607  34.238  1.00  0.00     0.249 C 
HETATM   10  O4  UNL     1     -15.389   9.712  34.841  1.00  0.00    -0.271 OA
HETATM   11  N5  UNL     1     -13.970   8.395  33.554  1.00  0.00    -0.354 N 
ATOM     12  H5  UNL     1     -13.876   7.473  33.127  1.00  0.00     0.162 HD
BRANCH  11  13
HETATM   13  C10 UNL     1     -12.856   9.268  33.356  1.00  0.00     0.193 C 
BRANCH  13  14
HETATM   14  C11 UNL     1     -11.791   9.137  34.370  1.00  0.00     0.370 C 
HETATM   15  F1  UNL     1     -11.104  10.344  34.408  1.00  0.00    -0.213 F 
HETATM   16  F2  UNL     1     -12.253   8.844  35.603  1.00  0.00    -0.213 F 
ENDBRANCH  13  14
ENDBRANCH  11  13
ENDBRANCH   5   9
ENDBRANCH   1   5
BRANCH   3  17
HETATM   17  C4  UNL     1     -15.680   5.127  37.258  1.00  0.00     0.120 A 
HETATM   18  N3  UNL     1     -16.520   4.133  37.691  1.00  0.00    -0.347 N 
HETATM   19  C5  UNL     1     -15.867   3.278  38.480  1.00  0.00     0.096 A 
ATOM     20  H3  UNL     1     -17.507   4.057  37.444  1.00  0.00     0.166 HD
HETATM   21  C7  UNL     1     -14.557   3.674  38.605  1.00  0.00     0.096 A 
HETATM   22  N4  UNL     1     -13.503   3.055  39.353  1.00  0.00    -0.098 NA
HETATM   23  C8  UNL     1     -14.471   4.826  37.833  1.00  0.00     0.069 A 
HETATM   24 BR1  UNL     1     -12.850   5.806  37.636  1.00  0.00    -0.046 Br
BRANCH  19  25
HETATM   25  C6  UNL     1     -16.453   2.094  39.128  1.00  0.00     0.290 C 
HETATM   26  O3  UNL     1     -17.237   2.210  40.103  1.00  0.00    -0.300 OA
ENDBRANCH  19  25
ENDBRANCH   3  17
TORSDOF 7
ENDMDL
MODEL 4
REMARK VINA RESULT: -7.851235507      2.262      2.698
REMARK  7 active torsions:
REMARK  status: ('A' for Active; 'I' for Inactive)
REMARK    1  A    between atoms: C1_2  and  C2_4 
REMARK    2  A    between atoms: C2_4  and  N2_5 
REMARK    3  A    between atoms: C2_4  and  C9_19 
REMARK       I    between atoms: N2_5  and  C3_7 
REMARK    4  A    between atoms: C3_7  and  C4_9 
REMARK    5  A    between atoms: C5_12  and  C6_13 
REMARK       I    between atoms: C9_19  and  N5_21 
REMARK    6  A    between atoms: N5_21  and  C10_23 
REMARK    7  A    between atoms: C10_23  and  C11_24 
ROOT
HETATM    1  N2  UNL     1     -14.698   4.714  36.906  1.00  0.00    -0.335 N 
ATOM      2  H2  UNL     1     -13.920   4.274  36.414  1.00  0.00     0.164 HD
HETATM    3  C3  UNL     1     -15.404   5.747  36.317  1.00  0.00     0.270 C 
HETATM    4  O2  UNL     1     -16.371   6.236  37.020  1.00  0.00    -0.266 OA
ENDROOT
BRANCH   1   5
HETATM    5  C2  UNL     1     -15.088   4.256  38.258  1.00  0.00     0.266 C 
BRANCH   5   6
HETATM    6  C1  UNL     1     -13.916   3.974  39.064  1.00  0.00     0.263 C 
HETATM    7  N1  UNL     1     -13.228   2.733  39.051  1.00  0.00    -0.060 NA
HETATM    8  O1  UNL     1     -13.464   4.866  39.834  1.00  0.00    -0.274 OA
ENDBRANCH   5   6
BRANCH   5   9
HETATM    9  C9  UNL     1     -16.072   3.136  38.096  1.00  0.00     0.249 C 
HETATM   10  O4  UNL     1     -15.896   2.424  37.047  1.00  0.00    -0.271 OA
HETATM   11  N5  UNL     1     -17.101   2.857  38.988  1.00  0.00    -0.354 N 
ATOM     12  H5  UNL     1     -17.141   3.467  39.804  1.00  0.00     0.162 HD
BRANCH  11  13
HETATM   13  C10 UNL     1     -18.111   1.848  38.939  1.00  0.00     0.193 C 
BRANCH  13  14
HETATM   14  C11 UNL     1     -19.200   2.027  39.921  1.00  0.00     0.370 C 
HETATM   15  F1  UNL     1     -19.911   0.835  39.974  1.00  0.00    -0.213 F 
HETATM   16  F2  UNL     1     -18.764   2.345  41.158  1.00  0.00    -0.213 F 
ENDBRANCH  13  14
ENDBRANCH  11  13
ENDBRANCH   5   9
ENDBRANCH   1   5
BRANCH   3  17
HETATM   17  C4  UNL     1     -15.197   6.352  35.009  1.00  0.00     0.120 A 
HETATM   18  N3  UNL     1     -15.936   6.050  33.893  1.00  0.00    -0.347 N 
HETATM   19  C5  UNL     1     -15.521   6.768  32.848  1.00  0.00     0.096 A 
ATOM     20  H3  UNL     1     -16.697   5.372  33.866  1.00  0.00     0.166 HD
HETATM   21  C7  UNL     1     -14.481   7.580  33.230  1.00  0.00     0.096 A 
HETATM   22  N4  UNL     1     -13.736   8.513  32.436  1.00  0.00    -0.098 NA
HETATM   23  C8  UNL     1     -14.303   7.300  34.579  1.00  0.00     0.069 A 
HETATM   24 BR1  UNL     1     -12.976   8.165  35.637  1.00  0.00    -0.046 Br
BRANCH  19  25
HETATM   25  C6  UNL     1     -16.081   6.700  31.489  1.00  0.00     0.290 C 
HETATM   26  O3  UNL     1     -16.524   5.621  31.023  1.00  0.00    -0.300 OA
ENDBRANCH  19  25
ENDBRANCH   3  17
TORSDOF 7
ENDMDL
MODEL 5
REMARK VINA RESULT: -7.504042265      4.455      8.023
REMARK  7 active torsions:
REMARK  status: ('A' for Active; 'I' for Inactive)
REMARK    1  A    between atoms: C1_2  and  C2_4 
REMARK    2  A    between atoms: C2_4  and  N2_5 
REMARK    3  A    between atoms: C2_4  and  C9_19 
REMARK       I    between atoms: N2_5  and  C3_7 
REMARK    4  A    between atoms: C3_7  and  C4_9 
REMARK    5  A    between atoms: C5_12  and  C6_13 
REMARK       I    between atoms: C9_19  and  N5_21 
REMARK    6  A    between atoms: N5_21  and  C10_23 
REMARK    7  A    between atoms: C10_23  and  C11_24 
ROOT
HETATM    1  N2  UNL     1     -15.522   6.734  35.238  1.00  0.00    -0.335 N 
ATOM      2  H2  UNL     1     -14.761   6.188  34.834  1.00  0.00     0.164 HD
HETATM    3  C3  UNL     1     -16.092   6.359  36.441  1.00  0.00     0.270 C 
HETATM    4  O2  UNL     1     -17.047   7.116  36.868  1.00  0.00    -0.266 OA
ENDROOT
BRANCH   1   5
HETATM    5  C2  UNL     1     -16.033   7.938  34.545  1.00  0.00     0.266 C 
BRANCH   5   6
HETATM    6  C1  UNL     1     -16.487   7.610  33.208  1.00  0.00     0.263 C 
HETATM    7  N1  UNL     1     -16.361   6.323  32.624  1.00  0.00    -0.060 NA
HETATM    8  O1  UNL     1     -17.023   8.506  32.499  1.00  0.00    -0.274 OA
ENDBRANCH   5   6
BRANCH   5   9
HETATM    9  C9  UNL     1     -14.984   9.005  34.651  1.00  0.00     0.249 C 
HETATM   10  O4  UNL     1     -14.168   8.852  35.626  1.00  0.00    -0.271 OA
HETATM   11  N5  UNL     1     -14.869  10.085  33.783  1.00  0.00    -0.354 N 
ATOM     12  H5  UNL     1     -15.552  10.103  33.025  1.00  0.00     0.162 HD
BRANCH  11  13
HETATM   13  C10 UNL     1     -13.943  11.172  33.786  1.00  0.00     0.193 C 
BRANCH  13  14
HETATM   14  C11 UNL     1     -12.597  10.830  33.284  1.00  0.00     0.370 C 
HETATM   15  F1  UNL     1     -11.810  10.520  34.385  1.00  0.00    -0.213 F 
HETATM   16  F2  UNL     1     -12.591   9.793  32.421  1.00  0.00    -0.213 F 
ENDBRANCH  13  14
ENDBRANCH  11  13
ENDBRANCH   5   9
ENDBRANCH   1   5
BRANCH   3  17
HETATM   17  C4  UNL     1     -15.752   5.223  37.286  1.00  0.00     0.120 A 
HETATM   18  N3  UNL     1     -16.653   4.278  37.708  1.00  0.00    -0.347 N 
HETATM   19  C5  UNL     1     -16.049   3.358  38.461  1.00  0.00     0.096 A 
ATOM     20  H3  UNL     1     -17.647   4.279  37.478  1.00  0.00     0.166 HD
HETATM   21  C7  UNL     1     -14.713   3.657  38.572  1.00  0.00     0.096 A 
HETATM   22  N4  UNL     1     -13.692   2.944  39.282  1.00  0.00    -0.098 NA
HETATM   23  C8  UNL     1     -14.558   4.821  37.830  1.00  0.00     0.069 A 
HETATM   24 BR1  UNL     1     -12.875   5.690  37.628  1.00  0.00    -0.046 Br
BRANCH  19  25
HETATM   25  C6  UNL     1     -16.706   2.200  39.088  1.00  0.00     0.290 C 
HETATM   26  O3  UNL     1     -17.400   2.332  40.127  1.00  0.00    -0.300 OA
ENDBRANCH  19  25
ENDBRANCH   3  17
TORSDOF 7
ENDMDL
