MODEL 1
REMARK VINA RESULT: -7.208958401      0.000      0.000
REMARK  9 active torsions:
REMARK  status: ('A' for Active; 'I' for Inactive)
REMARK    1  A    between atoms: C2_2  and  O1_3 
REMARK    2  A    between atoms: C2_2  and  C3_5 
REMARK    3  A    between atoms: C3_5  and  N1_6 
REMARK       I    between atoms: N1_6  and  C4_8 
REMARK    4  A    between atoms: C4_8  and  C5_10 
REMARK    5  A    between atoms: C5_10  and  N2_11 
REMARK    6  A    between atoms: C5_10  and  C10_24 
REMARK       I    between atoms: N2_11  and  C6_13 
REMARK    7  A    between atoms: C6_13  and  C7_15 
REMARK    8  A    between atoms: C7_15  and  N3_16 
REMARK    9  A    between atoms: C7_15  and  C9_21 
REMARK       I    between atoms: N3_16  and  C8_18 
ROOT
HETATM    1  C5  UNL     1     -15.270   4.926  37.678  1.00  0.00     0.231 C 
ENDROOT
BRANCH   1   2
HETATM    2  C4  UNL     1     -16.120   3.739  37.768  1.00  0.00     0.244 C 
HETATM    3  N1  UNL     1     -17.129   3.559  38.737  1.00  0.00    -0.357 N 
ATOM      4  H1  UNL     1     -17.301   4.288  39.429  1.00  0.00     0.162 HD
HETATM    5  O2  UNL     1     -15.950   2.782  36.910  1.00  0.00    -0.271 OA
BRANCH   3   6
HETATM    6  C3  UNL     1     -17.940   2.323  38.759  1.00  0.00     0.153 C 
BRANCH   6   7
HETATM    7  C2  UNL     1     -18.900   2.432  39.897  1.00  0.00     0.132 C 
HETATM    8  C1  UNL     1     -19.813   1.255  40.025  1.00  0.00     0.041 C 
BRANCH   7   9
HETATM    9  O1  UNL     1     -18.115   2.453  41.075  1.00  0.00    -0.394 OA
ATOM     10  H1  UNL     1     -17.364   1.899  40.901  1.00  0.00     0.210 HD
ENDBRANCH   7   9
ENDBRANCH   6   7
ENDBRANCH   3   6
ENDBRANCH   1   2
BRANCH   1  11
HETATM   11  N2  UNL     1     -15.460   5.606  36.386  1.00  0.00    -0.342 N 
HETATM   12  C6  UNL     1     -16.205   6.773  36.240  1.00  0.00     0.252 C 
HETATM   13  O3  UNL     1     -16.747   7.278  37.259  1.00  0.00    -0.271 OA
ATOM     14  H2  UNL     1     -15.024   5.203  35.558  1.00  0.00     0.163 HD
BRANCH  12  15
HETATM   15  C7  UNL     1     -16.394   7.459  34.939  1.00  0.00     0.279 C 
BRANCH  15  16
HETATM   16  N3  UNL     1     -17.818   7.510  34.582  1.00  0.00    -0.323 N 
HETATM   17  C8  UNL     1     -18.577   8.697  34.676  1.00  0.00     0.329 C 
HETATM   18  N4  UNL     1     -19.942   8.696  34.323  1.00  0.00    -0.040 NA
HETATM   19  O4  UNL     1     -18.063   9.776  35.072  1.00  0.00    -0.251 OA
ATOM     20  H3  UNL     1     -18.274   6.658  34.256  1.00  0.00     0.165 HD
ENDBRANCH  15  16
BRANCH  15  21
HETATM   21  C9  UNL     1     -15.651   6.777  33.862  1.00  0.00     0.206 C 
HETATM   22  O5  UNL     1     -14.408   6.796  33.869  1.00  0.00    -0.646 OA
HETATM   23  O6  UNL     1     -16.332   6.127  32.862  1.00  0.00    -0.646 OA
ENDBRANCH  15  21
ENDBRANCH  12  15
ENDBRANCH   1  11
BRANCH   1  24
HETATM   24  C10 UNL     1     -13.786   4.629  37.846  1.00  0.00     0.217 C 
HETATM   25 CL1  UNL     1     -12.924   4.795  36.291  1.00  0.00    -0.081 Cl
HETATM   26 CL2  UNL     1     -13.498   3.097  38.626  1.00  0.00    -0.081 Cl
HETATM   27 CL3  UNL     1     -13.186   5.917  38.947  1.00  0.00    -0.081 Cl
ENDBRANCH   1  24
TORSDOF 9
ENDMDL
MODEL 2
REMARK VINA RESULT: -7.207308892      1.826      2.413
REMARK  9 active torsions:
REMARK  status: ('A' for Active; 'I' for Inactive)
REMARK    1  A    between atoms: C2_2  and  O1_3 
REMARK    2  A    between atoms: C2_2  and  C3_5 
REMARK    3  A    between atoms: C3_5  and  N1_6 
REMARK       I    between atoms: N1_6  and  C4_8 
REMARK    4  A    between atoms: C4_8  and  C5_10 
REMARK    5  A    between atoms: C5_10  and  N2_11 
REMARK    6  A    between atoms: C5_10  and  C10_24 
REMARK       I    between atoms: N2_11  and  C6_13 
REMARK    7  A    between atoms: C6_13  and  C7_15 
REMARK    8  A    between atoms: C7_15  and  N3_16 
REMARK    9  A    between atoms: C7_15  and  C9_21 
REMARK       I    between atoms: N3_16  and  C8_18 
ROOT
HETATM    1  C5  UNL     1     -15.061   6.014  37.121  1.00  0.00     0.231 C 
ENDROOT
BRANCH   1   2
HETATM    2  C4  UNL     1     -15.589   4.683  37.415  1.00  0.00     0.244 C 
HETATM    3  N1  UNL     1     -16.963   4.385  37.545  1.00  0.00    -0.357 N 
ATOM      4  H1  UNL     1     -17.653   5.127  37.428  1.00  0.00     0.162 HD
HETATM    5  O2  UNL     1     -14.758   3.700  37.567  1.00  0.00    -0.271 OA
BRANCH   3   6
HETATM    6  C3  UNL     1     -17.411   3.010  37.849  1.00  0.00     0.153 C 
BRANCH   6   7
HETATM    7  C2  UNL     1     -17.512   2.885  39.333  1.00  0.00     0.132 C 
HETATM    8  C1  UNL     1     -18.715   2.123  39.789  1.00  0.00     0.041 C 
BRANCH   7   9
HETATM    9  O1  UNL     1     -16.388   2.128  39.743  1.00  0.00    -0.394 OA
ATOM     10  H1  UNL     1     -15.714   2.281  39.091  1.00  0.00     0.210 HD
ENDBRANCH   7   9
ENDBRANCH   6   7
ENDBRANCH   3   6
ENDBRANCH   1   2
BRANCH   1  11
HETATM   11  N2  UNL     1     -15.532   6.483  35.808  1.00  0.00    -0.342 N 
HETATM   12  C6  UNL     1     -16.667   7.270  35.640  1.00  0.00     0.252 C 
HETATM   13  O3  UNL     1     -17.332   7.602  36.658  1.00  0.00    -0.271 OA
ATOM     14  H2  UNL     1     -14.999   6.219  34.979  1.00  0.00     0.163 HD
BRANCH  12  15
HETATM   15  C7  UNL     1     -17.140   7.745  34.316  1.00  0.00     0.279 C 
BRANCH  15  16
HETATM   16  N3  UNL     1     -16.732   6.814  33.256  1.00  0.00    -0.323 N 
HETATM   17  C8  UNL     1     -17.523   6.584  32.109  1.00  0.00     0.329 C 
HETATM   18  N4  UNL     1     -17.090   5.680  31.118  1.00  0.00    -0.040 NA
HETATM   19  O4  UNL     1     -18.624   7.174  31.940  1.00  0.00    -0.251 OA
ATOM     20  H3  UNL     1     -15.847   6.316  33.352  1.00  0.00     0.165 HD
ENDBRANCH  15  16
BRANCH  15  21
HETATM   21  C9  UNL     1     -16.611   9.087  34.010  1.00  0.00     0.206 C 
HETATM   22  O5  UNL     1     -15.449   9.378  34.341  1.00  0.00    -0.646 OA
HETATM   23  O6  UNL     1     -17.401  10.006  33.364  1.00  0.00    -0.646 OA
ENDBRANCH  15  21
ENDBRANCH  12  15
ENDBRANCH   1  11
BRANCH   1  24
HETATM   24  C10 UNL     1     -13.540   6.084  37.136  1.00  0.00     0.217 C 
HETATM   25 CL1  UNL     1     -12.837   4.867  36.033  1.00  0.00    -0.081 Cl
HETATM   26 CL2  UNL     1     -12.885   6.003  38.749  1.00  0.00    -0.081 Cl
HETATM   27 CL3  UNL     1     -13.154   7.711  36.476  1.00  0.00    -0.081 Cl
ENDBRANCH   1  24
TORSDOF 9
ENDMDL
MODEL 3
REMARK VINA RESULT: -7.202824049      1.238      1.608
REMARK  9 active torsions:
REMARK  status: ('A' for Active; 'I' for Inactive)
REMARK    1  A    between atoms: C2_2  and  O1_3 
REMARK    2  A    between atoms: C2_2  and  C3_5 
REMARK    3  A    between atoms: C3_5  and  N1_6 
REMARK       I    between atoms: N1_6  and  C4_8 
REMARK    4  A    between atoms: C4_8  and  C5_10 
REMARK    5  A    between atoms: C5_10  and  N2_11 
REMARK    6  A    between atoms: C5_10  and  C10_24 
REMARK       I    between atoms: N2_11  and  C6_13 
REMARK    7  A    between atoms: C6_13  and  C7_15 
REMARK    8  A    between atoms: C7_15  and  N3_16 
REMARK    9  A    between atoms: C7_15  and  C9_21 
REMARK       I    between atoms: N3_16  and  C8_18 
ROOT
HETATM    1  C5  UNL     1     -15.187   5.927  37.021  1.00  0.00     0.231 C 
ENDROOT
BRANCH   1   2
HETATM    2  C4  UNL     1     -15.676   4.596  37.380  1.00  0.00     0.244 C 
HETATM    3  N1  UNL     1     -17.041   4.259  37.500  1.00  0.00    -0.357 N 
ATOM      4  H1  UNL     1     -17.753   4.968  37.328  1.00  0.00     0.162 HD
HETATM    5  O2  UNL     1     -14.816   3.653  37.604  1.00  0.00    -0.271 OA
BRANCH   3   6
HETATM    6  C3  UNL     1     -17.449   2.888  37.874  1.00  0.00     0.153 C 
BRANCH   6   7
HETATM    7  C2  UNL     1     -17.569   2.841  39.361  1.00  0.00     0.132 C 
HETATM    8  C1  UNL     1     -18.777   2.102  39.841  1.00  0.00     0.041 C 
BRANCH   7   9
HETATM    9  O1  UNL     1     -16.449   2.109  39.824  1.00  0.00    -0.394 OA
ATOM     10  H1  UNL     1     -15.704   2.423  39.326  1.00  0.00     0.210 HD
ENDBRANCH   7   9
ENDBRANCH   6   7
ENDBRANCH   3   6
ENDBRANCH   1   2
BRANCH   1  11
HETATM   11  N2  UNL     1     -15.636   6.300  35.670  1.00  0.00    -0.342 N 
HETATM   12  C6  UNL     1     -16.530   7.337  35.421  1.00  0.00     0.252 C 
HETATM   13  O3  UNL     1     -16.983   7.994  36.397  1.00  0.00    -0.271 OA
ATOM     14  H2  UNL     1     -15.273   5.772  34.876  1.00  0.00     0.163 HD
BRANCH  12  15
HETATM   15  C7  UNL     1     -16.981   7.714  34.059  1.00  0.00     0.279 C 
BRANCH  15  16
HETATM   16  N3  UNL     1     -18.440   7.598  33.946  1.00  0.00    -0.323 N 
HETATM   17  C8  UNL     1     -19.297   8.714  34.068  1.00  0.00     0.329 C 
HETATM   18  N4  UNL     1     -20.693   8.553  33.953  1.00  0.00    -0.040 NA
HETATM   19  O4  UNL     1     -18.844   9.870  34.281  1.00  0.00    -0.251 OA
ATOM     20  H3  UNL     1     -18.849   6.680  33.773  1.00  0.00     0.165 HD
ENDBRANCH  15  16
BRANCH  15  21
HETATM   21  C9  UNL     1     -16.347   6.864  33.033  1.00  0.00     0.206 C 
HETATM   22  O5  UNL     1     -17.059   6.173  32.285  1.00  0.00    -0.646 OA
HETATM   23  O6  UNL     1     -14.980   6.841  32.910  1.00  0.00    -0.646 OA
ENDBRANCH  15  21
ENDBRANCH  12  15
ENDBRANCH   1  11
BRANCH   1  24
HETATM   24  C10 UNL     1     -13.671   6.054  37.072  1.00  0.00     0.217 C 
HETATM   25 CL1  UNL     1     -12.896   4.873  35.979  1.00  0.00    -0.081 Cl
HETATM   26 CL2  UNL     1     -13.051   5.986  38.700  1.00  0.00    -0.081 Cl
HETATM   27 CL3  UNL     1     -13.331   7.699  36.432  1.00  0.00    -0.081 Cl
ENDBRANCH   1  24
TORSDOF 9
ENDMDL
MODEL 4
REMARK VINA RESULT: -7.191890187      1.988      2.501
REMARK  9 active torsions:
REMARK  status: ('A' for Active; 'I' for Inactive)
REMARK    1  A    between atoms: C2_2  and  O1_3 
REMARK    2  A    between atoms: C2_2  and  C3_5 
REMARK    3  A    between atoms: C3_5  and  N1_6 
REMARK       I    between atoms: N1_6  and  C4_8 
REMARK    4  A    between atoms: C4_8  and  C5_10 
REMARK    5  A    between atoms: C5_10  and  N2_11 
REMARK    6  A    between atoms: C5_10  and  C10_24 
REMARK       I    between atoms: N2_11  and  C6_13 
REMARK    7  A    between atoms: C6_13  and  C7_15 
REMARK    8  A    between atoms: C7_15  and  N3_16 
REMARK    9  A    between atoms: C7_15  and  C9_21 
REMARK       I    between atoms: N3_16  and  C8_18 
ROOT
HETATM    1  C5  UNL     1     -15.123   5.937  36.754  1.00  0.00     0.231 C 
ENDROOT
BRANCH   1   2
HETATM    2  C4  UNL     1     -15.610   4.602  37.098  1.00  0.00     0.244 C 
HETATM    3  N1  UNL     1     -16.938   4.316  37.479  1.00  0.00    -0.357 N 
ATOM      4  H1  UNL     1     -17.624   5.070  37.522  1.00  0.00     0.162 HD
HETATM    5  O2  UNL     1     -14.784   3.605  37.055  1.00  0.00    -0.271 OA
BRANCH   3   6
HETATM    6  C3  UNL     1     -17.345   2.936  37.817  1.00  0.00     0.153 C 
BRANCH   6   7
HETATM    7  C2  UNL     1     -17.478   2.853  39.301  1.00  0.00     0.132 C 
HETATM    8  C1  UNL     1     -18.702   2.123  39.753  1.00  0.00     0.041 C 
BRANCH   7   9
HETATM    9  O1  UNL     1     -16.374   2.091  39.754  1.00  0.00    -0.394 OA
ATOM     10  H1  UNL     1     -16.097   1.562  39.015  1.00  0.00     0.210 HD
ENDBRANCH   7   9
ENDBRANCH   6   7
ENDBRANCH   3   6
ENDBRANCH   1   2
BRANCH   1  11
HETATM   11  N2  UNL     1     -15.455   6.269  35.359  1.00  0.00    -0.342 N 
HETATM   12  C6  UNL     1     -16.396   7.232  35.006  1.00  0.00     0.252 C 
HETATM   13  O3  UNL     1     -16.999   7.856  35.921  1.00  0.00    -0.271 OA
ATOM     14  H2  UNL     1     -14.971   5.769  34.614  1.00  0.00     0.163 HD
BRANCH  12  15
HETATM   15  C7  UNL     1     -16.728   7.568  33.600  1.00  0.00     0.279 C 
BRANCH  15  16
HETATM   16  N3  UNL     1     -16.843   6.349  32.789  1.00  0.00    -0.323 N 
HETATM   17  C8  UNL     1     -17.579   6.311  31.585  1.00  0.00     0.329 C 
HETATM   18  N4  UNL     1     -17.661   5.116  30.841  1.00  0.00    -0.040 NA
HETATM   19  O4  UNL     1     -18.175   7.330  31.146  1.00  0.00    -0.251 OA
ATOM     20  H3  UNL     1     -16.374   5.501  33.107  1.00  0.00     0.165 HD
ENDBRANCH  15  16
BRANCH  15  21
HETATM   21  C9  UNL     1     -15.705   8.450  33.005  1.00  0.00     0.206 C 
HETATM   22  O5  UNL     1     -16.036   9.564  32.568  1.00  0.00    -0.646 OA
HETATM   23  O6  UNL     1     -14.397   8.036  32.939  1.00  0.00    -0.646 OA
ENDBRANCH  15  21
ENDBRANCH  12  15
ENDBRANCH   1  11
BRANCH   1  24
HETATM   24  C10 UNL     1     -13.621   6.106  36.940  1.00  0.00     0.217 C 
HETATM   25 CL1  UNL     1     -12.718   5.015  35.851  1.00  0.00    -0.081 Cl
HETATM   26 CL2  UNL     1     -13.137   5.960  38.608  1.00  0.00    -0.081 Cl
HETATM   27 CL3  UNL     1     -13.287   7.796  36.426  1.00  0.00    -0.081 Cl
ENDBRANCH   1  24
TORSDOF 9
ENDMDL
MODEL 5
REMARK VINA RESULT: -7.157542980      1.415      1.923
REMARK  9 active torsions:
REMARK  status: ('A' for Active; 'I' for Inactive)
REMARK    1  A    between atoms: C2_2  and  O1_3 
REMARK    2  A    between atoms: C2_2  and  C3_5 
REMARK    3  A    between atoms: C3_5  and  N1_6 
REMARK       I    between atoms: N1_6  and  C4_8 
REMARK    4  A    between atoms: C4_8  and  C5_10 
REMARK    5  A    between atoms: C5_10  and  N2_11 
REMARK    6  A    between atoms: C5_10  and  C10_24 
REMARK       I    between atoms: N2_11  and  C6_13 
REMARK    7  A    between atoms: C6_13  and  C7_15 
REMARK    8  A    between atoms: C7_15  and  N3_16 
REMARK    9  A    between atoms: C7_15  and  C9_21 
REMARK       I    between atoms: N3_16  and  C8_18 
ROOT
HETATM    1  C5  UNL     1     -15.246   4.981  37.732  1.00  0.00     0.231 C 
ENDROOT
BRANCH   1   2
HETATM    2  C4  UNL     1     -16.108   3.801  37.783  1.00  0.00     0.244 C 
HETATM    3  N1  UNL     1     -17.077   3.570  38.782  1.00  0.00    -0.357 N 
ATOM      4  H1  UNL     1     -17.208   4.255  39.526  1.00  0.00     0.162 HD
HETATM    5  O2  UNL     1     -15.990   2.900  36.859  1.00  0.00    -0.271 OA
BRANCH   3   6
HETATM    6  C3  UNL     1     -17.905   2.346  38.761  1.00  0.00     0.153 C 
BRANCH   6   7
HETATM    7  C2  UNL     1     -18.885   2.442  39.882  1.00  0.00     0.132 C 
HETATM    8  C1  UNL     1     -19.786   1.255  39.994  1.00  0.00     0.041 C 
BRANCH   7   9
HETATM    9  O1  UNL     1     -18.120   2.470  41.074  1.00  0.00    -0.394 OA
ATOM     10  H1  UNL     1     -17.587   1.684  41.064  1.00  0.00     0.210 HD
ENDBRANCH   7   9
ENDBRANCH   6   7
ENDBRANCH   3   6
ENDBRANCH   1   2
BRANCH   1  11
HETATM   11  N2  UNL     1     -15.447   5.720  36.475  1.00  0.00    -0.342 N 
HETATM   12  C6  UNL     1     -16.306   6.808  36.358  1.00  0.00     0.252 C 
HETATM   13  O3  UNL     1     -16.948   7.187  37.375  1.00  0.00    -0.271 OA
ATOM     14  H2  UNL     1     -14.931   5.419  35.648  1.00  0.00     0.163 HD
BRANCH  12  15
HETATM   15  C7  UNL     1     -16.508   7.554  35.092  1.00  0.00     0.279 C 
BRANCH  15  16
HETATM   16  N3  UNL     1     -16.233   6.694  33.934  1.00  0.00    -0.323 N 
HETATM   17  C8  UNL     1     -16.970   6.787  32.733  1.00  0.00     0.329 C 
HETATM   18  N4  UNL     1     -16.669   5.938  31.649  1.00  0.00    -0.040 NA
HETATM   19  O4  UNL     1     -17.904   7.620  32.598  1.00  0.00    -0.251 OA
ATOM     20  H3  UNL     1     -15.483   6.005  34.000  1.00  0.00     0.165 HD
ENDBRANCH  15  16
BRANCH  15  21
HETATM   21  C9  UNL     1     -15.637   8.743  35.028  1.00  0.00     0.206 C 
HETATM   22  O5  UNL     1     -16.051   9.777  34.477  1.00  0.00    -0.646 OA
HETATM   23  O6  UNL     1     -14.378   8.702  35.576  1.00  0.00    -0.646 OA
ENDBRANCH  15  21
ENDBRANCH  12  15
ENDBRANCH   1  11
BRANCH   1  24
HETATM   24  C10 UNL     1     -13.763   4.660  37.863  1.00  0.00     0.217 C 
HETATM   25 CL1  UNL     1     -12.929   4.853  36.295  1.00  0.00    -0.081 Cl
HETATM   26 CL2  UNL     1     -13.481   3.105  38.599  1.00  0.00    -0.081 Cl
HETATM   27 CL3  UNL     1     -13.124   5.912  38.983  1.00  0.00    -0.081 Cl
ENDBRANCH   1  24
TORSDOF 9
ENDMDL
