MODEL 1
REMARK VINA RESULT: -5.961769616      0.000      0.000
REMARK  4 active torsions:
REMARK  status: ('A' for Active; 'I' for Inactive)
REMARK    1  A    between atoms: N1_1  and  C1_4 
REMARK    2  A    between atoms: C2_9  and  N4_10 
REMARK    3  A    between atoms: N4_10  and  S1_12 
REMARK    4  A    between atoms: S1_12  and  N5_13 
ROOT
HETATM    1  C1  UNL     1      30.263  17.286  47.880  1.00  0.00     0.705 A 
HETATM    2  N2  UNL     1      30.759  18.509  48.143  1.00  0.00    -0.118 N 
ATOM      3  H2  UNL     1      31.712  18.735  48.431  1.00  0.00     0.206 HD
HETATM    4  N3  UNL     1      29.778  19.345  47.954  1.00  0.00    -0.117 N 
ATOM      5  H3  UNL     1      29.845  20.355  48.075  1.00  0.00     0.206 HD
HETATM    6  C2  UNL     1      28.666  18.694  47.577  1.00  0.00     0.722 A 
HETATM    7  N6  UNL     1      28.980  17.393  47.532  1.00  0.00    -0.019 N 
ATOM      8  H6  UNL     1      28.355  16.628  47.280  1.00  0.00     0.203 HD
ENDROOT
BRANCH   6   9
HETATM    9  N4  UNL     1      27.501  19.231  47.306  1.00  0.00    -0.098 N 
ATOM     10  H4  UNL     1      27.423  20.000  46.641  1.00  0.00     0.199 HD
BRANCH   9  11
HETATM   11  S1  UNL     1      26.111  18.612  48.093  1.00  0.00     0.330 S 
HETATM   12  O1  UNL     1      26.116  17.110  47.966  1.00  0.00    -0.182 OA
HETATM   13  O2  UNL     1      24.890  19.152  47.428  1.00  0.00    -0.182 OA
BRANCH  11  14
HETATM   14  N5  UNL     1      26.141  19.109  49.729  1.00  0.00    -0.311 N 
ATOM     15  H52 UNL     1      26.957  19.490  50.208  1.00  0.00     0.170 HD
ATOM     16  H51 UNL     1      25.215  18.961  50.133  1.00  0.00     0.170 HD
ENDBRANCH  11  14
ENDBRANCH   9  11
ENDBRANCH   6   9
BRANCH   1  17
HETATM   17  N1  UNL     1      30.930  16.171  47.952  1.00  0.00    -0.233 N 
ATOM     18  H12 UNL     1      31.630  15.948  48.660  1.00  0.00     0.174 HD
ATOM     19  H11 UNL     1      30.835  15.383  47.311  1.00  0.00     0.174 HD
ENDBRANCH   1  17
TORSDOF 4
ENDMDL
MODEL 2
REMARK VINA RESULT: -5.807922796      3.259      4.820
REMARK  4 active torsions:
REMARK  status: ('A' for Active; 'I' for Inactive)
REMARK    1  A    between atoms: N1_1  and  C1_4 
REMARK    2  A    between atoms: C2_9  and  N4_10 
REMARK    3  A    between atoms: N4_10  and  S1_12 
REMARK    4  A    between atoms: S1_12  and  N5_13 
ROOT
HETATM    1  C1  UNL     1      25.060  19.379  48.686  1.00  0.00     0.705 A 
HETATM    2  N2  UNL     1      24.010  18.701  48.188  1.00  0.00    -0.118 N 
ATOM      3  H2  UNL     1      23.029  18.981  48.218  1.00  0.00     0.206 HD
HETATM    4  N3  UNL     1      24.499  17.615  47.661  1.00  0.00    -0.117 N 
ATOM      5  H3  UNL     1      23.945  16.893  47.201  1.00  0.00     0.206 HD
HETATM    6  C2  UNL     1      25.833  17.577  47.805  1.00  0.00     0.722 A 
HETATM    7  N6  UNL     1      26.181  18.695  48.454  1.00  0.00    -0.019 N 
ATOM      8  H6  UNL     1      27.125  18.972  48.721  1.00  0.00     0.203 HD
ENDROOT
BRANCH   6   9
HETATM    9  N4  UNL     1      26.637  16.627  47.391  1.00  0.00    -0.098 N 
ATOM     10  H4  UNL     1      26.371  15.646  47.473  1.00  0.00     0.199 HD
BRANCH   9  11
HETATM   11  S1  UNL     1      28.144  17.070  46.708  1.00  0.00     0.330 S 
HETATM   12  O1  UNL     1      29.240  16.674  47.665  1.00  0.00    -0.182 OA
HETATM   13  O2  UNL     1      28.179  18.549  46.516  1.00  0.00    -0.182 OA
BRANCH  11  14
HETATM   14  N5  UNL     1      28.311  16.291  45.196  1.00  0.00    -0.311 N 
ATOM     15  H52 UNL     1      28.331  15.280  45.060  1.00  0.00     0.170 HD
ATOM     16  H51 UNL     1      28.385  17.001  44.467  1.00  0.00     0.170 HD
ENDBRANCH  11  14
ENDBRANCH   9  11
ENDBRANCH   6   9
BRANCH   1  17
HETATM   17  N1  UNL     1      24.994  20.527  49.298  1.00  0.00    -0.233 N 
ATOM     18  H12 UNL     1      24.210  21.176  49.247  1.00  0.00     0.174 HD
ATOM     19  H11 UNL     1      25.718  20.915  49.903  1.00  0.00     0.174 HD
ENDBRANCH   1  17
TORSDOF 4
ENDMDL
MODEL 3
REMARK VINA RESULT: -5.778160165      3.491      5.090
REMARK  4 active torsions:
REMARK  status: ('A' for Active; 'I' for Inactive)
REMARK    1  A    between atoms: N1_1  and  C1_4 
REMARK    2  A    between atoms: C2_9  and  N4_10 
REMARK    3  A    between atoms: N4_10  and  S1_12 
REMARK    4  A    between atoms: S1_12  and  N5_13 
ROOT
HETATM    1  C1  UNL     1      24.119  18.584  47.059  1.00  0.00     0.705 A 
HETATM    2  N2  UNL     1      24.000  18.236  48.353  1.00  0.00    -0.118 N 
ATOM      3  H2  UNL     1      23.313  18.585  49.021  1.00  0.00     0.206 HD
HETATM    4  N3  UNL     1      24.939  17.362  48.580  1.00  0.00    -0.117 N 
ATOM      5  H3  UNL     1      25.106  16.909  49.478  1.00  0.00     0.206 HD
HETATM    6  C2  UNL     1      25.658  17.139  47.468  1.00  0.00     0.722 A 
HETATM    7  N6  UNL     1      25.134  17.915  46.511  1.00  0.00    -0.019 N 
ATOM      8  H6  UNL     1      25.452  17.982  45.544  1.00  0.00     0.203 HD
ENDROOT
BRANCH   6   9
HETATM    9  N4  UNL     1      26.675  16.321  47.347  1.00  0.00    -0.098 N 
ATOM     10  H4  UNL     1      26.592  15.341  47.621  1.00  0.00     0.199 HD
BRANCH   9  11
HETATM   11  S1  UNL     1      28.147  16.930  46.718  1.00  0.00     0.330 S 
HETATM   12  O1  UNL     1      29.275  16.474  47.608  1.00  0.00    -0.182 OA
HETATM   13  O2  UNL     1      28.100  18.420  46.718  1.00  0.00    -0.182 OA
BRANCH  11  14
HETATM   14  N5  UNL     1      28.335  16.363  45.116  1.00  0.00    -0.311 N 
ATOM     15  H52 UNL     1      29.094  16.628  44.489  1.00  0.00     0.170 HD
ATOM     16  H51 UNL     1      27.569  15.723  44.903  1.00  0.00     0.170 HD
ENDBRANCH  11  14
ENDBRANCH   9  11
ENDBRANCH   6   9
BRANCH   1  17
HETATM   17  N1  UNL     1      23.362  19.440  46.436  1.00  0.00    -0.233 N 
ATOM     18  H12 UNL     1      23.578  20.428  46.302  1.00  0.00     0.174 HD
ATOM     19  H11 UNL     1      22.462  19.229  46.005  1.00  0.00     0.174 HD
ENDBRANCH   1  17
TORSDOF 4
ENDMDL
MODEL 4
REMARK VINA RESULT: -5.681802512      2.707      4.552
REMARK  4 active torsions:
REMARK  status: ('A' for Active; 'I' for Inactive)
REMARK    1  A    between atoms: N1_1  and  C1_4 
REMARK    2  A    between atoms: C2_9  and  N4_10 
REMARK    3  A    between atoms: N4_10  and  S1_12 
REMARK    4  A    between atoms: S1_12  and  N5_13 
ROOT
HETATM    1  C1  UNL     1      24.942  18.408  48.063  1.00  0.00     0.705 A 
HETATM    2  N2  UNL     1      25.350  17.245  47.526  1.00  0.00    -0.118 N 
ATOM      3  H2  UNL     1      24.779  16.419  47.344  1.00  0.00     0.206 HD
HETATM    4  N3  UNL     1      26.622  17.385  47.284  1.00  0.00    -0.117 N 
ATOM      5  H3  UNL     1      27.218  16.667  46.872  1.00  0.00     0.206 HD
HETATM    6  C2  UNL     1      27.043  18.606  47.651  1.00  0.00     0.722 A 
HETATM    7  N6  UNL     1      25.975  19.248  48.143  1.00  0.00    -0.019 N 
ATOM      8  H6  UNL     1      25.956  20.199  48.509  1.00  0.00     0.203 HD
ENDROOT
BRANCH   6   9
HETATM    9  N4  UNL     1      28.262  19.077  47.546  1.00  0.00    -0.098 N 
ATOM     10  H4  UNL     1      28.438  19.972  47.088  1.00  0.00     0.199 HD
BRANCH   9  11
HETATM   11  S1  UNL     1      29.553  18.159  48.195  1.00  0.00     0.330 S 
HETATM   12  O1  UNL     1      29.421  16.737  47.714  1.00  0.00    -0.182 OA
HETATM   13  O2  UNL     1      29.467  18.177  49.684  1.00  0.00    -0.182 OA
BRANCH  11  14
HETATM   14  N5  UNL     1      31.030  18.861  47.697  1.00  0.00    -0.311 N 
ATOM     15  H52 UNL     1      31.653  19.398  48.301  1.00  0.00     0.170 HD
ATOM     16  H51 UNL     1      31.176  18.652  46.709  1.00  0.00     0.170 HD
ENDBRANCH  11  14
ENDBRANCH   9  11
ENDBRANCH   6   9
BRANCH   1  17
HETATM   17  N1  UNL     1      23.727  18.676  48.447  1.00  0.00    -0.233 N 
ATOM     18  H12 UNL     1      23.198  19.509  48.187  1.00  0.00     0.174 HD
ATOM     19  H11 UNL     1      23.156  18.087  49.053  1.00  0.00     0.174 HD
ENDBRANCH   1  17
TORSDOF 4
ENDMDL
MODEL 5
REMARK VINA RESULT: -5.668505055      2.757      4.835
REMARK  4 active torsions:
REMARK  status: ('A' for Active; 'I' for Inactive)
REMARK    1  A    between atoms: N1_1  and  C1_4 
REMARK    2  A    between atoms: C2_9  and  N4_10 
REMARK    3  A    between atoms: N4_10  and  S1_12 
REMARK    4  A    between atoms: S1_12  and  N5_13 
ROOT
HETATM    1  C1  UNL     1      24.039  18.898  47.606  1.00  0.00     0.705 A 
HETATM    2  N2  UNL     1      24.290  19.474  48.795  1.00  0.00    -0.118 N 
ATOM      3  H2  UNL     1      23.604  19.817  49.468  1.00  0.00     0.206 HD
HETATM    4  N3  UNL     1      25.587  19.505  48.915  1.00  0.00    -0.117 N 
ATOM      5  H3  UNL     1      26.087  19.886  49.718  1.00  0.00     0.206 HD
HETATM    6  C2  UNL     1      26.175  18.965  47.836  1.00  0.00     0.722 A 
HETATM    7  N6  UNL     1      25.190  18.584  47.012  1.00  0.00    -0.019 N 
ATOM      8  H6  UNL     1      25.301  18.137  46.102  1.00  0.00     0.203 HD
ENDROOT
BRANCH   6   9
HETATM    9  N4  UNL     1      27.464  18.837  47.630  1.00  0.00    -0.098 N 
ATOM     10  H4  UNL     1      28.097  19.623  47.784  1.00  0.00     0.199 HD
BRANCH   9  11
HETATM   11  S1  UNL     1      28.063  17.324  47.098  1.00  0.00     0.330 S 
HETATM   12  O1  UNL     1      27.001  16.279  47.329  1.00  0.00    -0.182 OA
HETATM   13  O2  UNL     1      29.274  16.969  47.892  1.00  0.00    -0.182 OA
BRANCH  11  14
HETATM   14  N5  UNL     1      28.479  17.450  45.444  1.00  0.00    -0.311 N 
ATOM     15  H52 UNL     1      28.135  18.172  44.810  1.00  0.00     0.170 HD
ATOM     16  H51 UNL     1      29.119  16.692  45.209  1.00  0.00     0.170 HD
ENDBRANCH  11  14
ENDBRANCH   9  11
ENDBRANCH   6   9
BRANCH   1  17
HETATM   17  N1  UNL     1      22.855  18.680  47.109  1.00  0.00    -0.233 N 
ATOM     18  H12 UNL     1      22.119  18.137  47.561  1.00  0.00     0.174 HD
ATOM     19  H11 UNL     1      22.519  19.025  46.210  1.00  0.00     0.174 HD
ENDBRANCH   1  17
TORSDOF 4
ENDMDL
