MODEL 1
REMARK VINA RESULT: -5.241576591      0.000      0.000
REMARK  3 active torsions:
REMARK  status: ('A' for Active; 'I' for Inactive)
REMARK    1  A    between atoms: N1_2  and  C1_4 
REMARK    2  A    between atoms: C1_4  and  C2_5 
REMARK    3  A    between atoms: C2_5  and  C3_6 
ROOT
HETATM    1  C3  UNL     1     -25.476  -8.791   0.609  1.00  0.00    -0.017 A 
HETATM    2  C4  UNL     1     -24.705  -7.671   0.395  1.00  0.00     0.029 A 
HETATM    3  C5  UNL     1     -25.285  -6.463   0.000  1.00  0.00     0.107 A 
HETATM    4  N2  UNL     1     -26.617  -6.463  -0.153  1.00  0.00    -0.311 N 
ATOM      5  H2  UNL     1     -27.066  -5.594  -0.440  1.00  0.00     0.186 HD
HETATM    6  N3  UNL     1     -27.380  -7.522   0.045  1.00  0.00    -0.294 N 
ATOM      7  H3  UNL     1     -28.389  -7.453  -0.091  1.00  0.00     0.187 HD
HETATM    8  C6  UNL     1     -26.836  -8.689   0.425  1.00  0.00     0.101 A 
HETATM    9 BR1  UNL     1     -27.872 -10.275   0.744  1.00  0.00    -0.029 Br
ENDROOT
BRANCH   1  10
HETATM   10  C2  UNL     1     -24.847 -10.059   1.011  1.00  0.00     0.092 C 
BRANCH  10  11
HETATM   11  C1  UNL     1     -23.366  -9.890   1.033  1.00  0.00     0.145 C 
BRANCH  11  12
HETATM   12  N1  UNL     1     -22.595 -10.512   0.219  1.00  0.00    -0.131 N 
HETATM   13  O1  UNL     1     -23.139 -11.492  -0.571  1.00  0.00    -0.533 OA
HETATM   14  O2  UNL     1     -21.261 -10.246   0.103  1.00  0.00    -0.533 OA
ENDBRANCH  11  12
ENDBRANCH  10  11
ENDBRANCH   1  10
TORSDOF 3
ENDMDL
MODEL 2
REMARK VINA RESULT: -5.155523788      1.853      2.625
REMARK  3 active torsions:
REMARK  status: ('A' for Active; 'I' for Inactive)
REMARK    1  A    between atoms: N1_2  and  C1_4 
REMARK    2  A    between atoms: C1_4  and  C2_5 
REMARK    3  A    between atoms: C2_5  and  C3_6 
ROOT
HETATM    1  C3  UNL     1     -25.954  -9.001   0.749  1.00  0.00    -0.017 A 
HETATM    2  C4  UNL     1     -26.697 -10.152   0.882  1.00  0.00     0.029 A 
HETATM    3  C5  UNL     1     -27.972 -10.254   0.321  1.00  0.00     0.107 A 
HETATM    4  N2  UNL     1     -28.418  -9.180  -0.345  1.00  0.00    -0.311 N 
ATOM      5  H2  UNL     1     -29.346  -9.227  -0.765  1.00  0.00     0.186 HD
HETATM    6  N3  UNL     1     -27.727  -8.064  -0.488  1.00  0.00    -0.294 N 
ATOM      7  H3  UNL     1     -28.127  -7.282  -1.006  1.00  0.00     0.187 HD
HETATM    8  C6  UNL     1     -26.501  -7.952   0.047  1.00  0.00     0.101 A 
HETATM    9 BR1  UNL     1     -25.424  -6.370  -0.120  1.00  0.00    -0.029 Br
ENDROOT
BRANCH   1  10
HETATM   10  C2  UNL     1     -24.619  -8.905   1.360  1.00  0.00     0.092 C 
BRANCH  10  11
HETATM   11  C1  UNL     1     -23.697  -9.860   0.683  1.00  0.00     0.145 C 
BRANCH  11  12
HETATM   12  N1  UNL     1     -22.455  -9.597   0.500  1.00  0.00    -0.131 N 
HETATM   13  O1  UNL     1     -21.957  -8.424   1.008  1.00  0.00    -0.533 OA
HETATM   14  O2  UNL     1     -21.607 -10.427  -0.175  1.00  0.00    -0.533 OA
ENDBRANCH  11  12
ENDBRANCH  10  11
ENDBRANCH   1  10
TORSDOF 3
ENDMDL
MODEL 3
REMARK VINA RESULT: -5.020766839      3.312      4.640
REMARK  3 active torsions:
REMARK  status: ('A' for Active; 'I' for Inactive)
REMARK    1  A    between atoms: N1_2  and  C1_4 
REMARK    2  A    between atoms: C1_4  and  C2_5 
REMARK    3  A    between atoms: C2_5  and  C3_6 
ROOT
HETATM    1  C3  UNL     1     -24.612  -9.855   0.784  1.00  0.00    -0.017 A 
HETATM    2  C4  UNL     1     -23.918 -10.998   0.455  1.00  0.00     0.029 A 
HETATM    3  C5  UNL     1     -22.566 -10.945   0.111  1.00  0.00     0.107 A 
HETATM    4  N2  UNL     1     -21.995  -9.732   0.124  1.00  0.00    -0.311 N 
ATOM      5  H2  UNL     1     -21.007  -9.664  -0.122  1.00  0.00     0.186 HD
HETATM    6  N3  UNL     1     -22.636  -8.620   0.436  1.00  0.00    -0.294 N 
ATOM      7  H3  UNL     1     -22.140  -7.729   0.425  1.00  0.00     0.187 HD
HETATM    8  C6  UNL     1     -23.936  -8.657   0.768  1.00  0.00     0.101 A 
HETATM    9 BR1  UNL     1     -24.942  -7.091   1.243  1.00  0.00    -0.029 Br
ENDROOT
BRANCH   1  10
HETATM   10  C2  UNL     1     -26.041  -9.928   1.129  1.00  0.00     0.092 C 
BRANCH  10  11
HETATM   11  C1  UNL     1     -26.847 -10.006  -0.123  1.00  0.00     0.145 C 
BRANCH  11  12
HETATM   12  N1  UNL     1     -27.738  -9.132  -0.417  1.00  0.00    -0.131 N 
HETATM   13  O1  UNL     1     -28.307  -8.415   0.605  1.00  0.00    -0.533 OA
HETATM   14  O2  UNL     1     -28.148  -8.884  -1.695  1.00  0.00    -0.533 OA
ENDBRANCH  11  12
ENDBRANCH  10  11
ENDBRANCH   1  10
TORSDOF 3
ENDMDL
MODEL 4
REMARK VINA RESULT: -4.848083010      3.295      4.420
REMARK  3 active torsions:
REMARK  status: ('A' for Active; 'I' for Inactive)
REMARK    1  A    between atoms: N1_2  and  C1_4 
REMARK    2  A    between atoms: C1_4  and  C2_5 
REMARK    3  A    between atoms: C2_5  and  C3_6 
ROOT
HETATM    1  C3  UNL     1     -25.275  -9.358   0.780  1.00  0.00    -0.017 A 
HETATM    2  C4  UNL     1     -24.581 -10.517   1.045  1.00  0.00     0.029 A 
HETATM    3  C5  UNL     1     -23.185 -10.537   1.036  1.00  0.00     0.107 A 
HETATM    4  N2  UNL     1     -22.573  -9.376   0.760  1.00  0.00    -0.311 N 
ATOM      5  H2  UNL     1     -21.554  -9.362   0.748  1.00  0.00     0.186 HD
HETATM    6  N3  UNL     1     -23.214  -8.251   0.503  1.00  0.00    -0.294 N 
ATOM      7  H3  UNL     1     -22.686  -7.402   0.300  1.00  0.00     0.187 HD
HETATM    8  C6  UNL     1     -24.556  -8.217   0.508  1.00  0.00     0.101 A 
HETATM    9 BR1  UNL     1     -25.567  -6.623   0.154  1.00  0.00    -0.029 Br
ENDROOT
BRANCH   1  10
HETATM   10  C2  UNL     1     -26.747  -9.358   0.779  1.00  0.00     0.092 C 
BRANCH  10  11
HETATM   11  C1  UNL     1     -27.239 -10.252  -0.308  1.00  0.00     0.145 C 
BRANCH  11  12
HETATM   12  N1  UNL     1     -27.865  -9.801  -1.332  1.00  0.00    -0.131 N 
HETATM   13  O1  UNL     1     -28.136 -10.667  -2.361  1.00  0.00    -0.533 OA
HETATM   14  O2  UNL     1     -28.272  -8.503  -1.447  1.00  0.00    -0.533 OA
ENDBRANCH  11  12
ENDBRANCH  10  11
ENDBRANCH   1  10
TORSDOF 3
ENDMDL
MODEL 5
REMARK VINA RESULT: -4.834255680      3.384      4.744
REMARK  3 active torsions:
REMARK  status: ('A' for Active; 'I' for Inactive)
REMARK    1  A    between atoms: N1_2  and  C1_4 
REMARK    2  A    between atoms: C1_4  and  C2_5 
REMARK    3  A    between atoms: C2_5  and  C3_6 
ROOT
HETATM    1  C3  UNL     1     -24.685  -8.546   0.554  1.00  0.00    -0.017 A 
HETATM    2  C4  UNL     1     -23.310  -8.482   0.593  1.00  0.00     0.029 A 
HETATM    3  C5  UNL     1     -22.542  -9.633   0.779  1.00  0.00     0.107 A 
HETATM    4  N2  UNL     1     -23.215 -10.784   0.913  1.00  0.00    -0.311 N 
ATOM      5  H2  UNL     1     -22.678 -11.641   1.049  1.00  0.00     0.186 HD
HETATM    6  N3  UNL     1     -24.532 -10.874   0.879  1.00  0.00    -0.294 N 
ATOM      7  H3  UNL     1     -24.981 -11.783   0.988  1.00  0.00     0.187 HD
HETATM    8  C6  UNL     1     -25.283  -9.776   0.701  1.00  0.00     0.101 A 
HETATM    9 BR1  UNL     1     -27.202  -9.817   0.631  1.00  0.00    -0.029 Br
ENDROOT
BRANCH   1  10
HETATM   10  C2  UNL     1     -25.479  -7.320   0.373  1.00  0.00     0.092 C 
BRANCH  10  11
HETATM   11  C1  UNL     1     -25.497  -6.550   1.649  1.00  0.00     0.145 C 
BRANCH  11  12
HETATM   12  N1  UNL     1     -26.523  -5.880   2.027  1.00  0.00    -0.131 N 
HETATM   13  O1  UNL     1     -26.322  -4.770   2.808  1.00  0.00    -0.533 OA
HETATM   14  O2  UNL     1     -27.802  -6.218   1.692  1.00  0.00    -0.533 OA
ENDBRANCH  11  12
ENDBRANCH  10  11
ENDBRANCH   1  10
TORSDOF 3
ENDMDL
