MODEL 1
REMARK VINA RESULT: -5.567264908      0.000      0.000
REMARK  4 active torsions:
REMARK  status: ('A' for Active; 'I' for Inactive)
REMARK    1  A    between atoms: O1_1  and  C1_3 
REMARK    2  A    between atoms: C1_3  and  C2_4 
REMARK    3  A    between atoms: C4_7  and  C5_8 
REMARK    4  A    between atoms: C5_8  and  C6_9 
ROOT
HETATM    1  C2  UNL     1     -23.960 -12.062  -0.830  1.00  0.00     0.115 C 
HETATM    2  C3  UNL     1     -22.704 -11.266  -0.544  1.00  0.00     0.107 C 
HETATM    3  S1  UNL     1     -23.390 -10.274   0.857  1.00  0.00    -0.115 SA
HETATM    4  C4  UNL     1     -25.089 -10.437   0.333  1.00  0.00     0.043 C 
HETATM    5  N1  UNL     1     -25.105 -11.377  -0.492  1.00  0.00    -0.380 N 
ATOM      6  H1  UNL     1     -25.990 -11.643  -0.924  1.00  0.00     0.160 HD
ENDROOT
BRANCH   4   7
HETATM    7  C5  UNL     1     -26.220  -9.634   0.781  1.00  0.00     0.069 C 
BRANCH   7   8
HETATM    8  C6  UNL     1     -25.956  -8.241   1.223  1.00  0.00    -0.009 C 
HETATM    9  C7  UNL     1     -25.479  -7.268   0.204  1.00  0.00     0.005 C 
HETATM   10  C8  UNL     1     -26.943  -7.118  -0.232  1.00  0.00     0.001 C 
HETATM   11  C9  UNL     1     -27.284  -7.455   1.226  1.00  0.00     0.005 C 
ENDBRANCH   7   8
ENDBRANCH   4   7
BRANCH   1  12
HETATM   12  C1  UNL     1     -24.046 -12.373  -2.333  1.00  0.00     0.189 C 
BRANCH  12  13
HETATM   13  O1  UNL     1     -25.330 -12.805  -2.640  1.00  0.00    -0.399 OA
ATOM     14  H1  UNL     1     -25.417 -12.888  -3.582  1.00  0.00     0.209 HD
ENDBRANCH  12  13
ENDBRANCH   1  12
TORSDOF 4
ENDMDL
MODEL 2
REMARK VINA RESULT: -5.482367677      0.950      1.322
REMARK  4 active torsions:
REMARK  status: ('A' for Active; 'I' for Inactive)
REMARK    1  A    between atoms: O1_1  and  C1_3 
REMARK    2  A    between atoms: C1_3  and  C2_4 
REMARK    3  A    between atoms: C4_7  and  C5_8 
REMARK    4  A    between atoms: C5_8  and  C6_9 
ROOT
HETATM    1  C2  UNL     1     -23.913 -12.487  -1.448  1.00  0.00     0.115 C 
HETATM    2  C3  UNL     1     -22.521 -11.892  -1.480  1.00  0.00     0.107 C 
HETATM    3  S1  UNL     1     -22.648 -10.957   0.109  1.00  0.00    -0.115 SA
HETATM    4  C4  UNL     1     -24.429 -10.847   0.072  1.00  0.00     0.043 C 
HETATM    5  N1  UNL     1     -24.808 -11.694  -0.766  1.00  0.00    -0.380 N 
ATOM      6  H1  UNL     1     -25.806 -11.801  -0.949  1.00  0.00     0.160 HD
ENDROOT
BRANCH   4   7
HETATM    7  C5  UNL     1     -25.264  -9.949   0.861  1.00  0.00     0.069 C 
BRANCH   7   8
HETATM    8  C6  UNL     1     -26.037  -8.903   0.144  1.00  0.00    -0.009 C 
HETATM    9  C7  UNL     1     -27.230  -8.333   0.825  1.00  0.00     0.005 C 
HETATM   10  C8  UNL     1     -26.263  -7.434   1.608  1.00  0.00     0.001 C 
HETATM   11  C9  UNL     1     -25.361  -7.535   0.370  1.00  0.00     0.005 C 
ENDBRANCH   7   8
ENDBRANCH   4   7
BRANCH   1  12
HETATM   12  C1  UNL     1     -24.445 -12.640  -2.882  1.00  0.00     0.189 C 
BRANCH  12  13
HETATM   13  O1  UNL     1     -25.817 -12.421  -2.889  1.00  0.00    -0.399 OA
ATOM     14  H1  UNL     1     -26.030 -11.745  -2.255  1.00  0.00     0.209 HD
ENDBRANCH  12  13
ENDBRANCH   1  12
TORSDOF 4
ENDMDL
MODEL 3
REMARK VINA RESULT: -5.119231869      2.315      2.649
REMARK  4 active torsions:
REMARK  status: ('A' for Active; 'I' for Inactive)
REMARK    1  A    between atoms: O1_1  and  C1_3 
REMARK    2  A    between atoms: C1_3  and  C2_4 
REMARK    3  A    between atoms: C4_7  and  C5_8 
REMARK    4  A    between atoms: C5_8  and  C6_9 
ROOT
HETATM    1  C2  UNL     1     -23.808 -10.632   0.611  1.00  0.00     0.115 C 
HETATM    2  C3  UNL     1     -23.470  -9.157   0.579  1.00  0.00     0.107 C 
HETATM    3  S1  UNL     1     -25.145  -8.541   1.059  1.00  0.00    -0.115 SA
HETATM    4  C4  UNL     1     -26.007  -9.991   0.478  1.00  0.00     0.043 C 
HETATM    5  N1  UNL     1     -25.134 -10.875   0.334  1.00  0.00    -0.380 N 
ATOM      6  H1  UNL     1     -25.412 -11.799   0.003  1.00  0.00     0.160 HD
ENDROOT
BRANCH   4   7
HETATM    7  C5  UNL     1     -27.437 -10.111   0.224  1.00  0.00     0.069 C 
BRANCH   7   8
HETATM    8  C6  UNL     1     -28.283  -8.903   0.400  1.00  0.00    -0.009 C 
HETATM    9  C7  UNL     1     -28.272  -7.885  -0.685  1.00  0.00     0.005 C 
HETATM   10  C8  UNL     1     -29.270  -8.780  -1.434  1.00  0.00     0.001 C 
HETATM   11  C9  UNL     1     -29.725  -9.231  -0.039  1.00  0.00     0.005 C 
ENDBRANCH   7   8
ENDBRANCH   4   7
BRANCH   1  12
HETATM   12  C1  UNL     1     -22.980 -11.378  -0.448  1.00  0.00     0.189 C 
BRANCH  12  13
HETATM   13  O1  UNL     1     -21.646 -11.007  -0.333  1.00  0.00    -0.399 OA
ATOM     14  H1  UNL     1     -21.547 -10.101  -0.602  1.00  0.00     0.209 HD
ENDBRANCH  12  13
ENDBRANCH   1  12
TORSDOF 4
ENDMDL
MODEL 4
REMARK VINA RESULT: -5.105389071      3.753      4.370
REMARK  4 active torsions:
REMARK  status: ('A' for Active; 'I' for Inactive)
REMARK    1  A    between atoms: O1_1  and  C1_3 
REMARK    2  A    between atoms: C1_3  and  C2_4 
REMARK    3  A    between atoms: C4_7  and  C5_8 
REMARK    4  A    between atoms: C5_8  and  C6_9 
ROOT
HETATM    1  C2  UNL     1     -29.242 -11.325  -2.275  1.00  0.00     0.115 C 
HETATM    2  C3  UNL     1     -30.329 -10.360  -2.697  1.00  0.00     0.107 C 
HETATM    3  S1  UNL     1     -29.527  -8.830  -2.040  1.00  0.00    -0.115 SA
HETATM    4  C4  UNL     1     -28.545  -9.690  -0.824  1.00  0.00     0.043 C 
HETATM    5  N1  UNL     1     -28.560 -10.895  -1.160  1.00  0.00    -0.380 N 
ATOM      6  H1  UNL     1     -28.054 -11.575  -0.593  1.00  0.00     0.160 HD
ENDROOT
BRANCH   4   7
HETATM    7  C5  UNL     1     -27.867  -9.102   0.325  1.00  0.00     0.069 C 
BRANCH   7   8
HETATM    8  C6  UNL     1     -26.580  -8.396   0.091  1.00  0.00    -0.009 C 
HETATM    9  C7  UNL     1     -26.632  -6.934  -0.184  1.00  0.00     0.005 C 
HETATM   10  C8  UNL     1     -26.757  -6.728   1.332  1.00  0.00     0.001 C 
HETATM   11  C9  UNL     1     -25.953  -8.031   1.452  1.00  0.00     0.005 C 
ENDBRANCH   7   8
ENDBRANCH   4   7
BRANCH   1  12
HETATM   12  C1  UNL     1     -29.864 -12.688  -1.928  1.00  0.00     0.189 C 
BRANCH  12  13
HETATM   13  O1  UNL     1     -29.104 -13.699  -2.503  1.00  0.00    -0.399 OA
ATOM     14  H1  UNL     1     -28.821 -14.303  -1.826  1.00  0.00     0.209 HD
ENDBRANCH  12  13
ENDBRANCH   1  12
TORSDOF 4
ENDMDL
MODEL 5
REMARK VINA RESULT: -5.098162441      2.110      2.574
REMARK  4 active torsions:
REMARK  status: ('A' for Active; 'I' for Inactive)
REMARK    1  A    between atoms: O1_1  and  C1_3 
REMARK    2  A    between atoms: C1_3  and  C2_4 
REMARK    3  A    between atoms: C4_7  and  C5_8 
REMARK    4  A    between atoms: C5_8  and  C6_9 
ROOT
HETATM    1  C2  UNL     1     -23.910 -10.250  -0.138  1.00  0.00     0.115 C 
HETATM    2  C3  UNL     1     -24.739 -11.277   0.603  1.00  0.00     0.107 C 
HETATM    3  S1  UNL     1     -26.205 -10.194   0.909  1.00  0.00    -0.115 SA
HETATM    4  C4  UNL     1     -25.286  -8.669   0.798  1.00  0.00     0.043 C 
HETATM    5  N1  UNL     1     -24.200  -8.961   0.250  1.00  0.00    -0.380 N 
ATOM      6  H1  UNL     1     -23.512  -8.226   0.087  1.00  0.00     0.160 HD
ENDROOT
BRANCH   4   7
HETATM    7  C5  UNL     1     -25.719  -7.354   1.255  1.00  0.00     0.069 C 
BRANCH   7   8
HETATM    8  C6  UNL     1     -26.475  -6.498   0.305  1.00  0.00    -0.009 C 
HETATM    9  C7  UNL     1     -27.657  -7.093  -0.376  1.00  0.00     0.005 C 
HETATM   10  C8  UNL     1     -28.450  -6.802   0.906  1.00  0.00     0.001 C 
HETATM   11  C9  UNL     1     -27.476  -5.631   1.096  1.00  0.00     0.005 C 
ENDBRANCH   7   8
ENDBRANCH   4   7
BRANCH   1  12
HETATM   12  C1  UNL     1     -22.418 -10.483   0.145  1.00  0.00     0.189 C 
BRANCH  12  13
HETATM   13  O1  UNL     1     -22.070 -11.768  -0.252  1.00  0.00    -0.399 OA
ATOM     14  H1  UNL     1     -21.975 -11.790  -1.198  1.00  0.00     0.209 HD
ENDBRANCH  12  13
ENDBRANCH   1  12
TORSDOF 4
ENDMDL
