MODEL 1
REMARK VINA RESULT: -5.292328624      0.000      0.000
REMARK  2 active torsions:
REMARK  status: ('A' for Active; 'I' for Inactive)
REMARK    1  A    between atoms: N1_2  and  C3_4 
REMARK    2  A    between atoms: C7_9  and  N2_10 
ROOT
HETATM    1  C3  UNL     1      34.424 -40.110  28.478  1.00  0.00     0.231 C 
HETATM    2  C4  UNL     1      34.101 -40.858  27.214  1.00  0.00     0.039 C 
HETATM    3  C5  UNL     1      35.280 -41.763  26.931  1.00  0.00     0.035 C 
HETATM    4  C6  UNL     1      36.181 -41.722  28.120  1.00  0.00     0.133 C 
HETATM    5  O1  UNL     1      37.479 -41.663  27.678  1.00  0.00    -0.349 OA
HETATM    6  C7  UNL     1      38.061 -40.512  28.186  1.00  0.00     0.392 C 
HETATM    7  C10 UNL     1      36.874 -39.529  28.045  1.00  0.00     0.237 C 
HETATM    8  F1  UNL     1      37.171 -38.346  28.685  1.00  0.00    -0.244 F 
HETATM    9  C11 UNL     1      35.848 -40.352  28.727  1.00  0.00     0.086 C 
ENDROOT
BRANCH   1  10
HETATM   10  N1  UNL     1      33.875 -38.836  28.611  1.00  0.00     0.085 N 
HETATM   11  C1  UNL     1      32.541 -38.557  28.266  1.00  0.00     0.309 C 
HETATM   12  C2  UNL     1      34.109 -38.297  29.942  1.00  0.00     0.309 C 
ENDBRANCH   1  10
BRANCH   6  13
HETATM   13  N2  UNL     1      39.212 -40.055  27.479  1.00  0.00     0.111 N 
HETATM   14  C8  UNL     1      38.797 -39.301  26.315  1.00  0.00     0.312 C 
HETATM   15  C9  UNL     1      39.955 -41.219  27.049  1.00  0.00     0.312 C 
ENDBRANCH   6  13
TORSDOF 2
ENDMDL
MODEL 2
REMARK VINA RESULT: -5.171563063      2.353      5.029
REMARK  2 active torsions:
REMARK  status: ('A' for Active; 'I' for Inactive)
REMARK    1  A    between atoms: N1_2  and  C3_4 
REMARK    2  A    between atoms: C7_9  and  N2_10 
ROOT
HETATM    1  C3  UNL     1      36.341 -41.523  28.269  1.00  0.00     0.231 C 
HETATM    2  C4  UNL     1      37.434 -40.518  28.027  1.00  0.00     0.039 C 
HETATM    3  C5  UNL     1      36.997 -39.232  28.693  1.00  0.00     0.035 C 
HETATM    4  C6  UNL     1      35.781 -39.529  29.506  1.00  0.00     0.133 C 
HETATM    5  O1  UNL     1      34.887 -38.502  29.340  1.00  0.00    -0.349 OA
HETATM    6  C7  UNL     1      33.709 -39.026  28.830  1.00  0.00     0.392 C 
HETATM    7  C10 UNL     1      34.286 -40.065  27.840  1.00  0.00     0.237 C 
HETATM    8  F1  UNL     1      33.271 -40.860  27.355  1.00  0.00    -0.244 F 
HETATM    9  C11 UNL     1      35.203 -40.753  28.779  1.00  0.00     0.086 C 
ENDROOT
BRANCH   1  10
HETATM   10  N1  UNL     1      36.168 -42.507  27.298  1.00  0.00     0.085 N 
HETATM   11  C1  UNL     1      37.247 -43.247  26.783  1.00  0.00     0.309 C 
HETATM   12  C2  UNL     1      35.129 -43.450  27.682  1.00  0.00     0.309 C 
ENDBRANCH   1  10
BRANCH   6  13
HETATM   13  N2  UNL     1      32.863 -38.085  28.174  1.00  0.00     0.111 N 
HETATM   14  C8  UNL     1      33.016 -36.785  28.791  1.00  0.00     0.312 C 
HETATM   15  C9  UNL     1      31.497 -38.531  28.340  1.00  0.00     0.312 C 
ENDBRANCH   6  13
TORSDOF 2
ENDMDL
MODEL 3
REMARK VINA RESULT: -5.117379733      1.728      4.677
REMARK  2 active torsions:
REMARK  status: ('A' for Active; 'I' for Inactive)
REMARK    1  A    between atoms: N1_2  and  C3_4 
REMARK    2  A    between atoms: C7_9  and  N2_10 
ROOT
HETATM    1  C3  UNL     1      37.001 -41.471  27.944  1.00  0.00     0.231 C 
HETATM    2  C4  UNL     1      36.189 -42.735  27.866  1.00  0.00     0.039 C 
HETATM    3  C5  UNL     1      34.829 -42.345  27.328  1.00  0.00     0.035 C 
HETATM    4  C6  UNL     1      34.906 -40.923  26.880  1.00  0.00     0.133 C 
HETATM    5  O1  UNL     1      33.757 -40.284  27.270  1.00  0.00    -0.349 OA
HETATM    6  C7  UNL     1      34.106 -39.219  28.087  1.00  0.00     0.392 C 
HETATM    7  C10 UNL     1      35.253 -39.869  28.896  1.00  0.00     0.237 C 
HETATM    8  F1  UNL     1      35.894 -38.910  29.649  1.00  0.00    -0.244 F 
HETATM    9  C11 UNL     1      36.046 -40.376  27.752  1.00  0.00     0.086 C 
ENDROOT
BRANCH   1  10
HETATM   10  N1  UNL     1      37.976 -41.412  28.937  1.00  0.00     0.085 N 
HETATM   11  C1  UNL     1      38.661 -42.556  29.381  1.00  0.00     0.309 C 
HETATM   12  C2  UNL     1      38.969 -40.391  28.642  1.00  0.00     0.309 C 
ENDBRANCH   1  10
BRANCH   6  13
HETATM   13  N2  UNL     1      33.064 -38.744  28.937  1.00  0.00     0.111 N 
HETATM   14  C8  UNL     1      31.797 -38.833  28.245  1.00  0.00     0.312 C 
HETATM   15  C9  UNL     1      33.343 -37.357  29.240  1.00  0.00     0.312 C 
ENDBRANCH   6  13
TORSDOF 2
ENDMDL
MODEL 4
REMARK VINA RESULT: -4.899461349      1.038      1.257
REMARK  2 active torsions:
REMARK  status: ('A' for Active; 'I' for Inactive)
REMARK    1  A    between atoms: N1_2  and  C3_4 
REMARK    2  A    between atoms: C7_9  and  N2_10 
ROOT
HETATM    1  C3  UNL     1      35.157 -40.688  28.473  1.00  0.00     0.231 C 
HETATM    2  C4  UNL     1      34.790 -41.775  27.500  1.00  0.00     0.039 C 
HETATM    3  C5  UNL     1      36.038 -42.605  27.285  1.00  0.00     0.035 C 
HETATM    4  C6  UNL     1      37.058 -42.160  28.279  1.00  0.00     0.133 C 
HETATM    5  O1  UNL     1      38.276 -42.097  27.651  1.00  0.00    -0.349 OA
HETATM    6  C7  UNL     1      38.756 -40.800  27.761  1.00  0.00     0.392 C 
HETATM    7  C10 UNL     1      37.442 -40.011  27.552  1.00  0.00     0.237 C 
HETATM    8  F1  UNL     1      37.653 -38.677  27.822  1.00  0.00    -0.244 F 
HETATM    9  C11 UNL     1      36.620 -40.716  28.563  1.00  0.00     0.086 C 
ENDROOT
BRANCH   1  10
HETATM   10  N1  UNL     1      34.464 -39.485  28.358  1.00  0.00     0.085 N 
HETATM   11  C1  UNL     1      33.105 -39.435  28.001  1.00  0.00     0.309 C 
HETATM   12  C2  UNL     1      34.639 -38.661  29.545  1.00  0.00     0.309 C 
ENDBRANCH   1  10
BRANCH   6  13
HETATM   13  N2  UNL     1      39.747 -40.440  26.800  1.00  0.00     0.111 N 
HETATM   14  C8  UNL     1      40.401 -41.634  26.309  1.00  0.00     0.312 C 
HETATM   15  C9  UNL     1      40.722 -39.605  27.466  1.00  0.00     0.312 C 
ENDBRANCH   6  13
TORSDOF 2
ENDMDL
MODEL 5
REMARK VINA RESULT: -4.803989639      2.822      4.293
REMARK  2 active torsions:
REMARK  status: ('A' for Active; 'I' for Inactive)
REMARK    1  A    between atoms: N1_2  and  C3_4 
REMARK    2  A    between atoms: C7_9  and  N2_10 
ROOT
HETATM    1  C3  UNL     1      37.584 -39.251  28.718  1.00  0.00     0.231 C 
HETATM    2  C4  UNL     1      38.552 -39.645  29.799  1.00  0.00     0.039 C 
HETATM    3  C5  UNL     1      39.711 -38.676  29.718  1.00  0.00     0.035 C 
HETATM    4  C6  UNL     1      39.334 -37.593  28.763  1.00  0.00     0.133 C 
HETATM    5  O1  UNL     1      40.424 -37.308  27.979  1.00  0.00    -0.349 OA
HETATM    6  C7  UNL     1      40.073 -37.514  26.654  1.00  0.00     0.392 C 
HETATM    7  C10 UNL     1      39.210 -38.789  26.802  1.00  0.00     0.237 C 
HETATM    8  F1  UNL     1      38.580 -39.067  25.608  1.00  0.00    -0.244 F 
HETATM    9  C11 UNL     1      38.306 -38.299  27.869  1.00  0.00     0.086 C 
ENDROOT
BRANCH   1  10
HETATM   10  N1  UNL     1      36.813 -40.271  28.164  1.00  0.00     0.085 N 
HETATM   11  C1  UNL     1      37.223 -41.615  28.187  1.00  0.00     0.309 C 
HETATM   12  C2  UNL     1      35.443 -40.220  28.650  1.00  0.00     0.309 C 
ENDBRANCH   1  10
BRANCH   6  13
HETATM   13  N2  UNL     1      41.168 -37.718  25.764  1.00  0.00     0.111 N 
HETATM   14  C8  UNL     1      41.973 -38.826  26.234  1.00  0.00     0.312 C 
HETATM   15  C9  UNL     1      41.970 -36.514  25.770  1.00  0.00     0.312 C 
ENDBRANCH   6  13
TORSDOF 2
ENDMDL
