MODEL 1
REMARK VINA RESULT: -7.943859932      0.000      0.000
REMARK  4 active torsions:
REMARK  status: ('A' for Active; 'I' for Inactive)
REMARK    1  A    between atoms: C2_2  and  C3_3 
REMARK    2  A    between atoms: C6_14  and  S2_15 
REMARK    3  A    between atoms: S2_15  and  C7_16 
REMARK    4  A    between atoms: C7_16  and  C8_17 
ROOT
HETATM    1  C3  UNL     1      -2.311  44.766 -12.454  1.00  0.00     0.136 C 
HETATM    2  N1  UNL     1      -3.065  43.638 -12.012  1.00  0.00    -0.218 N 
ATOM      3  H1  UNL     1      -4.064  43.749 -11.840  1.00  0.00     0.178 HD
HETATM    4  C4  UNL     1      -2.470  42.372 -11.806  1.00  0.00     0.673 C 
HETATM    5  N2  UNL     1      -3.167  41.300 -11.851  1.00  0.00    -0.235 N 
ATOM      6  H21 UNL     1      -2.738  40.387 -11.701  1.00  0.00     0.174 HD
ATOM      7  H22 UNL     1      -4.171  41.294 -12.035  1.00  0.00     0.174 HD
HETATM    8  N3  UNL     1      -1.080  42.380 -11.551  1.00  0.00    -0.185 N 
ATOM      9  H3  UNL     1      -0.580  41.509 -11.380  1.00  0.00     0.185 HD
HETATM   10  C5  UNL     1      -0.379  43.646 -11.536  1.00  0.00     0.101 A 
HETATM   11  S1  UNL     1       1.203  44.080 -10.999  1.00  0.00    -0.063 SA
HETATM   12  C6  UNL     1       1.069  45.789 -11.091  1.00  0.00     0.065 A 
HETATM   13  C14 UNL     1      -0.204  45.969 -11.543  1.00  0.00     0.079 A 
HETATM   14  C15 UNL     1      -0.745  47.332 -11.735  1.00  0.00     0.102 C 
HETATM   15  N4  UNL     1      -1.197  48.412 -11.899  1.00  0.00    -0.191 NA
HETATM   16  C16 UNL     1      -0.949  44.852 -11.776  1.00  0.00     0.022 A 
ENDROOT
BRANCH  12  17
HETATM   17  S2  UNL     1       2.379  46.914 -10.667  1.00  0.00    -0.116 SA
BRANCH  17  18
HETATM   18  C7  UNL     1       2.353  47.533  -9.002  1.00  0.00     0.118 C 
BRANCH  18  19
HETATM   19  C8  UNL     1       2.352  49.011  -9.045  1.00  0.00    -0.043 A 
HETATM   20  C9  UNL     1       3.267  49.702  -8.302  1.00  0.00     0.050 A 
HETATM   21  C10 UNL     1       3.308  51.101  -8.307  1.00  0.00     0.119 A 
HETATM   22  F1  UNL     1       4.224  51.763  -7.562  1.00  0.00    -0.206 F 
HETATM   23  C11 UNL     1       2.403  51.783  -9.082  1.00  0.00     0.084 A 
HETATM   24  C12 UNL     1       1.478  51.104  -9.834  1.00  0.00     0.119 A 
HETATM   25  F2  UNL     1       0.611  51.805 -10.579  1.00  0.00    -0.206 F 
HETATM   26  C13 UNL     1       1.457  49.704  -9.811  1.00  0.00     0.050 A 
ENDBRANCH  18  19
ENDBRANCH  17  18
ENDBRANCH  12  17
BRANCH   1  27
HETATM   27  C2  UNL     1      -2.045  44.486 -13.950  1.00  0.00     0.026 C 
HETATM   28  C1  UNL     1      -2.091  45.714 -14.784  1.00  0.00     0.007 C 
ENDBRANCH   1  27
TORSDOF 4
ENDMDL
MODEL 2
REMARK VINA RESULT: -7.940923013      0.079      1.670
REMARK  4 active torsions:
REMARK  status: ('A' for Active; 'I' for Inactive)
REMARK    1  A    between atoms: C2_2  and  C3_3 
REMARK    2  A    between atoms: C6_14  and  S2_15 
REMARK    3  A    between atoms: S2_15  and  C7_16 
REMARK    4  A    between atoms: C7_16  and  C8_17 
ROOT
HETATM    1  C3  UNL     1      -2.307  44.754 -12.455  1.00  0.00     0.136 C 
HETATM    2  N1  UNL     1      -3.076  43.635 -12.019  1.00  0.00    -0.218 N 
ATOM      3  H1  UNL     1      -4.076  43.756 -11.853  1.00  0.00     0.178 HD
HETATM    4  C4  UNL     1      -2.497  42.362 -11.808  1.00  0.00     0.673 C 
HETATM    5  N2  UNL     1      -3.206  41.298 -11.858  1.00  0.00    -0.235 N 
ATOM      6  H21 UNL     1      -2.788  40.380 -11.705  1.00  0.00     0.174 HD
ATOM      7  H22 UNL     1      -4.209  41.303 -12.048  1.00  0.00     0.174 HD
HETATM    8  N3  UNL     1      -1.109  42.354 -11.543  1.00  0.00    -0.185 N 
ATOM      9  H3  UNL     1      -0.620  41.477 -11.369  1.00  0.00     0.185 HD
HETATM   10  C5  UNL     1      -0.394  43.612 -11.524  1.00  0.00     0.101 A 
HETATM   11  S1  UNL     1       1.189  44.029 -10.976  1.00  0.00    -0.063 SA
HETATM   12  C6  UNL     1       1.075  45.739 -11.069  1.00  0.00     0.065 A 
HETATM   13  C14 UNL     1      -0.193  45.934 -11.529  1.00  0.00     0.079 A 
HETATM   14  C15 UNL     1      -0.717  47.302 -11.726  1.00  0.00     0.102 C 
HETATM   15  N4  UNL     1      -1.156  48.387 -11.893  1.00  0.00    -0.191 NA
HETATM   16  C16 UNL     1      -0.949  44.825 -11.768  1.00  0.00     0.022 A 
ENDROOT
BRANCH  12  17
HETATM   17  S2  UNL     1       2.394  46.849 -10.636  1.00  0.00    -0.116 SA
BRANCH  17  18
HETATM   18  C7  UNL     1       2.384  47.440  -8.960  1.00  0.00     0.118 C 
BRANCH  18  19
HETATM   19  C8  UNL     1       2.426  48.918  -8.978  1.00  0.00    -0.043 A 
HETATM   20  C9  UNL     1       1.529  49.603  -9.749  1.00  0.00     0.050 A 
HETATM   21  C10 UNL     1       1.526  51.002  -9.802  1.00  0.00     0.119 A 
HETATM   22  F1  UNL     1       0.627  51.657 -10.573  1.00  0.00    -0.206 F 
HETATM   23  C11 UNL     1       2.452  51.690  -9.058  1.00  0.00     0.084 A 
HETATM   24  C12 UNL     1       3.360  51.017  -8.280  1.00  0.00     0.119 A 
HETATM   25  F2  UNL     1       4.249  51.724  -7.567  1.00  0.00    -0.206 F 
HETATM   26  C13 UNL     1       3.342  49.617  -8.244  1.00  0.00     0.050 A 
ENDBRANCH  18  19
ENDBRANCH  17  18
ENDBRANCH  12  17
BRANCH   1  27
HETATM   27  C2  UNL     1      -2.035  44.471 -13.949  1.00  0.00     0.026 C 
HETATM   28  C1  UNL     1      -2.075  45.697 -14.786  1.00  0.00     0.007 C 
ENDBRANCH   1  27
TORSDOF 4
ENDMDL
MODEL 3
REMARK VINA RESULT: -7.898578332      2.056      2.867
REMARK  4 active torsions:
REMARK  status: ('A' for Active; 'I' for Inactive)
REMARK    1  A    between atoms: C2_2  and  C3_3 
REMARK    2  A    between atoms: C6_14  and  S2_15 
REMARK    3  A    between atoms: S2_15  and  C7_16 
REMARK    4  A    between atoms: C7_16  and  C8_17 
ROOT
HETATM    1  C3  UNL     1      -0.882  44.973 -11.510  1.00  0.00     0.136 C 
HETATM    2  N1  UNL     1      -0.683  43.707 -10.882  1.00  0.00    -0.218 N 
ATOM      3  H1  UNL     1      -1.489  43.211 -10.504  1.00  0.00     0.178 HD
HETATM    4  C4  UNL     1       0.598  43.119 -10.769  1.00  0.00     0.673 C 
HETATM    5  N2  UNL     1       0.734  41.854 -10.630  1.00  0.00    -0.235 N 
ATOM      6  H21 UNL     1       1.659  41.430 -10.548  1.00  0.00     0.174 HD
ATOM      7  H22 UNL     1      -0.055  41.208 -10.595  1.00  0.00     0.174 HD
HETATM    8  N3  UNL     1       1.691  44.013 -10.817  1.00  0.00    -0.185 N 
ATOM      9  H3  UNL     1       2.647  43.669 -10.730  1.00  0.00     0.185 HD
HETATM   10  C5  UNL     1       1.432  45.426 -10.992  1.00  0.00     0.101 A 
HETATM   11  S1  UNL     1       2.445  46.813 -10.820  1.00  0.00    -0.063 SA
HETATM   12  C6  UNL     1       1.254  48.043 -10.934  1.00  0.00     0.065 A 
HETATM   13  C14 UNL     1       0.102  47.336 -11.108  1.00  0.00     0.079 A 
HETATM   14  C15 UNL     1      -1.196  48.034 -11.223  1.00  0.00     0.102 C 
HETATM   15  N4  UNL     1      -2.245  48.571 -11.320  1.00  0.00    -0.191 NA
HETATM   16  C16 UNL     1       0.203  45.977 -11.142  1.00  0.00     0.022 A 
ENDROOT
BRANCH  12  17
HETATM   17  S2  UNL     1       1.608  49.783 -10.835  1.00  0.00    -0.116 SA
BRANCH  17  18
HETATM   18  C7  UNL     1       0.344  50.785 -10.088  1.00  0.00     0.118 C 
BRANCH  18  19
HETATM   19  C8  UNL     1       0.827  52.181 -10.015  1.00  0.00    -0.043 A 
HETATM   20  C9  UNL     1       2.042  52.439  -9.445  1.00  0.00     0.050 A 
HETATM   21  C10 UNL     1       2.545  53.742  -9.350  1.00  0.00     0.119 A 
HETATM   22  F1  UNL     1       3.751  53.972  -8.780  1.00  0.00    -0.206 F 
HETATM   23  C11 UNL     1       1.790  54.776  -9.845  1.00  0.00     0.084 A 
HETATM   24  C12 UNL     1       0.568  54.533 -10.421  1.00  0.00     0.119 A 
HETATM   25  F2  UNL     1      -0.140  55.569 -10.894  1.00  0.00    -0.206 F 
HETATM   26  C13 UNL     1       0.087  53.221 -10.503  1.00  0.00     0.050 A 
ENDBRANCH  18  19
ENDBRANCH  17  18
ENDBRANCH  12  17
BRANCH   1  27
HETATM   27  C2  UNL     1      -0.724  44.680 -13.019  1.00  0.00     0.026 C 
HETATM   28  C1  UNL     1      -1.892  45.127 -13.819  1.00  0.00     0.007 C 
ENDBRANCH   1  27
TORSDOF 4
ENDMDL
MODEL 4
REMARK VINA RESULT: -7.886067232      2.036      3.257
REMARK  4 active torsions:
REMARK  status: ('A' for Active; 'I' for Inactive)
REMARK    1  A    between atoms: C2_2  and  C3_3 
REMARK    2  A    between atoms: C6_14  and  S2_15 
REMARK    3  A    between atoms: S2_15  and  C7_16 
REMARK    4  A    between atoms: C7_16  and  C8_17 
ROOT
HETATM    1  C3  UNL     1      -0.900  44.940 -11.496  1.00  0.00     0.136 C 
HETATM    2  N1  UNL     1      -0.686  43.678 -10.866  1.00  0.00    -0.218 N 
ATOM      3  H1  UNL     1      -1.485  43.181 -10.471  1.00  0.00     0.178 HD
HETATM    4  C4  UNL     1       0.598  43.095 -10.770  1.00  0.00     0.673 C 
HETATM    5  N2  UNL     1       0.740  41.831 -10.627  1.00  0.00    -0.235 N 
ATOM      6  H21 UNL     1       1.667  41.410 -10.557  1.00  0.00     0.174 HD
ATOM      7  H22 UNL     1      -0.046  41.183 -10.576  1.00  0.00     0.174 HD
HETATM    8  N3  UNL     1       1.688  43.992 -10.840  1.00  0.00    -0.185 N 
ATOM      9  H3  UNL     1       2.645  43.650 -10.767  1.00  0.00     0.185 HD
HETATM   10  C5  UNL     1       1.422  45.403 -11.018  1.00  0.00     0.101 A 
HETATM   11  S1  UNL     1       2.433  46.794 -10.869  1.00  0.00    -0.063 SA
HETATM   12  C6  UNL     1       1.236  48.020 -10.970  1.00  0.00     0.065 A 
HETATM   13  C14 UNL     1       0.084  47.308 -11.122  1.00  0.00     0.079 A 
HETATM   14  C15 UNL     1      -1.218  48.002 -11.219  1.00  0.00     0.102 C 
HETATM   15  N4  UNL     1      -2.270  48.535 -11.302  1.00  0.00    -0.191 NA
HETATM   16  C16 UNL     1       0.188  45.950 -11.151  1.00  0.00     0.022 A 
ENDROOT
BRANCH  12  17
HETATM   17  S2  UNL     1       1.587  49.761 -10.885  1.00  0.00    -0.116 SA
BRANCH  17  18
HETATM   18  C7  UNL     1       0.341  50.760 -10.105  1.00  0.00     0.118 C 
BRANCH  18  19
HETATM   19  C8  UNL     1       0.865  52.134  -9.950  1.00  0.00    -0.043 A 
HETATM   20  C9  UNL     1       0.149  53.183 -10.456  1.00  0.00     0.050 A 
HETATM   21  C10 UNL     1       0.600  54.503 -10.336  1.00  0.00     0.119 A 
HETATM   22  F1  UNL     1      -0.127  55.525 -10.846  1.00  0.00    -0.206 F 
HETATM   23  C11 UNL     1       1.791  54.736  -9.693  1.00  0.00     0.084 A 
HETATM   24  C12 UNL     1       2.521  53.694  -9.180  1.00  0.00     0.119 A 
HETATM   25  F2  UNL     1       3.679  53.961  -8.558  1.00  0.00    -0.206 F 
HETATM   26  C13 UNL     1       2.048  52.382  -9.313  1.00  0.00     0.050 A 
ENDBRANCH  18  19
ENDBRANCH  17  18
ENDBRANCH  12  17
BRANCH   1  27
HETATM   27  C2  UNL     1      -0.765  44.640 -13.006  1.00  0.00     0.026 C 
HETATM   28  C1  UNL     1      -1.867  45.224 -13.811  1.00  0.00     0.007 C 
ENDBRANCH   1  27
TORSDOF 4
ENDMDL
MODEL 5
REMARK VINA RESULT: -7.881839950      2.754      4.197
REMARK  4 active torsions:
REMARK  status: ('A' for Active; 'I' for Inactive)
REMARK    1  A    between atoms: C2_2  and  C3_3 
REMARK    2  A    between atoms: C6_14  and  S2_15 
REMARK    3  A    between atoms: S2_15  and  C7_16 
REMARK    4  A    between atoms: C7_16  and  C8_17 
ROOT
HETATM    1  C3  UNL     1       0.303  45.185 -12.001  1.00  0.00     0.136 C 
HETATM    2  N1  UNL     1      -0.574  44.655 -12.995  1.00  0.00    -0.218 N 
ATOM      3  H1  UNL     1      -0.195  44.025 -13.703  1.00  0.00     0.178 HD
HETATM    4  C4  UNL     1      -1.950  44.975 -13.030  1.00  0.00     0.673 C 
HETATM    5  N2  UNL     1      -2.795  44.199 -13.597  1.00  0.00    -0.235 N 
ATOM      6  H21 UNL     1      -3.788  44.430 -13.622  1.00  0.00     0.174 HD
ATOM      7  H22 UNL     1      -2.532  43.322 -14.048  1.00  0.00     0.174 HD
HETATM    8  N3  UNL     1      -2.315  46.190 -12.406  1.00  0.00    -0.185 N 
ATOM      9  H3  UNL     1      -3.287  46.497 -12.398  1.00  0.00     0.185 HD
HETATM   10  C5  UNL     1      -1.286  46.990 -11.778  1.00  0.00     0.101 A 
HETATM   11  S1  UNL     1      -1.288  48.611 -11.186  1.00  0.00    -0.063 SA
HETATM   12  C6  UNL     1       0.392  48.802 -10.890  1.00  0.00     0.065 A 
HETATM   13  C14 UNL     1       0.904  47.593 -11.257  1.00  0.00     0.079 A 
HETATM   14  C15 UNL     1       2.359  47.342 -11.184  1.00  0.00     0.102 C 
HETATM   15  N4  UNL     1       3.518  47.118 -11.131  1.00  0.00    -0.191 NA
HETATM   16  C16 UNL     1       0.026  46.655 -11.712  1.00  0.00     0.022 A 
ENDROOT
BRANCH  12  17
HETATM   17  S2  UNL     1       1.127  50.289 -10.248  1.00  0.00    -0.116 SA
BRANCH  17  18
HETATM   18  C7  UNL     1       0.012  51.649  -9.991  1.00  0.00     0.118 C 
BRANCH  18  19
HETATM   19  C8  UNL     1       0.756  52.913 -10.183  1.00  0.00    -0.043 A 
HETATM   20  C9  UNL     1       0.086  54.023 -10.616  1.00  0.00     0.050 A 
HETATM   21  C10 UNL     1       0.742  55.243 -10.814  1.00  0.00     0.119 A 
HETATM   22  F1  UNL     1       0.057  56.328 -11.244  1.00  0.00    -0.206 F 
HETATM   23  C11 UNL     1       2.090  55.313 -10.564  1.00  0.00     0.084 A 
HETATM   24  C12 UNL     1       2.777  54.208 -10.129  1.00  0.00     0.119 A 
HETATM   25  F2  UNL     1       4.093  54.316  -9.894  1.00  0.00    -0.206 F 
HETATM   26  C13 UNL     1       2.098  52.999  -9.938  1.00  0.00     0.050 A 
ENDBRANCH  18  19
ENDBRANCH  17  18
ENDBRANCH  12  17
BRANCH   1  27
HETATM   27  C2  UNL     1      -0.059  44.404 -10.718  1.00  0.00     0.026 C 
HETATM   28  C1  UNL     1       1.122  44.117  -9.865  1.00  0.00     0.007 C 
ENDBRANCH   1  27
TORSDOF 4
ENDMDL
