MODEL 1
REMARK VINA RESULT: -6.634364746      0.000      0.000
REMARK  2 active torsions:
REMARK  status: ('A' for Active; 'I' for Inactive)
REMARK       I    between atoms: C1_2  and  N2_4 
REMARK    1  A    between atoms: C5_8  and  C6_9 
REMARK       I    between atoms: C6_9  and  N3_11 
REMARK    2  A    between atoms: C9_14  and  C10_15 
REMARK       I    between atoms: C10_15  and  N4_17 
ROOT
HETATM    1  C6  UNL     1     -13.183  -8.033  14.467  1.00  0.00     0.242 C 
HETATM    2  O2  UNL     1     -12.155  -7.304  14.670  1.00  0.00    -0.271 OA
HETATM    3  N3  UNL     1     -14.395  -7.428  14.101  1.00  0.00    -0.350 N 
HETATM    4  C7  UNL     1     -15.571  -8.201  13.881  1.00  0.00     0.126 C 
HETATM    5  C8  UNL     1     -16.857  -7.449  14.053  1.00  0.00     0.034 C 
HETATM    6  C9  UNL     1     -16.799  -6.030  13.564  1.00  0.00     0.081 C 
HETATM    7  C16 UNL     1     -15.474  -5.715  12.890  1.00  0.00     0.034 C 
HETATM    8  C17 UNL     1     -14.422  -5.987  13.953  1.00  0.00     0.126 C 
ENDROOT
BRANCH   1   9
HETATM    9  C5  UNL     1     -12.963  -9.481  14.651  1.00  0.00     0.180 C 
HETATM   10  N2  UNL     1     -12.167  -9.810  15.783  1.00  0.00    -0.323 N 
HETATM   11  C1  UNL     1     -12.494  -9.509  17.126  1.00  0.00     0.331 C 
HETATM   12  C2  UNL     1     -10.983 -10.496  15.342  1.00  0.00     0.128 C 
HETATM   13  N1  UNL     1     -13.662  -8.843  17.526  1.00  0.00    -0.040 NA
HETATM   14  O1  UNL     1     -11.663  -9.871  18.031  1.00  0.00    -0.251 OA
HETATM   15  C3  UNL     1     -10.750  -9.927  13.978  1.00  0.00     0.022 C 
HETATM   16  C4  UNL     1     -12.159  -9.924  13.417  1.00  0.00     0.037 C 
ENDBRANCH   1   9
BRANCH   6  17
HETATM   17  C10 UNL     1     -17.919  -5.706  12.648  1.00  0.00     0.224 C 
HETATM   18  O3  UNL     1     -17.888  -6.142  11.475  1.00  0.00    -0.273 OA
HETATM   19  N4  UNL     1     -19.021  -4.917  13.069  1.00  0.00    -0.352 N 
HETATM   20  C11 UNL     1     -20.110  -4.626  12.145  1.00  0.00     0.127 C 
HETATM   21  C15 UNL     1     -19.136  -4.359  14.397  1.00  0.00     0.127 C 
HETATM   22  C12 UNL     1     -21.392  -4.501  12.957  1.00  0.00     0.040 C 
HETATM   23  C13 UNL     1     -21.317  -3.300  13.896  1.00  0.00     0.085 C 
HETATM   24 CL1  UNL     1     -21.981  -1.895  13.040  1.00  0.00    -0.125 Cl
HETATM   25  C14 UNL     1     -19.889  -3.037  14.256  1.00  0.00     0.040 C 
ENDBRANCH   6  17
TORSDOF 2
ENDMDL
MODEL 2
REMARK VINA RESULT: -6.605810474      2.387      3.470
REMARK  2 active torsions:
REMARK  status: ('A' for Active; 'I' for Inactive)
REMARK       I    between atoms: C1_2  and  N2_4 
REMARK    1  A    between atoms: C5_8  and  C6_9 
REMARK       I    between atoms: C6_9  and  N3_11 
REMARK    2  A    between atoms: C9_14  and  C10_15 
REMARK       I    between atoms: C10_15  and  N4_17 
ROOT
HETATM    1  C6  UNL     1     -13.929  -8.404  15.583  1.00  0.00     0.242 C 
HETATM    2  O2  UNL     1     -13.912  -9.680  15.631  1.00  0.00    -0.271 OA
HETATM    3  N3  UNL     1     -14.869  -7.758  14.765  1.00  0.00    -0.350 N 
HETATM    4  C7  UNL     1     -14.912  -6.337  14.669  1.00  0.00     0.126 C 
HETATM    5  C8  UNL     1     -15.530  -5.813  13.407  1.00  0.00     0.034 C 
HETATM    6  C9  UNL     1     -16.694  -6.626  12.919  1.00  0.00     0.081 C 
HETATM    7  C16 UNL     1     -17.060  -7.735  13.891  1.00  0.00     0.034 C 
HETATM    8  C17 UNL     1     -15.799  -8.577  14.015  1.00  0.00     0.126 C 
ENDROOT
BRANCH   1   9
HETATM    9  C5  UNL     1     -12.916  -7.739  16.426  1.00  0.00     0.180 C 
HETATM   10  N2  UNL     1     -11.582  -8.169  16.182  1.00  0.00    -0.323 N 
HETATM   11  C1  UNL     1     -10.897  -8.045  14.951  1.00  0.00     0.331 C 
HETATM   12  C2  UNL     1     -11.047  -8.745  17.385  1.00  0.00     0.128 C 
HETATM   13  N1  UNL     1     -11.445  -7.470  13.794  1.00  0.00    -0.040 NA
HETATM   14  O1  UNL     1      -9.697  -8.489  14.897  1.00  0.00    -0.251 OA
HETATM   15  C3  UNL     1     -12.260  -9.299  18.065  1.00  0.00     0.022 C 
HETATM   16  C4  UNL     1     -13.249  -8.167  17.865  1.00  0.00     0.037 C 
ENDBRANCH   1   9
BRANCH   6  17
HETATM   17  C10 UNL     1     -17.885  -5.788  12.641  1.00  0.00     0.224 C 
HETATM   18  O3  UNL     1     -18.244  -4.942  13.490  1.00  0.00    -0.273 OA
HETATM   19  N4  UNL     1     -18.626  -5.924  11.437  1.00  0.00    -0.352 N 
HETATM   20  C11 UNL     1     -19.787  -5.077  11.192  1.00  0.00     0.127 C 
HETATM   21  C15 UNL     1     -18.297  -6.882  10.407  1.00  0.00     0.127 C 
HETATM   22  C12 UNL     1     -19.890  -4.849   9.690  1.00  0.00     0.040 C 
HETATM   23  C13 UNL     1     -20.178  -6.163   8.967  1.00  0.00     0.085 C 
HETATM   24 CL1  UNL     1     -21.939  -6.342   8.840  1.00  0.00    -0.125 Cl
HETATM   25  C14 UNL     1     -19.615  -7.301   9.758  1.00  0.00     0.040 C 
ENDBRANCH   6  17
TORSDOF 2
ENDMDL
MODEL 3
REMARK VINA RESULT: -6.350964350      3.779      8.679
REMARK  2 active torsions:
REMARK  status: ('A' for Active; 'I' for Inactive)
REMARK       I    between atoms: C1_2  and  N2_4 
REMARK    1  A    between atoms: C5_8  and  C6_9 
REMARK       I    between atoms: C6_9  and  N3_11 
REMARK    2  A    between atoms: C9_14  and  C10_15 
REMARK       I    between atoms: C10_15  and  N4_17 
ROOT
HETATM    1  C6  UNL     1     -17.593  -6.497  12.676  1.00  0.00     0.242 C 
HETATM    2  O2  UNL     1     -18.465  -7.417  12.833  1.00  0.00    -0.271 OA
HETATM    3  N3  UNL     1     -16.349  -6.611  13.316  1.00  0.00    -0.350 N 
HETATM    4  C7  UNL     1     -15.354  -5.602  13.183  1.00  0.00     0.126 C 
HETATM    5  C8  UNL     1     -14.356  -5.554  14.301  1.00  0.00     0.034 C 
HETATM    6  C9  UNL     1     -13.975  -6.906  14.832  1.00  0.00     0.081 C 
HETATM    7  C16 UNL     1     -14.603  -8.030  14.025  1.00  0.00     0.034 C 
HETATM    8  C17 UNL     1     -16.102  -7.790  14.122  1.00  0.00     0.126 C 
ENDROOT
BRANCH   1   9
HETATM    9  C5  UNL     1     -18.018  -5.380  11.809  1.00  0.00     0.180 C 
HETATM   10  N2  UNL     1     -19.395  -5.042  11.928  1.00  0.00    -0.323 N 
HETATM   11  C1  UNL     1     -20.026  -4.596  13.113  1.00  0.00     0.331 C 
HETATM   12  C2  UNL     1     -20.035  -5.224  10.655  1.00  0.00     0.128 C 
HETATM   13  N1  UNL     1     -19.371  -4.421  14.341  1.00  0.00    -0.040 NA
HETATM   14  O1  UNL     1     -21.279  -4.336  13.052  1.00  0.00    -0.251 OA
HETATM   15  C3  UNL     1     -19.238  -6.324  10.028  1.00  0.00     0.022 C 
HETATM   16  C4  UNL     1     -17.824  -5.893  10.373  1.00  0.00     0.037 C 
ENDBRANCH   1   9
BRANCH   6  17
HETATM   17  C10 UNL     1     -12.506  -7.091  14.892  1.00  0.00     0.224 C 
HETATM   18  O3  UNL     1     -11.809  -6.739  13.914  1.00  0.00    -0.273 OA
HETATM   19  N4  UNL     1     -11.873  -7.657  16.031  1.00  0.00    -0.352 N 
HETATM   20  C11 UNL     1     -10.424  -7.815  16.061  1.00  0.00     0.127 C 
HETATM   21  C15 UNL     1     -12.596  -8.106  17.199  1.00  0.00     0.127 C 
HETATM   22  C12 UNL     1      -9.968  -7.673  17.507  1.00  0.00     0.040 C 
HETATM   23  C13 UNL     1     -10.525  -8.810  18.360  1.00  0.00     0.085 C 
HETATM   24 CL1  UNL     1      -9.342 -10.133  18.346  1.00  0.00    -0.125 Cl
HETATM   25  C14 UNL     1     -11.816  -9.288  17.772  1.00  0.00     0.040 C 
ENDBRANCH   6  17
TORSDOF 2
ENDMDL
MODEL 4
REMARK VINA RESULT: -6.313819288      3.705      8.744
REMARK  2 active torsions:
REMARK  status: ('A' for Active; 'I' for Inactive)
REMARK       I    between atoms: C1_2  and  N2_4 
REMARK    1  A    between atoms: C5_8  and  C6_9 
REMARK       I    between atoms: C6_9  and  N3_11 
REMARK    2  A    between atoms: C9_14  and  C10_15 
REMARK       I    between atoms: C10_15  and  N4_17 
ROOT
HETATM    1  C6  UNL     1     -17.465  -6.440  12.699  1.00  0.00     0.242 C 
HETATM    2  O2  UNL     1     -18.324  -7.351  12.946  1.00  0.00    -0.271 OA
HETATM    3  N3  UNL     1     -16.178  -6.539  13.249  1.00  0.00    -0.350 N 
HETATM    4  C7  UNL     1     -15.193  -5.537  13.013  1.00  0.00     0.126 C 
HETATM    5  C8  UNL     1     -14.116  -5.459  14.053  1.00  0.00     0.034 C 
HETATM    6  C9  UNL     1     -13.699  -6.796  14.596  1.00  0.00     0.081 C 
HETATM    7  C16 UNL     1     -14.386  -7.941  13.872  1.00  0.00     0.034 C 
HETATM    8  C17 UNL     1     -15.873  -7.693  14.071  1.00  0.00     0.126 C 
ENDROOT
BRANCH   1   9
HETATM    9  C5  UNL     1     -17.951  -5.349  11.831  1.00  0.00     0.180 C 
HETATM   10  N2  UNL     1     -19.298  -4.965  12.078  1.00  0.00    -0.323 N 
HETATM   11  C1  UNL     1     -19.789  -4.450  13.301  1.00  0.00     0.331 C 
HETATM   12  C2  UNL     1     -20.074  -5.181  10.887  1.00  0.00     0.128 C 
HETATM   13  N1  UNL     1     -19.004  -4.243  14.444  1.00  0.00    -0.040 NA
HETATM   14  O1  UNL     1     -21.034  -4.157  13.359  1.00  0.00    -0.251 OA
HETATM   15  C3  UNL     1     -19.375  -6.330  10.232  1.00  0.00     0.022 C 
HETATM   16  C4  UNL     1     -17.923  -5.927  10.407  1.00  0.00     0.037 C 
ENDBRANCH   1   9
BRANCH   6  17
HETATM   17  C10 UNL     1     -12.230  -6.984  14.554  1.00  0.00     0.224 C 
HETATM   18  O3  UNL     1     -11.493  -5.982  14.412  1.00  0.00    -0.273 OA
HETATM   19  N4  UNL     1     -11.640  -8.270  14.672  1.00  0.00    -0.352 N 
HETATM   20  C11 UNL     1     -10.191  -8.419  14.637  1.00  0.00     0.127 C 
HETATM   21  C15 UNL     1     -12.410  -9.485  14.824  1.00  0.00     0.127 C 
HETATM   22  C12 UNL     1      -9.821  -9.611  15.509  1.00  0.00     0.040 C 
HETATM   23  C13 UNL     1     -10.382 -10.902  14.919  1.00  0.00     0.085 C 
HETATM   24 CL1  UNL     1      -9.152 -11.588  13.840  1.00  0.00    -0.125 Cl
HETATM   25  C14 UNL     1     -11.619 -10.596  14.135  1.00  0.00     0.040 C 
ENDBRANCH   6  17
TORSDOF 2
ENDMDL
MODEL 5
REMARK VINA RESULT: -6.100365628      3.962      8.410
REMARK  2 active torsions:
REMARK  status: ('A' for Active; 'I' for Inactive)
REMARK       I    between atoms: C1_2  and  N2_4 
REMARK    1  A    between atoms: C5_8  and  C6_9 
REMARK       I    between atoms: C6_9  and  N3_11 
REMARK    2  A    between atoms: C9_14  and  C10_15 
REMARK       I    between atoms: C10_15  and  N4_17 
ROOT
HETATM    1  C6  UNL     1     -17.520  -6.361  12.745  1.00  0.00     0.242 C 
HETATM    2  O2  UNL     1     -18.375  -7.249  13.078  1.00  0.00    -0.271 OA
HETATM    3  N3  UNL     1     -16.216  -6.435  13.258  1.00  0.00    -0.350 N 
HETATM    4  C7  UNL     1     -15.235  -5.457  12.927  1.00  0.00     0.126 C 
HETATM    5  C8  UNL     1     -14.123  -5.322  13.924  1.00  0.00     0.034 C 
HETATM    6  C9  UNL     1     -13.695  -6.626  14.535  1.00  0.00     0.081 C 
HETATM    7  C16 UNL     1     -14.412  -7.810  13.907  1.00  0.00     0.034 C 
HETATM    8  C17 UNL     1     -15.890  -7.538  14.139  1.00  0.00     0.126 C 
ENDROOT
BRANCH   1   9
HETATM    9  C5  UNL     1     -18.029  -5.323  11.828  1.00  0.00     0.180 C 
HETATM   10  N2  UNL     1     -19.419  -5.053  11.967  1.00  0.00    -0.323 N 
HETATM   11  C1  UNL     1     -20.043  -4.572  13.143  1.00  0.00     0.331 C 
HETATM   12  C2  UNL     1     -20.081  -5.345  10.726  1.00  0.00     0.128 C 
HETATM   13  N1  UNL     1     -19.367  -4.289  14.339  1.00  0.00    -0.040 NA
HETATM   14  O1  UNL     1     -21.309  -4.385  13.103  1.00  0.00    -0.251 OA
HETATM   15  C3  UNL     1     -19.240  -6.436  10.141  1.00  0.00     0.022 C 
HETATM   16  C4  UNL     1     -17.844  -5.909  10.418  1.00  0.00     0.037 C 
ENDBRANCH   1   9
BRANCH   6  17
HETATM   17  C10 UNL     1     -12.228  -6.827  14.456  1.00  0.00     0.224 C 
HETATM   18  O3  UNL     1     -11.787  -7.903  13.993  1.00  0.00    -0.273 OA
HETATM   19  N4  UNL     1     -11.316  -5.831  14.893  1.00  0.00    -0.352 N 
HETATM   20  C11 UNL     1      -9.879  -6.057  14.792  1.00  0.00     0.127 C 
HETATM   21  C15 UNL     1     -11.732  -4.566  15.456  1.00  0.00     0.127 C 
HETATM   22  C12 UNL     1      -9.209  -4.710  14.562  1.00  0.00     0.040 C 
HETATM   23  C13 UNL     1      -9.399  -3.801  15.774  1.00  0.00     0.085 C 
HETATM   24 CL1  UNL     1      -8.023  -4.054  16.866  1.00  0.00    -0.125 Cl
HETATM   25  C14 UNL     1     -10.668  -4.167  16.477  1.00  0.00     0.040 C 
ENDBRANCH   6  17
TORSDOF 2
ENDMDL
