MODEL 1
REMARK VINA RESULT: -8.076503558      0.000      0.000
REMARK  6 active torsions:
REMARK  status: ('A' for Active; 'I' for Inactive)
REMARK    1  A    between atoms: C1_4  and  C2_5 
REMARK    2  A    between atoms: C7_10  and  C8_11 
REMARK    3  A    between atoms: N2_13  and  C10_14 
REMARK    4  A    between atoms: C15_19  and  C16_20 
REMARK    5  A    between atoms: C16_20  and  C17_21 
REMARK    6  A    between atoms: C17_21  and  N3_22 
ROOT
HETATM    1  C8  UNL     1      -1.368   0.455  -0.384  1.00  0.00     0.077 A 
HETATM    2  C9  UNL     1      -1.385  -0.695  -1.183  1.00  0.00     0.144 A 
HETATM    3  N2  UNL     1      -2.657  -1.067  -1.434  1.00  0.00    -0.282 N 
HETATM    4  N4  UNL     1      -3.411  -0.184  -0.817  1.00  0.00    -0.240 N 
ATOM      5  H4  UNL     1      -4.431  -0.189  -0.815  1.00  0.00     0.208 HD
HETATM    6  N5  UNL     1      -2.658   0.711  -0.199  1.00  0.00    -0.284 N 
ATOM      7  H5  UNL     1      -3.020   1.493   0.346  1.00  0.00     0.188 HD
ENDROOT
BRANCH   3   8
HETATM    8  C10 UNL     1      -3.102  -2.192  -2.213  1.00  0.00     0.113 C 
HETATM    9  C11 UNL     1      -2.203  -2.437  -3.414  1.00  0.00     0.028 C 
HETATM   10  C12 UNL     1      -2.807  -1.928  -4.699  1.00  0.00     0.002 C 
HETATM   11  C13 UNL     1      -3.506  -0.624  -4.438  1.00  0.00     0.001 C 
HETATM   12  C14 UNL     1      -4.705  -0.788  -3.524  1.00  0.00     0.007 C 
HETATM   13  C15 UNL     1      -4.498  -2.060  -2.745  1.00  0.00     0.012 C 
BRANCH  13  14
HETATM   14  C16 UNL     1      -5.577  -2.281  -1.734  1.00  0.00     0.037 C 
BRANCH  14  15
HETATM   15  C17 UNL     1      -6.971  -2.118  -2.285  1.00  0.00     0.273 C 
BRANCH  15  16
HETATM   16  N3  UNL     1      -7.984  -2.261  -1.254  1.00  0.00     0.092 N 
HETATM   17  C18 UNL     1      -7.608  -1.622  -0.033  1.00  0.00     0.298 C 
HETATM   18  C19 UNL     1      -8.500  -0.624   0.559  1.00  0.00     0.198 C 
HETATM   19  O1  UNL     1      -9.547  -0.165  -0.202  1.00  0.00    -0.388 OA
HETATM   20  C20 UNL     1     -10.183  -1.323  -0.711  1.00  0.00     0.198 C 
HETATM   21  C21 UNL     1      -9.246  -1.826  -1.790  1.00  0.00     0.298 C 
ENDBRANCH  15  16
ENDBRANCH  14  15
ENDBRANCH  13  14
ENDBRANCH   3   8
BRANCH   1  22
HETATM   22  C7  UNL     1      -0.163   1.135   0.085  1.00  0.00     0.005 A 
HETATM   23  C2  UNL     1      -0.044   2.496   0.114  1.00  0.00    -0.009 A 
HETATM   24  C3  UNL     1       1.176   3.031   0.594  1.00  0.00     0.014 A 
HETATM   25  C4  UNL     1       2.211   2.234   1.015  1.00  0.00     0.001 A 
HETATM   26  C5  UNL     1       2.070   0.869   0.975  1.00  0.00     0.001 A 
HETATM   27  C6  UNL     1       0.908   0.340   0.520  1.00  0.00     0.014 A 
BRANCH  23  28
HETATM   28  C1  UNL     1      -1.080   3.397  -0.310  1.00  0.00     0.092 C 
HETATM   29  N1  UNL     1      -1.433   4.368   0.497  1.00  0.00    -0.407 N 
ATOM     30  H12 UNL     1      -0.974   4.468   1.402  1.00  0.00     0.155 HD
ATOM     31  H11 UNL     1      -2.168   5.008   0.196  1.00  0.00     0.155 HD
ENDBRANCH  23  28
ENDBRANCH   1  22
TORSDOF 6
ENDMDL
MODEL 2
REMARK VINA RESULT: -7.951760026      0.943      1.782
REMARK  6 active torsions:
REMARK  status: ('A' for Active; 'I' for Inactive)
REMARK    1  A    between atoms: C1_4  and  C2_5 
REMARK    2  A    between atoms: C7_10  and  C8_11 
REMARK    3  A    between atoms: N2_13  and  C10_14 
REMARK    4  A    between atoms: C15_19  and  C16_20 
REMARK    5  A    between atoms: C16_20  and  C17_21 
REMARK    6  A    between atoms: C17_21  and  N3_22 
ROOT
HETATM    1  C8  UNL     1      -1.593   0.608  -0.379  1.00  0.00     0.077 A 
HETATM    2  C9  UNL     1      -1.543  -0.549  -1.166  1.00  0.00     0.144 A 
HETATM    3  N2  UNL     1      -2.791  -0.982  -1.435  1.00  0.00    -0.282 N 
HETATM    4  N4  UNL     1      -3.596  -0.130  -0.840  1.00  0.00    -0.240 N 
ATOM      5  H4  UNL     1      -4.615  -0.182  -0.856  1.00  0.00     0.208 HD
HETATM    6  N5  UNL     1      -2.897   0.805  -0.219  1.00  0.00    -0.284 N 
ATOM      7  H5  UNL     1      -3.304   1.575   0.312  1.00  0.00     0.188 HD
ENDROOT
BRANCH   3   8
HETATM    8  C10 UNL     1      -3.170  -2.135  -2.210  1.00  0.00     0.113 C 
HETATM    9  C11 UNL     1      -2.266  -2.325  -3.417  1.00  0.00     0.028 C 
HETATM   10  C12 UNL     1      -2.909  -1.856  -4.698  1.00  0.00     0.002 C 
HETATM   11  C13 UNL     1      -3.688  -0.598  -4.433  1.00  0.00     0.001 C 
HETATM   12  C14 UNL     1      -4.868  -0.837  -3.510  1.00  0.00     0.007 C 
HETATM   13  C15 UNL     1      -4.576  -2.092  -2.732  1.00  0.00     0.012 C 
BRANCH  13  14
HETATM   14  C16 UNL     1      -5.631  -2.380  -1.713  1.00  0.00     0.037 C 
BRANCH  14  15
HETATM   15  C17 UNL     1      -7.034  -2.130  -2.203  1.00  0.00     0.273 C 
BRANCH  15  16
HETATM   16  N3  UNL     1      -8.011  -2.226  -1.132  1.00  0.00     0.092 N 
HETATM   17  C18 UNL     1      -7.585  -1.546   0.050  1.00  0.00     0.298 C 
HETATM   18  C19 UNL     1      -8.447  -0.517   0.637  1.00  0.00     0.198 C 
HETATM   19  O1  UNL     1      -9.517  -0.077  -0.103  1.00  0.00    -0.388 OA
HETATM   20  C20 UNL     1     -10.181  -1.248  -0.544  1.00  0.00     0.198 C 
HETATM   21  C21 UNL     1      -9.287  -1.800  -1.637  1.00  0.00     0.298 C 
ENDBRANCH  15  16
ENDBRANCH  14  15
ENDBRANCH  13  14
ENDBRANCH   3   8
BRANCH   1  22
HETATM   22  C7  UNL     1      -0.429   1.348   0.103  1.00  0.00     0.005 A 
HETATM   23  C2  UNL     1       0.704   0.732   0.555  1.00  0.00    -0.009 A 
HETATM   24  C3  UNL     1       1.763   1.563   0.994  1.00  0.00     0.014 A 
HETATM   25  C4  UNL     1       1.676   2.932   0.976  1.00  0.00     0.001 A 
HETATM   26  C5  UNL     1       0.528   3.529   0.518  1.00  0.00     0.001 A 
HETATM   27  C6  UNL     1      -0.496   2.749   0.094  1.00  0.00     0.014 A 
BRANCH  23  28
HETATM   28  C1  UNL     1       0.871  -0.695   0.608  1.00  0.00     0.092 C 
HETATM   29  N1  UNL     1       0.849  -1.284   1.779  1.00  0.00    -0.407 N 
ATOM     30  H12 UNL     1       0.716  -0.728   2.624  1.00  0.00     0.155 HD
ATOM     31  H11 UNL     1       0.967  -2.296   1.816  1.00  0.00     0.155 HD
ENDBRANCH  23  28
ENDBRANCH   1  22
TORSDOF 6
ENDMDL
MODEL 3
REMARK VINA RESULT: -7.710276939      4.625      8.077
REMARK  6 active torsions:
REMARK  status: ('A' for Active; 'I' for Inactive)
REMARK    1  A    between atoms: C1_4  and  C2_5 
REMARK    2  A    between atoms: C7_10  and  C8_11 
REMARK    3  A    between atoms: N2_13  and  C10_14 
REMARK    4  A    between atoms: C15_19  and  C16_20 
REMARK    5  A    between atoms: C16_20  and  C17_21 
REMARK    6  A    between atoms: C17_21  and  N3_22 
ROOT
HETATM    1  C8  UNL     1      -5.347  -2.206  -4.303  1.00  0.00     0.077 A 
HETATM    2  C9  UNL     1      -4.151  -2.928  -4.404  1.00  0.00     0.144 A 
HETATM    3  N2  UNL     1      -3.667  -2.851  -5.660  1.00  0.00    -0.282 N 
HETATM    4  N4  UNL     1      -4.525  -2.109  -6.324  1.00  0.00    -0.240 N 
ATOM      5  H4  UNL     1      -4.441  -1.862  -7.310  1.00  0.00     0.208 HD
HETATM    6  N5  UNL     1      -5.513  -1.728  -5.531  1.00  0.00    -0.284 N 
ATOM      7  H5  UNL     1      -6.298  -1.146  -5.824  1.00  0.00     0.188 HD
ENDROOT
BRANCH   3   8
HETATM    8  C10 UNL     1      -2.463  -3.452  -6.172  1.00  0.00     0.113 C 
HETATM    9  C11 UNL     1      -1.439  -3.688  -5.075  1.00  0.00     0.028 C 
HETATM   10  C12 UNL     1      -0.344  -2.651  -5.077  1.00  0.00     0.002 C 
HETATM   11  C13 UNL     1      -0.933  -1.304  -5.388  1.00  0.00     0.001 C 
HETATM   12  C14 UNL     1      -1.492  -1.232  -6.795  1.00  0.00     0.007 C 
HETATM   13  C15 UNL     1      -1.775  -2.645  -7.233  1.00  0.00     0.012 C 
BRANCH  13  14
HETATM   14  C16 UNL     1      -2.422  -2.697  -8.579  1.00  0.00     0.037 C 
BRANCH  14  15
HETATM   15  C17 UNL     1      -2.184  -3.988  -9.320  1.00  0.00     0.273 C 
BRANCH  15  16
HETATM   16  N3  UNL     1      -3.282  -4.313 -10.214  1.00  0.00     0.092 N 
HETATM   17  C18 UNL     1      -3.232  -5.669 -10.661  1.00  0.00     0.298 C 
HETATM   18  C19 UNL     1      -4.393  -6.537 -10.453  1.00  0.00     0.198 C 
HETATM   19  O1  UNL     1      -5.393  -6.086  -9.626  1.00  0.00    -0.388 OA
HETATM   20  C20 UNL     1      -5.686  -4.772 -10.065  1.00  0.00     0.198 C 
HETATM   21  C21 UNL     1      -4.516  -3.941  -9.578  1.00  0.00     0.298 C 
ENDBRANCH  15  16
ENDBRANCH  14  15
ENDBRANCH  13  14
ENDBRANCH   3   8
BRANCH   1  22
HETATM   22  C7  UNL     1      -6.149  -2.074  -3.089  1.00  0.00     0.005 A 
HETATM   23  C2  UNL     1      -5.597  -1.864  -1.857  1.00  0.00    -0.009 A 
HETATM   24  C3  UNL     1      -6.486  -1.751  -0.759  1.00  0.00     0.014 A 
HETATM   25  C4  UNL     1      -7.846  -1.847  -0.904  1.00  0.00     0.001 A 
HETATM   26  C5  UNL     1      -8.378  -2.059  -2.152  1.00  0.00     0.001 A 
HETATM   27  C6  UNL     1      -7.544  -2.169  -3.214  1.00  0.00     0.014 A 
BRANCH  23  28
HETATM   28  C1  UNL     1      -4.183  -1.754  -1.622  1.00  0.00     0.092 C 
HETATM   29  N1  UNL     1      -3.700  -0.592  -1.255  1.00  0.00    -0.407 N 
ATOM     30  H12 UNL     1      -4.326   0.205  -1.143  1.00  0.00     0.155 HD
ATOM     31  H11 UNL     1      -2.697  -0.514  -1.088  1.00  0.00     0.155 HD
ENDBRANCH  23  28
ENDBRANCH   1  22
TORSDOF 6
ENDMDL
MODEL 4
REMARK VINA RESULT: -7.667627801      4.253      7.908
REMARK  6 active torsions:
REMARK  status: ('A' for Active; 'I' for Inactive)
REMARK    1  A    between atoms: C1_4  and  C2_5 
REMARK    2  A    between atoms: C7_10  and  C8_11 
REMARK    3  A    between atoms: N2_13  and  C10_14 
REMARK    4  A    between atoms: C15_19  and  C16_20 
REMARK    5  A    between atoms: C16_20  and  C17_21 
REMARK    6  A    between atoms: C17_21  and  N3_22 
ROOT
HETATM    1  C8  UNL     1      -5.416  -1.920  -3.674  1.00  0.00     0.077 A 
HETATM    2  C9  UNL     1      -4.078  -1.522  -3.562  1.00  0.00     0.144 A 
HETATM    3  N2  UNL     1      -3.457  -1.642  -4.753  1.00  0.00    -0.282 N 
HETATM    4  N4  UNL     1      -4.370  -2.096  -5.583  1.00  0.00    -0.240 N 
ATOM      5  H4  UNL     1      -4.212  -2.294  -6.571  1.00  0.00     0.208 HD
HETATM    6  N5  UNL     1      -5.521  -2.261  -4.953  1.00  0.00    -0.284 N 
ATOM      7  H5  UNL     1      -6.376  -2.605  -5.391  1.00  0.00     0.188 HD
ENDROOT
BRANCH   3   8
HETATM    8  C10 UNL     1      -2.084  -1.336  -5.059  1.00  0.00     0.113 C 
HETATM    9  C11 UNL     1      -1.834  -1.301  -6.557  1.00  0.00     0.028 C 
HETATM   10  C12 UNL     1      -1.159  -2.554  -7.058  1.00  0.00     0.002 C 
HETATM   11  C13 UNL     1      -1.723  -3.746  -6.337  1.00  0.00     0.001 C 
HETATM   12  C14 UNL     1      -1.393  -3.732  -4.857  1.00  0.00     0.007 C 
HETATM   13  C15 UNL     1      -1.094  -2.305  -4.482  1.00  0.00     0.012 C 
BRANCH  13  14
HETATM   14  C16 UNL     1      -0.845  -2.149  -3.017  1.00  0.00     0.037 C 
BRANCH  14  15
HETATM   15  C17 UNL     1      -0.656  -3.455  -2.289  1.00  0.00     0.273 C 
BRANCH  15  16
HETATM   16  N3  UNL     1       0.642  -3.535  -1.642  1.00  0.00     0.092 N 
HETATM   17  C18 UNL     1       0.683  -2.799  -0.419  1.00  0.00     0.298 C 
HETATM   18  C19 UNL     1       1.082  -3.478   0.816  1.00  0.00     0.198 C 
HETATM   19  O1  UNL     1       1.170  -4.848   0.795  1.00  0.00    -0.388 OA
HETATM   20  C20 UNL     1       1.941  -5.163  -0.349  1.00  0.00     0.198 C 
HETATM   21  C21 UNL     1       1.005  -4.921  -1.516  1.00  0.00     0.298 C 
ENDBRANCH  15  16
ENDBRANCH  14  15
ENDBRANCH  13  14
ENDBRANCH   3   8
BRANCH   1  22
HETATM   22  C7  UNL     1      -6.385  -1.925  -2.581  1.00  0.00     0.005 A 
HETATM   23  C2  UNL     1      -7.735  -1.868  -2.789  1.00  0.00    -0.009 A 
HETATM   24  C3  UNL     1      -8.568  -1.882  -1.643  1.00  0.00     0.014 A 
HETATM   25  C4  UNL     1      -8.063  -1.947  -0.370  1.00  0.00     0.001 A 
HETATM   26  C5  UNL     1      -6.704  -2.002  -0.185  1.00  0.00     0.001 A 
HETATM   27  C6  UNL     1      -5.891  -1.991  -1.269  1.00  0.00     0.014 A 
BRANCH  23  28
HETATM   28  C1  UNL     1      -8.341  -1.797  -4.090  1.00  0.00     0.092 C 
HETATM   29  N1  UNL     1      -9.649  -1.831  -4.172  1.00  0.00    -0.407 N 
ATOM     30  H12 UNL     1     -10.209  -1.908  -3.324  1.00  0.00     0.155 HD
ATOM     31  H11 UNL     1     -10.079  -1.780  -5.096  1.00  0.00     0.155 HD
ENDBRANCH  23  28
ENDBRANCH   1  22
TORSDOF 6
ENDMDL
MODEL 5
REMARK VINA RESULT: -7.639058876      3.228      7.808
REMARK  6 active torsions:
REMARK  status: ('A' for Active; 'I' for Inactive)
REMARK    1  A    between atoms: C1_4  and  C2_5 
REMARK    2  A    between atoms: C7_10  and  C8_11 
REMARK    3  A    between atoms: N2_13  and  C10_14 
REMARK    4  A    between atoms: C15_19  and  C16_20 
REMARK    5  A    between atoms: C16_20  and  C17_21 
REMARK    6  A    between atoms: C17_21  and  N3_22 
ROOT
HETATM    1  C8  UNL     1      -3.935  -1.507  -1.978  1.00  0.00     0.077 A 
HETATM    2  C9  UNL     1      -2.955  -1.977  -2.861  1.00  0.00     0.144 A 
HETATM    3  N2  UNL     1      -1.735  -1.564  -2.463  1.00  0.00    -0.282 N 
HETATM    4  N4  UNL     1      -1.939  -0.862  -1.370  1.00  0.00    -0.240 N 
ATOM      5  H4  UNL     1      -1.206  -0.410  -0.823  1.00  0.00     0.208 HD
HETATM    6  N5  UNL     1      -3.229  -0.826  -1.082  1.00  0.00    -0.284 N 
ATOM      7  H5  UNL     1      -3.629  -0.340  -0.280  1.00  0.00     0.188 HD
ENDROOT
BRANCH   3   8
HETATM    8  C10 UNL     1      -0.470  -1.834  -3.096  1.00  0.00     0.113 C 
HETATM    9  C11 UNL     1      -0.611  -2.826  -4.238  1.00  0.00     0.028 C 
HETATM   10  C12 UNL     1      -0.163  -4.214  -3.853  1.00  0.00     0.002 C 
HETATM   11  C13 UNL     1      -0.594  -4.504  -2.443  1.00  0.00     0.001 C 
HETATM   12  C14 UNL     1       0.105  -3.613  -1.435  1.00  0.00     0.007 C 
HETATM   13  C15 UNL     1       0.575  -2.389  -2.174  1.00  0.00     0.012 C 
BRANCH  13  14
HETATM   14  C16 UNL     1       1.200  -1.386  -1.259  1.00  0.00     0.037 C 
BRANCH  14  15
HETATM   15  C17 UNL     1       1.264  -1.830   0.180  1.00  0.00     0.273 C 
BRANCH  15  16
HETATM   16  N3  UNL     1       0.909  -0.761   1.097  1.00  0.00     0.092 N 
HETATM   17  C18 UNL     1       1.627  -0.846   2.330  1.00  0.00     0.298 C 
HETATM   18  C19 UNL     1       2.409   0.306   2.786  1.00  0.00     0.198 C 
HETATM   19  O1  UNL     1       2.617   1.333   1.898  1.00  0.00    -0.388 OA
HETATM   20  C20 UNL     1       1.343   1.637   1.363  1.00  0.00     0.198 C 
HETATM   21  C21 UNL     1       1.049   0.495   0.411  1.00  0.00     0.298 C 
ENDBRANCH  15  16
ENDBRANCH  14  15
ENDBRANCH  13  14
ENDBRANCH   3   8
BRANCH   1  22
HETATM   22  C7  UNL     1      -5.369  -1.759  -2.102  1.00  0.00     0.005 A 
HETATM   23  C2  UNL     1      -6.053  -1.581  -3.272  1.00  0.00    -0.009 A 
HETATM   24  C3  UNL     1      -7.441  -1.863  -3.260  1.00  0.00     0.014 A 
HETATM   25  C4  UNL     1      -8.092  -2.294  -2.132  1.00  0.00     0.001 A 
HETATM   26  C5  UNL     1      -7.385  -2.465  -0.968  1.00  0.00     0.001 A 
HETATM   27  C6  UNL     1      -6.055  -2.201  -0.961  1.00  0.00     0.014 A 
BRANCH  23  28
HETATM   28  C1  UNL     1      -5.444  -1.131  -4.493  1.00  0.00     0.092 C 
HETATM   29  N1  UNL     1      -5.285  -1.994  -5.467  1.00  0.00    -0.407 N 
ATOM     30  H12 UNL     1      -5.591  -2.959  -5.344  1.00  0.00     0.155 HD
ATOM     31  H11 UNL     1      -4.853  -1.674  -6.334  1.00  0.00     0.155 HD
ENDBRANCH  23  28
ENDBRANCH   1  22
TORSDOF 6
ENDMDL
