MODEL 1
REMARK VINA RESULT: -8.124310229      0.000      0.000
REMARK  11 active torsions:
REMARK  status: ('A' for Active; 'I' for Inactive)
REMARK    1  A    between atoms: C9_12  and  C10_13 
REMARK    2  A    between atoms: C10_13  and  C11_14 
REMARK    3  A    between atoms: C11_14  and  C12_15 
REMARK    4  A    between atoms: C12_15  and  N2_16 
REMARK    5  A    between atoms: N2_16  and  C13_18 
REMARK    6  A    between atoms: C13_18  and  C14_19 
REMARK    7  A    between atoms: C14_19  and  C15_20 
REMARK    8  A    between atoms: C15_20  and  C16_21 
REMARK    9  A    between atoms: N3_24  and  C19_25 
REMARK   10  A    between atoms: C19_25  and  C20_26 
REMARK   11  A    between atoms: C20_26  and  N4_27 
ROOT
HETATM    1  N2  UNL     1       5.179 128.179 359.916  1.00  0.00    -0.402 N 
ATOM      2  H2  UNL     1       5.736 127.338 360.066  1.00  0.00     0.158 HD
ENDROOT
BRANCH   1   3
HETATM    3  C12 UNL     1       5.230 129.177 360.893  1.00  0.00     0.119 C 
BRANCH   3   4
HETATM    4  C11 UNL     1       6.555 130.021 360.702  1.00  0.00     0.024 C 
BRANCH   4   5
HETATM    5  C10 UNL     1       7.617 129.041 361.036  1.00  0.00     0.043 C 
BRANCH   5   6
HETATM    6  C9  UNL     1       9.003 129.431 360.902  1.00  0.00    -0.023 A 
HETATM    7  C2  UNL     1       9.970 129.212 359.965  1.00  0.00     0.013 A 
HETATM    8  C1  UNL     1       9.756 128.429 358.730  1.00  0.00     0.068 C 
HETATM    9  N1  UNL     1      11.096 129.827 360.387  1.00  0.00    -0.359 N 
HETATM   10  C3  UNL     1      10.918 130.437 361.551  1.00  0.00     0.044 A 
ATOM     11  H1  UNL     1      11.977 129.823 359.872  1.00  0.00     0.166 HD
HETATM   12  C4  UNL     1      11.754 131.187 362.373  1.00  0.00     0.049 A 
HETATM   13  C8  UNL     1       9.614 130.209 361.904  1.00  0.00    -0.001 A 
HETATM   14  C5  UNL     1      11.277 131.709 363.556  1.00  0.00     0.013 A 
HETATM   15 BR1  UNL     1      12.363 132.748 364.733  1.00  0.00    -0.051 Br
HETATM   16  C6  UNL     1       9.974 131.496 363.937  1.00  0.00     0.020 A 
HETATM   17  C7  UNL     1       9.173 130.754 363.104  1.00  0.00     0.015 A 
ENDBRANCH   5   6
ENDBRANCH   4   5
ENDBRANCH   3   4
ENDBRANCH   1   3
BRANCH   1  18
HETATM   18  C13 UNL     1       4.433 128.258 358.773  1.00  0.00     0.055 C 
BRANCH  18  19
HETATM   19  C14 UNL     1       4.862 128.900 357.512  1.00  0.00     0.044 C 
BRANCH  19  20
HETATM   20  C15 UNL     1       6.316 128.918 357.269  1.00  0.00     0.010 C 
BRANCH  20  21
HETATM   21  C16 UNL     1       6.779 130.281 356.707  1.00  0.00    -0.008 C 
HETATM   22  C17 UNL     1       6.932 130.287 355.246  1.00  0.00     0.049 C 
HETATM   23  C18 UNL     1       7.129 131.699 354.699  1.00  0.00     0.063 C 
HETATM   24  N3  UNL     1       6.263 132.615 355.275  1.00  0.00    -0.372 N 
HETATM   25  C22 UNL     1       6.252 132.691 356.685  1.00  0.00     0.127 C 
HETATM   26  C23 UNL     1       5.982 131.369 357.340  1.00  0.00     0.025 C 
BRANCH  24  27
HETATM   27  C19 UNL     1       5.344 133.331 354.529  1.00  0.00     0.082 C 
BRANCH  27  28
HETATM   28  C20 UNL     1       4.481 134.260 355.329  1.00  0.00     0.166 C 
BRANCH  28  29
HETATM   29  N4  UNL     1       4.509 135.631 354.914  1.00  0.00    -0.362 N 
HETATM   30  C21 UNL     1       3.661 136.482 355.443  1.00  0.00     0.197 C 
HETATM   31  N5  UNL     1       2.729 135.995 356.423  1.00  0.00    -0.067 NA
HETATM   32  N6  UNL     1       3.618 137.851 355.100  1.00  0.00    -0.067 NA
ATOM     33  H4  UNL     1       5.182 135.943 354.214  1.00  0.00     0.162 HD
ENDBRANCH  28  29
ENDBRANCH  27  28
ENDBRANCH  24  27
ENDBRANCH  20  21
ENDBRANCH  19  20
ENDBRANCH  18  19
ENDBRANCH   1  18
TORSDOF 11
ENDMDL
MODEL 2
REMARK VINA RESULT: -8.029229499      2.070      3.263
REMARK  11 active torsions:
REMARK  status: ('A' for Active; 'I' for Inactive)
REMARK    1  A    between atoms: C9_12  and  C10_13 
REMARK    2  A    between atoms: C10_13  and  C11_14 
REMARK    3  A    between atoms: C11_14  and  C12_15 
REMARK    4  A    between atoms: C12_15  and  N2_16 
REMARK    5  A    between atoms: N2_16  and  C13_18 
REMARK    6  A    between atoms: C13_18  and  C14_19 
REMARK    7  A    between atoms: C14_19  and  C15_20 
REMARK    8  A    between atoms: C15_20  and  C16_21 
REMARK    9  A    between atoms: N3_24  and  C19_25 
REMARK   10  A    between atoms: C19_25  and  C20_26 
REMARK   11  A    between atoms: C20_26  and  N4_27 
ROOT
HETATM    1  N2  UNL     1       7.752 129.691 361.949  1.00  0.00    -0.402 N 
ATOM      2  H2  UNL     1       8.682 129.928 361.606  1.00  0.00     0.158 HD
ENDROOT
BRANCH   1   3
HETATM    3  C12 UNL     1       7.521 129.780 363.324  1.00  0.00     0.119 C 
BRANCH   3   4
HETATM    4  C11 UNL     1       8.749 130.506 364.009  1.00  0.00     0.024 C 
BRANCH   4   5
HETATM    5  C10 UNL     1       9.388 131.209 362.871  1.00  0.00     0.043 C 
BRANCH   5   6
HETATM    6  C9  UNL     1      10.832 131.256 362.793  1.00  0.00    -0.023 A 
HETATM    7  C2  UNL     1      11.815 131.750 363.599  1.00  0.00     0.013 A 
HETATM    8  C1  UNL     1      11.562 132.420 364.891  1.00  0.00     0.068 C 
HETATM    9  N1  UNL     1      13.000 131.508 362.995  1.00  0.00    -0.359 N 
HETATM   10  C3  UNL     1      12.843 130.884 361.836  1.00  0.00     0.044 A 
ATOM     11  H1  UNL     1      13.905 131.774 363.384  1.00  0.00     0.166 HD
HETATM   12  C4  UNL     1      13.735 130.430 360.868  1.00  0.00     0.049 A 
HETATM   13  C8  UNL     1      11.493 130.709 361.677  1.00  0.00    -0.001 A 
HETATM   14  C5  UNL     1      13.268 129.799 359.736  1.00  0.00     0.013 A 
HETATM   15 BR1  UNL     1      14.430 129.149 358.368  1.00  0.00    -0.051 Br
HETATM   16  C6  UNL     1      11.920 129.611 359.549  1.00  0.00     0.020 A 
HETATM   17  C7  UNL     1      11.064 130.068 360.521  1.00  0.00     0.015 A 
ENDBRANCH   5   6
ENDBRANCH   4   5
ENDBRANCH   3   4
ENDBRANCH   1   3
BRANCH   1  18
HETATM   18  C13 UNL     1       6.811 129.305 361.034  1.00  0.00     0.055 C 
BRANCH  18  19
HETATM   19  C14 UNL     1       7.090 128.897 359.640  1.00  0.00     0.044 C 
BRANCH  19  20
HETATM   20  C15 UNL     1       6.192 129.464 358.618  1.00  0.00     0.010 C 
BRANCH  20  21
HETATM   21  C16 UNL     1       6.871 130.617 357.844  1.00  0.00    -0.008 C 
HETATM   22  C17 UNL     1       7.179 130.279 356.449  1.00  0.00     0.049 C 
HETATM   23  C18 UNL     1       7.600 131.507 355.644  1.00  0.00     0.063 C 
HETATM   24  N3  UNL     1       6.791 132.604 355.893  1.00  0.00    -0.372 N 
HETATM   25  C22 UNL     1       6.638 132.997 357.241  1.00  0.00     0.127 C 
HETATM   26  C23 UNL     1       6.145 131.888 358.120  1.00  0.00     0.025 C 
BRANCH  24  27
HETATM   27  C19 UNL     1       6.050 133.214 354.898  1.00  0.00     0.082 C 
BRANCH  27  28
HETATM   28  C20 UNL     1       4.820 133.922 355.383  1.00  0.00     0.166 C 
BRANCH  28  29
HETATM   29  N4  UNL     1       4.796 135.336 355.151  1.00  0.00    -0.362 N 
HETATM   30  C21 UNL     1       3.681 136.002 355.343  1.00  0.00     0.197 C 
HETATM   31  N5  UNL     1       2.520 135.275 355.778  1.00  0.00    -0.067 NA
HETATM   32  N6  UNL     1       3.564 137.395 355.146  1.00  0.00    -0.067 NA
ATOM     33  H4  UNL     1       5.637 135.820 354.840  1.00  0.00     0.162 HD
ENDBRANCH  28  29
ENDBRANCH  27  28
ENDBRANCH  24  27
ENDBRANCH  20  21
ENDBRANCH  19  20
ENDBRANCH  18  19
ENDBRANCH   1  18
TORSDOF 11
ENDMDL
MODEL 3
REMARK VINA RESULT: -7.792319065      1.990      3.595
REMARK  11 active torsions:
REMARK  status: ('A' for Active; 'I' for Inactive)
REMARK    1  A    between atoms: C9_12  and  C10_13 
REMARK    2  A    between atoms: C10_13  and  C11_14 
REMARK    3  A    between atoms: C11_14  and  C12_15 
REMARK    4  A    between atoms: C12_15  and  N2_16 
REMARK    5  A    between atoms: N2_16  and  C13_18 
REMARK    6  A    between atoms: C13_18  and  C14_19 
REMARK    7  A    between atoms: C14_19  and  C15_20 
REMARK    8  A    between atoms: C15_20  and  C16_21 
REMARK    9  A    between atoms: N3_24  and  C19_25 
REMARK   10  A    between atoms: C19_25  and  C20_26 
REMARK   11  A    between atoms: C20_26  and  N4_27 
ROOT
HETATM    1  N2  UNL     1       7.111 131.476 358.215  1.00  0.00    -0.402 N 
ATOM      2  H2  UNL     1       8.022 131.895 358.030  1.00  0.00     0.158 HD
ENDROOT
BRANCH   1   3
HETATM    3  C12 UNL     1       6.939 130.792 359.421  1.00  0.00     0.119 C 
BRANCH   3   4
HETATM    4  C11 UNL     1       7.147 129.243 359.172  1.00  0.00     0.024 C 
BRANCH   4   5
HETATM    5  C10 UNL     1       7.968 128.833 360.336  1.00  0.00     0.043 C 
BRANCH   5   6
HETATM    6  C9  UNL     1       9.323 129.324 360.450  1.00  0.00    -0.023 A 
HETATM    7  C2  UNL     1      10.444 129.220 359.680  1.00  0.00     0.013 A 
HETATM    8  C1  UNL     1      10.496 128.490 358.397  1.00  0.00     0.068 C 
HETATM    9  N1  UNL     1      11.436 129.889 360.307  1.00  0.00    -0.359 N 
HETATM   10  C3  UNL     1      11.024 130.425 361.449  1.00  0.00     0.044 A 
ATOM     11  H1  UNL     1      12.387 129.973 359.947  1.00  0.00     0.166 HD
HETATM   12  C4  UNL     1      11.655 131.188 362.428  1.00  0.00     0.049 A 
HETATM   13  C8  UNL     1       9.701 130.090 361.571  1.00  0.00    -0.001 A 
HETATM   14  C5  UNL     1      10.953 131.614 363.534  1.00  0.00     0.013 A 
HETATM   15 BR1  UNL     1      11.749 132.663 364.916  1.00  0.00    -0.051 Br
HETATM   16  C6  UNL     1       9.625 131.292 363.684  1.00  0.00     0.020 A 
HETATM   17  C7  UNL     1       9.029 130.540 362.701  1.00  0.00     0.015 A 
ENDBRANCH   5   6
ENDBRANCH   4   5
ENDBRANCH   3   4
ENDBRANCH   1   3
BRANCH   1  18
HETATM   18  C13 UNL     1       6.137 131.619 357.265  1.00  0.00     0.055 C 
BRANCH  18  19
HETATM   19  C14 UNL     1       5.909 132.830 356.447  1.00  0.00     0.044 C 
BRANCH  19  20
HETATM   20  C15 UNL     1       5.303 132.600 355.123  1.00  0.00     0.010 C 
BRANCH  20  21
HETATM   21  C16 UNL     1       4.634 133.881 354.576  1.00  0.00    -0.008 C 
HETATM   22  C17 UNL     1       4.008 134.702 355.621  1.00  0.00     0.049 C 
HETATM   23  C18 UNL     1       3.593 136.075 355.096  1.00  0.00     0.063 C 
HETATM   24  N3  UNL     1       4.569 136.653 354.300  1.00  0.00    -0.372 N 
HETATM   25  C22 UNL     1       5.042 135.892 353.208  1.00  0.00     0.127 C 
HETATM   26  C23 UNL     1       5.557 134.544 353.614  1.00  0.00     0.025 C 
BRANCH  24  27
HETATM   27  C19 UNL     1       5.165 137.859 354.623  1.00  0.00     0.082 C 
BRANCH  27  28
HETATM   28  C20 UNL     1       4.769 139.004 353.740  1.00  0.00     0.166 C 
BRANCH  28  29
HETATM   29  N4  UNL     1       4.810 140.296 354.360  1.00  0.00    -0.362 N 
HETATM   30  C21 UNL     1       3.998 141.239 353.941  1.00  0.00     0.197 C 
HETATM   31  N5  UNL     1       3.095 140.931 352.866  1.00  0.00    -0.067 NA
HETATM   32  N6  UNL     1       3.965 142.538 354.492  1.00  0.00    -0.067 NA
ATOM     33  H4  UNL     1       5.465 140.482 355.119  1.00  0.00     0.162 HD
ENDBRANCH  28  29
ENDBRANCH  27  28
ENDBRANCH  24  27
ENDBRANCH  20  21
ENDBRANCH  19  20
ENDBRANCH  18  19
ENDBRANCH   1  18
TORSDOF 11
ENDMDL
MODEL 4
REMARK VINA RESULT: -7.770064481      2.769      4.553
REMARK  11 active torsions:
REMARK  status: ('A' for Active; 'I' for Inactive)
REMARK    1  A    between atoms: C9_12  and  C10_13 
REMARK    2  A    between atoms: C10_13  and  C11_14 
REMARK    3  A    between atoms: C11_14  and  C12_15 
REMARK    4  A    between atoms: C12_15  and  N2_16 
REMARK    5  A    between atoms: N2_16  and  C13_18 
REMARK    6  A    between atoms: C13_18  and  C14_19 
REMARK    7  A    between atoms: C14_19  and  C15_20 
REMARK    8  A    between atoms: C15_20  and  C16_21 
REMARK    9  A    between atoms: N3_24  and  C19_25 
REMARK   10  A    between atoms: C19_25  and  C20_26 
REMARK   11  A    between atoms: C20_26  and  N4_27 
ROOT
HETATM    1  N2  UNL     1       7.859 129.374 361.862  1.00  0.00    -0.402 N 
ATOM      2  H2  UNL     1       8.849 129.204 361.684  1.00  0.00     0.158 HD
ENDROOT
BRANCH   1   3
HETATM    3  C12 UNL     1       7.491 129.810 363.137  1.00  0.00     0.119 C 
BRANCH   3   4
HETATM    4  C11 UNL     1       8.768 130.380 363.877  1.00  0.00     0.024 C 
BRANCH   4   5
HETATM    5  C10 UNL     1       9.409 131.210 362.830  1.00  0.00     0.043 C 
BRANCH   5   6
HETATM    6  C9  UNL     1      10.853 131.251 362.748  1.00  0.00    -0.023 A 
HETATM    7  C2  UNL     1      11.840 131.745 363.549  1.00  0.00     0.013 A 
HETATM    8  C1  UNL     1      11.593 132.423 364.838  1.00  0.00     0.068 C 
HETATM    9  N1  UNL     1      13.022 131.495 362.944  1.00  0.00    -0.359 N 
HETATM   10  C3  UNL     1      12.860 130.864 361.788  1.00  0.00     0.044 A 
ATOM     11  H1  UNL     1      13.929 131.759 363.329  1.00  0.00     0.166 HD
HETATM   12  C4  UNL     1      13.748 130.401 360.821  1.00  0.00     0.049 A 
HETATM   13  C8  UNL     1      11.509 130.694 361.633  1.00  0.00    -0.001 A 
HETATM   14  C5  UNL     1      13.275 129.766 359.693  1.00  0.00     0.013 A 
HETATM   15 BR1  UNL     1      14.431 129.103 358.326  1.00  0.00    -0.051 Br
HETATM   16  C6  UNL     1      11.926 129.582 359.510  1.00  0.00     0.020 A 
HETATM   17  C7  UNL     1      11.074 130.049 360.482  1.00  0.00     0.015 A 
ENDBRANCH   5   6
ENDBRANCH   4   5
ENDBRANCH   3   4
ENDBRANCH   1   3
BRANCH   1  18
HETATM   18  C13 UNL     1       6.979 129.159 360.837  1.00  0.00     0.055 C 
BRANCH  18  19
HETATM   19  C14 UNL     1       6.696 130.108 359.738  1.00  0.00     0.044 C 
BRANCH  19  20
HETATM   20  C15 UNL     1       7.764 131.082 359.447  1.00  0.00     0.010 C 
BRANCH  20  21
HETATM   21  C16 UNL     1       7.563 131.747 358.067  1.00  0.00    -0.008 C 
HETATM   22  C17 UNL     1       7.956 130.886 356.944  1.00  0.00     0.049 C 
HETATM   23  C18 UNL     1       7.503 131.457 355.601  1.00  0.00     0.063 C 
HETATM   24  N3  UNL     1       6.203 131.936 355.642  1.00  0.00    -0.372 N 
HETATM   25  C22 UNL     1       5.898 132.882 356.645  1.00  0.00     0.127 C 
HETATM   26  C23 UNL     1       6.223 132.397 358.025  1.00  0.00     0.025 C 
BRANCH  24  27
HETATM   27  C19 UNL     1       5.203 131.421 354.837  1.00  0.00     0.082 C 
BRANCH  27  28
HETATM   28  C20 UNL     1       4.889 129.976 355.083  1.00  0.00     0.166 C 
BRANCH  28  29
HETATM   29  N4  UNL     1       4.085 129.713 356.240  1.00  0.00    -0.362 N 
HETATM   30  C21 UNL     1       4.475 128.804 357.103  1.00  0.00     0.197 C 
HETATM   31  N5  UNL     1       5.703 128.103 356.845  1.00  0.00    -0.067 NA
HETATM   32  N6  UNL     1       3.752 128.481 358.272  1.00  0.00    -0.067 NA
ATOM     33  H4  UNL     1       3.217 130.227 356.391  1.00  0.00     0.162 HD
ENDBRANCH  28  29
ENDBRANCH  27  28
ENDBRANCH  24  27
ENDBRANCH  20  21
ENDBRANCH  19  20
ENDBRANCH  18  19
ENDBRANCH   1  18
TORSDOF 11
ENDMDL
MODEL 5
REMARK VINA RESULT: -7.762646553      1.422      1.894
REMARK  11 active torsions:
REMARK  status: ('A' for Active; 'I' for Inactive)
REMARK    1  A    between atoms: C9_12  and  C10_13 
REMARK    2  A    between atoms: C10_13  and  C11_14 
REMARK    3  A    between atoms: C11_14  and  C12_15 
REMARK    4  A    between atoms: C12_15  and  N2_16 
REMARK    5  A    between atoms: N2_16  and  C13_18 
REMARK    6  A    between atoms: C13_18  and  C14_19 
REMARK    7  A    between atoms: C14_19  and  C15_20 
REMARK    8  A    between atoms: C15_20  and  C16_21 
REMARK    9  A    between atoms: N3_24  and  C19_25 
REMARK   10  A    between atoms: C19_25  and  C20_26 
REMARK   11  A    between atoms: C20_26  and  N4_27 
ROOT
HETATM    1  N2  UNL     1       7.537 128.601 359.241  1.00  0.00    -0.402 N 
ATOM      2  H2  UNL     1       8.052 127.724 359.307  1.00  0.00     0.158 HD
ENDROOT
BRANCH   1   3
HETATM    3  C12 UNL     1       8.272 129.788 359.181  1.00  0.00     0.119 C 
BRANCH   3   4
HETATM    4  C11 UNL     1       9.564 129.551 358.297  1.00  0.00     0.024 C 
BRANCH   4   5
HETATM    5  C10 UNL     1      10.484 128.872 359.240  1.00  0.00     0.043 C 
BRANCH   5   6
HETATM    6  C9  UNL     1      11.593 129.613 359.800  1.00  0.00    -0.023 A 
HETATM    7  C2  UNL     1      12.878 129.847 359.410  1.00  0.00     0.013 A 
HETATM    8  C1  UNL     1      13.468 129.321 358.161  1.00  0.00     0.068 C 
HETATM    9  N1  UNL     1      13.460 130.618 360.355  1.00  0.00    -0.359 N 
HETATM   10  C3  UNL     1      12.623 130.899 361.344  1.00  0.00     0.044 A 
ATOM     11  H1  UNL     1      14.426 130.944 360.312  1.00  0.00     0.166 HD
HETATM   12  C4  UNL     1      12.746 131.638 362.518  1.00  0.00     0.049 A 
HETATM   13  C8  UNL     1      11.440 130.284 361.029  1.00  0.00    -0.001 A 
HETATM   14  C5  UNL     1      11.676 131.759 363.377  1.00  0.00     0.013 A 
HETATM   15 BR1  UNL     1      11.770 132.756 365.002  1.00  0.00    -0.051 Br
HETATM   16  C6  UNL     1      10.478 131.152 363.088  1.00  0.00     0.020 A 
HETATM   17  C7  UNL     1      10.385 130.430 361.922  1.00  0.00     0.015 A 
ENDBRANCH   5   6
ENDBRANCH   4   5
ENDBRANCH   3   4
ENDBRANCH   1   3
BRANCH   1  18
HETATM   18  C13 UNL     1       6.170 128.540 359.218  1.00  0.00     0.055 C 
BRANCH  18  19
HETATM   19  C14 UNL     1       5.283 129.477 358.497  1.00  0.00     0.044 C 
BRANCH  19  20
HETATM   20  C15 UNL     1       5.198 129.280 357.038  1.00  0.00     0.010 C 
BRANCH  20  21
HETATM   21  C16 UNL     1       6.077 130.298 356.276  1.00  0.00    -0.008 C 
HETATM   22  C17 UNL     1       5.912 130.232 354.818  1.00  0.00     0.049 C 
HETATM   23  C18 UNL     1       6.580 131.412 354.115  1.00  0.00     0.063 C 
HETATM   24  N3  UNL     1       6.332 132.617 354.754  1.00  0.00    -0.372 N 
HETATM   25  C22 UNL     1       6.647 132.693 356.128  1.00  0.00     0.127 C 
HETATM   26  C23 UNL     1       5.976 131.627 356.941  1.00  0.00     0.025 C 
BRANCH  24  27
HETATM   27  C19 UNL     1       5.680 133.663 354.126  1.00  0.00     0.082 C 
BRANCH  27  28
HETATM   28  C20 UNL     1       4.813 134.487 355.030  1.00  0.00     0.166 C 
BRANCH  28  29
HETATM   29  N4  UNL     1       4.799 135.893 354.749  1.00  0.00    -0.362 N 
HETATM   30  C21 UNL     1       3.928 136.663 355.358  1.00  0.00     0.197 C 
HETATM   31  N5  UNL     1       3.016 136.057 356.288  1.00  0.00    -0.067 NA
HETATM   32  N6  UNL     1       3.843 138.057 355.149  1.00  0.00    -0.067 NA
ATOM     33  H4  UNL     1       5.459 136.291 354.081  1.00  0.00     0.162 HD
ENDBRANCH  28  29
ENDBRANCH  27  28
ENDBRANCH  24  27
ENDBRANCH  20  21
ENDBRANCH  19  20
ENDBRANCH  18  19
ENDBRANCH   1  18
TORSDOF 11
ENDMDL
