MODEL 1
REMARK VINA RESULT: -8.125553314      0.000      0.000
REMARK  4 active torsions:
REMARK  status: ('A' for Active; 'I' for Inactive)
REMARK    1  A    between atoms: C4_4  and  C5_5 
REMARK    2  A    between atoms: C5_5  and  N1_6 
REMARK    3  A    between atoms: N1_6  and  C6_8 
REMARK    4  A    between atoms: C9_17  and  C10_18 
ROOT
HETATM    1  C6  UNL     1      14.761  14.672   4.522  1.00  0.00     0.133 A 
HETATM    2  N2  UNL     1      15.604  15.573   5.059  1.00  0.00    -0.337 N 
ATOM      3  H2  UNL     1      15.620  16.540   4.736  1.00  0.00     0.168 HD
HETATM    4  C7  UNL     1      16.425  15.153   6.037  1.00  0.00     0.183 A 
HETATM    5  N3  UNL     1      16.424  13.883   6.484  1.00  0.00    -0.337 N 
ATOM      6  H3  UNL     1      17.067  13.616   7.228  1.00  0.00     0.168 HD
HETATM    7  C8  UNL     1      15.591  12.955   5.968  1.00  0.00     0.138 A 
HETATM    8  N4  UNL     1      15.355  11.661   6.185  1.00  0.00    -0.330 N 
ATOM      9  H4  UNL     1      15.841  11.091   6.877  1.00  0.00     0.168 HD
HETATM   10  C9  UNL     1      14.398  11.214   5.375  1.00  0.00     0.087 A 
HETATM   11  N5  UNL     1      14.025  12.268   4.626  1.00  0.00    -0.339 N 
ATOM     12  H5  UNL     1      13.304  12.241   3.906  1.00  0.00     0.167 HD
HETATM   13  C13 UNL     1      14.737  13.363   4.960  1.00  0.00     0.122 A 
ENDROOT
BRANCH   1  14
HETATM   14  N1  UNL     1      13.949  14.997   3.588  1.00  0.00    -0.370 N 
ATOM     15  H1  UNL     1      13.865  14.348   2.806  1.00  0.00     0.161 HD
BRANCH  14  16
HETATM   16  C5  UNL     1      13.153  16.176   3.532  1.00  0.00     0.160 C 
BRANCH  16  17
HETATM   17  C4  UNL     1      13.502  17.051   2.377  1.00  0.00    -0.041 A 
HETATM   18  C3  UNL     1      12.792  16.918   1.206  1.00  0.00     0.009 A 
HETATM   19  C2  UNL     1      13.056  17.693   0.094  1.00  0.00     0.001 A 
HETATM   20  C1  UNL     1      14.068  18.627   0.174  1.00  0.00     0.000 A 
HETATM   21  C15 UNL     1      14.789  18.772   1.342  1.00  0.00     0.001 A 
HETATM   22  C14 UNL     1      14.506  17.989   2.438  1.00  0.00     0.009 A 
ENDBRANCH  16  17
ENDBRANCH  14  16
ENDBRANCH   1  14
BRANCH  10  23
HETATM   23  C10 UNL     1      13.847   9.823   5.306  1.00  0.00     0.053 A 
HETATM   24  C11 UNL     1      12.568   9.541   6.068  1.00  0.00     0.013 A 
HETATM   25  C12 UNL     1      12.575   9.578   4.584  1.00  0.00     0.013 A 
ENDBRANCH  10  23
TORSDOF 4
ENDMDL
MODEL 2
REMARK VINA RESULT: -8.112103573      0.074      1.067
REMARK  4 active torsions:
REMARK  status: ('A' for Active; 'I' for Inactive)
REMARK    1  A    between atoms: C4_4  and  C5_5 
REMARK    2  A    between atoms: C5_5  and  N1_6 
REMARK    3  A    between atoms: N1_6  and  C6_8 
REMARK    4  A    between atoms: C9_17  and  C10_18 
ROOT
HETATM    1  C6  UNL     1      14.788  14.630   4.543  1.00  0.00     0.133 A 
HETATM    2  N2  UNL     1      15.646  15.514   5.083  1.00  0.00    -0.337 N 
ATOM      3  H2  UNL     1      15.662  16.488   4.780  1.00  0.00     0.168 HD
HETATM    4  C7  UNL     1      16.481  15.068   6.039  1.00  0.00     0.183 A 
HETATM    5  N3  UNL     1      16.480  13.789   6.458  1.00  0.00    -0.337 N 
ATOM      6  H3  UNL     1      17.134  13.503   7.186  1.00  0.00     0.168 HD
HETATM    7  C8  UNL     1      15.632  12.877   5.938  1.00  0.00     0.138 A 
HETATM    8  N4  UNL     1      15.392  11.580   6.131  1.00  0.00    -0.330 N 
ATOM      9  H4  UNL     1      15.886  10.993   6.803  1.00  0.00     0.168 HD
HETATM   10  C9  UNL     1      14.419  11.156   5.328  1.00  0.00     0.087 A 
HETATM   11  N5  UNL     1      14.040  12.228   4.609  1.00  0.00    -0.339 N 
ATOM     12  H5  UNL     1      13.305  12.221   3.901  1.00  0.00     0.167 HD
HETATM   13  C13 UNL     1      14.763  13.311   4.953  1.00  0.00     0.122 A 
ENDROOT
BRANCH   1  14
HETATM   14  N1  UNL     1      13.963  14.979   3.629  1.00  0.00    -0.370 N 
ATOM     15  H1  UNL     1      13.844  14.336   2.847  1.00  0.00     0.161 HD
BRANCH  14  16
HETATM   16  C5  UNL     1      13.195  16.178   3.598  1.00  0.00     0.160 C 
BRANCH  16  17
HETATM   17  C4  UNL     1      13.480  17.012   2.396  1.00  0.00    -0.041 A 
HETATM   18  C3  UNL     1      14.508  17.925   2.452  1.00  0.00     0.009 A 
HETATM   19  C2  UNL     1      14.833  18.733   1.380  1.00  0.00     0.001 A 
HETATM   20  C1  UNL     1      14.094  18.609   0.222  1.00  0.00     0.000 A 
HETATM   21  C15 UNL     1      13.061  17.696   0.151  1.00  0.00     0.001 A 
HETATM   22  C14 UNL     1      12.757  16.902   1.232  1.00  0.00     0.009 A 
ENDBRANCH  16  17
ENDBRANCH  14  16
ENDBRANCH   1  14
BRANCH  10  23
HETATM   23  C10 UNL     1      13.858   9.771   5.240  1.00  0.00     0.053 A 
HETATM   24  C11 UNL     1      12.589   9.480   6.015  1.00  0.00     0.013 A 
HETATM   25  C12 UNL     1      12.574   9.548   4.533  1.00  0.00     0.013 A 
ENDBRANCH  10  23
TORSDOF 4
ENDMDL
MODEL 3
REMARK VINA RESULT: -7.928812131      1.124      1.724
REMARK  4 active torsions:
REMARK  status: ('A' for Active; 'I' for Inactive)
REMARK    1  A    between atoms: C4_4  and  C5_5 
REMARK    2  A    between atoms: C5_5  and  N1_6 
REMARK    3  A    between atoms: N1_6  and  C6_8 
REMARK    4  A    between atoms: C9_17  and  C10_18 
ROOT
HETATM    1  C6  UNL     1      15.459  14.143   5.418  1.00  0.00     0.133 A 
HETATM    2  N2  UNL     1      16.133  14.615   6.482  1.00  0.00    -0.337 N 
ATOM      3  H2  UNL     1      16.358  15.606   6.568  1.00  0.00     0.168 HD
HETATM    4  C7  UNL     1      16.501  13.733   7.428  1.00  0.00     0.183 A 
HETATM    5  N3  UNL     1      16.217  12.420   7.339  1.00  0.00    -0.337 N 
ATOM      6  H3  UNL     1      16.519  11.793   8.085  1.00  0.00     0.168 HD
HETATM    7  C8  UNL     1      15.541  11.915   6.287  1.00  0.00     0.138 A 
HETATM    8  N4  UNL     1      15.119  10.704   5.917  1.00  0.00    -0.330 N 
ATOM      9  H4  UNL     1      15.266   9.851   6.455  1.00  0.00     0.168 HD
HETATM   10  C9  UNL     1      14.482  10.763   4.751  1.00  0.00     0.087 A 
HETATM   11  N5  UNL     1      14.507  12.057   4.380  1.00  0.00    -0.339 N 
ATOM     12  H5  UNL     1      14.096  12.423   3.522  1.00  0.00     0.167 HD
HETATM   13  C13 UNL     1      15.152  12.802   5.300  1.00  0.00     0.122 A 
ENDROOT
BRANCH   1  14
HETATM   14  N1  UNL     1      15.075  14.921   4.477  1.00  0.00    -0.370 N 
ATOM     15  H1  UNL     1      15.691  15.005   3.669  1.00  0.00     0.161 HD
BRANCH  14  16
HETATM   16  C5  UNL     1      13.872  15.682   4.448  1.00  0.00     0.160 C 
BRANCH  16  17
HETATM   17  C4  UNL     1      13.701  16.439   3.175  1.00  0.00    -0.041 A 
HETATM   18  C3  UNL     1      14.515  17.521   2.933  1.00  0.00     0.009 A 
HETATM   19  C2  UNL     1      14.418  18.271   1.778  1.00  0.00     0.001 A 
HETATM   20  C1  UNL     1      13.468  17.911   0.844  1.00  0.00     0.000 A 
HETATM   21  C15 UNL     1      12.645  16.827   1.073  1.00  0.00     0.001 A 
HETATM   22  C14 UNL     1      12.762  16.095   2.232  1.00  0.00     0.009 A 
ENDBRANCH  16  17
ENDBRANCH  14  16
ENDBRANCH   1  14
BRANCH  10  23
HETATM   23  C10 UNL     1      13.862   9.626   4.000  1.00  0.00     0.053 A 
HETATM   24  C11 UNL     1      12.366   9.680   3.761  1.00  0.00     0.013 A 
HETATM   25  C12 UNL     1      13.320   9.860   2.639  1.00  0.00     0.013 A 
ENDBRANCH  10  23
TORSDOF 4
ENDMDL
MODEL 4
REMARK VINA RESULT: -7.899085207      2.205      3.457
REMARK  4 active torsions:
REMARK  status: ('A' for Active; 'I' for Inactive)
REMARK    1  A    between atoms: C4_4  and  C5_5 
REMARK    2  A    between atoms: C5_5  and  N1_6 
REMARK    3  A    between atoms: N1_6  and  C6_8 
REMARK    4  A    between atoms: C9_17  and  C10_18 
ROOT
HETATM    1  C6  UNL     1      13.190  13.671   2.841  1.00  0.00     0.133 A 
HETATM    2  N2  UNL     1      11.950  13.375   2.413  1.00  0.00    -0.337 N 
ATOM      3  H2  UNL     1      11.301  14.107   2.124  1.00  0.00     0.168 HD
HETATM    4  C7  UNL     1      11.596  12.078   2.378  1.00  0.00     0.183 A 
HETATM    5  N3  UNL     1      12.432  11.092   2.751  1.00  0.00    -0.337 N 
ATOM      6  H3  UNL     1      12.113  10.124   2.706  1.00  0.00     0.168 HD
HETATM    7  C8  UNL     1      13.682  11.355   3.185  1.00  0.00     0.138 A 
HETATM    8  N4  UNL     1      14.715  10.627   3.612  1.00  0.00    -0.330 N 
ATOM      9  H4  UNL     1      14.717   9.610   3.686  1.00  0.00     0.168 HD
HETATM   10  C9  UNL     1      15.744  11.410   3.929  1.00  0.00     0.087 A 
HETATM   11  N5  UNL     1      15.337  12.670   3.690  1.00  0.00    -0.339 N 
ATOM     12  H5  UNL     1      15.909  13.502   3.837  1.00  0.00     0.167 HD
HETATM   13  C13 UNL     1      14.070  12.681   3.231  1.00  0.00     0.122 A 
ENDROOT
BRANCH   1  14
HETATM   14  N1  UNL     1      13.599  14.882   2.902  1.00  0.00    -0.370 N 
ATOM     15  H1  UNL     1      14.603  15.023   3.019  1.00  0.00     0.161 HD
BRANCH  14  16
HETATM   16  C5  UNL     1      12.792  16.053   2.823  1.00  0.00     0.160 C 
BRANCH  16  17
HETATM   17  C4  UNL     1      13.354  17.077   1.899  1.00  0.00    -0.041 A 
HETATM   18  C3  UNL     1      12.801  17.217   0.647  1.00  0.00     0.009 A 
HETATM   19  C2  UNL     1      13.267  18.144  -0.264  1.00  0.00     0.001 A 
HETATM   20  C1  UNL     1      14.323  18.950   0.107  1.00  0.00     0.000 A 
HETATM   21  C15 UNL     1      14.888  18.822   1.360  1.00  0.00     0.001 A 
HETATM   22  C14 UNL     1      14.405  17.891   2.251  1.00  0.00     0.009 A 
ENDBRANCH  16  17
ENDBRANCH  14  16
ENDBRANCH   1  14
BRANCH  10  23
HETATM   23  C10 UNL     1      17.082  10.980   4.445  1.00  0.00     0.053 A 
HETATM   24  C11 UNL     1      18.092  10.475   3.434  1.00  0.00     0.013 A 
HETATM   25  C12 UNL     1      18.284  11.782   4.110  1.00  0.00     0.013 A 
ENDBRANCH  10  23
TORSDOF 4
ENDMDL
MODEL 5
REMARK VINA RESULT: -7.840843142      1.813      3.895
REMARK  4 active torsions:
REMARK  status: ('A' for Active; 'I' for Inactive)
REMARK    1  A    between atoms: C4_4  and  C5_5 
REMARK    2  A    between atoms: C5_5  and  N1_6 
REMARK    3  A    between atoms: N1_6  and  C6_8 
REMARK    4  A    between atoms: C9_17  and  C10_18 
ROOT
HETATM    1  C6  UNL     1      12.252  13.477   2.104  1.00  0.00     0.133 A 
HETATM    2  N2  UNL     1      11.220  12.626   1.961  1.00  0.00    -0.337 N 
ATOM      3  H2  UNL     1      10.510  12.771   1.244  1.00  0.00     0.168 HD
HETATM    4  C7  UNL     1      11.159  11.575   2.799  1.00  0.00     0.183 A 
HETATM    5  N3  UNL     1      12.084  11.359   3.753  1.00  0.00    -0.337 N 
ATOM      6  H3  UNL     1      11.990  10.547   4.363  1.00  0.00     0.168 HD
HETATM    7  C8  UNL     1      13.131  12.193   3.922  1.00  0.00     0.138 A 
HETATM    8  N4  UNL     1      14.178  12.253   4.745  1.00  0.00    -0.330 N 
ATOM      9  H4  UNL     1      14.376  11.576   5.482  1.00  0.00     0.168 HD
HETATM   10  C9  UNL     1      14.931  13.316   4.474  1.00  0.00     0.087 A 
HETATM   11  N5  UNL     1      14.331  13.941   3.445  1.00  0.00    -0.339 N 
ATOM     12  H5  UNL     1      14.673  14.796   3.006  1.00  0.00     0.167 HD
HETATM   13  C13 UNL     1      13.216  13.281   3.073  1.00  0.00     0.122 A 
ENDROOT
BRANCH   1  14
HETATM   14  N1  UNL     1      12.378  14.499   1.344  1.00  0.00    -0.370 N 
ATOM     15  H1  UNL     1      12.904  14.368   0.480  1.00  0.00     0.161 HD
BRANCH  14  16
HETATM   16  C5  UNL     1      11.858  15.802   1.587  1.00  0.00     0.160 C 
BRANCH  16  17
HETATM   17  C4  UNL     1      12.881  16.871   1.412  1.00  0.00    -0.041 A 
HETATM   18  C3  UNL     1      13.703  17.182   2.471  1.00  0.00     0.009 A 
HETATM   19  C2  UNL     1      14.675  18.160   2.385  1.00  0.00     0.001 A 
HETATM   20  C1  UNL     1      14.814  18.839   1.193  1.00  0.00     0.000 A 
HETATM   21  C15 UNL     1      13.997  18.538   0.122  1.00  0.00     0.001 A 
HETATM   22  C14 UNL     1      13.037  17.559   0.231  1.00  0.00     0.009 A 
ENDBRANCH  16  17
ENDBRANCH  14  16
ENDBRANCH   1  14
BRANCH  10  23
HETATM   23  C10 UNL     1      16.189  13.736   5.169  1.00  0.00     0.053 A 
HETATM   24  C11 UNL     1      16.236  15.138   5.742  1.00  0.00     0.013 A 
HETATM   25  C12 UNL     1      16.173  13.955   6.636  1.00  0.00     0.013 A 
ENDBRANCH  10  23
TORSDOF 4
ENDMDL
