MODEL 1
REMARK VINA RESULT: -7.989457251      0.000      0.000
REMARK  4 active torsions:
REMARK  status: ('A' for Active; 'I' for Inactive)
REMARK    1  A    between atoms: N3_11  and  C8_12 
REMARK    2  A    between atoms: C8_12  and  C9_13 
REMARK    3  A    between atoms: C9_13  and  C10_14 
REMARK    4  A    between atoms: C16_20  and  N4_21 
ROOT
HETATM    1  N1  UNL     1      17.339  13.749   8.689  1.00  0.00    -0.191 NA
HETATM    2  C1  UNL     1      16.701  13.744   7.720  1.00  0.00     0.103 C 
HETATM    3  C2  UNL     1      15.891  13.751   6.517  1.00  0.00     0.089 A 
HETATM    4  C3  UNL     1      15.566  14.982   5.965  1.00  0.00     0.041 A 
HETATM    5  C4  UNL     1      14.789  14.952   4.813  1.00  0.00     0.011 A 
HETATM    6  C5  UNL     1      14.289  15.959   4.014  1.00  0.00     0.032 A 
HETATM    7  C6  UNL     1      13.581  15.352   2.998  1.00  0.00     0.090 A 
HETATM    8  N2  UNL     1      13.633  14.021   3.148  1.00  0.00    -0.351 N 
ATOM      9  H2  UNL     1      13.197  13.328   2.539  1.00  0.00     0.166 HD
HETATM   10  C7  UNL     1      14.366  13.766   4.249  1.00  0.00     0.119 A 
HETATM   11  N3  UNL     1      14.705  12.574   4.821  1.00  0.00    -0.317 N 
HETATM   12  C16 UNL     1      15.458  12.582   5.937  1.00  0.00     0.123 A 
ENDROOT
BRANCH  12  13
HETATM   13  N4  UNL     1      15.795  11.470   6.501  1.00  0.00    -0.384 N 
ATOM     14  H42 UNL     1      15.707  11.359   7.511  1.00  0.00     0.157 HD
ATOM     15  H41 UNL     1      16.148  10.722   5.903  1.00  0.00     0.157 HD
ENDBRANCH  12  13
BRANCH  11  16
HETATM   16  C8  UNL     1      14.285  11.325   4.265  1.00  0.00     0.137 C 
BRANCH  16  17
HETATM   17  C9  UNL     1      12.881  10.943   4.682  1.00  0.00     0.059 C 
BRANCH  17  18
HETATM   18  C10 UNL     1      12.030  10.648   3.502  1.00  0.00    -0.057 A 
HETATM   19  C11 UNL     1      12.139   9.411   2.907  1.00  0.00     0.007 A 
HETATM   20  C12 UNL     1      11.396   9.037   1.808  1.00  0.00     0.001 A 
HETATM   21  C13 UNL     1      10.511   9.951   1.292  1.00  0.00     0.000 A 
HETATM   22  C14 UNL     1      10.391  11.210   1.883  1.00  0.00     0.001 A 
HETATM   23  C15 UNL     1      11.140  11.561   2.979  1.00  0.00     0.007 A 
ENDBRANCH  17  18
ENDBRANCH  16  17
ENDBRANCH  11  16
TORSDOF 4
ENDMDL
MODEL 2
REMARK VINA RESULT: -7.969911647      0.053      1.067
REMARK  4 active torsions:
REMARK  status: ('A' for Active; 'I' for Inactive)
REMARK    1  A    between atoms: N3_11  and  C8_12 
REMARK    2  A    between atoms: C8_12  and  C9_13 
REMARK    3  A    between atoms: C9_13  and  C10_14 
REMARK    4  A    between atoms: C16_20  and  N4_21 
ROOT
HETATM    1  N1  UNL     1      17.361  13.728   8.660  1.00  0.00    -0.191 NA
HETATM    2  C1  UNL     1      16.713  13.723   7.698  1.00  0.00     0.103 C 
HETATM    3  C2  UNL     1      15.891  13.730   6.503  1.00  0.00     0.089 A 
HETATM    4  C3  UNL     1      15.558  14.960   5.955  1.00  0.00     0.041 A 
HETATM    5  C4  UNL     1      14.770  14.931   4.811  1.00  0.00     0.011 A 
HETATM    6  C5  UNL     1      14.260  15.938   4.018  1.00  0.00     0.032 A 
HETATM    7  C6  UNL     1      13.543  15.330   3.008  1.00  0.00     0.090 A 
HETATM    8  N2  UNL     1      13.598  14.000   3.157  1.00  0.00    -0.351 N 
ATOM      9  H2  UNL     1      13.157  13.306   2.553  1.00  0.00     0.166 HD
HETATM   10  C7  UNL     1      14.342  13.745   4.250  1.00  0.00     0.119 A 
HETATM   11  N3  UNL     1      14.689  12.553   4.818  1.00  0.00    -0.317 N 
HETATM   12  C16 UNL     1      15.453  12.560   5.927  1.00  0.00     0.123 A 
ENDROOT
BRANCH  12  13
HETATM   13  N4  UNL     1      15.798  11.448   6.486  1.00  0.00    -0.384 N 
ATOM     14  H42 UNL     1      16.652  10.971   6.196  1.00  0.00     0.157 HD
ATOM     15  H41 UNL     1      15.190  11.074   7.215  1.00  0.00     0.157 HD
ENDBRANCH  12  13
BRANCH  11  16
HETATM   16  C8  UNL     1      14.265  11.303   4.265  1.00  0.00     0.137 C 
BRANCH  16  17
HETATM   17  C9  UNL     1      12.846  10.945   4.653  1.00  0.00     0.059 C 
BRANCH  17  18
HETATM   18  C10 UNL     1      12.043  10.565   3.464  1.00  0.00    -0.057 A 
HETATM   19  C11 UNL     1      11.131  11.472   2.970  1.00  0.00     0.007 A 
HETATM   20  C12 UNL     1      10.338  11.219   1.873  1.00  0.00     0.001 A 
HETATM   21  C13 UNL     1      10.471  10.001   1.253  1.00  0.00     0.000 A 
HETATM   22  C14 UNL     1      11.389   9.071   1.742  1.00  0.00     0.001 A 
HETATM   23  C15 UNL     1      12.172   9.345   2.837  1.00  0.00     0.007 A 
ENDBRANCH  17  18
ENDBRANCH  16  17
ENDBRANCH  11  16
TORSDOF 4
ENDMDL
MODEL 3
REMARK VINA RESULT: -7.952724996      1.985      4.900
REMARK  4 active torsions:
REMARK  status: ('A' for Active; 'I' for Inactive)
REMARK    1  A    between atoms: N3_11  and  C8_12 
REMARK    2  A    between atoms: C8_12  and  C9_13 
REMARK    3  A    between atoms: C9_13  and  C10_14 
REMARK    4  A    between atoms: C16_20  and  N4_21 
ROOT
HETATM    1  N1  UNL     1      17.396  13.795   8.868  1.00  0.00    -0.191 NA
HETATM    2  C1  UNL     1      16.712  13.478   7.986  1.00  0.00     0.103 C 
HETATM    3  C2  UNL     1      15.867  13.064   6.882  1.00  0.00     0.089 A 
HETATM    4  C3  UNL     1      15.264  11.817   6.963  1.00  0.00     0.041 A 
HETATM    5  C4  UNL     1      14.460  11.452   5.890  1.00  0.00     0.011 A 
HETATM    6  C5  UNL     1      13.723  10.314   5.636  1.00  0.00     0.032 A 
HETATM    7  C6  UNL     1      13.116  10.493   4.411  1.00  0.00     0.090 A 
HETATM    8  N2  UNL     1      13.454  11.690   3.913  1.00  0.00    -0.351 N 
ATOM      9  H2  UNL     1      13.149  12.081   3.021  1.00  0.00     0.166 HD
HETATM   10  C7  UNL     1      14.272  12.283   4.804  1.00  0.00     0.119 A 
HETATM   11  N3  UNL     1      14.882  13.503   4.759  1.00  0.00    -0.317 N 
HETATM   12  C16 UNL     1      15.664  13.875   5.790  1.00  0.00     0.123 A 
ENDROOT
BRANCH  12  13
HETATM   13  N4  UNL     1      16.255  15.024   5.776  1.00  0.00    -0.384 N 
ATOM     14  H42 UNL     1      15.708  15.881   5.691  1.00  0.00     0.157 HD
ATOM     15  H41 UNL     1      17.272  15.036   5.851  1.00  0.00     0.157 HD
ENDBRANCH  12  13
BRANCH  11  16
HETATM   16  C8  UNL     1      14.711  14.391   3.651  1.00  0.00     0.137 C 
BRANCH  16  17
HETATM   17  C9  UNL     1      13.596  15.392   3.872  1.00  0.00     0.059 C 
BRANCH  17  18
HETATM   18  C10 UNL     1      13.547  16.393   2.777  1.00  0.00    -0.057 A 
HETATM   19  C11 UNL     1      12.644  16.203   1.754  1.00  0.00     0.007 A 
HETATM   20  C12 UNL     1      12.518  17.072   0.692  1.00  0.00     0.001 A 
HETATM   21  C13 UNL     1      13.338  18.173   0.664  1.00  0.00     0.000 A 
HETATM   22  C14 UNL     1      14.259  18.378   1.692  1.00  0.00     0.001 A 
HETATM   23  C15 UNL     1      14.367  17.500   2.743  1.00  0.00     0.007 A 
ENDBRANCH  17  18
ENDBRANCH  16  17
ENDBRANCH  11  16
TORSDOF 4
ENDMDL
MODEL 4
REMARK VINA RESULT: -7.943748923      1.987      4.919
REMARK  4 active torsions:
REMARK  status: ('A' for Active; 'I' for Inactive)
REMARK    1  A    between atoms: N3_11  and  C8_12 
REMARK    2  A    between atoms: C8_12  and  C9_13 
REMARK    3  A    between atoms: C9_13  and  C10_14 
REMARK    4  A    between atoms: C16_20  and  N4_21 
ROOT
HETATM    1  N1  UNL     1      17.367  13.774   8.929  1.00  0.00    -0.191 NA
HETATM    2  C1  UNL     1      16.695  13.467   8.034  1.00  0.00     0.103 C 
HETATM    3  C2  UNL     1      15.865  13.068   6.914  1.00  0.00     0.089 A 
HETATM    4  C3  UNL     1      15.266  11.818   6.968  1.00  0.00     0.041 A 
HETATM    5  C4  UNL     1      14.477  11.466   5.879  1.00  0.00     0.011 A 
HETATM    6  C5  UNL     1      13.747  10.330   5.599  1.00  0.00     0.032 A 
HETATM    7  C6  UNL     1      13.155  10.525   4.369  1.00  0.00     0.090 A 
HETATM    8  N2  UNL     1      13.495  11.731   3.894  1.00  0.00    -0.351 N 
ATOM      9  H2  UNL     1      13.199  12.135   3.004  1.00  0.00     0.166 HD
HETATM   10  C7  UNL     1      14.299  12.313   4.804  1.00  0.00     0.119 A 
HETATM   11  N3  UNL     1      14.905  13.536   4.786  1.00  0.00    -0.317 N 
HETATM   12  C16 UNL     1      15.673  13.895   5.832  1.00  0.00     0.123 A 
ENDROOT
BRANCH  12  13
HETATM   13  N4  UNL     1      16.259  15.046   5.843  1.00  0.00    -0.384 N 
ATOM     14  H42 UNL     1      17.215  15.138   5.499  1.00  0.00     0.157 HD
ATOM     15  H41 UNL     1      15.735  15.843   6.205  1.00  0.00     0.157 HD
ENDBRANCH  12  13
BRANCH  11  16
HETATM   16  C8  UNL     1      14.744  14.441   3.689  1.00  0.00     0.137 C 
BRANCH  16  17
HETATM   17  C9  UNL     1      13.597  15.408   3.894  1.00  0.00     0.059 C 
BRANCH  17  18
HETATM   18  C10 UNL     1      13.481  16.353   2.756  1.00  0.00    -0.057 A 
HETATM   19  C11 UNL     1      14.291  17.468   2.742  1.00  0.00     0.007 A 
HETATM   20  C12 UNL     1      14.262  18.406   1.734  1.00  0.00     0.001 A 
HETATM   21  C13 UNL     1      13.379  18.209   0.701  1.00  0.00     0.000 A 
HETATM   22  C14 UNL     1      12.551  17.086   0.701  1.00  0.00     0.001 A 
HETATM   23  C15 UNL     1      12.597  16.162   1.716  1.00  0.00     0.007 A 
ENDBRANCH  17  18
ENDBRANCH  16  17
ENDBRANCH  11  16
TORSDOF 4
ENDMDL
MODEL 5
REMARK VINA RESULT: -7.930219253      2.524      5.451
REMARK  4 active torsions:
REMARK  status: ('A' for Active; 'I' for Inactive)
REMARK    1  A    between atoms: N3_11  and  C8_12 
REMARK    2  A    between atoms: C8_12  and  C9_13 
REMARK    3  A    between atoms: C9_13  and  C10_14 
REMARK    4  A    between atoms: C16_20  and  N4_21 
ROOT
HETATM    1  N1  UNL     1      12.492   9.022   5.793  1.00  0.00    -0.191 NA
HETATM    2  C1  UNL     1      13.135   9.964   5.580  1.00  0.00     0.103 C 
HETATM    3  C2  UNL     1      13.939  11.145   5.332  1.00  0.00     0.089 A 
HETATM    4  C3  UNL     1      15.073  11.329   6.109  1.00  0.00     0.041 A 
HETATM    5  C4  UNL     1      15.820  12.471   5.846  1.00  0.00     0.011 A 
HETATM    6  C5  UNL     1      16.980  12.963   6.409  1.00  0.00     0.032 A 
HETATM    7  C6  UNL     1      17.276  14.141   5.754  1.00  0.00     0.090 A 
HETATM    8  N2  UNL     1      16.346  14.380   4.820  1.00  0.00    -0.351 N 
ATOM      9  H2  UNL     1      16.318  15.182   4.189  1.00  0.00     0.166 HD
HETATM   10  C7  UNL     1      15.456  13.371   4.866  1.00  0.00     0.119 A 
HETATM   11  N3  UNL     1      14.332  13.157   4.121  1.00  0.00    -0.317 N 
HETATM   12  C16 UNL     1      13.595  12.057   4.361  1.00  0.00     0.123 A 
ENDROOT
BRANCH  12  13
HETATM   13  N4  UNL     1      12.526  11.827   3.672  1.00  0.00    -0.384 N 
ATOM     14  H42 UNL     1      12.035  10.938   3.769  1.00  0.00     0.157 HD
ATOM     15  H41 UNL     1      12.202  12.559   3.039  1.00  0.00     0.157 HD
ENDBRANCH  12  13
BRANCH  11  16
HETATM   16  C8  UNL     1      13.922  14.068   3.097  1.00  0.00     0.137 C 
BRANCH  16  17
HETATM   17  C9  UNL     1      13.435  15.390   3.651  1.00  0.00     0.059 C 
BRANCH  17  18
HETATM   18  C10 UNL     1      13.573  16.477   2.650  1.00  0.00    -0.057 A 
HETATM   19  C11 UNL     1      12.774  16.442   1.529  1.00  0.00     0.007 A 
HETATM   20  C12 UNL     1      12.823  17.401   0.541  1.00  0.00     0.001 A 
HETATM   21  C13 UNL     1      13.716  18.433   0.693  1.00  0.00     0.000 A 
HETATM   22  C14 UNL     1      14.533  18.481   1.822  1.00  0.00     0.001 A 
HETATM   23  C15 UNL     1      14.467  17.516   2.797  1.00  0.00     0.007 A 
ENDBRANCH  17  18
ENDBRANCH  16  17
ENDBRANCH  11  16
TORSDOF 4
ENDMDL
