MODEL 1
REMARK VINA RESULT: -5.262354585      0.000      0.000
REMARK  2 active torsions:
REMARK  status: ('A' for Active; 'I' for Inactive)
REMARK    1  A    between atoms: C2_2  and  N1_3 
REMARK    2  A    between atoms: C10_15  and  N4_16 
ROOT
HETATM    1  C1  UNL     1       1.549  23.689  78.419  1.00  0.00     0.041 C 
HETATM    2  C2  UNL     1       0.948  23.813  77.013  1.00  0.00     0.052 C 
HETATM    3  C5  UNL     1      -0.240  22.907  76.968  1.00  0.00     0.039 C 
HETATM    4  C6  UNL     1      -0.107  21.740  76.068  1.00  0.00     0.019 C 
HETATM    5  C7  UNL     1       1.252  21.103  76.053  1.00  0.00     0.013 C 
HETATM    6  C8  UNL     1       1.697  22.254  75.191  1.00  0.00     0.019 C 
HETATM    7  C9  UNL     1       1.984  23.500  75.961  1.00  0.00     0.039 C 
HETATM    8  C10 UNL     1       0.251  22.271  74.672  1.00  0.00     0.192 C 
ENDROOT
BRANCH   2   9
HETATM    9  N1  UNL     1       0.568  25.204  76.867  1.00  0.00    -0.277 N 
HETATM   10  C3  UNL     1       1.316  26.313  76.998  1.00  0.00     0.202 A 
HETATM   11  N2  UNL     1       0.573  27.420  76.778  1.00  0.00    -0.346 N 
HETATM   12  C4  UNL     1      -0.654  26.986  76.508  1.00  0.00     0.198 A 
ATOM     13  H2  UNL     1       0.889  28.390  76.813  1.00  0.00     0.167 HD
HETATM   14  N3  UNL     1      -0.651  25.649  76.563  1.00  0.00    -0.292 N 
ATOM     15  H3  UNL     1      -1.464  25.055  76.396  1.00  0.00     0.188 HD
ENDBRANCH   2   9
BRANCH   8  16
HETATM   16  N4  UNL     1       0.081  21.224  73.709  1.00  0.00    -0.074 N 
ATOM     17  H43 UNL     1       0.859  20.564  73.715  1.00  0.00     0.274 HD
ATOM     18  H42 UNL     1      -0.660  20.574  73.970  1.00  0.00     0.274 HD
ATOM     19  H41 UNL     1      -0.070  21.634  72.787  1.00  0.00     0.274 HD
ENDBRANCH   8  16
TORSDOF 2
ENDMDL
MODEL 2
REMARK VINA RESULT: -5.082909930      1.649      4.921
REMARK  2 active torsions:
REMARK  status: ('A' for Active; 'I' for Inactive)
REMARK    1  A    between atoms: C2_2  and  N1_3 
REMARK    2  A    between atoms: C10_15  and  N4_16 
ROOT
HETATM    1  C1  UNL     1       3.403  21.167  74.845  1.00  0.00     0.041 C 
HETATM    2  C2  UNL     1       2.054  21.896  74.919  1.00  0.00     0.052 C 
HETATM    3  C5  UNL     1       2.342  23.356  74.775  1.00  0.00     0.039 C 
HETATM    4  C6  UNL     1       2.077  24.171  75.980  1.00  0.00     0.019 C 
HETATM    5  C7  UNL     1       2.443  23.517  77.281  1.00  0.00     0.013 C 
HETATM    6  C8  UNL     1       1.187  22.700  77.135  1.00  0.00     0.019 C 
HETATM    7  C9  UNL     1       1.330  21.549  76.197  1.00  0.00     0.039 C 
HETATM    8  C10 UNL     1       0.619  23.921  76.396  1.00  0.00     0.192 C 
ENDROOT
BRANCH   2   9
HETATM    9  N1  UNL     1       1.271  21.390  73.809  1.00  0.00    -0.277 N 
HETATM   10  C3  UNL     1      -0.028  21.053  73.762  1.00  0.00     0.202 A 
HETATM   11  N2  UNL     1      -0.367  20.623  72.527  1.00  0.00    -0.346 N 
HETATM   12  C4  UNL     1       0.742  20.698  71.799  1.00  0.00     0.198 A 
ATOM     13  H2  UNL     1      -1.286  20.307  72.216  1.00  0.00     0.167 HD
HETATM   14  N3  UNL     1       1.728  21.161  72.578  1.00  0.00    -0.292 N 
ATOM     15  H3  UNL     1       2.689  21.316  72.273  1.00  0.00     0.188 HD
ENDBRANCH   2   9
BRANCH   8  16
HETATM   16  N4  UNL     1       0.222  24.912  77.353  1.00  0.00    -0.074 N 
ATOM     17  H43 UNL     1       0.429  24.628  78.310  1.00  0.00     0.274 HD
ATOM     18  H42 UNL     1       0.814  25.742  77.318  1.00  0.00     0.274 HD
ATOM     19  H41 UNL     1      -0.764  25.134  77.220  1.00  0.00     0.274 HD
ENDBRANCH   8  16
TORSDOF 2
ENDMDL
MODEL 3
REMARK VINA RESULT: -5.061786704      2.032      4.798
REMARK  2 active torsions:
REMARK  status: ('A' for Active; 'I' for Inactive)
REMARK    1  A    between atoms: C2_2  and  N1_3 
REMARK    2  A    between atoms: C10_15  and  N4_16 
ROOT
HETATM    1  C1  UNL     1      -0.713  20.865  75.867  1.00  0.00     0.041 C 
HETATM    2  C2  UNL     1       0.416  21.755  75.329  1.00  0.00     0.052 C 
HETATM    3  C5  UNL     1       1.627  21.466  76.157  1.00  0.00     0.039 C 
HETATM    4  C6  UNL     1       2.081  22.580  77.018  1.00  0.00     0.019 C 
HETATM    5  C7  UNL     1       0.980  23.378  77.655  1.00  0.00     0.013 C 
HETATM    6  C8  UNL     1       0.787  24.036  76.314  1.00  0.00     0.019 C 
HETATM    7  C9  UNL     1       0.006  23.207  75.350  1.00  0.00     0.039 C 
HETATM    8  C10 UNL     1       2.293  23.805  76.115  1.00  0.00     0.192 C 
ENDROOT
BRANCH   2   9
HETATM    9  N1  UNL     1       0.603  21.362  73.947  1.00  0.00    -0.277 N 
HETATM   10  C3  UNL     1       1.656  21.560  73.137  1.00  0.00     0.202 A 
HETATM   11  N2  UNL     1       1.426  21.032  71.914  1.00  0.00    -0.346 N 
HETATM   12  C4  UNL     1       0.210  20.500  71.972  1.00  0.00     0.198 A 
ATOM     13  H2  UNL     1       2.056  21.040  71.112  1.00  0.00     0.167 HD
HETATM   14  N3  UNL     1      -0.282  20.702  73.201  1.00  0.00    -0.292 N 
ATOM     15  H3  UNL     1      -1.201  20.395  73.520  1.00  0.00     0.188 HD
ENDBRANCH   2   9
BRANCH   8  16
HETATM   16  N4  UNL     1       3.024  24.805  76.836  1.00  0.00    -0.074 N 
ATOM     17  H43 UNL     1       2.636  25.738  76.704  1.00  0.00     0.274 HD
ATOM     18  H42 UNL     1       2.885  24.733  77.844  1.00  0.00     0.274 HD
ATOM     19  H41 UNL     1       4.009  24.755  76.577  1.00  0.00     0.274 HD
ENDBRANCH   8  16
TORSDOF 2
ENDMDL
MODEL 4
REMARK VINA RESULT: -4.889206032      3.875      6.067
REMARK  2 active torsions:
REMARK  status: ('A' for Active; 'I' for Inactive)
REMARK    1  A    between atoms: C2_2  and  N1_3 
REMARK    2  A    between atoms: C10_15  and  N4_16 
ROOT
HETATM    1  C1  UNL     1       0.273  21.727  71.381  1.00  0.00     0.041 C 
HETATM    2  C2  UNL     1       0.516  20.463  72.217  1.00  0.00     0.052 C 
HETATM    3  C5  UNL     1       1.491  19.623  71.457  1.00  0.00     0.039 C 
HETATM    4  C6  UNL     1       0.949  18.349  70.934  1.00  0.00     0.019 C 
HETATM    5  C7  UNL     1      -0.455  18.425  70.411  1.00  0.00     0.013 C 
HETATM    6  C8  UNL     1      -0.908  18.427  71.847  1.00  0.00     0.019 C 
HETATM    7  C9  UNL     1      -0.786  19.759  72.509  1.00  0.00     0.039 C 
HETATM    8  C10 UNL     1       0.346  17.582  72.121  1.00  0.00     0.192 C 
ENDROOT
BRANCH   2   9
HETATM    9  N1  UNL     1       1.069  20.923  73.475  1.00  0.00    -0.277 N 
HETATM   10  C3  UNL     1       0.480  21.041  74.676  1.00  0.00     0.202 A 
HETATM   11  N2  UNL     1       1.352  21.511  75.594  1.00  0.00    -0.346 N 
HETATM   12  C4  UNL     1       2.500  21.686  74.947  1.00  0.00     0.198 A 
ATOM     13  H2  UNL     1       1.168  21.693  76.581  1.00  0.00     0.167 HD
HETATM   14  N3  UNL     1       2.323  21.330  73.669  1.00  0.00    -0.292 N 
ATOM     15  H3  UNL     1       3.044  21.366  72.948  1.00  0.00     0.188 HD
ENDBRANCH   2   9
BRANCH   8  16
HETATM   16  N4  UNL     1       0.096  16.225  71.730  1.00  0.00    -0.074 N 
ATOM     17  H43 UNL     1      -0.524  16.164  70.924  1.00  0.00     0.274 HD
ATOM     18  H42 UNL     1       0.917  15.785  71.315  1.00  0.00     0.274 HD
ATOM     19  H41 UNL     1      -0.258  15.703  72.532  1.00  0.00     0.274 HD
ENDBRANCH   8  16
TORSDOF 2
ENDMDL
MODEL 5
REMARK VINA RESULT: -4.809791012      4.805      8.258
REMARK  2 active torsions:
REMARK  status: ('A' for Active; 'I' for Inactive)
REMARK    1  A    between atoms: C2_2  and  N1_3 
REMARK    2  A    between atoms: C10_15  and  N4_16 
ROOT
HETATM    1  C1  UNL     1      -0.386  18.102  70.009  1.00  0.00     0.041 C 
HETATM    2  C2  UNL     1       0.338  18.382  71.333  1.00  0.00     0.052 C 
HETATM    3  C5  UNL     1      -0.702  18.838  72.307  1.00  0.00     0.039 C 
HETATM    4  C6  UNL     1      -0.589  20.250  72.732  1.00  0.00     0.019 C 
HETATM    5  C7  UNL     1      -0.186  21.208  71.649  1.00  0.00     0.013 C 
HETATM    6  C8  UNL     1       1.216  20.686  71.815  1.00  0.00     0.019 C 
HETATM    7  C9  UNL     1       1.451  19.381  71.131  1.00  0.00     0.039 C 
HETATM    8  C10 UNL     1       0.831  20.455  73.284  1.00  0.00     0.192 C 
ENDROOT
BRANCH   2   9
HETATM    9  N1  UNL     1       0.932  17.122  71.732  1.00  0.00    -0.277 N 
HETATM   10  C3  UNL     1       2.215  16.727  71.678  1.00  0.00     0.202 A 
HETATM   11  N2  UNL     1       2.349  15.469  72.152  1.00  0.00    -0.346 N 
HETATM   12  C4  UNL     1       1.127  15.082  72.503  1.00  0.00     0.198 A 
ATOM     13  H2  UNL     1       3.210  14.927  72.225  1.00  0.00     0.167 HD
HETATM   14  N3  UNL     1       0.276  16.083  72.248  1.00  0.00    -0.292 N 
ATOM     15  H3  UNL     1      -0.728  16.056  72.423  1.00  0.00     0.188 HD
ENDBRANCH   2   9
BRANCH   8  16
HETATM   16  N4  UNL     1       0.890  21.700  73.991  1.00  0.00    -0.074 N 
ATOM     17  H43 UNL     1      -0.007  22.187  73.992  1.00  0.00     0.274 HD
ATOM     18  H42 UNL     1       0.983  21.570  74.998  1.00  0.00     0.274 HD
ATOM     19  H41 UNL     1       1.640  22.273  73.603  1.00  0.00     0.274 HD
ENDBRANCH   8  16
TORSDOF 2
ENDMDL
