MODEL 1
REMARK VINA RESULT: -5.661482345      0.000      0.000
REMARK  2 active torsions:
REMARK  status: ('A' for Active; 'I' for Inactive)
REMARK    1  A    between atoms: C2_2  and  N1_3 
REMARK    2  A    between atoms: C2_2  and  C4_8 
ROOT
HETATM    1  C4  UNL     1     -17.742 -26.515 -13.808  1.00  0.00     0.018 C 
HETATM    2  C5  UNL     1     -18.714 -26.898 -12.711  1.00  0.00     0.017 C 
HETATM    3  C6  UNL     1     -19.520 -28.000 -13.370  1.00  0.00     0.059 C 
HETATM    4  C7  UNL     1     -20.165 -27.421 -14.606  1.00  0.00     0.011 C 
HETATM    5  C8  UNL     1     -19.051 -27.342 -15.657  1.00  0.00     0.011 C 
HETATM    6  C9  UNL     1     -17.804 -27.614 -14.794  1.00  0.00     0.064 C 
HETATM    7  C10 UNL     1     -18.391 -28.798 -14.011  1.00  0.00     0.251 C 
HETATM    8  F1  UNL     1     -17.544 -29.381 -13.155  1.00  0.00    -0.206 F 
HETATM    9  F2  UNL     1     -18.912 -29.661 -14.967  1.00  0.00    -0.206 F 
ENDROOT
BRANCH   1  10
HETATM   10  C2  UNL     1     -16.390 -26.112 -13.335  1.00  0.00     0.084 C 
HETATM   11  C1  UNL     1     -16.139 -24.619 -13.512  1.00  0.00     0.032 C 
BRANCH  10  12
HETATM   12  N1  UNL     1     -16.059 -26.434 -11.987  1.00  0.00    -0.362 N 
HETATM   13  C3  UNL     1     -15.191 -27.364 -11.770  1.00  0.00     0.197 C 
HETATM   14  N2  UNL     1     -14.534 -28.101 -12.788  1.00  0.00    -0.067 NA
HETATM   15  N3  UNL     1     -14.871 -27.674 -10.421  1.00  0.00    -0.067 NA
ATOM     16  H1  UNL     1     -16.498 -25.940 -11.210  1.00  0.00     0.162 HD
ENDBRANCH  10  12
ENDBRANCH   1  10
TORSDOF 2
ENDMDL
MODEL 2
REMARK VINA RESULT: -5.483166686      1.438      2.092
REMARK  2 active torsions:
REMARK  status: ('A' for Active; 'I' for Inactive)
REMARK    1  A    between atoms: C2_2  and  N1_3 
REMARK    2  A    between atoms: C2_2  and  C4_8 
ROOT
HETATM    1  C4  UNL     1     -17.785 -26.607 -13.784  1.00  0.00     0.018 C 
HETATM    2  C5  UNL     1     -18.796 -26.934 -12.705  1.00  0.00     0.017 C 
HETATM    3  C6  UNL     1     -19.662 -27.977 -13.384  1.00  0.00     0.059 C 
HETATM    4  C7  UNL     1     -20.249 -27.350 -14.625  1.00  0.00     0.011 C 
HETATM    5  C8  UNL     1     -19.116 -27.336 -15.659  1.00  0.00     0.011 C 
HETATM    6  C9  UNL     1     -17.903 -27.693 -14.780  1.00  0.00     0.064 C 
HETATM    7  C10 UNL     1     -18.577 -28.842 -14.014  1.00  0.00     0.251 C 
HETATM    8  F1  UNL     1     -17.781 -29.484 -13.150  1.00  0.00    -0.206 F 
HETATM    9  F2  UNL     1     -19.137 -29.664 -14.984  1.00  0.00    -0.206 F 
ENDROOT
BRANCH   1  10
HETATM   10  C2  UNL     1     -16.418 -26.295 -13.289  1.00  0.00     0.084 C 
HETATM   11  C1  UNL     1     -15.434 -27.428 -13.558  1.00  0.00     0.032 C 
BRANCH  10  12
HETATM   12  N1  UNL     1     -15.817 -25.097 -13.773  1.00  0.00    -0.362 N 
HETATM   13  C3  UNL     1     -15.070 -24.414 -12.974  1.00  0.00     0.197 C 
HETATM   14  N2  UNL     1     -14.799 -24.772 -11.628  1.00  0.00    -0.067 NA
HETATM   15  N3  UNL     1     -14.477 -23.222 -13.471  1.00  0.00    -0.067 NA
ATOM     16  H1  UNL     1     -15.975 -24.786 -14.732  1.00  0.00     0.162 HD
ENDBRANCH  10  12
ENDBRANCH   1  10
TORSDOF 2
ENDMDL
MODEL 3
REMARK VINA RESULT: -5.466654691      3.461      4.803
REMARK  2 active torsions:
REMARK  status: ('A' for Active; 'I' for Inactive)
REMARK    1  A    between atoms: C2_2  and  N1_3 
REMARK    2  A    between atoms: C2_2  and  C4_8 
ROOT
HETATM    1  C4  UNL     1     -19.560 -26.125 -13.608  1.00  0.00     0.018 C 
HETATM    2  C5  UNL     1     -20.153 -26.907 -14.761  1.00  0.00     0.017 C 
HETATM    3  C6  UNL     1     -19.065 -27.923 -15.052  1.00  0.00     0.059 C 
HETATM    4  C7  UNL     1     -17.806 -27.163 -15.390  1.00  0.00     0.011 C 
HETATM    5  C8  UNL     1     -17.250 -26.662 -14.051  1.00  0.00     0.011 C 
HETATM    6  C9  UNL     1     -18.436 -26.946 -13.109  1.00  0.00     0.064 C 
HETATM    7  C10 UNL     1     -18.735 -28.360 -13.630  1.00  0.00     0.251 C 
HETATM    8  F1  UNL     1     -19.716 -29.000 -12.984  1.00  0.00    -0.206 F 
HETATM    9  F2  UNL     1     -17.518 -29.031 -13.617  1.00  0.00    -0.206 F 
ENDROOT
BRANCH   1  10
HETATM   10  C2  UNL     1     -20.544 -25.652 -12.599  1.00  0.00     0.084 C 
HETATM   11  C1  UNL     1     -19.994 -25.720 -11.179  1.00  0.00     0.032 C 
BRANCH  10  12
HETATM   12  N1  UNL     1     -21.069 -24.339 -12.780  1.00  0.00    -0.362 N 
HETATM   13  C3  UNL     1     -22.247 -24.209 -13.290  1.00  0.00     0.197 C 
HETATM   14  N2  UNL     1     -23.070 -25.293 -13.691  1.00  0.00    -0.067 NA
HETATM   15  N3  UNL     1     -22.756 -22.895 -13.465  1.00  0.00    -0.067 NA
ATOM     16  H1  UNL     1     -20.524 -23.519 -12.513  1.00  0.00     0.162 HD
ENDBRANCH  10  12
ENDBRANCH   1  10
TORSDOF 2
ENDMDL
MODEL 4
REMARK VINA RESULT: -5.435671701      1.806      2.628
REMARK  2 active torsions:
REMARK  status: ('A' for Active; 'I' for Inactive)
REMARK    1  A    between atoms: C2_2  and  N1_3 
REMARK    2  A    between atoms: C2_2  and  C4_8 
ROOT
HETATM    1  C4  UNL     1     -17.209 -27.298 -12.888  1.00  0.00     0.018 C 
HETATM    2  C5  UNL     1     -17.351 -28.738 -13.334  1.00  0.00     0.017 C 
HETATM    3  C6  UNL     1     -18.542 -28.667 -14.270  1.00  0.00     0.059 C 
HETATM    4  C7  UNL     1     -19.714 -28.135 -13.481  1.00  0.00     0.011 C 
HETATM    5  C8  UNL     1     -19.478 -26.625 -13.353  1.00  0.00     0.011 C 
HETATM    6  C9  UNL     1     -18.020 -26.507 -13.837  1.00  0.00     0.064 C 
HETATM    7  C10 UNL     1     -18.172 -27.420 -15.064  1.00  0.00     0.251 C 
HETATM    8  F1  UNL     1     -17.075 -27.528 -15.822  1.00  0.00    -0.206 F 
HETATM    9  F2  UNL     1     -19.288 -26.951 -15.747  1.00  0.00    -0.206 F 
ENDROOT
BRANCH   1  10
HETATM   10  C2  UNL     1     -15.810 -26.847 -12.663  1.00  0.00     0.084 C 
HETATM   11  C1  UNL     1     -14.790 -27.902 -13.076  1.00  0.00     0.032 C 
BRANCH  10  12
HETATM   12  N1  UNL     1     -15.421 -25.625 -13.284  1.00  0.00    -0.362 N 
HETATM   13  C3  UNL     1     -14.750 -24.767 -12.593  1.00  0.00     0.197 C 
HETATM   14  N2  UNL     1     -14.367 -24.951 -11.239  1.00  0.00    -0.067 NA
HETATM   15  N3  UNL     1     -14.370 -23.553 -13.226  1.00  0.00    -0.067 NA
ATOM     16  H1  UNL     1     -15.668 -25.433 -14.255  1.00  0.00     0.162 HD
ENDBRANCH  10  12
ENDBRANCH   1  10
TORSDOF 2
ENDMDL
MODEL 5
REMARK VINA RESULT: -5.271414696      1.729      2.574
REMARK  2 active torsions:
REMARK  status: ('A' for Active; 'I' for Inactive)
REMARK    1  A    between atoms: C2_2  and  N1_3 
REMARK    2  A    between atoms: C2_2  and  C4_8 
ROOT
HETATM    1  C4  UNL     1     -17.229 -27.126 -14.048  1.00  0.00     0.018 C 
HETATM    2  C5  UNL     1     -18.232 -27.283 -15.172  1.00  0.00     0.017 C 
HETATM    3  C6  UNL     1     -18.432 -28.786 -15.213  1.00  0.00     0.059 C 
HETATM    4  C7  UNL     1     -17.088 -29.421 -15.478  1.00  0.00     0.011 C 
HETATM    5  C8  UNL     1     -16.333 -29.363 -14.144  1.00  0.00     0.011 C 
HETATM    6  C9  UNL     1     -17.234 -28.417 -13.329  1.00  0.00     0.064 C 
HETATM    7  C10 UNL     1     -18.569 -29.069 -13.722  1.00  0.00     0.251 C 
HETATM    8  F1  UNL     1     -19.647 -28.539 -13.135  1.00  0.00    -0.206 F 
HETATM    9  F2  UNL     1     -18.407 -30.429 -13.488  1.00  0.00    -0.206 F 
ENDROOT
BRANCH   1  10
HETATM   10  C2  UNL     1     -17.397 -25.898 -13.226  1.00  0.00     0.084 C 
HETATM   11  C1  UNL     1     -18.741 -25.863 -12.508  1.00  0.00     0.032 C 
BRANCH  10  12
HETATM   12  N1  UNL     1     -16.394 -25.639 -12.246  1.00  0.00    -0.362 N 
HETATM   13  C3  UNL     1     -15.469 -24.784 -12.521  1.00  0.00     0.197 C 
HETATM   14  N2  UNL     1     -15.372 -24.072 -13.744  1.00  0.00    -0.067 NA
HETATM   15  N3  UNL     1     -14.476 -24.536 -11.535  1.00  0.00    -0.067 NA
ATOM     16  H1  UNL     1     -16.408 -26.121 -11.347  1.00  0.00     0.162 HD
ENDBRANCH  10  12
ENDBRANCH   1  10
TORSDOF 2
ENDMDL
