MODEL 1
REMARK VINA RESULT: -8.101056442      0.000      0.000
REMARK  2 active torsions:
REMARK  status: ('A' for Active; 'I' for Inactive)
REMARK    1  A    between atoms: N1_1  and  C1_5 
REMARK    2  A    between atoms: C8_15  and  C9_16 
ROOT
HETATM    1  C1  UNL     1      13.420  24.924 -12.773  1.00  0.00     0.188 C 
HETATM    2  C2  UNL     1      14.244  23.859 -13.439  1.00  0.00     0.037 C 
HETATM    3  C3  UNL     1      15.615  23.715 -12.764  1.00  0.00     0.043 C 
HETATM    4  C4  UNL     1      16.291  25.023 -12.987  1.00  0.00    -0.027 A 
HETATM    5  C5  UNL     1      17.517  25.096 -13.583  1.00  0.00     0.064 A 
HETATM    6 CL1  UNL     1      18.371  23.649 -14.110  1.00  0.00    -0.082 Cl
HETATM    7  C6  UNL     1      18.056  26.359 -13.752  1.00  0.00     0.079 A 
HETATM    8 CL2  UNL     1      19.627  26.456 -14.514  1.00  0.00    -0.081 Cl
HETATM    9  C7  UNL     1      17.364  27.501 -13.325  1.00  0.00     0.068 A 
HETATM   10 CL3  UNL     1      18.211  29.007 -13.575  1.00  0.00    -0.082 Cl
HETATM   11  C8  UNL     1      16.137  27.413 -12.731  1.00  0.00    -0.005 A 
HETATM   12  C14 UNL     1      15.588  26.132 -12.559  1.00  0.00    -0.036 A 
HETATM   13  C15 UNL     1      14.280  25.870 -11.943  1.00  0.00     0.072 C 
ENDROOT
BRANCH  11  14
HETATM   14  C9  UNL     1      15.352  28.537 -12.293  1.00  0.00     0.027 C 
HETATM   15  C10 UNL     1      14.942  29.584 -12.946  1.00  0.00     0.026 C 
HETATM   16  C11 UNL     1      15.084  30.066 -14.348  1.00  0.00     0.157 C 
HETATM   17  C13 UNL     1      14.110  30.651 -12.333  1.00  0.00     0.294 C 
HETATM   18  C12 UNL     1      13.825  30.902 -14.598  1.00  0.00     0.365 C 
HETATM   19  F1  UNL     1      14.157  32.157 -15.128  1.00  0.00    -0.175 F 
HETATM   20  F2  UNL     1      12.968  30.303 -15.493  1.00  0.00    -0.175 F 
HETATM   21  O1  UNL     1      13.264  31.154 -13.339  1.00  0.00    -0.247 OA
HETATM   22  O2  UNL     1      14.105  31.071 -11.168  1.00  0.00    -0.259 OA
ENDBRANCH  11  14
BRANCH   1  23
HETATM   23  N1  UNL     1      12.488  24.284 -11.859  1.00  0.00    -0.075 N 
ATOM     24  H13 UNL     1      12.511  23.267 -11.926  1.00  0.00     0.274 HD
ATOM     25  H12 UNL     1      12.778  24.367 -10.885  1.00  0.00     0.274 HD
ATOM     26  H11 UNL     1      11.558  24.667 -12.024  1.00  0.00     0.274 HD
ENDBRANCH   1  23
TORSDOF 2
ENDMDL
MODEL 2
REMARK VINA RESULT: -7.919901558      4.738      6.669
REMARK  2 active torsions:
REMARK  status: ('A' for Active; 'I' for Inactive)
REMARK    1  A    between atoms: N1_1  and  C1_5 
REMARK    2  A    between atoms: C8_15  and  C9_16 
ROOT
HETATM    1  C1  UNL     1      16.025  27.775 -18.500  1.00  0.00     0.188 C 
HETATM    2  C2  UNL     1      14.700  28.004 -19.171  1.00  0.00     0.037 C 
HETATM    3  C3  UNL     1      14.394  29.504 -19.297  1.00  0.00     0.043 C 
HETATM    4  C4  UNL     1      14.287  29.991 -17.893  1.00  0.00    -0.027 A 
HETATM    5  C5  UNL     1      13.172  30.646 -17.452  1.00  0.00     0.064 A 
HETATM    6 CL1  UNL     1      11.809  30.961 -18.520  1.00  0.00    -0.082 Cl
HETATM    7  C6  UNL     1      13.168  31.050 -16.130  1.00  0.00     0.079 A 
HETATM    8 CL2  UNL     1      11.743  31.891 -15.562  1.00  0.00    -0.081 Cl
HETATM    9  C7  UNL     1      14.263  30.793 -15.293  1.00  0.00     0.068 A 
HETATM   10 CL3  UNL     1      14.106  31.414 -13.669  1.00  0.00    -0.082 Cl
HETATM   11  C8  UNL     1      15.371  30.136 -15.747  1.00  0.00    -0.005 A 
HETATM   12  C14 UNL     1      15.378  29.724 -17.090  1.00  0.00    -0.036 A 
HETATM   13  C15 UNL     1      16.488  29.004 -17.727  1.00  0.00     0.072 C 
ENDROOT
BRANCH  11  14
HETATM   14  C9  UNL     1      16.520  29.809 -14.945  1.00  0.00     0.027 C 
HETATM   15  C10 UNL     1      16.727  28.813 -14.135  1.00  0.00     0.026 C 
HETATM   16  C11 UNL     1      15.927  27.635 -13.698  1.00  0.00     0.157 C 
HETATM   17  C13 UNL     1      18.000  28.617 -13.395  1.00  0.00     0.294 C 
HETATM   18  C12 UNL     1      16.969  26.564 -13.360  1.00  0.00     0.365 C 
HETATM   19  F1  UNL     1      16.727  26.015 -12.093  1.00  0.00    -0.175 F 
HETATM   20  F2  UNL     1      16.957  25.522 -14.258  1.00  0.00    -0.175 F 
HETATM   21  O1  UNL     1      18.198  27.230 -13.261  1.00  0.00    -0.247 OA
HETATM   22  O2  UNL     1      18.788  29.462 -12.951  1.00  0.00    -0.259 OA
ENDBRANCH  11  14
BRANCH   1  23
HETATM   23  N1  UNL     1      17.023  27.515 -19.523  1.00  0.00    -0.075 N 
ATOM     24  H13 UNL     1      16.622  27.106 -20.366  1.00  0.00     0.274 HD
ATOM     25  H12 UNL     1      17.386  28.371 -19.942  1.00  0.00     0.274 HD
ATOM     26  H11 UNL     1      17.759  26.936 -19.119  1.00  0.00     0.274 HD
ENDBRANCH   1  23
TORSDOF 2
ENDMDL
MODEL 3
REMARK VINA RESULT: -7.905966122      5.642      7.043
REMARK  2 active torsions:
REMARK  status: ('A' for Active; 'I' for Inactive)
REMARK    1  A    between atoms: N1_1  and  C1_5 
REMARK    2  A    between atoms: C8_15  and  C9_16 
ROOT
HETATM    1  C1  UNL     1      22.214  22.611 -15.138  1.00  0.00     0.188 C 
HETATM    2  C2  UNL     1      21.692  21.868 -13.941  1.00  0.00     0.037 C 
HETATM    3  C3  UNL     1      20.237  21.427 -14.153  1.00  0.00     0.043 C 
HETATM    4  C4  UNL     1      19.466  22.696 -14.277  1.00  0.00    -0.027 A 
HETATM    5  C5  UNL     1      18.397  22.958 -13.469  1.00  0.00     0.064 A 
HETATM    6 CL1  UNL     1      17.864  21.808 -12.247  1.00  0.00    -0.082 Cl
HETATM    7  C6  UNL     1      17.754  24.168 -13.658  1.00  0.00     0.079 A 
HETATM    8 CL2  UNL     1      16.383  24.507 -12.627  1.00  0.00    -0.081 Cl
HETATM    9  C7  UNL     1      18.190  25.071 -14.638  1.00  0.00     0.068 A 
HETATM   10 CL3  UNL     1      17.234  26.527 -14.770  1.00  0.00    -0.082 Cl
HETATM   11  C8  UNL     1      19.261  24.796 -15.438  1.00  0.00    -0.005 A 
HETATM   12  C14 UNL     1      19.917  23.568 -15.248  1.00  0.00    -0.036 A 
HETATM   13  C15 UNL     1      21.084  23.126 -16.022  1.00  0.00     0.072 C 
ENDROOT
BRANCH  11  14
HETATM   14  C9  UNL     1      19.787  25.681 -16.443  1.00  0.00     0.027 C 
HETATM   15  C10 UNL     1      19.410  25.880 -17.672  1.00  0.00     0.026 C 
HETATM   16  C11 UNL     1      18.336  25.324 -18.541  1.00  0.00     0.157 C 
HETATM   17  C13 UNL     1      20.063  26.862 -18.574  1.00  0.00     0.294 C 
HETATM   18  C12 UNL     1      18.013  26.452 -19.525  1.00  0.00     0.365 C 
HETATM   19  F1  UNL     1      18.026  25.981 -20.846  1.00  0.00    -0.175 F 
HETATM   20  F2  UNL     1      16.769  26.996 -19.307  1.00  0.00    -0.175 F 
HETATM   21  O1  UNL     1      19.070  27.368 -19.434  1.00  0.00    -0.247 OA
HETATM   22  O2  UNL     1      21.248  27.220 -18.620  1.00  0.00    -0.259 OA
ENDBRANCH  11  14
BRANCH   1  23
HETATM   23  N1  UNL     1      23.001  21.694 -15.945  1.00  0.00    -0.075 N 
ATOM     24  H13 UNL     1      22.426  21.140 -16.580  1.00  0.00     0.274 HD
ATOM     25  H12 UNL     1      23.562  22.174 -16.648  1.00  0.00     0.274 HD
ATOM     26  H11 UNL     1      23.565  21.116 -15.323  1.00  0.00     0.274 HD
ENDBRANCH   1  23
TORSDOF 2
ENDMDL
MODEL 4
REMARK VINA RESULT: -7.589051185      5.461      7.268
REMARK  2 active torsions:
REMARK  status: ('A' for Active; 'I' for Inactive)
REMARK    1  A    between atoms: N1_1  and  C1_5 
REMARK    2  A    between atoms: C8_15  and  C9_16 
ROOT
HETATM    1  C1  UNL     1      12.308  31.040 -17.336  1.00  0.00     0.188 C 
HETATM    2  C2  UNL     1      12.261  31.544 -15.921  1.00  0.00     0.037 C 
HETATM    3  C3  UNL     1      13.619  32.117 -15.492  1.00  0.00     0.043 C 
HETATM    4  C4  UNL     1      14.554  30.958 -15.535  1.00  0.00    -0.027 A 
HETATM    5  C5  UNL     1      15.293  30.602 -14.443  1.00  0.00     0.064 A 
HETATM    6 CL1  UNL     1      15.190  31.498 -12.931  1.00  0.00    -0.082 Cl
HETATM    7  C6  UNL     1      16.125  29.506 -14.583  1.00  0.00     0.079 A 
HETATM    8 CL2  UNL     1      17.074  29.047 -13.187  1.00  0.00    -0.081 Cl
HETATM    9  C7  UNL     1      16.197  28.805 -15.794  1.00  0.00     0.068 A 
HETATM   10 CL3  UNL     1      17.332  27.478 -15.807  1.00  0.00    -0.082 Cl
HETATM   11  C8  UNL     1      15.451  29.171 -16.878  1.00  0.00    -0.005 A 
HETATM   12  C14 UNL     1      14.604  30.284 -16.739  1.00  0.00    -0.036 A 
HETATM   13  C15 UNL     1      13.738  30.801 -17.806  1.00  0.00     0.072 C 
ENDROOT
BRANCH  11  14
HETATM   14  C9  UNL     1      15.446  28.487 -18.144  1.00  0.00     0.027 C 
HETATM   15  C10 UNL     1      16.433  28.073 -18.882  1.00  0.00     0.026 C 
HETATM   16  C11 UNL     1      17.917  28.111 -18.763  1.00  0.00     0.157 C 
HETATM   17  C13 UNL     1      16.242  27.355 -20.168  1.00  0.00     0.294 C 
HETATM   18  C12 UNL     1      18.399  26.879 -19.535  1.00  0.00     0.365 C 
HETATM   19  F1  UNL     1      19.403  27.224 -20.451  1.00  0.00    -0.175 F 
HETATM   20  F2  UNL     1      18.926  25.916 -18.707  1.00  0.00    -0.175 F 
HETATM   21  O1  UNL     1      17.309  26.448 -20.305  1.00  0.00    -0.247 OA
HETATM   22  O2  UNL     1      15.342  27.476 -21.009  1.00  0.00    -0.259 OA
ENDBRANCH  11  14
BRANCH   1  23
HETATM   23  N1  UNL     1      11.738  32.053 -18.208  1.00  0.00    -0.075 N 
ATOM     24  H13 UNL     1      11.104  31.659 -18.903  1.00  0.00     0.274 HD
ATOM     25  H12 UNL     1      11.064  32.648 -17.727  1.00  0.00     0.274 HD
ATOM     26  H11 UNL     1      12.499  32.585 -18.628  1.00  0.00     0.274 HD
ENDBRANCH   1  23
TORSDOF 2
ENDMDL
MODEL 5
REMARK VINA RESULT: -7.311887265      3.955      5.143
REMARK  2 active torsions:
REMARK  status: ('A' for Active; 'I' for Inactive)
REMARK    1  A    between atoms: N1_1  and  C1_5 
REMARK    2  A    between atoms: C8_15  and  C9_16 
ROOT
HETATM    1  C1  UNL     1      17.566  21.733 -11.905  1.00  0.00     0.188 C 
HETATM    2  C2  UNL     1      18.503  20.980 -12.807  1.00  0.00     0.037 C 
HETATM    3  C3  UNL     1      19.735  21.827 -13.157  1.00  0.00     0.043 C 
HETATM    4  C4  UNL     1      19.198  22.988 -13.921  1.00  0.00    -0.027 A 
HETATM    5  C5  UNL     1      19.663  23.293 -15.167  1.00  0.00     0.064 A 
HETATM    6 CL1  UNL     1      20.930  22.342 -15.935  1.00  0.00    -0.082 Cl
HETATM    7  C6  UNL     1      19.093  24.386 -15.796  1.00  0.00     0.079 A 
HETATM    8 CL2  UNL     1      19.687  24.782 -17.392  1.00  0.00    -0.081 Cl
HETATM    9  C7  UNL     1      18.087  25.134 -15.170  1.00  0.00     0.068 A 
HETATM   10 CL3  UNL     1      17.514  26.505 -16.087  1.00  0.00    -0.082 Cl
HETATM   11  C8  UNL     1      17.630  24.816 -13.922  1.00  0.00    -0.005 A 
HETATM   12  C14 UNL     1      18.207  23.707 -13.282  1.00  0.00    -0.036 A 
HETATM   13  C15 UNL     1      17.825  23.234 -11.945  1.00  0.00     0.072 C 
ENDROOT
BRANCH  11  14
HETATM   14  C9  UNL     1      16.583  25.516 -13.226  1.00  0.00     0.027 C 
HETATM   15  C10 UNL     1      15.399  25.116 -12.864  1.00  0.00     0.026 C 
HETATM   16  C11 UNL     1      14.639  23.842 -12.993  1.00  0.00     0.157 C 
HETATM   17  C13 UNL     1      14.442  25.976 -12.123  1.00  0.00     0.294 C 
HETATM   18  C12 UNL     1      13.698  23.830 -11.785  1.00  0.00     0.365 C 
HETATM   19  F1  UNL     1      12.380  23.562 -12.180  1.00  0.00    -0.175 F 
HETATM   20  F2  UNL     1      14.043  22.868 -10.864  1.00  0.00    -0.175 F 
HETATM   21  O1  UNL     1      13.689  25.138 -11.281  1.00  0.00    -0.247 OA
HETATM   22  O2  UNL     1      14.280  27.203 -12.181  1.00  0.00    -0.259 OA
ENDBRANCH  11  14
BRANCH   1  23
HETATM   23  N1  UNL     1      17.792  21.298 -10.537  1.00  0.00    -0.075 N 
ATOM     24  H13 UNL     1      17.596  20.306 -10.405  1.00  0.00     0.274 HD
ATOM     25  H12 UNL     1      18.781  21.280 -10.291  1.00  0.00     0.274 HD
ATOM     26  H11 UNL     1      17.245  21.892  -9.914  1.00  0.00     0.274 HD
ENDBRANCH   1  23
TORSDOF 2
ENDMDL
