MODEL 1
REMARK VINA RESULT: -9.835052626      0.000      0.000
REMARK  7 active torsions:
REMARK  status: ('A' for Active; 'I' for Inactive)
REMARK    1  A    between atoms: C2_2  and  C3_3 
REMARK    2  A    between atoms: C3_3  and  N1_4 
REMARK    3  A    between atoms: C5_6  and  C6_7 
REMARK    4  A    between atoms: C6_7  and  C8_10 
REMARK    5  A    between atoms: C8_10  and  S1_20 
REMARK    6  A    between atoms: C9_11  and  C10_12 
REMARK    7  A    between atoms: S1_20  and  C16_23 
ROOT
HETATM    1  C6  UNL     1     -21.386   1.892 -10.104  1.00  0.00     0.190 C 
HETATM    2  C7  UNL     1     -22.800   1.662 -10.365  1.00  0.00     0.075 C 
HETATM    3  N2  UNL     1     -23.945   1.501 -10.595  1.00  0.00    -0.196 NA
ENDROOT
BRANCH   1   4
HETATM    4  C5  UNL     1     -20.529   1.288 -11.147  1.00  0.00     0.067 A 
HETATM    5  C4  UNL     1     -19.897   1.932 -12.168  1.00  0.00     0.140 A 
HETATM    6  N1  UNL     1     -19.219   0.993 -12.891  1.00  0.00    -0.284 N 
HETATM    7  N4  UNL     1     -19.442  -0.172 -12.317  1.00  0.00    -0.240 N 
HETATM    8  N3  UNL     1     -20.228   0.002 -11.271  1.00  0.00    -0.287 N 
ATOM      9  H4  UNL     1     -19.067  -1.067 -12.632  1.00  0.00     0.208 HD
ATOM     10  H3  UNL     1     -20.555  -0.740 -10.652  1.00  0.00     0.188 HD
BRANCH   6  11
HETATM   11  C3  UNL     1     -18.406   1.287 -14.079  1.00  0.00     0.176 C 
BRANCH  11  12
HETATM   12  C2  UNL     1     -16.972   0.932 -13.800  1.00  0.00    -0.015 C 
HETATM   13  C1  UNL     1     -16.383  -0.095 -14.383  1.00  0.00     0.008 C 
ENDBRANCH  11  12
ENDBRANCH   6  11
ENDBRANCH   1   4
BRANCH   1  14
HETATM   14  C8  UNL     1     -21.049   1.539  -8.733  1.00  0.00     0.066 C 
HETATM   15  C9  UNL     1     -20.375   2.382  -7.974  1.00  0.00     0.032 C 
BRANCH  15  16
HETATM   16  C10 UNL     1     -19.872   3.701  -8.280  1.00  0.00    -0.032 A 
HETATM   17  C11 UNL     1     -19.199   4.380  -7.250  1.00  0.00     0.035 A 
HETATM   18  C12 UNL     1     -18.715   5.652  -7.383  1.00  0.00     0.036 A 
HETATM   19 CL1  UNL     1     -17.876   6.466  -6.065  1.00  0.00    -0.084 Cl
HETATM   20  C13 UNL     1     -18.869   6.345  -8.564  1.00  0.00     0.047 A 
HETATM   21  C14 UNL     1     -19.523   5.704  -9.581  1.00  0.00     0.036 A 
HETATM   22 CL2  UNL     1     -19.746   6.541 -11.096  1.00  0.00    -0.084 Cl
HETATM   23  C15 UNL     1     -20.015   4.406  -9.442  1.00  0.00     0.035 A 
ENDBRANCH  15  16
BRANCH  14  24
HETATM   24  S1  UNL     1     -21.463   0.026  -7.943  1.00  0.00     0.204 S 
HETATM   25  O1  UNL     1     -20.373  -0.291  -6.934  1.00  0.00    -0.217 OA
HETATM   26  O2  UNL     1     -21.651  -1.114  -8.853  1.00  0.00    -0.217 OA
BRANCH  24  27
HETATM   27  C16 UNL     1     -22.946   0.263  -7.060  1.00  0.00     0.064 A 
HETATM   28  C17 UNL     1     -24.130  -0.372  -7.380  1.00  0.00     0.024 A 
HETATM   29  C18 UNL     1     -25.296  -0.132  -6.654  1.00  0.00     0.002 A 
HETATM   30  C19 UNL     1     -25.310   0.740  -5.600  1.00  0.00     0.000 A 
HETATM   31  C20 UNL     1     -24.127   1.372  -5.282  1.00  0.00     0.002 A 
HETATM   32  C21 UNL     1     -22.974   1.137  -5.996  1.00  0.00     0.024 A 
ENDBRANCH  24  27
ENDBRANCH  14  24
ENDBRANCH   1  14
TORSDOF 7
ENDMDL
MODEL 2
REMARK VINA RESULT: -9.734893227      0.633      1.016
REMARK  7 active torsions:
REMARK  status: ('A' for Active; 'I' for Inactive)
REMARK    1  A    between atoms: C2_2  and  C3_3 
REMARK    2  A    between atoms: C3_3  and  N1_4 
REMARK    3  A    between atoms: C5_6  and  C6_7 
REMARK    4  A    between atoms: C6_7  and  C8_10 
REMARK    5  A    between atoms: C8_10  and  S1_20 
REMARK    6  A    between atoms: C9_11  and  C10_12 
REMARK    7  A    between atoms: S1_20  and  C16_23 
ROOT
HETATM    1  C6  UNL     1     -21.486   1.892 -10.094  1.00  0.00     0.190 C 
HETATM    2  C7  UNL     1     -22.904   1.648 -10.321  1.00  0.00     0.075 C 
HETATM    3  N2  UNL     1     -24.052   1.475 -10.524  1.00  0.00    -0.196 NA
ENDROOT
BRANCH   1   4
HETATM    4  C5  UNL     1     -20.649   1.308 -11.164  1.00  0.00     0.067 A 
HETATM    5  C4  UNL     1     -20.195   1.931 -12.286  1.00  0.00     0.140 A 
HETATM    6  N1  UNL     1     -19.463   1.021 -12.996  1.00  0.00    -0.284 N 
HETATM    7  N4  UNL     1     -19.483  -0.106 -12.314  1.00  0.00    -0.240 N 
HETATM    8  N3  UNL     1     -20.194   0.062 -11.215  1.00  0.00    -0.287 N 
ATOM      9  H4  UNL     1     -19.023  -0.973 -12.593  1.00  0.00     0.208 HD
ATOM     10  H3  UNL     1     -20.368  -0.656 -10.512  1.00  0.00     0.188 HD
BRANCH   6  11
HETATM   11  C3  UNL     1     -18.799   1.306 -14.275  1.00  0.00     0.176 C 
BRANCH  11  12
HETATM   12  C2  UNL     1     -19.383   2.556 -14.871  1.00  0.00    -0.015 C 
HETATM   13  C1  UNL     1     -19.518   2.709 -16.174  1.00  0.00     0.008 C 
ENDBRANCH  11  12
ENDBRANCH   6  11
ENDBRANCH   1   4
BRANCH   1  14
HETATM   14  C8  UNL     1     -21.110   1.531  -8.735  1.00  0.00     0.066 C 
HETATM   15  C9  UNL     1     -20.403   2.364  -7.996  1.00  0.00     0.032 C 
BRANCH  15  16
HETATM   16  C10 UNL     1     -19.894   3.678  -8.315  1.00  0.00    -0.032 A 
HETATM   17  C11 UNL     1     -19.207   4.360  -7.295  1.00  0.00     0.035 A 
HETATM   18  C12 UNL     1     -18.716   5.628  -7.439  1.00  0.00     0.036 A 
HETATM   19 CL1  UNL     1     -17.861   6.445  -6.134  1.00  0.00    -0.084 Cl
HETATM   20  C13 UNL     1     -18.877   6.314  -8.624  1.00  0.00     0.047 A 
HETATM   21  C14 UNL     1     -19.544   5.671  -9.630  1.00  0.00     0.036 A 
HETATM   22 CL2  UNL     1     -19.775   6.500 -11.150  1.00  0.00    -0.084 Cl
HETATM   23  C15 UNL     1     -20.043   4.377  -9.480  1.00  0.00     0.035 A 
ENDBRANCH  15  16
BRANCH  14  24
HETATM   24  S1  UNL     1     -21.518   0.022  -7.936  1.00  0.00     0.204 S 
HETATM   25  O1  UNL     1     -20.418  -0.292  -6.935  1.00  0.00    -0.217 OA
HETATM   26  O2  UNL     1     -21.712  -1.122  -8.840  1.00  0.00    -0.217 OA
BRANCH  24  27
HETATM   27  C16 UNL     1     -22.993   0.262  -7.041  1.00  0.00     0.064 A 
HETATM   28  C17 UNL     1     -24.180  -0.373  -7.350  1.00  0.00     0.024 A 
HETATM   29  C18 UNL     1     -25.339  -0.131  -6.615  1.00  0.00     0.002 A 
HETATM   30  C19 UNL     1     -25.344   0.743  -5.563  1.00  0.00     0.000 A 
HETATM   31  C20 UNL     1     -24.158   1.375  -5.256  1.00  0.00     0.002 A 
HETATM   32  C21 UNL     1     -23.011   1.138  -5.979  1.00  0.00     0.024 A 
ENDBRANCH  24  27
ENDBRANCH  14  24
ENDBRANCH   1  14
TORSDOF 7
ENDMDL
MODEL 3
REMARK VINA RESULT: -9.489388574      4.049      7.524
REMARK  7 active torsions:
REMARK  status: ('A' for Active; 'I' for Inactive)
REMARK    1  A    between atoms: C2_2  and  C3_3 
REMARK    2  A    between atoms: C3_3  and  N1_4 
REMARK    3  A    between atoms: C5_6  and  C6_7 
REMARK    4  A    between atoms: C6_7  and  C8_10 
REMARK    5  A    between atoms: C8_10  and  S1_20 
REMARK    6  A    between atoms: C9_11  and  C10_12 
REMARK    7  A    between atoms: S1_20  and  C16_23 
ROOT
HETATM    1  C6  UNL     1     -20.535   4.253 -10.835  1.00  0.00     0.190 C 
HETATM    2  C7  UNL     1     -20.680   5.400 -11.721  1.00  0.00     0.075 C 
HETATM    3  N2  UNL     1     -20.822   6.338 -12.421  1.00  0.00    -0.196 NA
ENDROOT
BRANCH   1   4
HETATM    4  C5  UNL     1     -19.722   4.580  -9.642  1.00  0.00     0.067 A 
HETATM    5  C4  UNL     1     -20.032   4.326  -8.341  1.00  0.00     0.140 A 
HETATM    6  N1  UNL     1     -19.005   4.795  -7.574  1.00  0.00    -0.284 N 
HETATM    7  N4  UNL     1     -18.114   5.313  -8.395  1.00  0.00    -0.240 N 
HETATM    8  N3  UNL     1     -18.541   5.186  -9.637  1.00  0.00    -0.287 N 
ATOM      9  H4  UNL     1     -17.233   5.744  -8.115  1.00  0.00     0.208 HD
ATOM     10  H3  UNL     1     -18.041   5.505 -10.466  1.00  0.00     0.188 HD
BRANCH   6  11
HETATM   11  C3  UNL     1     -18.957   4.710  -6.107  1.00  0.00     0.176 C 
BRANCH  11  12
HETATM   12  C2  UNL     1     -18.167   5.870  -5.568  1.00  0.00    -0.015 C 
HETATM   13  C1  UNL     1     -17.789   5.928  -4.306  1.00  0.00     0.008 C 
ENDBRANCH  11  12
ENDBRANCH   6  11
ENDBRANCH   1   4
BRANCH   1  14
HETATM   14  C8  UNL     1     -20.114   3.075 -11.578  1.00  0.00     0.066 C 
HETATM   15  C9  UNL     1     -20.733   1.923 -11.407  1.00  0.00     0.032 C 
BRANCH  15  16
HETATM   16  C10 UNL     1     -21.846   1.591 -10.548  1.00  0.00    -0.032 A 
HETATM   17  C11 UNL     1     -21.554   0.865  -9.380  1.00  0.00     0.035 A 
HETATM   18  C12 UNL     1     -22.513   0.439  -8.502  1.00  0.00     0.036 A 
HETATM   19 CL1  UNL     1     -22.102  -0.469  -7.051  1.00  0.00    -0.084 Cl
HETATM   20  C13 UNL     1     -23.845   0.712  -8.728  1.00  0.00     0.047 A 
HETATM   21  C14 UNL     1     -24.153   1.417  -9.859  1.00  0.00     0.036 A 
HETATM   22 CL2  UNL     1     -25.827   1.785 -10.192  1.00  0.00    -0.084 Cl
HETATM   23  C15 UNL     1     -23.172   1.850 -10.752  1.00  0.00     0.035 A 
ENDBRANCH  15  16
BRANCH  14  24
HETATM   24  S1  UNL     1     -18.795   3.023 -12.737  1.00  0.00     0.204 S 
HETATM   25  O1  UNL     1     -18.074   1.696 -12.569  1.00  0.00    -0.217 OA
HETATM   26  O2  UNL     1     -17.834   4.132 -12.628  1.00  0.00    -0.217 OA
BRANCH  24  27
HETATM   27  C16 UNL     1     -19.479   3.053 -14.339  1.00  0.00     0.064 A 
HETATM   28  C17 UNL     1     -19.756   4.221 -15.024  1.00  0.00     0.024 A 
HETATM   29  C18 UNL     1     -20.323   4.192 -16.297  1.00  0.00     0.002 A 
HETATM   30  C19 UNL     1     -20.625   3.008 -16.913  1.00  0.00     0.000 A 
HETATM   31  C20 UNL     1     -20.347   1.845 -16.229  1.00  0.00     0.002 A 
HETATM   32  C21 UNL     1     -19.786   1.870 -14.971  1.00  0.00     0.024 A 
ENDBRANCH  24  27
ENDBRANCH  14  24
ENDBRANCH   1  14
TORSDOF 7
ENDMDL
MODEL 4
REMARK VINA RESULT: -9.479948923      0.370      1.647
REMARK  7 active torsions:
REMARK  status: ('A' for Active; 'I' for Inactive)
REMARK    1  A    between atoms: C2_2  and  C3_3 
REMARK    2  A    between atoms: C3_3  and  N1_4 
REMARK    3  A    between atoms: C5_6  and  C6_7 
REMARK    4  A    between atoms: C6_7  and  C8_10 
REMARK    5  A    between atoms: C8_10  and  S1_20 
REMARK    6  A    between atoms: C9_11  and  C10_12 
REMARK    7  A    between atoms: S1_20  and  C16_23 
ROOT
HETATM    1  C6  UNL     1     -21.393   1.914 -10.147  1.00  0.00     0.190 C 
HETATM    2  C7  UNL     1     -22.808   1.680 -10.401  1.00  0.00     0.075 C 
HETATM    3  N2  UNL     1     -23.953   1.515 -10.626  1.00  0.00    -0.196 NA
ENDROOT
BRANCH   1   4
HETATM    4  C5  UNL     1     -20.538   1.285 -11.177  1.00  0.00     0.067 A 
HETATM    5  C4  UNL     1     -19.887   1.906 -12.198  1.00  0.00     0.140 A 
HETATM    6  N1  UNL     1     -19.219   0.948 -12.906  1.00  0.00    -0.284 N 
HETATM    7  N4  UNL     1     -19.467  -0.206 -12.321  1.00  0.00    -0.240 N 
HETATM    8  N3  UNL     1     -20.258  -0.008 -11.284  1.00  0.00    -0.287 N 
ATOM      9  H4  UNL     1     -19.105  -1.111 -12.624  1.00  0.00     0.208 HD
ATOM     10  H3  UNL     1     -20.603  -0.738 -10.660  1.00  0.00     0.188 HD
BRANCH   6  11
HETATM   11  C3  UNL     1     -18.392   1.215 -14.090  1.00  0.00     0.176 C 
BRANCH  11  12
HETATM   12  C2  UNL     1     -16.949   0.953 -13.757  1.00  0.00    -0.015 C 
HETATM   13  C1  UNL     1     -16.316  -0.117 -14.199  1.00  0.00     0.008 C 
ENDBRANCH  11  12
ENDBRANCH   6  11
ENDBRANCH   1   4
BRANCH   1  14
HETATM   14  C8  UNL     1     -21.055   1.594  -8.769  1.00  0.00     0.066 C 
HETATM   15  C9  UNL     1     -20.397   2.462  -8.025  1.00  0.00     0.032 C 
BRANCH  15  16
HETATM   16  C10 UNL     1     -19.914   3.783  -8.356  1.00  0.00    -0.032 A 
HETATM   17  C11 UNL     1     -20.296   4.307  -9.603  1.00  0.00     0.035 A 
HETATM   18  C12 UNL     1     -19.873   5.521 -10.068  1.00  0.00     0.036 A 
HETATM   19 CL1  UNL     1     -20.377   6.139 -11.638  1.00  0.00    -0.084 Cl
HETATM   20  C13 UNL     1     -19.030   6.309  -9.314  1.00  0.00     0.047 A 
HETATM   21  C14 UNL     1     -18.643   5.819  -8.096  1.00  0.00     0.036 A 
HETATM   22 CL2  UNL     1     -17.573   6.778  -7.105  1.00  0.00    -0.084 Cl
HETATM   23  C15 UNL     1     -19.077   4.580  -7.625  1.00  0.00     0.035 A 
ENDBRANCH  15  16
BRANCH  14  24
HETATM   24  S1  UNL     1     -21.447   0.091  -7.950  1.00  0.00     0.204 S 
HETATM   25  O1  UNL     1     -20.339  -0.205  -6.953  1.00  0.00    -0.217 OA
HETATM   26  O2  UNL     1     -21.641  -1.064  -8.840  1.00  0.00    -0.217 OA
BRANCH  24  27
HETATM   27  C16 UNL     1     -22.918   0.332  -7.048  1.00  0.00     0.064 A 
HETATM   28  C17 UNL     1     -24.112  -0.287  -7.364  1.00  0.00     0.024 A 
HETATM   29  C18 UNL     1     -25.267  -0.045  -6.622  1.00  0.00     0.002 A 
HETATM   30  C19 UNL     1     -25.262   0.814  -5.557  1.00  0.00     0.000 A 
HETATM   31  C20 UNL     1     -24.069   1.430  -5.244  1.00  0.00     0.002 A 
HETATM   32  C21 UNL     1     -22.925   1.193  -5.974  1.00  0.00     0.024 A 
ENDBRANCH  24  27
ENDBRANCH  14  24
ENDBRANCH   1  14
TORSDOF 7
ENDMDL
MODEL 5
REMARK VINA RESULT: -9.468378774      4.022      7.604
REMARK  7 active torsions:
REMARK  status: ('A' for Active; 'I' for Inactive)
REMARK    1  A    between atoms: C2_2  and  C3_3 
REMARK    2  A    between atoms: C3_3  and  N1_4 
REMARK    3  A    between atoms: C5_6  and  C6_7 
REMARK    4  A    between atoms: C6_7  and  C8_10 
REMARK    5  A    between atoms: C8_10  and  S1_20 
REMARK    6  A    between atoms: C9_11  and  C10_12 
REMARK    7  A    between atoms: S1_20  and  C16_23 
ROOT
HETATM    1  C6  UNL     1     -20.414   4.289 -10.661  1.00  0.00     0.190 C 
HETATM    2  C7  UNL     1     -20.582   5.417 -11.566  1.00  0.00     0.075 C 
HETATM    3  N2  UNL     1     -20.742   6.340 -12.282  1.00  0.00    -0.196 NA
ENDROOT
BRANCH   1   4
HETATM    4  C5  UNL     1     -19.597   4.648  -9.481  1.00  0.00     0.067 A 
HETATM    5  C4  UNL     1     -19.902   4.432  -8.172  1.00  0.00     0.140 A 
HETATM    6  N1  UNL     1     -18.872   4.922  -7.421  1.00  0.00    -0.284 N 
HETATM    7  N4  UNL     1     -17.983   5.414  -8.260  1.00  0.00    -0.240 N 
HETATM    8  N3  UNL     1     -18.415   5.252  -9.497  1.00  0.00    -0.287 N 
ATOM      9  H4  UNL     1     -17.100   5.851  -7.996  1.00  0.00     0.208 HD
ATOM     10  H3  UNL     1     -17.917   5.546 -10.337  1.00  0.00     0.188 HD
BRANCH   6  11
HETATM   11  C3  UNL     1     -18.819   4.879  -5.954  1.00  0.00     0.176 C 
BRANCH  11  12
HETATM   12  C2  UNL     1     -17.958   6.006  -5.455  1.00  0.00    -0.015 C 
HETATM   13  C1  UNL     1     -17.907   6.330  -4.177  1.00  0.00     0.008 C 
ENDBRANCH  11  12
ENDBRANCH   6  11
ENDBRANCH   1   4
BRANCH   1  14
HETATM   14  C8  UNL     1     -19.983   3.103 -11.385  1.00  0.00     0.066 C 
HETATM   15  C9  UNL     1     -20.541   1.933 -11.140  1.00  0.00     0.032 C 
BRANCH  15  16
HETATM   16  C10 UNL     1     -21.589   1.587 -10.209  1.00  0.00    -0.032 A 
HETATM   17  C11 UNL     1     -22.913   1.781 -10.640  1.00  0.00     0.035 A 
HETATM   18  C12 UNL     1     -24.002   1.543  -9.847  1.00  0.00     0.036 A 
HETATM   19 CL1  UNL     1     -25.645   1.800 -10.428  1.00  0.00    -0.084 Cl
HETATM   20  C13 UNL     1     -23.847   1.091  -8.554  1.00  0.00     0.047 A 
HETATM   21  C14 UNL     1     -22.567   0.896  -8.113  1.00  0.00     0.036 A 
HETATM   22 CL2  UNL     1     -22.318   0.326  -6.482  1.00  0.00    -0.084 Cl
HETATM   23  C15 UNL     1     -21.459   1.139  -8.924  1.00  0.00     0.035 A 
ENDBRANCH  15  16
BRANCH  14  24
HETATM   24  S1  UNL     1     -18.729   3.064 -12.614  1.00  0.00     0.204 S 
HETATM   25  O1  UNL     1     -17.986   1.745 -12.485  1.00  0.00    -0.217 OA
HETATM   26  O2  UNL     1     -17.775   4.183 -12.558  1.00  0.00    -0.217 OA
BRANCH  24  27
HETATM   27  C16 UNL     1     -19.499   3.085 -14.177  1.00  0.00     0.064 A 
HETATM   28  C17 UNL     1     -19.717   4.243 -14.899  1.00  0.00     0.024 A 
HETATM   29  C18 UNL     1     -20.357   4.209 -16.137  1.00  0.00     0.002 A 
HETATM   30  C19 UNL     1     -20.791   3.031 -16.681  1.00  0.00     0.000 A 
HETATM   31  C20 UNL     1     -20.572   1.878 -15.958  1.00  0.00     0.002 A 
HETATM   32  C21 UNL     1     -19.940   1.907 -14.735  1.00  0.00     0.024 A 
ENDBRANCH  24  27
ENDBRANCH  14  24
ENDBRANCH   1  14
TORSDOF 7
ENDMDL
