MODEL 1
REMARK VINA RESULT: -8.536049881      0.000      0.000
REMARK  13 active torsions:
REMARK  status: ('A' for Active; 'I' for Inactive)
REMARK    1  A    between atoms: C4_5  and  C5_6 
REMARK    2  A    between atoms: C5_6  and  C6_7 
REMARK    3  A    between atoms: C6_7  and  O3_9 
REMARK    4  A    between atoms: C8_11  and  O4_12 
REMARK    5  A    between atoms: C10_15  and  O5_16 
REMARK    6  A    between atoms: O5_16  and  C11_17 
REMARK    7  A    between atoms: C11_17  and  C12_19 
REMARK    8  A    between atoms: C12_19  and  C13_20 
REMARK    9  A    between atoms: C14_22  and  C16_24 
REMARK   10  A    between atoms: C17_25  and  C18_26 
REMARK   11  A    between atoms: C23_31  and  C24_32 
REMARK   12  A    between atoms: C27_35  and  O7_36 
REMARK   13  A    between atoms: C28_38  and  O8_39 
ROOT
HETATM    1  C12 UNL     1      33.788 -13.434  11.889  1.00  0.00     0.037 C 
HETATM    2  C14 UNL     1      33.368 -14.697  11.751  1.00  0.00    -0.049 C 
HETATM    3  C15 UNL     1      32.954 -15.146  10.396  1.00  0.00     0.049 C 
ENDROOT
BRANCH   1   4
HETATM    4  C11 UNL     1      33.858 -12.500  10.791  1.00  0.00     0.291 C 
HETATM    5  O6  UNL     1      34.999 -12.220  10.315  1.00  0.00    -0.260 OA
BRANCH   4   6
HETATM    6  O5  UNL     1      32.802 -11.853  10.178  1.00  0.00    -0.312 OA
BRANCH   6   7
HETATM    7  C10 UNL     1      32.361 -10.561  10.533  1.00  0.00     0.139 C 
HETATM    8  C9  UNL     1      33.439  -9.580  10.827  1.00  0.00     0.072 C 
HETATM    9  C8  UNL     1      34.022  -8.959   9.615  1.00  0.00     0.079 C 
HETATM   10  C4  UNL     1      35.233  -8.109   9.822  1.00  0.00     0.104 C 
HETATM   11  C35 UNL     1      32.972  -8.041   9.004  1.00  0.00     0.057 C 
HETATM   12  C3  UNL     1      34.767  -6.706   9.706  1.00  0.00     0.162 C 
HETATM   13  C2  UNL     1      33.671  -6.770   8.711  1.00  0.00    -0.014 C 
HETATM   14  O1  UNL     1      35.158  -5.648  10.285  1.00  0.00    -0.292 OA
HETATM   15  C1  UNL     1      33.367  -5.909   7.788  1.00  0.00     0.023 C 
HETATM   16  C34 UNL     1      32.326  -8.642   7.804  1.00  0.00     0.013 C 
HETATM   17  C33 UNL     1      31.682  -9.957   8.170  1.00  0.00     0.007 C 
HETATM   18  C31 UNL     1      31.282 -10.070   9.598  1.00  0.00     0.011 C 
HETATM   19  C32 UNL     1      30.199 -11.164   9.642  1.00  0.00     0.012 C 
BRANCH   9  20
HETATM   20  O4  UNL     1      34.374  -9.972   8.698  1.00  0.00    -0.388 OA
ATOM     21  H4  UNL     1      33.580 -10.446   8.484  1.00  0.00     0.210 HD
ENDBRANCH   9  20
BRANCH  10  22
HETATM   22  C5  UNL     1      36.067  -8.407  10.996  1.00  0.00     0.126 C 
BRANCH  22  23
HETATM   23  C6  UNL     1      36.981  -9.537  10.716  1.00  0.00     0.259 C 
HETATM   24  O2  UNL     1      37.178  -9.896   9.525  1.00  0.00    -0.265 OA
BRANCH  23  25
HETATM   25  O3  UNL     1      37.642 -10.227  11.729  1.00  0.00    -0.326 OA
HETATM   26  C7  UNL     1      38.020  -9.497  12.878  1.00  0.00     0.213 C 
ENDBRANCH  23  25
ENDBRANCH  22  23
ENDBRANCH  10  22
ENDBRANCH   6   7
ENDBRANCH   4   6
ENDBRANCH   1   4
BRANCH   1  27
HETATM   27  C13 UNL     1      34.198 -12.894  13.229  1.00  0.00     0.160 C 
HETATM   28 CL1  UNL     1      32.884 -11.827  13.773  1.00  0.00    -0.125 Cl
ENDBRANCH   1  27
BRANCH   2  29
HETATM   29  C16 UNL     1      33.422 -15.653  12.844  1.00  0.00     0.004 C 
HETATM   30  C17 UNL     1      32.866 -15.421  14.160  1.00  0.00    -0.021 C 
BRANCH  30  31
HETATM   31  C18 UNL     1      31.438 -15.119  14.431  1.00  0.00     0.015 C 
HETATM   32  C19 UNL     1      31.149 -14.992  15.868  1.00  0.00     0.009 C 
HETATM   33  C20 UNL     1      30.066 -15.963  16.246  1.00  0.00     0.005 C 
HETATM   34  C21 UNL     1      29.824 -16.771  15.034  1.00  0.00    -0.011 C 
HETATM   35  C22 UNL     1      30.203 -18.232  15.201  1.00  0.00     0.010 C 
HETATM   36  C23 UNL     1      30.499 -16.118  13.878  1.00  0.00     0.031 C 
BRANCH  36  37
HETATM   37  C24 UNL     1      29.528 -15.582  12.857  1.00  0.00     0.065 C 
HETATM   38  C25 UNL     1      29.723 -16.200  11.495  1.00  0.00     0.046 C 
HETATM   39  C26 UNL     1      28.142 -16.027  13.298  1.00  0.00     0.072 C 
HETATM   40  C27 UNL     1      27.208 -15.622  12.172  1.00  0.00     0.152 C 
HETATM   41  C28 UNL     1      27.291 -14.132  12.063  1.00  0.00     0.175 C 
HETATM   42  C29 UNL     1      28.667 -13.561  12.104  1.00  0.00     0.149 C 
HETATM   43  C30 UNL     1      28.532 -12.143  12.689  1.00  0.00     0.042 C 
HETATM   44  O9  UNL     1      29.577 -14.219  12.886  1.00  0.00    -0.372 OA
BRANCH  40  45
HETATM   45  O7  UNL     1      25.911 -15.945  12.607  1.00  0.00    -0.393 OA
ATOM     46  H7  UNL     1      25.760 -15.429  13.391  1.00  0.00     0.210 HD
ENDBRANCH  40  45
BRANCH  41  47
HETATM   47  O8  UNL     1      26.689 -13.704  10.866  1.00  0.00    -0.390 OA
ATOM     48  H8  UNL     1      27.332 -13.275  10.315  1.00  0.00     0.210 HD
ENDBRANCH  41  47
ENDBRANCH  36  37
ENDBRANCH  30  31
ENDBRANCH   2  29
TORSDOF 13
ENDMDL
MODEL 2
REMARK VINA RESULT: -8.264373585      2.160      3.682
REMARK  13 active torsions:
REMARK  status: ('A' for Active; 'I' for Inactive)
REMARK    1  A    between atoms: C4_5  and  C5_6 
REMARK    2  A    between atoms: C5_6  and  C6_7 
REMARK    3  A    between atoms: C6_7  and  O3_9 
REMARK    4  A    between atoms: C8_11  and  O4_12 
REMARK    5  A    between atoms: C10_15  and  O5_16 
REMARK    6  A    between atoms: O5_16  and  C11_17 
REMARK    7  A    between atoms: C11_17  and  C12_19 
REMARK    8  A    between atoms: C12_19  and  C13_20 
REMARK    9  A    between atoms: C14_22  and  C16_24 
REMARK   10  A    between atoms: C17_25  and  C18_26 
REMARK   11  A    between atoms: C23_31  and  C24_32 
REMARK   12  A    between atoms: C27_35  and  O7_36 
REMARK   13  A    between atoms: C28_38  and  O8_39 
ROOT
HETATM    1  C12 UNL     1      33.285 -14.033  11.914  1.00  0.00     0.037 C 
HETATM    2  C14 UNL     1      33.560 -14.243  13.207  1.00  0.00    -0.049 C 
HETATM    3  C15 UNL     1      34.953 -14.003  13.666  1.00  0.00     0.049 C 
ENDROOT
BRANCH   1   4
HETATM    4  C11 UNL     1      34.269 -13.586  10.958  1.00  0.00     0.291 C 
HETATM    5  O6  UNL     1      34.994 -14.459  10.392  1.00  0.00    -0.260 OA
BRANCH   4   6
HETATM    6  O5  UNL     1      34.528 -12.284  10.574  1.00  0.00    -0.312 OA
BRANCH   6   7
HETATM    7  C10 UNL     1      34.195 -11.156  11.352  1.00  0.00     0.139 C 
HETATM    8  C9  UNL     1      35.266 -10.677  12.267  1.00  0.00     0.072 C 
HETATM    9  C8  UNL     1      36.274  -9.820  11.602  1.00  0.00     0.079 C 
HETATM   10  C4  UNL     1      37.475  -9.459  12.412  1.00  0.00     0.104 C 
HETATM   11  C35 UNL     1      35.606  -8.499  11.243  1.00  0.00     0.057 C 
HETATM   12  C3  UNL     1      37.279  -8.048  12.822  1.00  0.00     0.162 C 
HETATM   13  C2  UNL     1      36.540  -7.442  11.690  1.00  0.00    -0.014 C 
HETATM   14  O1  UNL     1      37.627  -7.429  13.873  1.00  0.00    -0.292 OA
HETATM   15  C1  UNL     1      36.661  -6.249  11.192  1.00  0.00     0.023 C 
HETATM   16  C34 UNL     1      35.273  -8.410   9.793  1.00  0.00     0.013 C 
HETATM   17  C33 UNL     1      34.362  -9.549   9.404  1.00  0.00     0.007 C 
HETATM   18  C31 UNL     1      33.535 -10.084  10.518  1.00  0.00     0.011 C 
HETATM   19  C32 UNL     1      32.342 -10.790   9.848  1.00  0.00     0.012 C 
BRANCH   9  20
HETATM   20  O4  UNL     1      36.734 -10.464  10.435  1.00  0.00    -0.388 OA
ATOM     21  H4  UNL     1      35.977 -10.619   9.882  1.00  0.00     0.210 HD
ENDBRANCH   9  20
BRANCH  10  22
HETATM   22  C5  UNL     1      37.860 -10.386  13.487  1.00  0.00     0.126 C 
BRANCH  22  23
HETATM   23  C6  UNL     1      39.330 -10.400  13.665  1.00  0.00     0.259 C 
HETATM   24  O2  UNL     1      39.817 -10.726  14.781  1.00  0.00    -0.265 OA
BRANCH  23  25
HETATM   25  O3  UNL     1      40.207 -10.067  12.636  1.00  0.00    -0.326 OA
HETATM   26  C7  UNL     1      41.025 -11.094  12.116  1.00  0.00     0.213 C 
ENDBRANCH  23  25
ENDBRANCH  22  23
ENDBRANCH  10  22
ENDBRANCH   6   7
ENDBRANCH   4   6
ENDBRANCH   1   4
BRANCH   1  27
HETATM   27  C13 UNL     1      31.909 -14.277  11.364  1.00  0.00     0.160 C 
HETATM   28 CL1  UNL     1      31.919 -15.917  10.675  1.00  0.00    -0.125 Cl
ENDBRANCH   1  27
BRANCH   2  29
HETATM   29  C16 UNL     1      32.527 -14.574  14.173  1.00  0.00     0.004 C 
HETATM   30  C17 UNL     1      31.755 -13.596  14.911  1.00  0.00    -0.021 C 
BRANCH  30  31
HETATM   31  C18 UNL     1      30.905 -12.550  14.289  1.00  0.00     0.015 C 
HETATM   32  C19 UNL     1      31.539 -11.222  14.303  1.00  0.00     0.009 C 
HETATM   33  C20 UNL     1      30.635 -10.246  15.001  1.00  0.00     0.005 C 
HETATM   34  C21 UNL     1      29.519 -11.055  15.530  1.00  0.00    -0.011 C 
HETATM   35  C22 UNL     1      29.470 -11.088  17.047  1.00  0.00     0.010 C 
HETATM   36  C23 UNL     1      29.573 -12.410  14.915  1.00  0.00     0.031 C 
BRANCH  36  37
HETATM   37  C24 UNL     1      28.407 -12.686  13.999  1.00  0.00     0.065 C 
HETATM   38  C25 UNL     1      27.078 -12.542  14.699  1.00  0.00     0.046 C 
HETATM   39  C26 UNL     1      28.417 -11.594  12.940  1.00  0.00     0.072 C 
HETATM   40  C27 UNL     1      27.144 -11.796  12.137  1.00  0.00     0.152 C 
HETATM   41  C28 UNL     1      27.241 -13.154  11.518  1.00  0.00     0.175 C 
HETATM   42  C29 UNL     1      27.706 -14.242  12.425  1.00  0.00     0.149 C 
HETATM   43  C30 UNL     1      28.401 -15.284  11.531  1.00  0.00     0.042 C 
HETATM   44  O9  UNL     1      28.612 -13.888  13.387  1.00  0.00    -0.372 OA
BRANCH  40  45
HETATM   45  O7  UNL     1      27.186 -10.850  11.098  1.00  0.00    -0.393 OA
ATOM     46  H7  UNL     1      26.638 -11.198  10.404  1.00  0.00     0.210 HD
ENDBRANCH  40  45
BRANCH  41  47
HETATM   47  O8  UNL     1      25.989 -13.537  11.002  1.00  0.00    -0.390 OA
ATOM     48  H8  UNL     1      25.397 -12.794  11.002  1.00  0.00     0.210 HD
ENDBRANCH  41  47
ENDBRANCH  36  37
ENDBRANCH  30  31
ENDBRANCH   2  29
TORSDOF 13
ENDMDL
MODEL 3
REMARK VINA RESULT: -8.002657543      1.835      2.608
REMARK  13 active torsions:
REMARK  status: ('A' for Active; 'I' for Inactive)
REMARK    1  A    between atoms: C4_5  and  C5_6 
REMARK    2  A    between atoms: C5_6  and  C6_7 
REMARK    3  A    between atoms: C6_7  and  O3_9 
REMARK    4  A    between atoms: C8_11  and  O4_12 
REMARK    5  A    between atoms: C10_15  and  O5_16 
REMARK    6  A    between atoms: O5_16  and  C11_17 
REMARK    7  A    between atoms: C11_17  and  C12_19 
REMARK    8  A    between atoms: C12_19  and  C13_20 
REMARK    9  A    between atoms: C14_22  and  C16_24 
REMARK   10  A    between atoms: C17_25  and  C18_26 
REMARK   11  A    between atoms: C23_31  and  C24_32 
REMARK   12  A    between atoms: C27_35  and  O7_36 
REMARK   13  A    between atoms: C28_38  and  O8_39 
ROOT
HETATM    1  C12 UNL     1      33.477 -12.595  12.621  1.00  0.00     0.037 C 
HETATM    2  C14 UNL     1      32.461 -13.295  13.137  1.00  0.00    -0.049 C 
HETATM    3  C15 UNL     1      31.514 -13.942  12.192  1.00  0.00     0.049 C 
ENDROOT
BRANCH   1   4
HETATM    4  C11 UNL     1      33.694 -12.444  11.202  1.00  0.00     0.291 C 
HETATM    5  O6  UNL     1      34.686 -13.037  10.681  1.00  0.00    -0.260 OA
BRANCH   4   6
HETATM    6  O5  UNL     1      32.930 -11.709  10.315  1.00  0.00    -0.312 OA
BRANCH   6   7
HETATM    7  C10 UNL     1      32.461 -10.405  10.578  1.00  0.00     0.139 C 
HETATM    8  C9  UNL     1      33.517  -9.391  10.839  1.00  0.00     0.072 C 
HETATM    9  C8  UNL     1      34.125  -8.836   9.608  1.00  0.00     0.079 C 
HETATM   10  C4  UNL     1      35.317  -7.956   9.795  1.00  0.00     0.104 C 
HETATM   11  C35 UNL     1      33.079  -7.974   8.913  1.00  0.00     0.057 C 
HETATM   12  C3  UNL     1      34.835  -6.571   9.580  1.00  0.00     0.162 C 
HETATM   13  C2  UNL     1      33.768  -6.712   8.562  1.00  0.00    -0.014 C 
HETATM   14  O1  UNL     1      35.195  -5.472  10.103  1.00  0.00    -0.292 OA
HETATM   15  C1  UNL     1      33.478  -5.915   7.579  1.00  0.00     0.023 C 
HETATM   16  C34 UNL     1      32.475  -8.658   7.735  1.00  0.00     0.013 C 
HETATM   17  C33 UNL     1      31.840  -9.958   8.165  1.00  0.00     0.007 C 
HETATM   18  C31 UNL     1      31.401  -9.989   9.586  1.00  0.00     0.011 C 
HETATM   19  C32 UNL     1      30.334 -11.095   9.667  1.00  0.00     0.012 C 
BRANCH   9  20
HETATM   20  O4  UNL     1      34.516  -9.897   8.765  1.00  0.00    -0.388 OA
ATOM     21  H4  UNL     1      33.838 -10.000   8.108  1.00  0.00     0.210 HD
ENDBRANCH   9  20
BRANCH  10  22
HETATM   22  C5  UNL     1      36.122  -8.169  11.007  1.00  0.00     0.126 C 
BRANCH  22  23
HETATM   23  C6  UNL     1      36.841  -9.461  10.939  1.00  0.00     0.259 C 
HETATM   24  O2  UNL     1      37.212  -9.907   9.821  1.00  0.00    -0.265 OA
BRANCH  23  25
HETATM   25  O3  UNL     1      37.128 -10.212  12.076  1.00  0.00    -0.326 OA
HETATM   26  C7  UNL     1      38.313  -9.904  12.780  1.00  0.00     0.213 C 
ENDBRANCH  23  25
ENDBRANCH  22  23
ENDBRANCH  10  22
ENDBRANCH   6   7
ENDBRANCH   4   6
ENDBRANCH   1   4
BRANCH   1  27
HETATM   27  C13 UNL     1      34.462 -11.889  13.507  1.00  0.00     0.160 C 
HETATM   28 CL1  UNL     1      35.454 -13.151  14.273  1.00  0.00    -0.125 Cl
ENDBRANCH   1  27
BRANCH   2  29
HETATM   29  C16 UNL     1      32.333 -13.535  14.564  1.00  0.00     0.004 C 
HETATM   30  C17 UNL     1      31.852 -12.557  15.517  1.00  0.00    -0.021 C 
BRANCH  30  31
HETATM   31  C18 UNL     1      30.518 -11.909  15.458  1.00  0.00     0.015 C 
HETATM   32  C19 UNL     1      30.453 -10.672  16.251  1.00  0.00     0.009 C 
HETATM   33  C20 UNL     1      29.340 -10.781  17.255  1.00  0.00     0.005 C 
HETATM   34  C21 UNL     1      28.843 -12.165  17.139  1.00  0.00    -0.011 C 
HETATM   35  C22 UNL     1      29.086 -12.997  18.386  1.00  0.00     0.010 C 
HETATM   36  C23 UNL     1      29.409 -12.779  15.906  1.00  0.00     0.031 C 
BRANCH  36  37
HETATM   37  C24 UNL     1      28.362 -13.065  14.859  1.00  0.00     0.065 C 
HETATM   38  C25 UNL     1      26.960 -12.836  15.367  1.00  0.00     0.046 C 
HETATM   39  C26 UNL     1      28.557 -12.037  13.755  1.00  0.00     0.072 C 
HETATM   40  C27 UNL     1      27.393 -12.240  12.802  1.00  0.00     0.152 C 
HETATM   41  C28 UNL     1      27.512 -13.634  12.272  1.00  0.00     0.175 C 
HETATM   42  C29 UNL     1      27.808 -14.684  13.289  1.00  0.00     0.149 C 
HETATM   43  C30 UNL     1      28.570 -15.800  12.551  1.00  0.00     0.042 C 
HETATM   44  O9  UNL     1      28.594 -14.307  14.343  1.00  0.00    -0.372 OA
BRANCH  40  45
HETATM   45  O7  UNL     1      27.610 -11.358  11.729  1.00  0.00    -0.393 OA
ATOM     46  H7  UNL     1      26.753 -11.038  11.474  1.00  0.00     0.210 HD
ENDBRANCH  40  45
BRANCH  41  47
HETATM   47  O8  UNL     1      26.324 -14.002  11.615  1.00  0.00    -0.390 OA
ATOM     48  H8  UNL     1      26.373 -13.763  10.698  1.00  0.00     0.210 HD
ENDBRANCH  41  47
ENDBRANCH  36  37
ENDBRANCH  30  31
ENDBRANCH   2  29
TORSDOF 13
ENDMDL
MODEL 4
REMARK VINA RESULT: -7.900389084      3.773      7.451
REMARK  13 active torsions:
REMARK  status: ('A' for Active; 'I' for Inactive)
REMARK    1  A    between atoms: C4_5  and  C5_6 
REMARK    2  A    between atoms: C5_6  and  C6_7 
REMARK    3  A    between atoms: C6_7  and  O3_9 
REMARK    4  A    between atoms: C8_11  and  O4_12 
REMARK    5  A    between atoms: C10_15  and  O5_16 
REMARK    6  A    between atoms: O5_16  and  C11_17 
REMARK    7  A    between atoms: C11_17  and  C12_19 
REMARK    8  A    between atoms: C12_19  and  C13_20 
REMARK    9  A    between atoms: C14_22  and  C16_24 
REMARK   10  A    between atoms: C17_25  and  C18_26 
REMARK   11  A    between atoms: C23_31  and  C24_32 
REMARK   12  A    between atoms: C27_35  and  O7_36 
REMARK   13  A    between atoms: C28_38  and  O8_39 
ROOT
HETATM    1  C12 UNL     1      33.260 -12.045  14.796  1.00  0.00     0.037 C 
HETATM    2  C14 UNL     1      32.227 -11.199  14.888  1.00  0.00    -0.049 C 
HETATM    3  C15 UNL     1      31.540 -10.806  13.630  1.00  0.00     0.049 C 
ENDROOT
BRANCH   1   4
HETATM    4  C11 UNL     1      33.728 -12.589  13.544  1.00  0.00     0.291 C 
HETATM    5  O6  UNL     1      34.852 -12.200  13.104  1.00  0.00    -0.260 OA
BRANCH   4   6
HETATM    6  O5  UNL     1      33.081 -13.509  12.741  1.00  0.00    -0.312 OA
BRANCH   6   7
HETATM    7  C10 UNL     1      32.229 -14.519  13.235  1.00  0.00     0.139 C 
HETATM    8  C9  UNL     1      30.781 -14.179  13.248  1.00  0.00     0.072 C 
HETATM    9  C8  UNL     1      30.116 -14.371  11.938  1.00  0.00     0.079 C 
HETATM   10  C4  UNL     1      28.713 -13.872  11.829  1.00  0.00     0.104 C 
HETATM   11  C35 UNL     1      30.046 -15.866  11.660  1.00  0.00     0.057 C 
HETATM   12  C3  UNL     1      27.850 -15.077  11.879  1.00  0.00     0.162 C 
HETATM   13  C2  UNL     1      28.657 -16.129  11.220  1.00  0.00    -0.014 C 
HETATM   14  O1  UNL     1      26.686 -15.249  12.356  1.00  0.00    -0.292 OA
HETATM   15  C1  UNL     1      28.257 -17.084  10.437  1.00  0.00     0.023 C 
HETATM   16  C34 UNL     1      31.067 -16.305  10.668  1.00  0.00     0.013 C 
HETATM   17  C33 UNL     1      32.449 -15.957  11.164  1.00  0.00     0.007 C 
HETATM   18  C31 UNL     1      32.568 -15.866  12.643  1.00  0.00     0.011 C 
HETATM   19  C32 UNL     1      34.063 -16.064  12.953  1.00  0.00     0.012 C 
BRANCH   9  20
HETATM   20  O4  UNL     1      30.869 -13.726  10.936  1.00  0.00    -0.388 OA
ATOM     21  H4  UNL     1      30.468 -13.939  10.101  1.00  0.00     0.210 HD
ENDBRANCH   9  20
BRANCH  10  22
HETATM   22  C5  UNL     1      28.321 -12.772  12.722  1.00  0.00     0.126 C 
BRANCH  22  23
HETATM   23  C6  UNL     1      27.440 -11.813  12.018  1.00  0.00     0.259 C 
HETATM   24  O2  UNL     1      27.917 -10.728  11.594  1.00  0.00    -0.265 OA
BRANCH  23  25
HETATM   25  O3  UNL     1      26.087 -12.067  11.803  1.00  0.00    -0.326 OA
HETATM   26  C7  UNL     1      25.562 -11.766  10.526  1.00  0.00     0.213 C 
ENDBRANCH  23  25
ENDBRANCH  22  23
ENDBRANCH  10  22
ENDBRANCH   6   7
ENDBRANCH   4   6
ENDBRANCH   1   4
BRANCH   1  27
HETATM   27  C13 UNL     1      34.025 -12.470  16.016  1.00  0.00     0.160 C 
HETATM   28 CL1  UNL     1      34.030 -14.249  16.020  1.00  0.00    -0.125 Cl
ENDBRANCH   1  27
BRANCH   2  29
HETATM   29  C16 UNL     1      31.698 -10.761  16.168  1.00  0.00     0.004 C 
HETATM   30  C17 UNL     1      30.324 -10.936  16.587  1.00  0.00    -0.021 C 
BRANCH  30  31
HETATM   31  C18 UNL     1      29.638 -12.248  16.699  1.00  0.00     0.015 C 
HETATM   32  C19 UNL     1      28.223 -12.183  16.299  1.00  0.00     0.009 C 
HETATM   33  C20 UNL     1      27.364 -12.671  17.431  1.00  0.00     0.005 C 
HETATM   34  C21 UNL     1      28.288 -12.886  18.561  1.00  0.00    -0.011 C 
HETATM   35  C22 UNL     1      28.041 -11.944  19.726  1.00  0.00     0.010 C 
HETATM   36  C23 UNL     1      29.688 -12.837  18.054  1.00  0.00     0.031 C 
BRANCH  36  37
HETATM   37  C24 UNL     1      30.391 -14.167  18.144  1.00  0.00     0.065 C 
HETATM   38  C25 UNL     1      31.793 -14.042  18.686  1.00  0.00     0.046 C 
HETATM   39  C26 UNL     1      29.639 -14.990  19.179  1.00  0.00     0.072 C 
HETATM   40  C27 UNL     1      30.461 -16.251  19.372  1.00  0.00     0.152 C 
HETATM   41  C28 UNL     1      30.496 -16.945  18.047  1.00  0.00     0.175 C 
HETATM   42  C29 UNL     1      30.774 -16.072  16.872  1.00  0.00     0.149 C 
HETATM   43  C30 UNL     1      30.089 -16.738  15.665  1.00  0.00     0.042 C 
HETATM   44  O9  UNL     1      30.292 -14.793  16.935  1.00  0.00    -0.372 OA
BRANCH  40  45
HETATM   45  O7  UNL     1      29.729 -17.061  20.257  1.00  0.00    -0.393 OA
ATOM     46  H7  UNL     1      30.346 -17.349  20.920  1.00  0.00     0.210 HD
ENDBRANCH  40  45
BRANCH  41  47
HETATM   47  O8  UNL     1      31.471 -17.960  18.062  1.00  0.00    -0.390 OA
ATOM     48  H8  UNL     1      32.166 -17.751  17.450  1.00  0.00     0.210 HD
ENDBRANCH  41  47
ENDBRANCH  36  37
ENDBRANCH  30  31
ENDBRANCH   2  29
TORSDOF 13
ENDMDL
MODEL 5
REMARK VINA RESULT: -7.788037331     10.172     14.407
REMARK  13 active torsions:
REMARK  status: ('A' for Active; 'I' for Inactive)
REMARK    1  A    between atoms: C4_5  and  C5_6 
REMARK    2  A    between atoms: C5_6  and  C6_7 
REMARK    3  A    between atoms: C6_7  and  O3_9 
REMARK    4  A    between atoms: C8_11  and  O4_12 
REMARK    5  A    between atoms: C10_15  and  O5_16 
REMARK    6  A    between atoms: O5_16  and  C11_17 
REMARK    7  A    between atoms: C11_17  and  C12_19 
REMARK    8  A    between atoms: C12_19  and  C13_20 
REMARK    9  A    between atoms: C14_22  and  C16_24 
REMARK   10  A    between atoms: C17_25  and  C18_26 
REMARK   11  A    between atoms: C23_31  and  C24_32 
REMARK   12  A    between atoms: C27_35  and  O7_36 
REMARK   13  A    between atoms: C28_38  and  O8_39 
ROOT
HETATM    1  C12 UNL     1      36.246  -5.241  21.645  1.00  0.00     0.037 C 
HETATM    2  C14 UNL     1      35.948  -4.320  22.569  1.00  0.00    -0.049 C 
HETATM    3  C15 UNL     1      37.046  -3.840  23.448  1.00  0.00     0.049 C 
ENDROOT
BRANCH   1   4
HETATM    4  C11 UNL     1      37.572  -5.780  21.465  1.00  0.00     0.291 C 
HETATM    5  O6  UNL     1      38.033  -5.857  20.285  1.00  0.00    -0.260 OA
BRANCH   4   6
HETATM    6  O5  UNL     1      38.427  -6.238  22.449  1.00  0.00    -0.312 OA
BRANCH   6   7
HETATM    7  C10 UNL     1      38.726  -7.601  22.656  1.00  0.00     0.139 C 
HETATM    8  C9  UNL     1      39.079  -8.367  21.432  1.00  0.00     0.072 C 
HETATM    9  C8  UNL     1      40.491  -8.204  21.017  1.00  0.00     0.079 C 
HETATM   10  C4  UNL     1      40.866  -8.791  19.696  1.00  0.00     0.104 C 
HETATM   11  C35 UNL     1      41.368  -8.906  22.045  1.00  0.00     0.057 C 
HETATM   12  C3  UNL     1      41.623 -10.029  20.003  1.00  0.00     0.162 C 
HETATM   13  C2  UNL     1      42.331  -9.717  21.266  1.00  0.00    -0.014 C 
HETATM   14  O1  UNL     1      41.698 -11.134  19.385  1.00  0.00    -0.292 OA
HETATM   15  C1  UNL     1      43.525 -10.073  21.632  1.00  0.00     0.023 C 
HETATM   16  C34 UNL     1      42.029  -7.947  22.973  1.00  0.00     0.013 C 
HETATM   17  C33 UNL     1      40.987  -7.124  23.690  1.00  0.00     0.007 C 
HETATM   18  C31 UNL     1      39.664  -7.789  23.825  1.00  0.00     0.011 C 
HETATM   19  C32 UNL     1      38.964  -7.087  25.004  1.00  0.00     0.012 C 
BRANCH   9  20
HETATM   20  O4  UNL     1      40.805  -6.830  20.968  1.00  0.00    -0.388 OA
ATOM     21  H4  UNL     1      40.105  -6.398  20.493  1.00  0.00     0.210 HD
ENDBRANCH   9  20
BRANCH  10  22
HETATM   22  C5  UNL     1      39.795  -8.932  18.698  1.00  0.00     0.126 C 
BRANCH  22  23
HETATM   23  C6  UNL     1      39.853  -7.831  17.709  1.00  0.00     0.259 C 
HETATM   24  O2  UNL     1      40.970  -7.446  17.275  1.00  0.00    -0.265 OA
BRANCH  23  25
HETATM   25  O3  UNL     1      38.707  -7.200  17.232  1.00  0.00    -0.326 OA
HETATM   26  C7  UNL     1      38.791  -6.556  15.977  1.00  0.00     0.213 C 
ENDBRANCH  23  25
ENDBRANCH  22  23
ENDBRANCH  10  22
ENDBRANCH   6   7
ENDBRANCH   4   6
ENDBRANCH   1   4
BRANCH   1  27
HETATM   27  C13 UNL     1      35.189  -5.797  20.735  1.00  0.00     0.160 C 
HETATM   28 CL1  UNL     1      35.104  -7.544  21.060  1.00  0.00    -0.125 Cl
ENDBRANCH   1  27
BRANCH   2  29
HETATM   29  C16 UNL     1      34.635  -3.703  22.650  1.00  0.00     0.004 C 
HETATM   30  C17 UNL     1      34.387  -2.286  22.497  1.00  0.00    -0.021 C 
BRANCH  30  31
HETATM   31  C18 UNL     1      34.735  -1.495  21.291  1.00  0.00     0.015 C 
HETATM   32  C19 UNL     1      34.944  -0.069  21.589  1.00  0.00     0.009 C 
HETATM   33  C20 UNL     1      34.020   0.757  20.739  1.00  0.00     0.005 C 
HETATM   34  C21 UNL     1      33.156  -0.214  20.041  1.00  0.00    -0.011 C 
HETATM   35  C22 UNL     1      31.697  -0.126  20.453  1.00  0.00     0.010 C 
HETATM   36  C23 UNL     1      33.731  -1.578  20.208  1.00  0.00     0.031 C 
BRANCH  36  37
HETATM   37  C24 UNL     1      34.236  -2.165  18.915  1.00  0.00     0.065 C 
HETATM   38  C25 UNL     1      34.465  -1.116  17.856  1.00  0.00     0.046 C 
HETATM   39  C26 UNL     1      35.613  -2.741  19.206  1.00  0.00     0.072 C 
HETATM   40  C27 UNL     1      36.166  -3.173  17.860  1.00  0.00     0.152 C 
HETATM   41  C28 UNL     1      35.238  -4.222  17.334  1.00  0.00     0.175 C 
HETATM   42  C29 UNL     1      33.785  -3.914  17.455  1.00  0.00     0.149 C 
HETATM   43  C30 UNL     1      33.061  -5.269  17.560  1.00  0.00     0.042 C 
HETATM   44  O9  UNL     1      33.406  -3.185  18.549  1.00  0.00    -0.372 OA
BRANCH  40  45
HETATM   45  O7  UNL     1      37.400  -3.791  18.126  1.00  0.00    -0.393 OA
ATOM     46  H7  UNL     1      37.859  -3.213  18.724  1.00  0.00     0.210 HD
ENDBRANCH  40  45
BRANCH  41  47
HETATM   47  O8  UNL     1      35.509  -4.464  15.974  1.00  0.00    -0.390 OA
ATOM     48  H8  UNL     1      35.128  -5.293  15.710  1.00  0.00     0.210 HD
ENDBRANCH  41  47
ENDBRANCH  36  37
ENDBRANCH  30  31
ENDBRANCH   2  29
TORSDOF 13
ENDMDL
