MODEL 1
REMARK VINA RESULT: -6.587408203      0.000      0.000
REMARK  12 active torsions:
REMARK  status: ('A' for Active; 'I' for Inactive)
REMARK    1  A    between atoms: C2_2  and  C3_3 
REMARK    2  A    between atoms: C3_3  and  O1_4 
REMARK    3  A    between atoms: C3_3  and  N1_6 
REMARK    4  A    between atoms: C4_8  and  O2_9 
REMARK    5  A    between atoms: C4_8  and  N2_11 
REMARK    6  A    between atoms: N2_11  and  C5_13 
REMARK    7  A    between atoms: C5_13  and  C6_14 
REMARK    8  A    between atoms: C5_13  and  C8_22 
REMARK    9  A    between atoms: C6_14  and  C7_15 
REMARK   10  A    between atoms: C7_15  and  N3_16 
REMARK   11  A    between atoms: C7_15  and  O3_20 
REMARK       I    between atoms: C8_22  and  N4_24 
REMARK   12  A    between atoms: N4_24  and  N5_26 
ROOT
HETATM    1  N2  UNL     1       4.143 -31.809  -9.329  1.00  0.00    -0.343 N 
ATOM      2  H2  UNL     1       3.379 -32.482  -9.261  1.00  0.00     0.164 HD
ENDROOT
BRANCH   1   3
HETATM    3  C4  UNL     1       5.388 -32.140  -8.855  1.00  0.00     0.219 C 
HETATM    4  N1  UNL     1       6.207 -31.641  -7.883  1.00  0.00    -0.303 N 
ATOM      5  H1  UNL     1       7.063 -32.195  -7.865  1.00  0.00     0.171 HD
BRANCH   4   6
HETATM    6  C3  UNL     1       6.299 -30.665  -6.921  1.00  0.00     0.150 C 
BRANCH   6   7
HETATM    7  C2  UNL     1       5.454 -30.034  -5.966  1.00  0.00     0.010 C 
HETATM    8  C1  UNL     1       5.532 -28.591  -5.614  1.00  0.00     0.054 C 
HETATM    9  C9  UNL     1       4.509 -30.728  -5.263  1.00  0.00     0.110 A 
HETATM   10  C10 UNL     1       3.543 -30.366  -4.229  1.00  0.00     0.264 A 
HETATM   11  C11 UNL     1       4.003 -32.074  -5.184  1.00  0.00     0.264 A 
HETATM   12  O5  UNL     1       3.233 -29.289  -3.610  1.00  0.00    -0.267 OA
HETATM   13  N6  UNL     1       3.056 -31.684  -4.158  1.00  0.00    -0.289 N 
ATOM     14  H6  UNL     1       2.339 -32.162  -3.615  1.00  0.00     0.172 HD
HETATM   15  O6  UNL     1       4.202 -33.205  -5.715  1.00  0.00    -0.267 OA
ENDBRANCH   6   7
BRANCH   6  16
HETATM   16  O1  UNL     1       7.555 -30.176  -6.888  1.00  0.00    -0.346 OA
ATOM     17  H1  UNL     1       7.714 -29.553  -7.586  1.00  0.00     0.219 HD
ENDBRANCH   6  16
ENDBRANCH   4   6
BRANCH   3  18
HETATM   18  O2  UNL     1       5.882 -33.201  -9.519  1.00  0.00    -0.332 OA
ATOM     19  H2  UNL     1       5.237 -33.704 -10.003  1.00  0.00     0.220 HD
ENDBRANCH   3  18
ENDBRANCH   1   3
BRANCH   1  20
HETATM   20  C5  UNL     1       3.895 -30.442  -9.955  1.00  0.00     0.183 C 
BRANCH  20  21
HETATM   21  C6  UNL     1       3.816 -30.695 -11.409  1.00  0.00     0.096 C 
BRANCH  21  22
HETATM   22  C7  UNL     1       3.467 -32.043 -11.885  1.00  0.00     0.318 C 
BRANCH  22  23
HETATM   23  N3  UNL     1       3.704 -32.168 -13.343  1.00  0.00    -0.053 N 
ATOM     24  H33 UNL     1       3.065 -31.583 -13.879  1.00  0.00     0.277 HD
ATOM     25  H32 UNL     1       4.584 -31.733 -13.620  1.00  0.00     0.277 HD
ATOM     26  H31 UNL     1       3.658 -33.144 -13.637  1.00  0.00     0.277 HD
ENDBRANCH  22  23
BRANCH  22  27
HETATM   27  O3  UNL     1       2.177 -32.441 -11.676  1.00  0.00    -0.370 OA
ATOM     28  H3  UNL     1       2.061 -33.244 -11.181  1.00  0.00     0.212 HD
ENDBRANCH  22  27
ENDBRANCH  21  22
ENDBRANCH  20  21
BRANCH  20  29
HETATM   29  C8  UNL     1       2.700 -29.931  -9.294  1.00  0.00     0.258 C 
HETATM   30  O4  UNL     1       2.739 -29.547  -8.086  1.00  0.00    -0.269 OA
HETATM   31  N4  UNL     1       1.462 -29.843  -9.972  1.00  0.00    -0.275 N 
ATOM     32  H4  UNL     1       1.379 -30.136 -10.945  1.00  0.00     0.189 HD
BRANCH  31  33
HETATM   33  N5  UNL     1       0.354 -29.346  -9.276  1.00  0.00    -0.343 N 
ATOM     34  H52 UNL     1       0.299 -29.459  -8.264  1.00  0.00     0.176 HD
ATOM     35  H51 UNL     1      -0.380 -28.876  -9.804  1.00  0.00     0.176 HD
ENDBRANCH  31  33
ENDBRANCH  20  29
ENDBRANCH   1  20
TORSDOF 12
ENDMDL
MODEL 2
REMARK VINA RESULT: -6.450316728      1.897      2.378
REMARK  12 active torsions:
REMARK  status: ('A' for Active; 'I' for Inactive)
REMARK    1  A    between atoms: C2_2  and  C3_3 
REMARK    2  A    between atoms: C3_3  and  O1_4 
REMARK    3  A    between atoms: C3_3  and  N1_6 
REMARK    4  A    between atoms: C4_8  and  O2_9 
REMARK    5  A    between atoms: C4_8  and  N2_11 
REMARK    6  A    between atoms: N2_11  and  C5_13 
REMARK    7  A    between atoms: C5_13  and  C6_14 
REMARK    8  A    between atoms: C5_13  and  C8_22 
REMARK    9  A    between atoms: C6_14  and  C7_15 
REMARK   10  A    between atoms: C7_15  and  N3_16 
REMARK   11  A    between atoms: C7_15  and  O3_20 
REMARK       I    between atoms: C8_22  and  N4_24 
REMARK   12  A    between atoms: N4_24  and  N5_26 
ROOT
HETATM    1  N2  UNL     1       3.842 -31.337  -8.697  1.00  0.00    -0.343 N 
ATOM      2  H2  UNL     1       4.518 -32.057  -8.953  1.00  0.00     0.164 HD
ENDROOT
BRANCH   1   3
HETATM    3  C4  UNL     1       3.046 -31.511  -7.592  1.00  0.00     0.219 C 
HETATM    4  N1  UNL     1       3.117 -31.112  -6.288  1.00  0.00    -0.303 N 
ATOM      5  H1  UNL     1       2.300 -31.471  -5.794  1.00  0.00     0.171 HD
BRANCH   4   6
HETATM    6  C3  UNL     1       3.887 -30.404  -5.398  1.00  0.00     0.150 C 
BRANCH   6   7
HETATM    7  C2  UNL     1       4.562 -30.629  -4.166  1.00  0.00     0.010 C 
HETATM    8  C1  UNL     1       4.789 -29.578  -3.139  1.00  0.00     0.054 C 
HETATM    9  C9  UNL     1       5.091 -31.847  -3.840  1.00  0.00     0.110 A 
HETATM   10  C10 UNL     1       5.840 -32.357  -2.694  1.00  0.00     0.264 A 
HETATM   11  C11 UNL     1       5.176 -33.168  -4.410  1.00  0.00     0.264 A 
HETATM   12  O5  UNL     1       6.270 -31.860  -1.596  1.00  0.00    -0.267 OA
HETATM   13  N6  UNL     1       5.918 -33.643  -3.258  1.00  0.00    -0.289 N 
ATOM     14  H6  UNL     1       6.324 -34.534  -2.976  1.00  0.00     0.172 HD
HETATM   15  O6  UNL     1       4.810 -33.788  -5.450  1.00  0.00    -0.267 OA
ENDBRANCH   6   7
BRANCH   6  16
HETATM   16  O1  UNL     1       4.034 -29.136  -5.832  1.00  0.00    -0.346 OA
ATOM     17  H1  UNL     1       3.942 -29.069  -6.775  1.00  0.00     0.219 HD
ENDBRANCH   6  16
ENDBRANCH   4   6
BRANCH   3  18
HETATM   18  O2  UNL     1       1.959 -32.242  -7.901  1.00  0.00    -0.332 OA
ATOM     19  H2  UNL     1       1.323 -31.798  -8.451  1.00  0.00     0.220 HD
ENDBRANCH   3  18
ENDBRANCH   1   3
BRANCH   1  20
HETATM   20  C5  UNL     1       3.721 -30.076  -9.543  1.00  0.00     0.183 C 
BRANCH  20  21
HETATM   21  C6  UNL     1       3.813 -30.542 -10.942  1.00  0.00     0.096 C 
BRANCH  21  22
HETATM   22  C7  UNL     1       3.591 -31.966 -11.240  1.00  0.00     0.318 C 
BRANCH  22  23
HETATM   23  N3  UNL     1       3.697 -32.226 -12.695  1.00  0.00    -0.053 N 
ATOM     24  H33 UNL     1       3.024 -31.673 -13.226  1.00  0.00     0.277 HD
ATOM     25  H32 UNL     1       4.557 -31.841 -13.085  1.00  0.00     0.277 HD
ATOM     26  H31 UNL     1       3.605 -33.223 -12.895  1.00  0.00     0.277 HD
ENDBRANCH  22  23
BRANCH  22  27
HETATM   27  O3  UNL     1       2.388 -32.483 -10.850  1.00  0.00    -0.370 OA
ATOM     28  H3  UNL     1       1.662 -32.353 -11.449  1.00  0.00     0.212 HD
ENDBRANCH  22  27
ENDBRANCH  21  22
ENDBRANCH  20  21
BRANCH  20  29
HETATM   29  C8  UNL     1       2.472 -29.452  -9.122  1.00  0.00     0.258 C 
HETATM   30  O4  UNL     1       2.463 -28.556  -8.225  1.00  0.00    -0.269 OA
HETATM   31  N4  UNL     1       1.233 -29.821  -9.695  1.00  0.00    -0.275 N 
ATOM     32  H4  UNL     1       1.187 -30.534 -10.423  1.00  0.00     0.189 HD
BRANCH  31  33
HETATM   33  N5  UNL     1       0.072 -29.184  -9.240  1.00  0.00    -0.343 N 
ATOM     34  H52 UNL     1      -0.754 -29.737  -9.013  1.00  0.00     0.176 HD
ATOM     35  H51 UNL     1       0.081 -28.169  -9.146  1.00  0.00     0.176 HD
ENDBRANCH  31  33
ENDBRANCH  20  29
ENDBRANCH   1  20
TORSDOF 12
ENDMDL
MODEL 3
REMARK VINA RESULT: -6.433565392      1.937      3.558
REMARK  12 active torsions:
REMARK  status: ('A' for Active; 'I' for Inactive)
REMARK    1  A    between atoms: C2_2  and  C3_3 
REMARK    2  A    between atoms: C3_3  and  O1_4 
REMARK    3  A    between atoms: C3_3  and  N1_6 
REMARK    4  A    between atoms: C4_8  and  O2_9 
REMARK    5  A    between atoms: C4_8  and  N2_11 
REMARK    6  A    between atoms: N2_11  and  C5_13 
REMARK    7  A    between atoms: C5_13  and  C6_14 
REMARK    8  A    between atoms: C5_13  and  C8_22 
REMARK    9  A    between atoms: C6_14  and  C7_15 
REMARK   10  A    between atoms: C7_15  and  N3_16 
REMARK   11  A    between atoms: C7_15  and  O3_20 
REMARK       I    between atoms: C8_22  and  N4_24 
REMARK   12  A    between atoms: N4_24  and  N5_26 
ROOT
HETATM    1  N2  UNL     1       3.680 -32.116  -9.718  1.00  0.00    -0.343 N 
ATOM      2  H2  UNL     1       3.218 -33.025  -9.687  1.00  0.00     0.164 HD
ENDROOT
BRANCH   1   3
HETATM    3  C4  UNL     1       4.834 -31.912  -9.002  1.00  0.00     0.219 C 
HETATM    4  N1  UNL     1       5.135 -31.830  -7.673  1.00  0.00    -0.303 N 
ATOM      5  H1  UNL     1       6.136 -31.661  -7.578  1.00  0.00     0.171 HD
BRANCH   4   6
HETATM    6  C3  UNL     1       4.581 -31.892  -6.418  1.00  0.00     0.150 C 
BRANCH   6   7
HETATM    7  C2  UNL     1       5.011 -32.104  -5.078  1.00  0.00     0.010 C 
HETATM    8  C1  UNL     1       5.664 -33.353  -4.604  1.00  0.00     0.054 C 
HETATM    9  C9  UNL     1       4.825 -31.167  -4.100  1.00  0.00     0.110 A 
HETATM   10  C10 UNL     1       5.128 -31.115  -2.671  1.00  0.00     0.264 A 
HETATM   11  C11 UNL     1       4.281 -29.839  -3.974  1.00  0.00     0.264 A 
HETATM   12  O5  UNL     1       5.665 -31.913  -1.826  1.00  0.00    -0.267 OA
HETATM   13  N6  UNL     1       4.594 -29.820  -2.559  1.00  0.00    -0.289 N 
ATOM     14  H6  UNL     1       4.477 -29.148  -1.800  1.00  0.00     0.172 HD
HETATM   15  O6  UNL     1       3.736 -28.955  -4.696  1.00  0.00    -0.267 OA
ENDBRANCH   6   7
BRANCH   6  16
HETATM   16  O1  UNL     1       3.250 -31.694  -6.497  1.00  0.00    -0.346 OA
ATOM     17  H1  UNL     1       2.886 -32.041  -7.303  1.00  0.00     0.219 HD
ENDBRANCH   6  16
ENDBRANCH   4   6
BRANCH   3  18
HETATM   18  O2  UNL     1       5.885 -31.765  -9.830  1.00  0.00    -0.332 OA
ATOM     19  H2  UNL     1       6.427 -32.539  -9.927  1.00  0.00     0.220 HD
ENDBRANCH   3  18
ENDBRANCH   1   3
BRANCH   1  20
HETATM   20  C5  UNL     1       3.086 -30.993 -10.560  1.00  0.00     0.183 C 
BRANCH  20  21
HETATM   21  C6  UNL     1       3.336 -29.760  -9.785  1.00  0.00     0.096 C 
BRANCH  21  22
HETATM   22  C7  UNL     1       2.347 -29.328  -8.785  1.00  0.00     0.318 C 
BRANCH  22  23
HETATM   23  N3  UNL     1       3.015 -28.765  -7.588  1.00  0.00    -0.053 N 
ATOM     24  H33 UNL     1       3.730 -29.395  -7.225  1.00  0.00     0.277 HD
ATOM     25  H32 UNL     1       3.611 -27.973  -7.827  1.00  0.00     0.277 HD
ATOM     26  H31 UNL     1       2.332 -28.519  -6.871  1.00  0.00     0.277 HD
ENDBRANCH  22  23
BRANCH  22  27
HETATM   27  O3  UNL     1       1.495 -30.291  -8.325  1.00  0.00    -0.370 OA
ATOM     28  H3  UNL     1       0.827 -30.003  -7.714  1.00  0.00     0.212 HD
ENDBRANCH  22  27
ENDBRANCH  21  22
ENDBRANCH  20  21
BRANCH  20  29
HETATM   29  C8  UNL     1       3.728 -31.113 -11.864  1.00  0.00     0.258 C 
HETATM   30  O4  UNL     1       4.702 -30.365 -12.180  1.00  0.00    -0.269 OA
HETATM   31  N4  UNL     1       3.291 -32.062 -12.816  1.00  0.00    -0.275 N 
ATOM     32  H4  UNL     1       2.514 -32.689 -12.609  1.00  0.00     0.189 HD
BRANCH  31  33
HETATM   33  N5  UNL     1       3.951 -32.120 -14.050  1.00  0.00    -0.343 N 
ATOM     34  H52 UNL     1       4.685 -31.446 -14.265  1.00  0.00     0.176 HD
ATOM     35  H51 UNL     1       3.678 -32.846 -14.712  1.00  0.00     0.176 HD
ENDBRANCH  31  33
ENDBRANCH  20  29
ENDBRANCH   1  20
TORSDOF 12
ENDMDL
MODEL 4
REMARK VINA RESULT: -6.421667837      1.864      2.335
REMARK  12 active torsions:
REMARK  status: ('A' for Active; 'I' for Inactive)
REMARK    1  A    between atoms: C2_2  and  C3_3 
REMARK    2  A    between atoms: C3_3  and  O1_4 
REMARK    3  A    between atoms: C3_3  and  N1_6 
REMARK    4  A    between atoms: C4_8  and  O2_9 
REMARK    5  A    between atoms: C4_8  and  N2_11 
REMARK    6  A    between atoms: N2_11  and  C5_13 
REMARK    7  A    between atoms: C5_13  and  C6_14 
REMARK    8  A    between atoms: C5_13  and  C8_22 
REMARK    9  A    between atoms: C6_14  and  C7_15 
REMARK   10  A    between atoms: C7_15  and  N3_16 
REMARK   11  A    between atoms: C7_15  and  O3_20 
REMARK       I    between atoms: C8_22  and  N4_24 
REMARK   12  A    between atoms: N4_24  and  N5_26 
ROOT
HETATM    1  N2  UNL     1       3.748 -31.655  -9.077  1.00  0.00    -0.343 N 
ATOM      2  H2  UNL     1       3.941 -32.507  -9.603  1.00  0.00     0.164 HD
ENDROOT
BRANCH   1   3
HETATM    3  C4  UNL     1       3.474 -31.730  -7.733  1.00  0.00     0.219 C 
HETATM    4  N1  UNL     1       4.163 -31.419  -6.596  1.00  0.00    -0.303 N 
ATOM      5  H1  UNL     1       3.576 -31.640  -5.792  1.00  0.00     0.171 HD
BRANCH   4   6
HETATM    6  C3  UNL     1       5.357 -30.919  -6.140  1.00  0.00     0.150 C 
BRANCH   6   7
HETATM    7  C2  UNL     1       6.063 -30.813  -4.909  1.00  0.00     0.010 C 
HETATM    8  C1  UNL     1       7.396 -31.422  -4.662  1.00  0.00     0.054 C 
HETATM    9  C9  UNL     1       5.542 -30.157  -3.828  1.00  0.00     0.110 A 
HETATM   10  C10 UNL     1       6.007 -29.915  -2.465  1.00  0.00     0.264 A 
HETATM   11  C11 UNL     1       4.355 -29.412  -3.494  1.00  0.00     0.264 A 
HETATM   12  O5  UNL     1       7.052 -30.224  -1.792  1.00  0.00    -0.267 OA
HETATM   13  N6  UNL     1       4.845 -29.189  -2.148  1.00  0.00    -0.289 N 
ATOM     14  H6  UNL     1       4.495 -28.708  -1.320  1.00  0.00     0.172 HD
HETATM   15  O6  UNL     1       3.275 -29.036  -4.035  1.00  0.00    -0.267 OA
ENDBRANCH   6   7
BRANCH   6  16
HETATM   16  O1  UNL     1       6.044 -30.376  -7.165  1.00  0.00    -0.346 OA
ATOM     17  H1  UNL     1       6.391 -31.037  -7.752  1.00  0.00     0.219 HD
ENDBRANCH   6  16
ENDBRANCH   4   6
BRANCH   3  18
HETATM   18  O2  UNL     1       2.238 -32.222  -7.529  1.00  0.00    -0.332 OA
ATOM     19  H2  UNL     1       1.784 -32.498  -8.316  1.00  0.00     0.220 HD
ENDBRANCH   3  18
ENDBRANCH   1   3
BRANCH   1  20
HETATM   20  C5  UNL     1       3.766 -30.306  -9.786  1.00  0.00     0.183 C 
BRANCH  20  21
HETATM   21  C6  UNL     1       3.821 -30.631 -11.226  1.00  0.00     0.096 C 
BRANCH  21  22
HETATM   22  C7  UNL     1       3.465 -31.988 -11.670  1.00  0.00     0.318 C 
BRANCH  22  23
HETATM   23  N3  UNL     1       3.753 -32.167 -13.112  1.00  0.00    -0.053 N 
ATOM     24  H33 UNL     1       4.725 -31.951 -13.331  1.00  0.00     0.277 HD
ATOM     25  H32 UNL     1       3.749 -33.152 -13.378  1.00  0.00     0.277 HD
ATOM     26  H31 UNL     1       3.109 -31.620 -13.684  1.00  0.00     0.277 HD
ENDBRANCH  22  23
BRANCH  22  27
HETATM   27  O3  UNL     1       2.162 -32.357 -11.496  1.00  0.00    -0.370 OA
ATOM     28  H3  UNL     1       1.995 -33.290 -11.430  1.00  0.00     0.212 HD
ENDBRANCH  22  27
ENDBRANCH  21  22
ENDBRANCH  20  21
BRANCH  20  29
HETATM   29  C8  UNL     1       2.586 -29.602  -9.297  1.00  0.00     0.258 C 
HETATM   30  O4  UNL     1       2.691 -28.677  -8.437  1.00  0.00    -0.269 OA
HETATM   31  N4  UNL     1       1.291 -29.924  -9.762  1.00  0.00    -0.275 N 
ATOM     32  H4  UNL     1       1.153 -30.658 -10.457  1.00  0.00     0.189 HD
BRANCH  31  33
HETATM   33  N5  UNL     1       0.202 -29.211  -9.248  1.00  0.00    -0.343 N 
ATOM     34  H52 UNL     1       0.266 -28.200  -9.134  1.00  0.00     0.176 HD
ATOM     35  H51 UNL     1      -0.641 -29.726  -8.997  1.00  0.00     0.176 HD
ENDBRANCH  31  33
ENDBRANCH  20  29
ENDBRANCH   1  20
TORSDOF 12
ENDMDL
MODEL 5
REMARK VINA RESULT: -6.393837895      1.533      2.345
REMARK  12 active torsions:
REMARK  status: ('A' for Active; 'I' for Inactive)
REMARK    1  A    between atoms: C2_2  and  C3_3 
REMARK    2  A    between atoms: C3_3  and  O1_4 
REMARK    3  A    between atoms: C3_3  and  N1_6 
REMARK    4  A    between atoms: C4_8  and  O2_9 
REMARK    5  A    between atoms: C4_8  and  N2_11 
REMARK    6  A    between atoms: N2_11  and  C5_13 
REMARK    7  A    between atoms: C5_13  and  C6_14 
REMARK    8  A    between atoms: C5_13  and  C8_22 
REMARK    9  A    between atoms: C6_14  and  C7_15 
REMARK   10  A    between atoms: C7_15  and  N3_16 
REMARK   11  A    between atoms: C7_15  and  O3_20 
REMARK       I    between atoms: C8_22  and  N4_24 
REMARK   12  A    between atoms: N4_24  and  N5_26 
ROOT
HETATM    1  N2  UNL     1       4.129 -31.770  -9.151  1.00  0.00    -0.343 N 
ATOM      2  H2  UNL     1       3.532 -32.577  -9.330  1.00  0.00     0.164 HD
ENDROOT
BRANCH   1   3
HETATM    3  C4  UNL     1       5.248 -31.909  -8.366  1.00  0.00     0.219 C 
HETATM    4  N1  UNL     1       5.466 -32.052  -7.026  1.00  0.00    -0.303 N 
ATOM      5  H1  UNL     1       6.471 -32.119  -6.867  1.00  0.00     0.171 HD
BRANCH   4   6
HETATM    6  C3  UNL     1       4.826 -32.138  -5.814  1.00  0.00     0.150 C 
BRANCH   6   7
HETATM    7  C2  UNL     1       5.163 -32.104  -4.432  1.00  0.00     0.010 C 
HETATM    8  C1  UNL     1       5.768 -33.246  -3.697  1.00  0.00     0.054 C 
HETATM    9  C9  UNL     1       4.923 -31.006  -3.653  1.00  0.00     0.110 A 
HETATM   10  C10 UNL     1       5.129 -30.697  -2.240  1.00  0.00     0.264 A 
HETATM   11  C11 UNL     1       4.387 -29.678  -3.806  1.00  0.00     0.264 A 
HETATM   12  O5  UNL     1       5.599 -31.329  -1.231  1.00  0.00    -0.267 OA
HETATM   13  N6  UNL     1       4.604 -29.402  -2.399  1.00  0.00    -0.289 N 
ATOM     14  H6  UNL     1       4.443 -28.605  -1.784  1.00  0.00     0.172 HD
HETATM   15  O6  UNL     1       3.901 -28.938  -4.711  1.00  0.00    -0.267 OA
ENDBRANCH   6   7
BRANCH   6  16
HETATM   16  O1  UNL     1       3.502 -32.301  -6.009  1.00  0.00    -0.346 OA
ATOM     17  H1  UNL     1       3.014 -31.508  -5.821  1.00  0.00     0.219 HD
ENDBRANCH   6  16
ENDBRANCH   4   6
BRANCH   3  18
HETATM   18  O2  UNL     1       6.361 -31.900  -9.122  1.00  0.00    -0.332 OA
ATOM     19  H2  UNL     1       6.242 -32.213 -10.012  1.00  0.00     0.220 HD
ENDBRANCH   3  18
ENDBRANCH   1   3
BRANCH   1  20
HETATM   20  C5  UNL     1       3.776 -30.416  -9.755  1.00  0.00     0.183 C 
BRANCH  20  21
HETATM   21  C6  UNL     1       3.745 -30.644 -11.215  1.00  0.00     0.096 C 
BRANCH  21  22
HETATM   22  C7  UNL     1       3.460 -31.994 -11.725  1.00  0.00     0.318 C 
BRANCH  22  23
HETATM   23  N3  UNL     1       3.731 -32.081 -13.179  1.00  0.00    -0.053 N 
ATOM     24  H33 UNL     1       2.869 -32.166 -13.717  1.00  0.00     0.277 HD
ATOM     25  H32 UNL     1       4.061 -31.191 -13.553  1.00  0.00     0.277 HD
ATOM     26  H31 UNL     1       4.380 -32.840 -13.385  1.00  0.00     0.277 HD
ENDBRANCH  22  23
BRANCH  22  27
HETATM   27  O3  UNL     1       2.183 -32.447 -11.550  1.00  0.00    -0.370 OA
ATOM     28  H3  UNL     1       2.008 -33.332 -11.849  1.00  0.00     0.212 HD
ENDBRANCH  22  27
ENDBRANCH  21  22
ENDBRANCH  20  21
BRANCH  20  29
HETATM   29  C8  UNL     1       2.529 -30.024  -9.107  1.00  0.00     0.258 C 
HETATM   30  O4  UNL     1       2.457 -29.918  -7.846  1.00  0.00    -0.269 OA
HETATM   31  N4  UNL     1       1.364 -29.747  -9.858  1.00  0.00    -0.275 N 
ATOM     32  H4  UNL     1       1.371 -29.815 -10.876  1.00  0.00     0.189 HD
BRANCH  31  33
HETATM   33  N5  UNL     1       0.200 -29.379  -9.172  1.00  0.00    -0.343 N 
ATOM     34  H52 UNL     1      -0.232 -30.033  -8.521  1.00  0.00     0.176 HD
ATOM     35  H51 UNL     1      -0.191 -28.453  -9.342  1.00  0.00     0.176 HD
ENDBRANCH  31  33
ENDBRANCH  20  29
ENDBRANCH   1  20
TORSDOF 12
ENDMDL
