MODEL 1
REMARK VINA RESULT: -7.222686622      0.000      0.000
REMARK  3 active torsions:
REMARK  status: ('A' for Active; 'I' for Inactive)
REMARK    1  A    between atoms: C9_10  and  C10_11 
REMARK    2  A    between atoms: C10_11  and  C11_12 
REMARK    3  A    between atoms: C18_20  and  O3_22 
ROOT
HETATM    1  C1  UNL     1       5.329 -27.698 -28.703  1.00  0.00     0.010 C 
HETATM    2  C2  UNL     1       4.312 -26.985 -29.550  1.00  0.00    -0.011 C 
HETATM    3  C3  UNL     1       3.980 -27.699 -30.818  1.00  0.00     0.014 C 
HETATM    4  C4  UNL     1       2.658 -27.068 -31.214  1.00  0.00     0.045 C 
HETATM    5  C5  UNL     1       2.915 -25.674 -31.746  1.00  0.00     0.176 C 
HETATM    6  O1  UNL     1       2.498 -25.195 -30.483  1.00  0.00    -0.378 OA
HETATM    7  C6  UNL     1       2.087 -26.417 -30.000  1.00  0.00     0.074 C 
HETATM    8  C7  UNL     1       0.627 -26.562 -29.746  1.00  0.00     0.021 C 
HETATM    9  C8  UNL     1      -0.081 -27.138 -30.968  1.00  0.00     0.013 C 
HETATM   10  C9  UNL     1       0.338 -27.372 -28.512  1.00  0.00    -0.006 C 
HETATM   11  C20 UNL     1       1.151 -28.629 -28.562  1.00  0.00     0.005 C 
HETATM   12  C21 UNL     1       2.593 -28.267 -28.381  1.00  0.00     0.008 C 
HETATM   13  C22 UNL     1       2.954 -26.903 -28.867  1.00  0.00     0.025 C 
ENDROOT
BRANCH  10  14
HETATM   14  C10 UNL     1      -1.112 -27.588 -28.253  1.00  0.00     0.037 C 
BRANCH  14  15
HETATM   15  C11 UNL     1      -1.525 -26.965 -26.960  1.00  0.00     0.127 C 
HETATM   16  O2  UNL     1      -2.775 -27.368 -26.525  1.00  0.00    -0.372 OA
HETATM   17  C12 UNL     1      -3.388 -26.378 -25.764  1.00  0.00     0.088 C 
HETATM   18  C13 UNL     1      -4.483 -27.009 -24.912  1.00  0.00     0.049 C 
HETATM   19  C14 UNL     1      -2.408 -25.744 -24.799  1.00  0.00     0.041 C 
HETATM   20  C18 UNL     1      -3.969 -25.374 -26.735  1.00  0.00     0.085 C 
HETATM   21  C15 UNL     1      -1.427 -24.927 -25.637  1.00  0.00     0.010 C 
HETATM   22  C16 UNL     1      -1.560 -25.437 -27.058  1.00  0.00     0.018 C 
HETATM   23  C17 UNL     1      -2.853 -25.004 -27.697  1.00  0.00     0.047 C 
HETATM   24  C19 UNL     1      -4.569 -24.180 -26.067  1.00  0.00     0.049 C 
BRANCH  20  25
HETATM   25  O3  UNL     1      -4.971 -26.062 -27.450  1.00  0.00    -0.387 OA
ATOM     26  H3  UNL     1      -4.592 -26.270 -28.296  1.00  0.00     0.210 HD
ENDBRANCH  20  25
ENDBRANCH  14  15
ENDBRANCH  10  14
TORSDOF 3
ENDMDL
MODEL 2
REMARK VINA RESULT: -6.982977629      1.565      2.020
REMARK  3 active torsions:
REMARK  status: ('A' for Active; 'I' for Inactive)
REMARK    1  A    between atoms: C9_10  and  C10_11 
REMARK    2  A    between atoms: C10_11  and  C11_12 
REMARK    3  A    between atoms: C18_20  and  O3_22 
ROOT
HETATM    1  C1  UNL     1       4.588 -30.766 -26.604  1.00  0.00     0.010 C 
HETATM    2  C2  UNL     1       4.513 -29.594 -27.542  1.00  0.00    -0.011 C 
HETATM    3  C3  UNL     1       4.530 -29.978 -28.985  1.00  0.00     0.014 C 
HETATM    4  C4  UNL     1       3.976 -28.739 -29.661  1.00  0.00     0.045 C 
HETATM    5  C5  UNL     1       5.035 -27.656 -29.656  1.00  0.00     0.176 C 
HETATM    6  O1  UNL     1       4.341 -27.086 -28.564  1.00  0.00    -0.378 OA
HETATM    7  C6  UNL     1       3.262 -27.939 -28.625  1.00  0.00     0.074 C 
HETATM    8  C7  UNL     1       1.958 -27.319 -28.989  1.00  0.00     0.021 C 
HETATM    9  C8  UNL     1       1.725 -27.393 -30.495  1.00  0.00     0.013 C 
HETATM   10  C9  UNL     1       0.807 -27.916 -28.227  1.00  0.00    -0.006 C 
HETATM   11  C20 UNL     1       0.901 -29.409 -28.307  1.00  0.00     0.005 C 
HETATM   12  C21 UNL     1       2.084 -29.852 -27.505  1.00  0.00     0.008 C 
HETATM   13  C22 UNL     1       3.189 -28.852 -27.427  1.00  0.00     0.025 C 
ENDROOT
BRANCH  10  14
HETATM   14  C10 UNL     1      -0.523 -27.363 -28.603  1.00  0.00     0.037 C 
BRANCH  14  15
HETATM   15  C11 UNL     1      -1.407 -27.231 -27.407  1.00  0.00     0.127 C 
HETATM   16  O2  UNL     1      -2.684 -27.726 -27.603  1.00  0.00    -0.372 OA
HETATM   17  C12 UNL     1      -3.612 -27.055 -26.814  1.00  0.00     0.088 C 
HETATM   18  C13 UNL     1      -4.862 -27.917 -26.673  1.00  0.00     0.049 C 
HETATM   19  C14 UNL     1      -3.084 -26.836 -25.413  1.00  0.00     0.041 C 
HETATM   20  C18 UNL     1      -3.930 -25.754 -27.518  1.00  0.00     0.085 C 
HETATM   21  C15 UNL     1      -1.964 -25.803 -25.518  1.00  0.00     0.010 C 
HETATM   22  C16 UNL     1      -1.559 -25.768 -26.978  1.00  0.00     0.018 C 
HETATM   23  C17 UNL     1      -2.598 -25.098 -27.839  1.00  0.00     0.047 C 
HETATM   24  C19 UNL     1      -4.836 -24.861 -26.735  1.00  0.00     0.049 C 
BRANCH  20  25
HETATM   25  O3  UNL     1      -4.559 -26.112 -28.729  1.00  0.00    -0.387 OA
ATOM     26  H3  UNL     1      -4.790 -25.295 -29.154  1.00  0.00     0.210 HD
ENDBRANCH  20  25
ENDBRANCH  14  15
ENDBRANCH  10  14
TORSDOF 3
ENDMDL
MODEL 3
REMARK VINA RESULT: -6.977555448      1.662      2.266
REMARK  3 active torsions:
REMARK  status: ('A' for Active; 'I' for Inactive)
REMARK    1  A    between atoms: C9_10  and  C10_11 
REMARK    2  A    between atoms: C10_11  and  C11_12 
REMARK    3  A    between atoms: C18_20  and  O3_22 
ROOT
HETATM    1  C1  UNL     1       4.195 -30.786 -26.509  1.00  0.00     0.010 C 
HETATM    2  C2  UNL     1       4.197 -29.644 -27.487  1.00  0.00    -0.011 C 
HETATM    3  C3  UNL     1       4.167 -30.077 -28.916  1.00  0.00     0.014 C 
HETATM    4  C4  UNL     1       3.699 -28.823 -29.630  1.00  0.00     0.045 C 
HETATM    5  C5  UNL     1       4.836 -27.824 -29.672  1.00  0.00     0.176 C 
HETATM    6  O1  UNL     1       4.201 -27.167 -28.594  1.00  0.00    -0.378 OA
HETATM    7  C6  UNL     1       3.060 -27.937 -28.614  1.00  0.00     0.074 C 
HETATM    8  C7  UNL     1       1.803 -27.233 -28.987  1.00  0.00     0.021 C 
HETATM    9  C8  UNL     1       1.546 -27.340 -30.488  1.00  0.00     0.013 C 
HETATM   10  C9  UNL     1       0.619 -27.715 -28.193  1.00  0.00    -0.006 C 
HETATM   11  C20 UNL     1       0.599 -29.213 -28.222  1.00  0.00     0.005 C 
HETATM   12  C21 UNL     1       1.756 -29.716 -27.417  1.00  0.00     0.008 C 
HETATM   13  C22 UNL     1       2.934 -28.801 -27.385  1.00  0.00     0.025 C 
ENDROOT
BRANCH  10  14
HETATM   14  C10 UNL     1      -0.670 -27.075 -28.575  1.00  0.00     0.037 C 
BRANCH  14  15
HETATM   15  C11 UNL     1      -1.705 -27.283 -27.519  1.00  0.00     0.127 C 
HETATM   16  O2  UNL     1      -2.899 -26.633 -27.778  1.00  0.00    -0.372 OA
HETATM   17  C12 UNL     1      -3.554 -26.293 -26.599  1.00  0.00     0.088 C 
HETATM   18  C13 UNL     1      -5.029 -26.053 -26.900  1.00  0.00     0.049 C 
HETATM   19  C14 UNL     1      -3.502 -27.427 -25.597  1.00  0.00     0.041 C 
HETATM   20  C18 UNL     1      -2.897 -25.034 -26.077  1.00  0.00     0.085 C 
HETATM   21  C15 UNL     1      -2.053 -27.534 -25.126  1.00  0.00     0.010 C 
HETATM   22  C16 UNL     1      -1.220 -26.793 -26.151  1.00  0.00     0.018 C 
HETATM   23  C17 UNL     1      -1.402 -25.301 -26.059  1.00  0.00     0.047 C 
HETATM   24  C19 UNL     1      -3.419 -24.601 -24.745  1.00  0.00     0.049 C 
BRANCH  20  25
HETATM   25  O3  UNL     1      -3.166 -24.033 -27.032  1.00  0.00    -0.387 OA
ATOM     26  H3  UNL     1      -3.281 -23.228 -26.541  1.00  0.00     0.210 HD
ENDBRANCH  20  25
ENDBRANCH  14  15
ENDBRANCH  10  14
TORSDOF 3
ENDMDL
MODEL 4
REMARK VINA RESULT: -6.813005748      1.623      2.984
REMARK  3 active torsions:
REMARK  status: ('A' for Active; 'I' for Inactive)
REMARK    1  A    between atoms: C9_10  and  C10_11 
REMARK    2  A    between atoms: C10_11  and  C11_12 
REMARK    3  A    between atoms: C18_20  and  O3_22 
ROOT
HETATM    1  C1  UNL     1       2.120 -26.298 -31.934  1.00  0.00     0.010 C 
HETATM    2  C2  UNL     1       2.329 -27.271 -30.808  1.00  0.00    -0.011 C 
HETATM    3  C3  UNL     1       3.055 -26.691 -29.639  1.00  0.00     0.014 C 
HETATM    4  C4  UNL     1       2.715 -27.662 -28.525  1.00  0.00     0.045 C 
HETATM    5  C5  UNL     1       3.501 -28.941 -28.725  1.00  0.00     0.176 C 
HETATM    6  O1  UNL     1       2.316 -29.499 -29.258  1.00  0.00    -0.378 OA
HETATM    7  C6  UNL     1       1.507 -28.429 -28.948  1.00  0.00     0.074 C 
HETATM    8  C7  UNL     1       0.446 -28.684 -27.935  1.00  0.00     0.021 C 
HETATM    9  C8  UNL     1       0.940 -28.337 -26.533  1.00  0.00     0.013 C 
HETATM   10  C9  UNL     1      -0.837 -27.967 -28.256  1.00  0.00    -0.006 C 
HETATM   11  C20 UNL     1      -0.521 -26.537 -28.572  1.00  0.00     0.005 C 
HETATM   12  C21 UNL     1       0.211 -26.491 -29.877  1.00  0.00     0.008 C 
HETATM   13  C22 UNL     1       1.015 -27.711 -30.178  1.00  0.00     0.025 C 
ENDROOT
BRANCH  10  14
HETATM   14  C10 UNL     1      -1.907 -28.150 -27.238  1.00  0.00     0.037 C 
BRANCH  14  15
HETATM   15  C11 UNL     1      -2.656 -26.878 -27.012  1.00  0.00     0.127 C 
HETATM   16  O2  UNL     1      -2.688 -26.483 -25.686  1.00  0.00    -0.372 OA
HETATM   17  C12 UNL     1      -3.838 -25.753 -25.406  1.00  0.00     0.088 C 
HETATM   18  C13 UNL     1      -3.614 -24.934 -24.140  1.00  0.00     0.049 C 
HETATM   19  C14 UNL     1      -4.140 -24.760 -26.509  1.00  0.00     0.041 C 
HETATM   20  C18 UNL     1      -4.958 -26.752 -25.211  1.00  0.00     0.085 C 
HETATM   21  C15 UNL     1      -4.577 -25.571 -27.726  1.00  0.00     0.010 C 
HETATM   22  C16 UNL     1      -4.111 -26.991 -27.478  1.00  0.00     0.018 C 
HETATM   23  C17 UNL     1      -4.926 -27.678 -26.415  1.00  0.00     0.047 C 
HETATM   24  C19 UNL     1      -6.294 -26.116 -25.012  1.00  0.00     0.049 C 
BRANCH  20  25
HETATM   25  O3  UNL     1      -4.618 -27.495 -24.062  1.00  0.00    -0.387 OA
ATOM     26  H3  UNL     1      -5.125 -28.297 -24.110  1.00  0.00     0.210 HD
ENDBRANCH  20  25
ENDBRANCH  14  15
ENDBRANCH  10  14
TORSDOF 3
ENDMDL
MODEL 5
REMARK VINA RESULT: -6.750820836      1.052      1.240
REMARK  3 active torsions:
REMARK  status: ('A' for Active; 'I' for Inactive)
REMARK    1  A    between atoms: C9_10  and  C10_11 
REMARK    2  A    between atoms: C10_11  and  C11_12 
REMARK    3  A    between atoms: C18_20  and  O3_22 
ROOT
HETATM    1  C1  UNL     1       5.109 -29.424 -27.210  1.00  0.00     0.010 C 
HETATM    2  C2  UNL     1       4.512 -28.451 -28.188  1.00  0.00    -0.011 C 
HETATM    3  C3  UNL     1       4.361 -29.002 -29.567  1.00  0.00     0.014 C 
HETATM    4  C4  UNL     1       3.346 -28.061 -30.188  1.00  0.00     0.045 C 
HETATM    5  C5  UNL     1       4.020 -26.740 -30.495  1.00  0.00     0.176 C 
HETATM    6  O1  UNL     1       3.414 -26.242 -29.318  1.00  0.00    -0.378 OA
HETATM    7  C6  UNL     1       2.644 -27.357 -29.076  1.00  0.00     0.074 C 
HETATM    8  C7  UNL     1       1.171 -27.170 -29.183  1.00  0.00     0.021 C 
HETATM    9  C8  UNL     1       0.682 -27.502 -30.590  1.00  0.00     0.013 C 
HETATM   10  C9  UNL     1       0.417 -27.952 -28.142  1.00  0.00    -0.006 C 
HETATM   11  C20 UNL     1       0.929 -29.360 -28.137  1.00  0.00     0.005 C 
HETATM   12  C21 UNL     1       2.322 -29.354 -27.590  1.00  0.00     0.008 C 
HETATM   13  C22 UNL     1       3.077 -28.090 -27.832  1.00  0.00     0.025 C 
ENDROOT
BRANCH  10  14
HETATM   14  C10 UNL     1      -1.064 -27.837 -28.250  1.00  0.00     0.037 C 
BRANCH  14  15
HETATM   15  C11 UNL     1      -1.662 -27.393 -26.956  1.00  0.00     0.127 C 
HETATM   16  O2  UNL     1      -3.046 -27.416 -26.948  1.00  0.00    -0.372 OA
HETATM   17  C12 UNL     1      -3.562 -26.457 -26.084  1.00  0.00     0.088 C 
HETATM   18  C13 UNL     1      -4.995 -26.829 -25.723  1.00  0.00     0.049 C 
HETATM   19  C14 UNL     1      -2.789 -26.420 -24.782  1.00  0.00     0.041 C 
HETATM   20  C18 UNL     1      -3.514 -25.133 -26.816  1.00  0.00     0.085 C 
HETATM   21  C15 UNL     1      -1.412 -25.842 -25.100  1.00  0.00     0.010 C 
HETATM   22  C16 UNL     1      -1.240 -25.964 -26.600  1.00  0.00     0.018 C 
HETATM   23  C17 UNL     1      -2.101 -24.985 -27.352  1.00  0.00     0.047 C 
HETATM   24  C19 UNL     1      -3.934 -23.973 -25.974  1.00  0.00     0.049 C 
BRANCH  20  25
HETATM   25  O3  UNL     1      -4.399 -25.263 -27.906  1.00  0.00    -0.387 OA
ATOM     26  H3  UNL     1      -4.837 -24.424 -27.988  1.00  0.00     0.210 HD
ENDBRANCH  20  25
ENDBRANCH  14  15
ENDBRANCH  10  14
TORSDOF 3
ENDMDL
