MODEL 1
REMARK VINA RESULT: -6.524864735      0.000      0.000
REMARK  4 active torsions:
REMARK  status: ('A' for Active; 'I' for Inactive)
REMARK    1  A    between atoms: C2_2  and  C3_3 
REMARK    2  A    between atoms: N1_11  and  C11_13 
REMARK    3  A    between atoms: C11_13  and  C12_14 
REMARK    4  A    between atoms: C12_14  and  N2_15 
ROOT
HETATM    1  C3  UNL     1      -5.411   2.292  16.850  1.00  0.00     0.187 C 
HETATM    2  C4  UNL     1      -6.487   3.132  16.161  1.00  0.00     0.036 C 
HETATM    3  C5  UNL     1      -5.620   3.994  15.270  1.00  0.00     0.053 C 
HETATM    4  C6  UNL     1      -4.592   2.986  14.777  1.00  0.00     0.180 C 
HETATM    5  C7  UNL     1      -4.921   2.552  13.410  1.00  0.00     0.061 C 
HETATM    6  C8  UNL     1      -3.901   2.844  12.393  1.00  0.00     0.042 C 
HETATM    7  C9  UNL     1      -3.039   1.629  12.114  1.00  0.00     0.017 C 
HETATM    8  C10 UNL     1      -3.088   4.021  12.795  1.00  0.00     0.052 C 
HETATM    9  N1  UNL     1      -2.604   4.979  12.196  1.00  0.00    -0.365 N 
ATOM     10  H1  UNL     1      -2.081   5.640  12.770  1.00  0.00     0.165 HD
HETATM   11  S1  UNL     1      -2.959   3.761  14.602  1.00  0.00    -0.077 SA
HETATM   12  N3  UNL     1      -4.537   1.930  15.761  1.00  0.00    -0.052 N 
ATOM     13  H31 UNL     1      -4.752   1.013  15.369  1.00  0.00     0.279 HD
ATOM     14  H32 UNL     1      -3.586   1.726  16.069  1.00  0.00     0.279 HD
ENDROOT
BRANCH   9  15
HETATM   15  C11 UNL     1      -2.673   5.284  10.843  1.00  0.00     0.091 C 
BRANCH  15  16
HETATM   16  C12 UNL     1      -1.452   5.134  10.017  1.00  0.00     0.317 C 
BRANCH  16  17
HETATM   17  N2  UNL     1      -1.108   3.845   9.526  1.00  0.00     0.097 N 
HETATM   18  C13 UNL     1      -0.074   3.292  10.431  1.00  0.00     0.299 C 
HETATM   19  C14 UNL     1       1.256   3.940  10.244  1.00  0.00     0.198 C 
HETATM   20  O1  UNL     1       1.692   3.573   8.947  1.00  0.00    -0.388 OA
HETATM   21  C15 UNL     1       0.835   4.232   8.068  1.00  0.00     0.198 C 
HETATM   22  C16 UNL     1      -0.600   3.791   8.175  1.00  0.00     0.299 C 
ENDBRANCH  16  17
ENDBRANCH  15  16
ENDBRANCH   9  15
BRANCH   1  23
HETATM   23  C2  UNL     1      -6.003   1.044  17.462  1.00  0.00     0.028 C 
HETATM   24  C1  UNL     1      -7.440   0.933  17.034  1.00  0.00     0.007 C 
ENDBRANCH   1  23
TORSDOF 4
ENDMDL
MODEL 2
REMARK VINA RESULT: -6.485935409      1.747      2.566
REMARK  4 active torsions:
REMARK  status: ('A' for Active; 'I' for Inactive)
REMARK    1  A    between atoms: C2_2  and  C3_3 
REMARK    2  A    between atoms: N1_11  and  C11_13 
REMARK    3  A    between atoms: C11_13  and  C12_14 
REMARK    4  A    between atoms: C12_14  and  N2_15 
ROOT
HETATM    1  C3  UNL     1      -6.217   1.484  16.014  1.00  0.00     0.187 C 
HETATM    2  C4  UNL     1      -4.916   0.814  16.458  1.00  0.00     0.036 C 
HETATM    3  C5  UNL     1      -4.055   1.076  15.242  1.00  0.00     0.053 C 
HETATM    4  C6  UNL     1      -4.440   2.507  14.898  1.00  0.00     0.180 C 
HETATM    5  C7  UNL     1      -3.406   3.439  15.371  1.00  0.00     0.061 C 
HETATM    6  C8  UNL     1      -2.753   4.241  14.326  1.00  0.00     0.042 C 
HETATM    7  C9  UNL     1      -3.358   5.627  14.239  1.00  0.00     0.017 C 
HETATM    8  C10 UNL     1      -2.800   3.531  13.022  1.00  0.00     0.052 C 
HETATM    9  N1  UNL     1      -2.014   3.397  12.086  1.00  0.00    -0.365 N 
ATOM     10  H1  UNL     1      -2.350   2.832  11.306  1.00  0.00     0.165 HD
HETATM   11  S1  UNL     1      -4.455   2.757  13.099  1.00  0.00    -0.077 SA
HETATM   12  N3  UNL     1      -5.761   2.726  15.440  1.00  0.00    -0.052 N 
ATOM     13  H31 UNL     1      -5.793   3.503  16.101  1.00  0.00     0.279 HD
ATOM     14  H32 UNL     1      -6.412   3.106  14.753  1.00  0.00     0.279 HD
ENDROOT
BRANCH   9  15
HETATM   15  C11 UNL     1      -0.731   3.910  11.946  1.00  0.00     0.091 C 
BRANCH  15  16
HETATM   16  C12 UNL     1      -0.198   4.128  10.581  1.00  0.00     0.317 C 
BRANCH  16  17
HETATM   17  N2  UNL     1       0.670   5.231  10.350  1.00  0.00     0.097 N 
HETATM   18  C13 UNL     1       1.505   4.894   9.174  1.00  0.00     0.299 C 
HETATM   19  C14 UNL     1       2.550   3.877   9.486  1.00  0.00     0.198 C 
HETATM   20  O1  UNL     1       3.448   4.502  10.388  1.00  0.00    -0.388 OA
HETATM   21  C15 UNL     1       2.730   4.667  11.570  1.00  0.00     0.198 C 
HETATM   22  C16 UNL     1       1.548   5.591  11.439  1.00  0.00     0.299 C 
ENDBRANCH  16  17
ENDBRANCH  15  16
ENDBRANCH   9  15
BRANCH   1  23
HETATM   23  C2  UNL     1      -7.113   1.770  17.197  1.00  0.00     0.028 C 
HETATM   24  C1  UNL     1      -6.256   2.173  18.364  1.00  0.00     0.007 C 
ENDBRANCH   1  23
TORSDOF 4
ENDMDL
MODEL 3
REMARK VINA RESULT: -6.461125834      4.110      7.502
REMARK  4 active torsions:
REMARK  status: ('A' for Active; 'I' for Inactive)
REMARK    1  A    between atoms: C2_2  and  C3_3 
REMARK    2  A    between atoms: N1_11  and  C11_13 
REMARK    3  A    between atoms: C11_13  and  C12_14 
REMARK    4  A    between atoms: C12_14  and  N2_15 
ROOT
HETATM    1  C3  UNL     1      -1.138   9.128  13.974  1.00  0.00     0.187 C 
HETATM    2  C4  UNL     1      -1.549   8.674  15.375  1.00  0.00     0.036 C 
HETATM    3  C5  UNL     1      -2.691   7.745  15.029  1.00  0.00     0.053 C 
HETATM    4  C6  UNL     1      -2.139   7.026  13.807  1.00  0.00     0.180 C 
HETATM    5  C7  UNL     1      -1.655   5.689  14.181  1.00  0.00     0.061 C 
HETATM    6  C8  UNL     1      -2.325   4.564  13.512  1.00  0.00     0.042 C 
HETATM    7  C9  UNL     1      -1.514   4.062  12.335  1.00  0.00     0.017 C 
HETATM    8  C10 UNL     1      -3.705   4.946  13.114  1.00  0.00     0.052 C 
HETATM    9  N1  UNL     1      -4.790   4.367  13.106  1.00  0.00    -0.365 N 
ATOM     10  H1  UNL     1      -5.579   4.915  12.764  1.00  0.00     0.165 HD
HETATM   11  S1  UNL     1      -3.459   6.686  12.607  1.00  0.00    -0.077 SA
HETATM   12  N3  UNL     1      -1.148   7.898  13.220  1.00  0.00    -0.052 N 
ATOM     13  H31 UNL     1      -0.227   7.464  13.159  1.00  0.00     0.279 HD
ATOM     14  H32 UNL     1      -1.295   8.048  12.222  1.00  0.00     0.279 HD
ENDROOT
BRANCH   9  15
HETATM   15  C11 UNL     1      -5.087   3.069  13.500  1.00  0.00     0.091 C 
BRANCH  15  16
HETATM   16  C12 UNL     1      -5.913   2.865  14.713  1.00  0.00     0.317 C 
BRANCH  16  17
HETATM   17  N2  UNL     1      -5.276   2.859  15.985  1.00  0.00     0.097 N 
HETATM   18  C13 UNL     1      -4.034   2.065  15.850  1.00  0.00     0.299 C 
HETATM   19  C14 UNL     1      -4.298   0.601  15.750  1.00  0.00     0.198 C 
HETATM   20  O1  UNL     1      -4.829   0.212  17.005  1.00  0.00    -0.388 OA
HETATM   21  C15 UNL     1      -6.086   0.809  17.076  1.00  0.00     0.198 C 
HETATM   22  C16 UNL     1      -6.044   2.314  17.080  1.00  0.00     0.299 C 
ENDBRANCH  16  17
ENDBRANCH  15  16
ENDBRANCH   9  15
BRANCH   1  23
HETATM   23  C2  UNL     1       0.258   9.709  13.977  1.00  0.00     0.028 C 
HETATM   24  C1  UNL     1       0.469  10.447  15.269  1.00  0.00     0.007 C 
ENDBRANCH   1  23
TORSDOF 4
ENDMDL
MODEL 4
REMARK VINA RESULT: -6.410834506      5.254      7.853
REMARK  4 active torsions:
REMARK  status: ('A' for Active; 'I' for Inactive)
REMARK    1  A    between atoms: C2_2  and  C3_3 
REMARK    2  A    between atoms: N1_11  and  C11_13 
REMARK    3  A    between atoms: C11_13  and  C12_14 
REMARK    4  A    between atoms: C12_14  and  N2_15 
ROOT
HETATM    1  C3  UNL     1      -7.974   8.879   7.478  1.00  0.00     0.187 C 
HETATM    2  C4  UNL     1      -8.828   7.867   8.241  1.00  0.00     0.036 C 
HETATM    3  C5  UNL     1      -7.800   6.785   8.487  1.00  0.00     0.053 C 
HETATM    4  C6  UNL     1      -6.571   7.608   8.843  1.00  0.00     0.180 C 
HETATM    5  C7  UNL     1      -6.369   7.616  10.300  1.00  0.00     0.061 C 
HETATM    6  C8  UNL     1      -5.097   7.043  10.764  1.00  0.00     0.042 C 
HETATM    7  C9  UNL     1      -4.076   8.126  11.045  1.00  0.00     0.017 C 
HETATM    8  C10 UNL     1      -4.592   6.043   9.788  1.00  0.00     0.052 C 
HETATM    9  N1  UNL     1      -4.030   4.953   9.883  1.00  0.00    -0.365 N 
ATOM     10  H1  UNL     1      -3.803   4.496   9.001  1.00  0.00     0.165 HD
HETATM   11  S1  UNL     1      -5.062   6.826   8.203  1.00  0.00    -0.077 SA
HETATM   12  N3  UNL     1      -6.750   8.909   8.240  1.00  0.00    -0.052 N 
ATOM     13  H31 UNL     1      -6.726   9.668   8.922  1.00  0.00     0.279 HD
ATOM     14  H32 UNL     1      -5.945   9.200   7.684  1.00  0.00     0.279 HD
ENDROOT
BRANCH   9  15
HETATM   15  C11 UNL     1      -3.663   4.261  11.030  1.00  0.00     0.091 C 
BRANCH  15  16
HETATM   16  C12 UNL     1      -3.690   2.780  11.005  1.00  0.00     0.317 C 
BRANCH  16  17
HETATM   17  N2  UNL     1      -4.888   2.107  11.376  1.00  0.00     0.097 N 
HETATM   18  C13 UNL     1      -5.022   2.228  12.846  1.00  0.00     0.299 C 
HETATM   19  C14 UNL     1      -4.063   1.354  13.582  1.00  0.00     0.198 C 
HETATM   20  O1  UNL     1      -4.454   0.021  13.302  1.00  0.00    -0.388 OA
HETATM   21  C15 UNL     1      -4.167  -0.173  11.953  1.00  0.00     0.198 C 
HETATM   22  C16 UNL     1      -4.967   0.708  11.029  1.00  0.00     0.299 C 
ENDBRANCH  16  17
ENDBRANCH  15  16
ENDBRANCH   9  15
BRANCH   1  23
HETATM   23  C2  UNL     1      -8.613  10.250   7.491  1.00  0.00     0.028 C 
HETATM   24  C1  UNL     1     -10.078  10.101   7.194  1.00  0.00     0.007 C 
ENDBRANCH   1  23
TORSDOF 4
ENDMDL
MODEL 5
REMARK VINA RESULT: -6.391842289      3.205      4.302
REMARK  4 active torsions:
REMARK  status: ('A' for Active; 'I' for Inactive)
REMARK    1  A    between atoms: C2_2  and  C3_3 
REMARK    2  A    between atoms: N1_11  and  C11_13 
REMARK    3  A    between atoms: C11_13  and  C12_14 
REMARK    4  A    between atoms: C12_14  and  N2_15 
ROOT
HETATM    1  C3  UNL     1      -5.469   2.375  16.888  1.00  0.00     0.187 C 
HETATM    2  C4  UNL     1      -6.654   3.088  16.236  1.00  0.00     0.036 C 
HETATM    3  C5  UNL     1      -5.918   4.042  15.321  1.00  0.00     0.053 C 
HETATM    4  C6  UNL     1      -4.801   3.155  14.792  1.00  0.00     0.180 C 
HETATM    5  C7  UNL     1      -5.122   2.687  13.436  1.00  0.00     0.061 C 
HETATM    6  C8  UNL     1      -4.174   3.090  12.387  1.00  0.00     0.042 C 
HETATM    7  C9  UNL     1      -3.191   1.979  12.077  1.00  0.00     0.017 C 
HETATM    8  C10 UNL     1      -3.486   4.351  12.767  1.00  0.00     0.052 C 
HETATM    9  N1  UNL     1      -3.132   5.357  12.155  1.00  0.00    -0.365 N 
ATOM     10  H1  UNL     1      -2.668   6.073  12.714  1.00  0.00     0.165 HD
HETATM   11  S1  UNL     1      -3.271   4.109  14.567  1.00  0.00    -0.077 SA
HETATM   12  N3  UNL     1      -4.595   2.112  15.771  1.00  0.00    -0.052 N 
ATOM     13  H31 UNL     1      -4.719   1.177  15.383  1.00  0.00     0.279 HD
ATOM     14  H32 UNL     1      -3.618   2.017  16.047  1.00  0.00     0.279 HD
ENDROOT
BRANCH   9  15
HETATM   15  C11 UNL     1      -3.278   5.652  10.806  1.00  0.00     0.091 C 
BRANCH  15  16
HETATM   16  C12 UNL     1      -4.639   5.894  10.274  1.00  0.00     0.317 C 
BRANCH  16  17
HETATM   17  N2  UNL     1      -4.909   7.121   9.606  1.00  0.00     0.097 N 
HETATM   18  C13 UNL     1      -5.549   8.025  10.590  1.00  0.00     0.299 C 
HETATM   19  C14 UNL     1      -6.959   7.642  10.886  1.00  0.00     0.198 C 
HETATM   20  O1  UNL     1      -7.684   7.858   9.686  1.00  0.00    -0.388 OA
HETATM   21  C15 UNL     1      -7.220   6.893   8.795  1.00  0.00     0.198 C 
HETATM   22  C16 UNL     1      -5.763   7.041   8.444  1.00  0.00     0.299 C 
ENDBRANCH  16  17
ENDBRANCH  15  16
ENDBRANCH   9  15
BRANCH   1  23
HETATM   23  C2  UNL     1      -5.898   1.068  17.515  1.00  0.00     0.028 C 
HETATM   24  C1  UNL     1      -7.312   0.777  17.101  1.00  0.00     0.007 C 
ENDBRANCH   1  23
TORSDOF 4
ENDMDL
