MODEL 1
REMARK VINA RESULT: -6.491020472      0.000      0.000
REMARK  4 active torsions:
REMARK  status: ('A' for Active; 'I' for Inactive)
REMARK    1  A    between atoms: N1_2  and  N2_4 
REMARK    2  A    between atoms: N2_4  and  C3_6 
REMARK    3  A    between atoms: C3_6  and  N3_8 
REMARK    4  A    between atoms: N3_8  and  C4_10 
ROOT
HETATM    1  C4  UNL     1      -3.309   3.860  14.604  1.00  0.00     0.033 C 
HETATM    2  C5  UNL     1      -1.916   4.473  14.498  1.00  0.00     0.035 C 
HETATM    3  C6  UNL     1      -1.658   5.288  13.300  1.00  0.00    -0.012 C 
HETATM    4  C7  UNL     1      -1.986   6.756  13.468  1.00  0.00     0.005 C 
HETATM    5  C8  UNL     1      -3.103   6.968  14.466  1.00  0.00     0.005 C 
HETATM    6  C9  UNL     1      -4.288   6.100  14.202  1.00  0.00    -0.012 C 
HETATM    7  C10 UNL     1      -4.508   5.729  12.780  1.00  0.00     0.009 C 
HETATM    8  C11 UNL     1      -3.757   4.536  12.302  1.00  0.00    -0.012 C 
HETATM    9  C12 UNL     1      -2.301   4.809  12.036  1.00  0.00     0.009 C 
HETATM   10  C13 UNL     1      -3.804   3.366  13.289  1.00  0.00     0.035 C 
HETATM   11  C14 UNL     1      -4.256   4.898  15.124  1.00  0.00     0.035 C 
ENDROOT
BRANCH   1  12
HETATM   12  N3  UNL     1      -3.238   2.766  15.538  1.00  0.00    -0.357 N 
ATOM     13  H3  UNL     1      -2.374   2.704  16.076  1.00  0.00     0.162 HD
BRANCH  12  14
HETATM   14  C3  UNL     1      -4.192   1.772  15.813  1.00  0.00     0.182 C 
HETATM   15  S1  UNL     1      -4.343   0.375  15.004  1.00  0.00    -0.040 SA
BRANCH  14  16
HETATM   16  N2  UNL     1      -5.110   1.977  16.874  1.00  0.00    -0.296 N 
ATOM     17  H2  UNL     1      -4.793   2.006  17.843  1.00  0.00     0.183 HD
BRANCH  16  18
HETATM   18  N1  UNL     1      -6.458   2.138  16.559  1.00  0.00    -0.238 NA
HETATM   19  C1  UNL     1      -6.958   3.456  16.800  1.00  0.00     0.135 C 
HETATM   20  C2  UNL     1      -7.296   1.083  17.040  1.00  0.00     0.135 C 
ENDBRANCH  16  18
ENDBRANCH  14  16
ENDBRANCH  12  14
ENDBRANCH   1  12
TORSDOF 4
ENDMDL
MODEL 2
REMARK VINA RESULT: -6.168443022      2.148      3.398
REMARK  4 active torsions:
REMARK  status: ('A' for Active; 'I' for Inactive)
REMARK    1  A    between atoms: N1_2  and  N2_4 
REMARK    2  A    between atoms: N2_4  and  C3_6 
REMARK    3  A    between atoms: C3_6  and  N3_8 
REMARK    4  A    between atoms: N3_8  and  C4_10 
ROOT
HETATM    1  C4  UNL     1      -4.252   3.919  13.804  1.00  0.00     0.033 C 
HETATM    2  C5  UNL     1      -3.846   3.946  12.334  1.00  0.00     0.035 C 
HETATM    3  C6  UNL     1      -3.505   5.266  11.782  1.00  0.00    -0.012 C 
HETATM    4  C7  UNL     1      -2.041   5.629  11.904  1.00  0.00     0.005 C 
HETATM    5  C8  UNL     1      -1.402   4.976  13.109  1.00  0.00     0.005 C 
HETATM    6  C9  UNL     1      -2.191   5.175  14.360  1.00  0.00    -0.012 C 
HETATM    7  C10 UNL     1      -2.991   6.426  14.423  1.00  0.00     0.009 C 
HETATM    8  C11 UNL     1      -4.341   6.359  13.801  1.00  0.00    -0.012 C 
HETATM    9  C12 UNL     1      -4.314   6.417  12.297  1.00  0.00     0.009 C 
HETATM   10  C13 UNL     1      -5.106   5.084  14.170  1.00  0.00     0.035 C 
HETATM   11  C14 UNL     1      -3.014   3.936  14.648  1.00  0.00     0.035 C 
ENDROOT
BRANCH   1  12
HETATM   12  N3  UNL     1      -4.974   2.695  14.039  1.00  0.00    -0.357 N 
ATOM     13  H3  UNL     1      -5.987   2.790  14.107  1.00  0.00     0.162 HD
BRANCH  12  14
HETATM   14  C3  UNL     1      -4.479   1.389  14.189  1.00  0.00     0.182 C 
HETATM   15  S1  UNL     1      -4.566   0.507  15.547  1.00  0.00    -0.040 SA
BRANCH  14  16
HETATM   16  N2  UNL     1      -3.847   0.764  13.083  1.00  0.00    -0.296 N 
ATOM     17  H2  UNL     1      -2.841   0.850  12.939  1.00  0.00     0.183 HD
BRANCH  16  18
HETATM   18  N1  UNL     1      -4.635   0.030  12.200  1.00  0.00    -0.238 NA
HETATM   19  C1  UNL     1      -4.151  -1.293  11.951  1.00  0.00     0.135 C 
HETATM   20  C2  UNL     1      -5.023   0.755  11.029  1.00  0.00     0.135 C 
ENDBRANCH  16  18
ENDBRANCH  14  16
ENDBRANCH  12  14
ENDBRANCH   1  12
TORSDOF 4
ENDMDL
MODEL 3
REMARK VINA RESULT: -6.146495047      2.200      3.031
REMARK  4 active torsions:
REMARK  status: ('A' for Active; 'I' for Inactive)
REMARK    1  A    between atoms: N1_2  and  N2_4 
REMARK    2  A    between atoms: N2_4  and  C3_6 
REMARK    3  A    between atoms: C3_6  and  N3_8 
REMARK    4  A    between atoms: N3_8  and  C4_10 
ROOT
HETATM    1  C4  UNL     1      -4.198   3.932  13.491  1.00  0.00     0.033 C 
HETATM    2  C5  UNL     1      -3.020   4.046  14.454  1.00  0.00     0.035 C 
HETATM    3  C6  UNL     1      -1.908   4.904  14.016  1.00  0.00    -0.012 C 
HETATM    4  C7  UNL     1      -2.037   6.351  14.442  1.00  0.00     0.005 C 
HETATM    5  C8  UNL     1      -3.485   6.768  14.573  1.00  0.00     0.005 C 
HETATM    6  C9  UNL     1      -4.302   6.404  13.378  1.00  0.00    -0.012 C 
HETATM    7  C10 UNL     1      -3.567   6.358  12.087  1.00  0.00     0.009 C 
HETATM    8  C11 UNL     1      -2.881   5.074  11.781  1.00  0.00    -0.012 C 
HETATM    9  C12 UNL     1      -1.602   4.877  12.550  1.00  0.00     0.009 C 
HETATM   10  C13 UNL     1      -3.753   3.848  12.071  1.00  0.00     0.035 C 
HETATM   11  C14 UNL     1      -5.078   5.133  13.657  1.00  0.00     0.035 C 
ENDROOT
BRANCH   1  12
HETATM   12  N3  UNL     1      -4.937   2.746  13.838  1.00  0.00    -0.357 N 
ATOM     13  H3  UNL     1      -5.948   2.864  13.907  1.00  0.00     0.162 HD
BRANCH  12  14
HETATM   14  C3  UNL     1      -4.462   1.449  14.097  1.00  0.00     0.182 C 
HETATM   15  S1  UNL     1      -4.589   0.674  15.515  1.00  0.00    -0.040 SA
BRANCH  14  16
HETATM   16  N2  UNL     1      -3.813   0.737  13.056  1.00  0.00    -0.296 N 
ATOM     17  H2  UNL     1      -2.802   0.795  12.933  1.00  0.00     0.183 HD
BRANCH  16  18
HETATM   18  N1  UNL     1      -4.591  -0.046  12.206  1.00  0.00    -0.238 NA
HETATM   19  C1  UNL     1      -4.080  -1.365  12.000  1.00  0.00     0.135 C 
HETATM   20  C2  UNL     1      -5.006   0.629  11.014  1.00  0.00     0.135 C 
ENDBRANCH  16  18
ENDBRANCH  14  16
ENDBRANCH  12  14
ENDBRANCH   1  12
TORSDOF 4
ENDMDL
MODEL 4
REMARK VINA RESULT: -6.138399923      1.012      2.132
REMARK  4 active torsions:
REMARK  status: ('A' for Active; 'I' for Inactive)
REMARK    1  A    between atoms: N1_2  and  N2_4 
REMARK    2  A    between atoms: N2_4  and  C3_6 
REMARK    3  A    between atoms: C3_6  and  N3_8 
REMARK    4  A    between atoms: N3_8  and  C4_10 
ROOT
HETATM    1  C4  UNL     1      -4.381   3.951  14.291  1.00  0.00     0.033 C 
HETATM    2  C5  UNL     1      -4.290   3.797  12.776  1.00  0.00     0.035 C 
HETATM    3  C6  UNL     1      -3.841   4.983  12.030  1.00  0.00    -0.012 C 
HETATM    4  C7  UNL     1      -2.343   5.058  11.832  1.00  0.00     0.005 C 
HETATM    5  C8  UNL     1      -1.595   4.378  12.957  1.00  0.00     0.005 C 
HETATM    6  C9  UNL     1      -2.059   4.813  14.307  1.00  0.00    -0.012 C 
HETATM    7  C10 UNL     1      -2.593   6.198  14.386  1.00  0.00     0.009 C 
HETATM    8  C11 UNL     1      -4.032   6.354  14.043  1.00  0.00    -0.012 C 
HETATM    9  C12 UNL     1      -4.307   6.302  12.564  1.00  0.00     0.009 C 
HETATM   10  C13 UNL     1      -4.919   5.283  14.685  1.00  0.00     0.035 C 
HETATM   11  C14 UNL     1      -3.012   3.783  14.877  1.00  0.00     0.035 C 
ENDROOT
BRANCH   1  12
HETATM   12  N3  UNL     1      -5.245   2.912  14.788  1.00  0.00    -0.357 N 
ATOM     13  H3  UNL     1      -6.243   3.066  14.644  1.00  0.00     0.162 HD
BRANCH  12  14
HETATM   14  C3  UNL     1      -4.908   1.716  15.443  1.00  0.00     0.182 C 
HETATM   15  S1  UNL     1      -4.369   0.371  14.715  1.00  0.00    -0.040 SA
BRANCH  14  16
HETATM   16  N2  UNL     1      -5.040   1.646  16.854  1.00  0.00    -0.296 N 
ATOM     17  H2  UNL     1      -4.244   1.401  17.443  1.00  0.00     0.183 HD
BRANCH  16  18
HETATM   18  N1  UNL     1      -6.285   1.922  17.415  1.00  0.00    -0.238 NA
HETATM   19  C1  UNL     1      -6.238   2.231  18.810  1.00  0.00     0.135 C 
HETATM   20  C2  UNL     1      -7.308   0.995  17.042  1.00  0.00     0.135 C 
ENDBRANCH  16  18
ENDBRANCH  14  16
ENDBRANCH  12  14
ENDBRANCH   1  12
TORSDOF 4
ENDMDL
MODEL 5
REMARK VINA RESULT: -6.136445694      0.423      2.097
REMARK  4 active torsions:
REMARK  status: ('A' for Active; 'I' for Inactive)
REMARK    1  A    between atoms: N1_2  and  N2_4 
REMARK    2  A    between atoms: N2_4  and  C3_6 
REMARK    3  A    between atoms: C3_6  and  N3_8 
REMARK    4  A    between atoms: N3_8  and  C4_10 
ROOT
HETATM    1  C4  UNL     1      -3.105   3.805  14.578  1.00  0.00     0.033 C 
HETATM    2  C5  UNL     1      -4.279   4.752  14.809  1.00  0.00     0.035 C 
HETATM    3  C6  UNL     1      -4.157   6.090  14.208  1.00  0.00    -0.012 C 
HETATM    4  C7  UNL     1      -4.713   6.191  12.804  1.00  0.00     0.005 C 
HETATM    5  C8  UNL     1      -4.616   4.873  12.068  1.00  0.00     0.005 C 
HETATM    6  C9  UNL     1      -3.255   4.264  12.149  1.00  0.00    -0.012 C 
HETATM    7  C10 UNL     1      -2.129   5.225  12.279  1.00  0.00     0.009 C 
HETATM    8  C11 UNL     1      -1.814   5.665  13.665  1.00  0.00    -0.012 C 
HETATM    9  C12 UNL     1      -2.781   6.681  14.208  1.00  0.00     0.009 C 
HETATM   10  C13 UNL     1      -1.794   4.507  14.669  1.00  0.00     0.035 C 
HETATM   11  C14 UNL     1      -3.238   3.191  13.218  1.00  0.00     0.035 C 
ENDROOT
BRANCH   1  12
HETATM   12  N3  UNL     1      -3.172   2.771  15.579  1.00  0.00    -0.357 N 
ATOM     13  H3  UNL     1      -2.380   2.731  16.221  1.00  0.00     0.162 HD
BRANCH  12  14
HETATM   14  C3  UNL     1      -4.172   1.809  15.795  1.00  0.00     0.182 C 
HETATM   15  S1  UNL     1      -4.379   0.463  14.915  1.00  0.00    -0.040 SA
BRANCH  14  16
HETATM   16  N2  UNL     1      -5.092   2.003  16.857  1.00  0.00    -0.296 N 
ATOM     17  H2  UNL     1      -4.775   2.026  17.827  1.00  0.00     0.183 HD
BRANCH  16  18
HETATM   18  N1  UNL     1      -6.440   2.160  16.544  1.00  0.00    -0.238 NA
HETATM   19  C1  UNL     1      -6.942   3.478  16.780  1.00  0.00     0.135 C 
HETATM   20  C2  UNL     1      -7.275   1.106  17.030  1.00  0.00     0.135 C 
ENDBRANCH  16  18
ENDBRANCH  14  16
ENDBRANCH  12  14
ENDBRANCH   1  12
TORSDOF 4
ENDMDL
