MODEL 1
REMARK VINA RESULT: -6.675378560      0.000      0.000
REMARK  3 active torsions:
REMARK  status: ('A' for Active; 'I' for Inactive)
REMARK    1  A    between atoms: O1_1  and  C1_3 
REMARK    2  A    between atoms: C4_6  and  C5_7 
REMARK    3  A    between atoms: C5_7  and  N1_8 
ROOT
HETATM    1  C5  UNL     1      -4.708   3.496  14.264  1.00  0.00     0.038 A 
HETATM    2  C13 UNL     1      -5.646   3.023  15.378  1.00  0.00     0.034 A 
HETATM    3  C14 UNL     1      -6.179   3.838  14.258  1.00  0.00     0.034 A 
ENDROOT
BRANCH   1   4
HETATM    4  C4  UNL     1      -3.712   4.500  14.750  1.00  0.00     0.043 C 
HETATM    5  C1  UNL     1      -2.282   4.309  14.281  1.00  0.00     0.124 C 
HETATM    6  C2  UNL     1      -2.166   5.839  14.318  1.00  0.00     0.033 C 
HETATM    7  C3  UNL     1      -3.680   5.837  14.042  1.00  0.00     0.012 C 
BRANCH   5   8
HETATM    8  O1  UNL     1      -1.433   3.736  15.194  1.00  0.00    -0.395 OA
ATOM      9  H1  UNL     1      -0.708   3.307  14.755  1.00  0.00     0.210 HD
ENDBRANCH   5   8
ENDBRANCH   1   4
BRANCH   1  10
HETATM   10  N1  UNL     1      -4.202   2.525  13.370  1.00  0.00    -0.376 N 
HETATM   11  C6  UNL     1      -3.808   1.277  13.860  1.00  0.00     0.089 C 
HETATM   12  C7  UNL     1      -4.471   0.158  13.088  1.00  0.00     0.316 C 
HETATM   13  N2  UNL     1      -4.633   0.412  11.698  1.00  0.00     0.095 N 
HETATM   14  C8  UNL     1      -3.449   0.172  10.914  1.00  0.00     0.273 C 
HETATM   15  C12 UNL     1      -5.166   1.696  11.349  1.00  0.00     0.297 C 
HETATM   16  C9  UNL     1      -2.546   1.316  10.743  1.00  0.00     0.032 C 
HETATM   17  C10 UNL     1      -2.869   2.583  11.405  1.00  0.00     0.029 C 
HETATM   18  C11 UNL     1      -4.247   2.730  11.990  1.00  0.00     0.112 C 
ENDBRANCH   1  10
TORSDOF 3
ENDMDL
MODEL 2
REMARK VINA RESULT: -6.503650217      1.853      3.095
REMARK  3 active torsions:
REMARK  status: ('A' for Active; 'I' for Inactive)
REMARK    1  A    between atoms: O1_1  and  C1_3 
REMARK    2  A    between atoms: C4_6  and  C5_7 
REMARK    3  A    between atoms: C5_7  and  N1_8 
ROOT
HETATM    1  C5  UNL     1      -5.363   3.378  14.655  1.00  0.00     0.038 A 
HETATM    2  C13 UNL     1      -6.573   4.295  14.454  1.00  0.00     0.034 A 
HETATM    3  C14 UNL     1      -5.404   4.774  15.232  1.00  0.00     0.034 A 
ENDROOT
BRANCH   1   4
HETATM    4  C4  UNL     1      -5.682   2.204  15.525  1.00  0.00     0.043 C 
HETATM    5  C1  UNL     1      -4.628   1.819  16.547  1.00  0.00     0.124 C 
HETATM    6  C2  UNL     1      -5.793   1.377  17.442  1.00  0.00     0.033 C 
HETATM    7  C3  UNL     1      -6.610   2.446  16.696  1.00  0.00     0.012 C 
BRANCH   5   8
HETATM    8  O1  UNL     1      -3.842   0.746  16.208  1.00  0.00    -0.395 OA
ATOM      9  H1  UNL     1      -4.117   0.378  15.376  1.00  0.00     0.210 HD
ENDBRANCH   5   8
ENDBRANCH   1   4
BRANCH   1  10
HETATM   10  N1  UNL     1      -4.553   3.097  13.533  1.00  0.00    -0.376 N 
HETATM   11  C6  UNL     1      -4.661   1.858  12.896  1.00  0.00     0.089 C 
HETATM   12  C7  UNL     1      -4.883   2.029  11.410  1.00  0.00     0.316 C 
HETATM   13  N2  UNL     1      -4.183   3.123  10.829  1.00  0.00     0.095 N 
HETATM   14  C8  UNL     1      -2.801   2.845  10.531  1.00  0.00     0.273 C 
HETATM   15  C12 UNL     1      -4.264   4.369  11.532  1.00  0.00     0.297 C 
HETATM   16  C9  UNL     1      -1.839   3.147  11.597  1.00  0.00     0.032 C 
HETATM   17  C10 UNL     1      -2.335   3.648  12.882  1.00  0.00     0.029 C 
HETATM   18  C11 UNL     1      -3.770   4.094  12.948  1.00  0.00     0.112 C 
ENDBRANCH   1  10
TORSDOF 3
ENDMDL
MODEL 3
REMARK VINA RESULT: -6.261610077      1.670      2.748
REMARK  3 active torsions:
REMARK  status: ('A' for Active; 'I' for Inactive)
REMARK    1  A    between atoms: O1_1  and  C1_3 
REMARK    2  A    between atoms: C4_6  and  C5_7 
REMARK    3  A    between atoms: C5_7  and  N1_8 
ROOT
HETATM    1  C5  UNL     1      -4.996   3.147  14.445  1.00  0.00     0.038 A 
HETATM    2  C13 UNL     1      -5.902   4.320  14.059  1.00  0.00     0.034 A 
HETATM    3  C14 UNL     1      -4.664   4.568  14.838  1.00  0.00     0.034 A 
ENDROOT
BRANCH   1   4
HETATM    4  C4  UNL     1      -5.645   2.233  15.435  1.00  0.00     0.043 C 
HETATM    5  C1  UNL     1      -4.820   1.872  16.656  1.00  0.00     0.124 C 
HETATM    6  C2  UNL     1      -6.149   1.817  17.421  1.00  0.00     0.033 C 
HETATM    7  C3  UNL     1      -6.641   2.851  16.392  1.00  0.00     0.012 C 
BRANCH   5   8
HETATM    8  O1  UNL     1      -4.228   0.633  16.622  1.00  0.00    -0.395 OA
ATOM      9  H1  UNL     1      -4.521   0.142  15.864  1.00  0.00     0.210 HD
ENDBRANCH   5   8
ENDBRANCH   1   4
BRANCH   1  10
HETATM   10  N1  UNL     1      -4.269   2.508  13.416  1.00  0.00    -0.376 N 
HETATM   11  C6  UNL     1      -4.197   1.112  13.387  1.00  0.00     0.089 C 
HETATM   12  C7  UNL     1      -4.604   0.578  12.032  1.00  0.00     0.316 C 
HETATM   13  N2  UNL     1      -4.198   1.382  10.931  1.00  0.00     0.095 N 
HETATM   14  C8  UNL     1      -2.828   1.186  10.532  1.00  0.00     0.273 C 
HETATM   15  C12 UNL     1      -4.448   2.788  11.051  1.00  0.00     0.297 C 
HETATM   16  C9  UNL     1      -1.837   2.051  11.182  1.00  0.00     0.032 C 
HETATM   17  C10 UNL     1      -2.284   3.000  12.207  1.00  0.00     0.029 C 
HETATM   18  C11 UNL     1      -3.764   3.236  12.338  1.00  0.00     0.112 C 
ENDBRANCH   1  10
TORSDOF 3
ENDMDL
MODEL 4
REMARK VINA RESULT: -6.207833259      1.915      3.346
REMARK  3 active torsions:
REMARK  status: ('A' for Active; 'I' for Inactive)
REMARK    1  A    between atoms: O1_1  and  C1_3 
REMARK    2  A    between atoms: C4_6  and  C5_7 
REMARK    3  A    between atoms: C5_7  and  N1_8 
ROOT
HETATM    1  C5  UNL     1      -5.056   3.001  14.269  1.00  0.00     0.038 A 
HETATM    2  C13 UNL     1      -5.074   4.508  13.997  1.00  0.00     0.034 A 
HETATM    3  C14 UNL     1      -3.955   3.909  14.765  1.00  0.00     0.034 A 
ENDROOT
BRANCH   1   4
HETATM    4  C4  UNL     1      -6.150   2.581  15.199  1.00  0.00     0.043 C 
HETATM    5  C1  UNL     1      -5.761   1.610  16.298  1.00  0.00     0.124 C 
HETATM    6  C2  UNL     1      -6.824   2.307  17.158  1.00  0.00     0.033 C 
HETATM    7  C3  UNL     1      -6.528   3.548  16.299  1.00  0.00     0.012 C 
BRANCH   5   8
HETATM    8  O1  UNL     1      -6.100   0.299  16.075  1.00  0.00    -0.395 OA
ATOM      9  H1  UNL     1      -5.586  -0.064  15.364  1.00  0.00     0.210 HD
ENDBRANCH   5   8
ENDBRANCH   1   4
BRANCH   1  10
HETATM   10  N1  UNL     1      -4.823   2.135  13.177  1.00  0.00    -0.376 N 
HETATM   11  C6  UNL     1      -5.529   2.323  11.985  1.00  0.00     0.089 C 
HETATM   12  C7  UNL     1      -4.587   2.402  10.805  1.00  0.00     0.316 C 
HETATM   13  N2  UNL     1      -3.456   1.543  10.891  1.00  0.00     0.095 N 
HETATM   14  C8  UNL     1      -3.723   0.180  10.512  1.00  0.00     0.273 C 
HETATM   15  C12 UNL     1      -2.754   1.548  12.140  1.00  0.00     0.297 C 
HETATM   16  C9  UNL     1      -4.148  -0.718  11.592  1.00  0.00     0.032 C 
HETATM   17  C10 UNL     1      -4.321  -0.175  12.942  1.00  0.00     0.029 C 
HETATM   18  C11 UNL     1      -3.784   1.204  13.211  1.00  0.00     0.112 C 
ENDBRANCH   1  10
TORSDOF 3
ENDMDL
MODEL 5
REMARK VINA RESULT: -6.186535051      1.795      4.341
REMARK  3 active torsions:
REMARK  status: ('A' for Active; 'I' for Inactive)
REMARK    1  A    between atoms: O1_1  and  C1_3 
REMARK    2  A    between atoms: C4_6  and  C5_7 
REMARK    3  A    between atoms: C5_7  and  N1_8 
ROOT
HETATM    1  C5  UNL     1      -4.362   2.499  13.257  1.00  0.00     0.038 A 
HETATM    2  C13 UNL     1      -3.802   1.481  12.260  1.00  0.00     0.034 A 
HETATM    3  C14 UNL     1      -5.092   2.157  11.979  1.00  0.00     0.034 A 
ENDROOT
BRANCH   1   4
HETATM    4  C4  UNL     1      -4.777   1.860  14.544  1.00  0.00     0.043 C 
HETATM    5  C1  UNL     1      -3.952   2.216  15.767  1.00  0.00     0.124 C 
HETATM    6  C2  UNL     1      -5.250   2.064  16.570  1.00  0.00     0.033 C 
HETATM    7  C3  UNL     1      -5.959   2.470  15.266  1.00  0.00     0.012 C 
BRANCH   5   8
HETATM    8  O1  UNL     1      -3.030   1.274  16.151  1.00  0.00    -0.395 OA
ATOM      9  H1  UNL     1      -2.946   1.254  17.097  1.00  0.00     0.210 HD
ENDBRANCH   5   8
ENDBRANCH   1   4
BRANCH   1  10
HETATM   10  N1  UNL     1      -3.694   3.737  13.383  1.00  0.00    -0.376 N 
HETATM   11  C6  UNL     1      -2.300   3.781  13.287  1.00  0.00     0.089 C 
HETATM   12  C7  UNL     1      -1.860   4.810  12.270  1.00  0.00     0.316 C 
HETATM   13  N2  UNL     1      -2.661   5.984  12.229  1.00  0.00     0.095 N 
HETATM   14  C8  UNL     1      -2.346   6.947  13.252  1.00  0.00     0.273 C 
HETATM   15  C12 UNL     1      -4.080   5.779  12.206  1.00  0.00     0.297 C 
HETATM   16  C9  UNL     1      -3.085   6.813  14.513  1.00  0.00     0.032 C 
HETATM   17  C10 UNL     1      -4.033   5.706  14.667  1.00  0.00     0.029 C 
HETATM   18  C11 UNL     1      -4.409   4.935  13.432  1.00  0.00     0.112 C 
ENDBRANCH   1  10
TORSDOF 3
ENDMDL
