MODEL 1
REMARK VINA RESULT: -6.965686889      0.000      0.000
REMARK  18 active torsions:
REMARK  status: ('A' for Active; 'I' for Inactive)
REMARK    1  A    between atoms: C2_2  and  C3_3 
REMARK    2  A    between atoms: C3_3  and  C4_4 
REMARK    3  A    between atoms: C4_4  and  C5_5 
REMARK    4  A    between atoms: C5_5  and  C6_6 
REMARK    5  A    between atoms: C6_6  and  C7_7 
REMARK    6  A    between atoms: C7_7  and  C8_8 
REMARK    7  A    between atoms: C8_8  and  C9_9 
REMARK    8  A    between atoms: C9_9  and  C10_10 
REMARK    9  A    between atoms: C10_10  and  C11_11 
REMARK   10  A    between atoms: C11_11  and  C12_12 
REMARK   11  A    between atoms: C12_12  and  N1_13 
REMARK   12  A    between atoms: N1_13  and  C13_15 
REMARK   13  A    between atoms: C14_18  and  N3_19 
REMARK   14  A    between atoms: C16_25  and  N5_26 
REMARK   15  A    between atoms: C19_29  and  C20_30 
REMARK   16  A    between atoms: C20_30  and  N6_31 
REMARK   17  A    between atoms: C24_42  and  N9_43 
REMARK   18  A    between atoms: N9_43  and  N10_45 
ROOT
HETATM    1  C13 UNL     1      33.170  40.164  -9.478  1.00  0.00     0.153 C 
HETATM    2  N2  UNL     1      33.857  39.134  -8.895  1.00  0.00    -0.324 N 
ATOM      3  H2  UNL     1      33.692  38.216  -9.308  1.00  0.00     0.169 HD
HETATM    4  C14 UNL     1      34.715  39.145  -7.859  1.00  0.00     0.132 C 
HETATM    5  C15 UNL     1      34.861  40.084  -6.850  1.00  0.00     0.137 A 
HETATM    6  N4  UNL     1      35.497  39.935  -5.685  1.00  0.00    -0.184 N 
ATOM      7  H4  UNL     1      35.971  39.084  -5.383  1.00  0.00     0.184 HD
HETATM    8  C16 UNL     1      35.420  41.090  -4.955  1.00  0.00     0.682 A 
HETATM    9  N7  UNL     1      34.721  41.954  -5.703  1.00  0.00    -0.174 N 
ATOM     10  H7  UNL     1      34.491  42.911  -5.433  1.00  0.00     0.186 HD
HETATM   11  C23 UNL     1      34.363  41.368  -6.872  1.00  0.00     0.154 A 
HETATM   12  N8  UNL     1      33.642  41.974  -7.846  1.00  0.00    -0.322 N 
ATOM     13  H8  UNL     1      33.641  42.994  -7.850  1.00  0.00     0.169 HD
HETATM   14  C24 UNL     1      32.923  41.362  -8.816  1.00  0.00     0.166 C 
ENDROOT
BRANCH   1  15
HETATM   15  N1  UNL     1      32.752  40.015 -10.640  1.00  0.00    -0.353 N 
ATOM     16  H1  UNL     1      32.271  40.841 -10.998  1.00  0.00     0.166 HD
BRANCH  15  17
HETATM   17  C12 UNL     1      32.796  38.960 -11.570  1.00  0.00     0.062 C 
BRANCH  17  18
HETATM   18  C11 UNL     1      32.287  39.432 -12.933  1.00  0.00     0.044 C 
BRANCH  18  19
HETATM   19  C10 UNL     1      31.685  40.801 -12.816  1.00  0.00     0.005 C 
BRANCH  19  20
HETATM   20  C9  UNL     1      32.331  41.803 -13.720  1.00  0.00     0.000 C 
BRANCH  20  21
HETATM   21  C8  UNL     1      32.639  43.091 -13.015  1.00  0.00     0.000 C 
BRANCH  21  22
HETATM   22  C7  UNL     1      32.591  44.263 -13.946  1.00  0.00     0.000 C 
BRANCH  22  23
HETATM   23  C6  UNL     1      32.389  43.848 -15.383  1.00  0.00     0.000 C 
BRANCH  23  24
HETATM   24  C5  UNL     1      31.134  44.540 -15.901  1.00  0.00     0.000 C 
BRANCH  24  25
HETATM   25  C4  UNL     1      30.009  43.540 -15.876  1.00  0.00     0.000 C 
BRANCH  25  26
HETATM   26  C3  UNL     1      28.887  44.040 -14.991  1.00  0.00    -0.000 C 
BRANCH  26  27
HETATM   27  C2  UNL     1      28.884  43.285 -13.674  1.00  0.00    -0.005 C 
HETATM   28  C1  UNL     1      28.298  41.906 -13.876  1.00  0.00     0.005 C 
ENDBRANCH  26  27
ENDBRANCH  25  26
ENDBRANCH  24  25
ENDBRANCH  23  24
ENDBRANCH  22  23
ENDBRANCH  21  22
ENDBRANCH  20  21
ENDBRANCH  19  20
ENDBRANCH  18  19
ENDBRANCH  17  18
ENDBRANCH  15  17
ENDBRANCH   1  15
BRANCH  14  29
HETATM   29  N9  UNL     1      31.867  42.000  -9.153  1.00  0.00    -0.289 N 
ATOM     30  H9  UNL     1      30.985  41.490  -9.215  1.00  0.00     0.188 HD
BRANCH  29  31
HETATM   31  N10 UNL     1      31.874  43.349  -9.436  1.00  0.00    -0.344 N 
ATOM     32 2H10 UNL     1      32.610  43.701 -10.048  1.00  0.00     0.176 HD
ATOM     33 1H10 UNL     1      31.179  43.993  -9.058  1.00  0.00     0.176 HD
ENDBRANCH  29  31
ENDBRANCH  14  29
BRANCH   4  34
HETATM   34  N3  UNL     1      35.538  38.159  -7.752  1.00  0.00    -0.383 N 
ATOM     35  H32 UNL     1      35.237  37.331  -8.264  1.00  0.00     0.157 HD
ATOM     36  H31 UNL     1      36.376  38.301  -7.188  1.00  0.00     0.157 HD
ENDBRANCH   4  34
BRANCH   8  37
HETATM   37  N5  UNL     1      35.961  41.326  -3.674  1.00  0.00    -0.217 N 
HETATM   38  C17 UNL     1      37.381  41.485  -3.510  1.00  0.00     0.141 C 
HETATM   39  C18 UNL     1      37.562  42.878  -2.891  1.00  0.00     0.027 C 
HETATM   40  C19 UNL     1      36.960  42.861  -1.530  1.00  0.00     0.014 C 
HETATM   41  C21 UNL     1      35.934  41.812  -1.279  1.00  0.00     0.027 C 
HETATM   42  C22 UNL     1      35.125  41.419  -2.497  1.00  0.00     0.141 C 
BRANCH  40  43
HETATM   43  C20 UNL     1      36.445  44.250  -1.123  1.00  0.00     0.234 C 
BRANCH  43  44
HETATM   44  N6  UNL     1      37.584  45.040  -0.743  1.00  0.00    -0.079 N 
ATOM     45  H63 UNL     1      38.234  45.198  -1.513  1.00  0.00     0.274 HD
ATOM     46  H62 UNL     1      37.349  46.016  -0.563  1.00  0.00     0.274 HD
ATOM     47  H61 UNL     1      38.021  44.583   0.058  1.00  0.00     0.274 HD
ENDBRANCH  43  44
ENDBRANCH  40  43
ENDBRANCH   8  37
TORSDOF 18
ENDMDL
MODEL 2
REMARK VINA RESULT: -6.954683560      1.335      2.842
REMARK  18 active torsions:
REMARK  status: ('A' for Active; 'I' for Inactive)
REMARK    1  A    between atoms: C2_2  and  C3_3 
REMARK    2  A    between atoms: C3_3  and  C4_4 
REMARK    3  A    between atoms: C4_4  and  C5_5 
REMARK    4  A    between atoms: C5_5  and  C6_6 
REMARK    5  A    between atoms: C6_6  and  C7_7 
REMARK    6  A    between atoms: C7_7  and  C8_8 
REMARK    7  A    between atoms: C8_8  and  C9_9 
REMARK    8  A    between atoms: C9_9  and  C10_10 
REMARK    9  A    between atoms: C10_10  and  C11_11 
REMARK   10  A    between atoms: C11_11  and  C12_12 
REMARK   11  A    between atoms: C12_12  and  N1_13 
REMARK   12  A    between atoms: N1_13  and  C13_15 
REMARK   13  A    between atoms: C14_18  and  N3_19 
REMARK   14  A    between atoms: C16_25  and  N5_26 
REMARK   15  A    between atoms: C19_29  and  C20_30 
REMARK   16  A    between atoms: C20_30  and  N6_31 
REMARK   17  A    between atoms: C24_42  and  N9_43 
REMARK   18  A    between atoms: N9_43  and  N10_45 
ROOT
HETATM    1  C13 UNL     1      33.851  39.804  -9.362  1.00  0.00     0.153 C 
HETATM    2  N2  UNL     1      33.604  41.058  -8.874  1.00  0.00    -0.324 N 
ATOM      3  H2  UNL     1      33.263  41.730  -9.562  1.00  0.00     0.169 HD
HETATM    4  C14 UNL     1      33.743  41.542  -7.626  1.00  0.00     0.132 C 
HETATM    5  C15 UNL     1      34.520  41.065  -6.582  1.00  0.00     0.137 A 
HETATM    6  N4  UNL     1      34.875  41.714  -5.470  1.00  0.00    -0.184 N 
ATOM      7  H4  UNL     1      34.609  42.672  -5.243  1.00  0.00     0.184 HD
HETATM    8  C16 UNL     1      35.647  40.906  -4.680  1.00  0.00     0.682 A 
HETATM    9  N7  UNL     1      35.757  39.743  -5.335  1.00  0.00    -0.174 N 
ATOM     10  H7  UNL     1      36.275  38.930  -5.002  1.00  0.00     0.186 HD
HETATM   11  C23 UNL     1      35.077  39.808  -6.506  1.00  0.00     0.154 A 
HETATM   12  N8  UNL     1      34.996  38.796  -7.404  1.00  0.00    -0.322 N 
ATOM     13  H8  UNL     1      35.176  37.856  -7.053  1.00  0.00     0.169 HD
HETATM   14  C24 UNL     1      34.700  38.908  -8.720  1.00  0.00     0.166 C 
ENDROOT
BRANCH   1  15
HETATM   15  N1  UNL     1      33.295  39.459 -10.421  1.00  0.00    -0.353 N 
ATOM     16  H1  UNL     1      33.732  38.644 -10.853  1.00  0.00     0.166 HD
BRANCH  15  17
HETATM   17  C12 UNL     1      32.196  39.945 -11.154  1.00  0.00     0.062 C 
BRANCH  17  18
HETATM   18  C11 UNL     1      32.331  39.560 -12.628  1.00  0.00     0.044 C 
BRANCH  18  19
HETATM   19  C10 UNL     1      31.826  40.668 -13.502  1.00  0.00     0.005 C 
BRANCH  19  20
HETATM   20  C9  UNL     1      32.298  40.558 -14.918  1.00  0.00     0.000 C 
BRANCH  20  21
HETATM   21  C8  UNL     1      31.529  41.451 -15.847  1.00  0.00     0.000 C 
BRANCH  21  22
HETATM   22  C7  UNL     1      32.266  42.721 -16.138  1.00  0.00     0.000 C 
BRANCH  22  23
HETATM   23  C6  UNL     1      31.443  43.948 -15.825  1.00  0.00     0.000 C 
BRANCH  23  24
HETATM   24  C5  UNL     1      31.539  44.209 -14.327  1.00  0.00     0.000 C 
BRANCH  24  25
HETATM   25  C4  UNL     1      32.997  44.235 -13.952  1.00  0.00     0.000 C 
BRANCH  25  26
HETATM   26  C3  UNL     1      33.160  44.711 -12.524  1.00  0.00    -0.000 C 
BRANCH  26  27
HETATM   27  C2  UNL     1      33.097  43.530 -11.571  1.00  0.00    -0.005 C 
HETATM   28  C1  UNL     1      31.941  43.707 -10.613  1.00  0.00     0.005 C 
ENDBRANCH  26  27
ENDBRANCH  25  26
ENDBRANCH  24  25
ENDBRANCH  23  24
ENDBRANCH  22  23
ENDBRANCH  21  22
ENDBRANCH  20  21
ENDBRANCH  19  20
ENDBRANCH  18  19
ENDBRANCH  17  18
ENDBRANCH  15  17
ENDBRANCH   1  15
BRANCH  14  29
HETATM   29  N9  UNL     1      35.304  38.056  -9.458  1.00  0.00    -0.289 N 
ATOM     30  H9  UNL     1      35.197  38.120 -10.470  1.00  0.00     0.188 HD
BRANCH  29  31
HETATM   31  N10 UNL     1      36.095  37.053  -8.937  1.00  0.00    -0.344 N 
ATOM     32 2H10 UNL     1      35.648  36.163  -8.718  1.00  0.00     0.176 HD
ATOM     33 1H10 UNL     1      37.093  37.175  -8.767  1.00  0.00     0.176 HD
ENDBRANCH  29  31
ENDBRANCH  14  29
BRANCH   4  34
HETATM   34  N3  UNL     1      33.076  42.599  -7.316  1.00  0.00    -0.383 N 
ATOM     35  H32 UNL     1      33.554  43.188  -6.634  1.00  0.00     0.157 HD
ATOM     36  H31 UNL     1      32.171  42.737  -7.766  1.00  0.00     0.157 HD
ENDBRANCH   4  34
BRANCH   8  37
HETATM   37  N5  UNL     1      36.217  41.231  -3.431  1.00  0.00    -0.217 N 
HETATM   38  C17 UNL     1      37.623  41.518  -3.334  1.00  0.00     0.141 C 
HETATM   39  C18 UNL     1      37.707  42.942  -2.767  1.00  0.00     0.027 C 
HETATM   40  C19 UNL     1      37.164  42.920  -1.380  1.00  0.00     0.014 C 
HETATM   41  C21 UNL     1      36.245  41.795  -1.053  1.00  0.00     0.027 C 
HETATM   42  C22 UNL     1      35.425  41.292  -2.222  1.00  0.00     0.141 C 
BRANCH  40  43
HETATM   43  C20 UNL     1      36.547  44.273  -0.995  1.00  0.00     0.234 C 
BRANCH  43  44
HETATM   44  N6  UNL     1      37.624  45.213  -0.841  1.00  0.00    -0.079 N 
ATOM     45  H63 UNL     1      37.908  45.639  -1.723  1.00  0.00     0.274 HD
ATOM     46  H62 UNL     1      37.340  46.068  -0.364  1.00  0.00     0.274 HD
ATOM     47  H61 UNL     1      38.388  44.729  -0.368  1.00  0.00     0.274 HD
ENDBRANCH  43  44
ENDBRANCH  40  43
ENDBRANCH   8  37
TORSDOF 18
ENDMDL
MODEL 3
REMARK VINA RESULT: -6.934778332      1.170      1.901
REMARK  18 active torsions:
REMARK  status: ('A' for Active; 'I' for Inactive)
REMARK    1  A    between atoms: C2_2  and  C3_3 
REMARK    2  A    between atoms: C3_3  and  C4_4 
REMARK    3  A    between atoms: C4_4  and  C5_5 
REMARK    4  A    between atoms: C5_5  and  C6_6 
REMARK    5  A    between atoms: C6_6  and  C7_7 
REMARK    6  A    between atoms: C7_7  and  C8_8 
REMARK    7  A    between atoms: C8_8  and  C9_9 
REMARK    8  A    between atoms: C9_9  and  C10_10 
REMARK    9  A    between atoms: C10_10  and  C11_11 
REMARK   10  A    between atoms: C11_11  and  C12_12 
REMARK   11  A    between atoms: C12_12  and  N1_13 
REMARK   12  A    between atoms: N1_13  and  C13_15 
REMARK   13  A    between atoms: C14_18  and  N3_19 
REMARK   14  A    between atoms: C16_25  and  N5_26 
REMARK   15  A    between atoms: C19_29  and  C20_30 
REMARK   16  A    between atoms: C20_30  and  N6_31 
REMARK   17  A    between atoms: C24_42  and  N9_43 
REMARK   18  A    between atoms: N9_43  and  N10_45 
ROOT
HETATM    1  C13 UNL     1      33.248  40.200  -9.415  1.00  0.00     0.153 C 
HETATM    2  N2  UNL     1      33.935  39.168  -8.837  1.00  0.00    -0.324 N 
ATOM      3  H2  UNL     1      33.780  38.254  -9.261  1.00  0.00     0.169 HD
HETATM    4  C14 UNL     1      34.785  39.174  -7.793  1.00  0.00     0.132 C 
HETATM    5  C15 UNL     1      34.916  40.104  -6.774  1.00  0.00     0.137 A 
HETATM    6  N4  UNL     1      35.543  39.947  -5.605  1.00  0.00    -0.184 N 
ATOM      7  H4  UNL     1      36.019  39.096  -5.308  1.00  0.00     0.184 HD
HETATM    8  C16 UNL     1      35.453  41.094  -4.865  1.00  0.00     0.682 A 
HETATM    9  N7  UNL     1      34.755  41.962  -5.609  1.00  0.00    -0.174 N 
ATOM     10  H7  UNL     1      34.517  42.914  -5.332  1.00  0.00     0.186 HD
HETATM   11  C23 UNL     1      34.410  41.385  -6.787  1.00  0.00     0.154 A 
HETATM   12  N8  UNL     1      33.694  41.997  -7.762  1.00  0.00    -0.322 N 
ATOM     13  H8  UNL     1      33.688  43.017  -7.755  1.00  0.00     0.169 HD
HETATM   14  C24 UNL     1      32.988  41.391  -8.744  1.00  0.00     0.166 C 
ENDROOT
BRANCH   1  15
HETATM   15  N1  UNL     1      32.840  40.061 -10.583  1.00  0.00    -0.353 N 
ATOM     16  H1  UNL     1      32.552  40.941 -11.011  1.00  0.00     0.166 HD
BRANCH  15  17
HETATM   17  C12 UNL     1      32.690  38.957 -11.443  1.00  0.00     0.062 C 
BRANCH  17  18
HETATM   18  C11 UNL     1      32.356  39.430 -12.859  1.00  0.00     0.044 C 
BRANCH  18  19
HETATM   19  C10 UNL     1      31.628  40.740 -12.811  1.00  0.00     0.005 C 
BRANCH  19  20
HETATM   20  C9  UNL     1      32.316  41.820 -13.587  1.00  0.00     0.000 C 
BRANCH  20  21
HETATM   21  C8  UNL     1      32.720  42.976 -12.720  1.00  0.00     0.000 C 
BRANCH  21  22
HETATM   22  C7  UNL     1      32.814  44.251 -13.498  1.00  0.00     0.000 C 
BRANCH  22  23
HETATM   23  C6  UNL     1      32.157  44.149 -14.853  1.00  0.00     0.000 C 
BRANCH  23  24
HETATM   24  C5  UNL     1      33.083  44.797 -15.875  1.00  0.00     0.000 C 
BRANCH  24  25
HETATM   25  C4  UNL     1      32.742  44.236 -17.231  1.00  0.00     0.000 C 
BRANCH  25  26
HETATM   26  C3  UNL     1      32.434  45.360 -18.197  1.00  0.00    -0.000 C 
BRANCH  26  27
HETATM   27  C2  UNL     1      31.074  45.959 -17.884  1.00  0.00    -0.005 C 
HETATM   28  C1  UNL     1      31.202  47.454 -17.704  1.00  0.00     0.005 C 
ENDBRANCH  26  27
ENDBRANCH  25  26
ENDBRANCH  24  25
ENDBRANCH  23  24
ENDBRANCH  22  23
ENDBRANCH  21  22
ENDBRANCH  20  21
ENDBRANCH  19  20
ENDBRANCH  18  19
ENDBRANCH  17  18
ENDBRANCH  15  17
ENDBRANCH   1  15
BRANCH  14  29
HETATM   29  N9  UNL     1      31.930  42.025  -9.084  1.00  0.00    -0.289 N 
ATOM     30  H9  UNL     1      31.042  41.524  -9.102  1.00  0.00     0.188 HD
BRANCH  29  31
HETATM   31  N10 UNL     1      31.946  43.361  -9.426  1.00  0.00    -0.344 N 
ATOM     32 2H10 UNL     1      31.859  44.044  -8.674  1.00  0.00     0.176 HD
ATOM     33 1H10 UNL     1      32.039  43.678 -10.391  1.00  0.00     0.176 HD
ENDBRANCH  29  31
ENDBRANCH  14  29
BRANCH   4  34
HETATM   34  N3  UNL     1      35.613  38.192  -7.690  1.00  0.00    -0.383 N 
ATOM     35  H32 UNL     1      35.435  37.448  -8.364  1.00  0.00     0.157 HD
ATOM     36  H31 UNL     1      36.335  38.255  -6.972  1.00  0.00     0.157 HD
ENDBRANCH   4  34
BRANCH   8  37
HETATM   37  N5  UNL     1      35.981  41.320  -3.577  1.00  0.00    -0.217 N 
HETATM   38  C17 UNL     1      37.401  41.458  -3.395  1.00  0.00     0.141 C 
HETATM   39  C18 UNL     1      37.596  42.847  -2.772  1.00  0.00     0.027 C 
HETATM   40  C19 UNL     1      36.976  42.837  -1.418  1.00  0.00     0.014 C 
HETATM   41  C21 UNL     1      35.932  41.803  -1.182  1.00  0.00     0.027 C 
HETATM   42  C22 UNL     1      35.132  41.424  -2.409  1.00  0.00     0.141 C 
BRANCH  40  43
HETATM   43  C20 UNL     1      36.477  44.234  -1.015  1.00  0.00     0.234 C 
BRANCH  43  44
HETATM   44  N6  UNL     1      37.632  45.068  -0.826  1.00  0.00    -0.079 N 
ATOM     45  H63 UNL     1      37.521  45.733  -0.061  1.00  0.00     0.274 HD
ATOM     46  H62 UNL     1      38.432  44.561  -0.448  1.00  0.00     0.274 HD
ATOM     47  H61 UNL     1      37.834  45.520  -1.719  1.00  0.00     0.274 HD
ENDBRANCH  43  44
ENDBRANCH  40  43
ENDBRANCH   8  37
TORSDOF 18
ENDMDL
MODEL 4
REMARK VINA RESULT: -6.897878759      2.672      4.424
REMARK  18 active torsions:
REMARK  status: ('A' for Active; 'I' for Inactive)
REMARK    1  A    between atoms: C2_2  and  C3_3 
REMARK    2  A    between atoms: C3_3  and  C4_4 
REMARK    3  A    between atoms: C4_4  and  C5_5 
REMARK    4  A    between atoms: C5_5  and  C6_6 
REMARK    5  A    between atoms: C6_6  and  C7_7 
REMARK    6  A    between atoms: C7_7  and  C8_8 
REMARK    7  A    between atoms: C8_8  and  C9_9 
REMARK    8  A    between atoms: C9_9  and  C10_10 
REMARK    9  A    between atoms: C10_10  and  C11_11 
REMARK   10  A    between atoms: C11_11  and  C12_12 
REMARK   11  A    between atoms: C12_12  and  N1_13 
REMARK   12  A    between atoms: N1_13  and  C13_15 
REMARK   13  A    between atoms: C14_18  and  N3_19 
REMARK   14  A    between atoms: C16_25  and  N5_26 
REMARK   15  A    between atoms: C19_29  and  C20_30 
REMARK   16  A    between atoms: C20_30  and  N6_31 
REMARK   17  A    between atoms: C24_42  and  N9_43 
REMARK   18  A    between atoms: N9_43  and  N10_45 
ROOT
HETATM    1  C13 UNL     1      33.704  41.053  -8.125  1.00  0.00     0.153 C 
HETATM    2  N2  UNL     1      34.127  41.903  -7.139  1.00  0.00    -0.324 N 
ATOM      3  H2  UNL     1      33.907  42.887  -7.293  1.00  0.00     0.169 HD
HETATM    4  C14 UNL     1      34.788  41.640  -5.997  1.00  0.00     0.132 C 
HETATM    5  C15 UNL     1      35.565  40.541  -5.666  1.00  0.00     0.137 A 
HETATM    6  N4  UNL     1      36.443  40.437  -4.665  1.00  0.00    -0.184 N 
ATOM      7  H4  UNL     1      36.658  41.177  -3.997  1.00  0.00     0.184 HD
HETATM    8  C16 UNL     1      37.013  39.192  -4.666  1.00  0.00     0.682 A 
HETATM    9  N7  UNL     1      36.461  38.534  -5.694  1.00  0.00    -0.174 N 
ATOM     10  H7  UNL     1      36.680  37.573  -5.960  1.00  0.00     0.186 HD
HETATM   11  C23 UNL     1      35.568  39.333  -6.328  1.00  0.00     0.154 A 
HETATM   12  N8  UNL     1      34.843  38.966  -7.413  1.00  0.00    -0.322 N 
ATOM     13  H8  UNL     1      34.721  37.965  -7.566  1.00  0.00     0.169 HD
HETATM   14  C24 UNL     1      34.264  39.794  -8.313  1.00  0.00     0.166 C 
ENDROOT
BRANCH   1  15
HETATM   15  N1  UNL     1      32.787  41.428  -8.878  1.00  0.00    -0.353 N 
ATOM     16  H1  UNL     1      32.198  40.659  -9.201  1.00  0.00     0.166 HD
BRANCH  15  17
HETATM   17  C12 UNL     1      32.383  42.678  -9.382  1.00  0.00     0.062 C 
BRANCH  17  18
HETATM   18  C11 UNL     1      33.200  43.037 -10.625  1.00  0.00     0.044 C 
BRANCH  18  19
HETATM   19  C10 UNL     1      32.386  43.885 -11.555  1.00  0.00     0.005 C 
BRANCH  19  20
HETATM   20  C9  UNL     1      33.224  44.680 -12.506  1.00  0.00     0.000 C 
BRANCH  20  21
HETATM   21  C8  UNL     1      32.951  44.328 -13.939  1.00  0.00     0.000 C 
BRANCH  21  22
HETATM   22  C7  UNL     1      31.749  43.446 -14.078  1.00  0.00     0.000 C 
BRANCH  22  23
HETATM   23  C6  UNL     1      31.986  42.297 -15.027  1.00  0.00     0.000 C 
BRANCH  23  24
HETATM   24  C5  UNL     1      31.241  41.081 -14.489  1.00  0.00     0.000 C 
BRANCH  24  25
HETATM   25  C4  UNL     1      32.263  40.090 -13.998  1.00  0.00     0.000 C 
BRANCH  25  26
HETATM   26  C3  UNL     1      32.262  40.047 -12.485  1.00  0.00    -0.000 C 
BRANCH  26  27
HETATM   27  C2  UNL     1      30.881  40.388 -11.954  1.00  0.00    -0.005 C 
HETATM   28  C1  UNL     1      30.527  39.460 -10.815  1.00  0.00     0.005 C 
ENDBRANCH  26  27
ENDBRANCH  25  26
ENDBRANCH  24  25
ENDBRANCH  23  24
ENDBRANCH  22  23
ENDBRANCH  21  22
ENDBRANCH  20  21
ENDBRANCH  19  20
ENDBRANCH  18  19
ENDBRANCH  17  18
ENDBRANCH  15  17
ENDBRANCH   1  15
BRANCH  14  29
HETATM   29  N9  UNL     1      34.246  39.327  -9.504  1.00  0.00    -0.289 N 
ATOM     30  H9  UNL     1      33.974  39.945 -10.268  1.00  0.00     0.188 HD
BRANCH  29  31
HETATM   31  N10 UNL     1      34.580  38.021  -9.792  1.00  0.00    -0.344 N 
ATOM     32 2H10 UNL     1      35.391  37.624  -9.318  1.00  0.00     0.176 HD
ATOM     33 1H10 UNL     1      34.051  37.453 -10.453  1.00  0.00     0.176 HD
ENDBRANCH  29  31
ENDBRANCH  14  29
BRANCH   4  34
HETATM   34  N3  UNL     1      34.715  42.509  -5.048  1.00  0.00    -0.383 N 
ATOM     35  H32 UNL     1      35.384  42.338  -4.298  1.00  0.00     0.157 HD
ATOM     36  H31 UNL     1      34.022  43.253  -5.139  1.00  0.00     0.157 HD
ENDBRANCH   4  34
BRANCH   8  37
HETATM   37  N5  UNL     1      37.987  38.702  -3.772  1.00  0.00    -0.217 N 
HETATM   38  C17 UNL     1      37.869  38.964  -2.363  1.00  0.00     0.141 C 
HETATM   39  C18 UNL     1      37.812  37.581  -1.698  1.00  0.00     0.027 C 
HETATM   40  C19 UNL     1      39.125  36.912  -1.913  1.00  0.00     0.014 C 
HETATM   41  C21 UNL     1      39.933  37.407  -3.061  1.00  0.00     0.027 C 
HETATM   42  C22 UNL     1      39.120  37.926  -4.227  1.00  0.00     0.141 C 
BRANCH  40  43
HETATM   43  C20 UNL     1      38.977  35.383  -1.955  1.00  0.00     0.234 C 
BRANCH  43  44
HETATM   44  N6  UNL     1      37.597  35.074  -1.699  1.00  0.00    -0.079 N 
ATOM     45  H63 UNL     1      37.271  35.428  -0.799  1.00  0.00     0.274 HD
ATOM     46  H62 UNL     1      36.955  35.601  -2.290  1.00  0.00     0.274 HD
ATOM     47  H61 UNL     1      37.486  34.064  -1.792  1.00  0.00     0.274 HD
ENDBRANCH  43  44
ENDBRANCH  40  43
ENDBRANCH   8  37
TORSDOF 18
ENDMDL
MODEL 5
REMARK VINA RESULT: -6.895188519      1.021      1.725
REMARK  18 active torsions:
REMARK  status: ('A' for Active; 'I' for Inactive)
REMARK    1  A    between atoms: C2_2  and  C3_3 
REMARK    2  A    between atoms: C3_3  and  C4_4 
REMARK    3  A    between atoms: C4_4  and  C5_5 
REMARK    4  A    between atoms: C5_5  and  C6_6 
REMARK    5  A    between atoms: C6_6  and  C7_7 
REMARK    6  A    between atoms: C7_7  and  C8_8 
REMARK    7  A    between atoms: C8_8  and  C9_9 
REMARK    8  A    between atoms: C9_9  and  C10_10 
REMARK    9  A    between atoms: C10_10  and  C11_11 
REMARK   10  A    between atoms: C11_11  and  C12_12 
REMARK   11  A    between atoms: C12_12  and  N1_13 
REMARK   12  A    between atoms: N1_13  and  C13_15 
REMARK   13  A    between atoms: C14_18  and  N3_19 
REMARK   14  A    between atoms: C16_25  and  N5_26 
REMARK   15  A    between atoms: C19_29  and  C20_30 
REMARK   16  A    between atoms: C20_30  and  N6_31 
REMARK   17  A    between atoms: C24_42  and  N9_43 
REMARK   18  A    between atoms: N9_43  and  N10_45 
ROOT
HETATM    1  C13 UNL     1      33.114  40.281  -9.447  1.00  0.00     0.153 C 
HETATM    2  N2  UNL     1      33.810  39.244  -8.888  1.00  0.00    -0.324 N 
ATOM      3  H2  UNL     1      33.648  38.333  -9.317  1.00  0.00     0.169 HD
HETATM    4  C14 UNL     1      34.677  39.242  -7.858  1.00  0.00     0.132 C 
HETATM    5  C15 UNL     1      34.825  40.163  -6.834  1.00  0.00     0.137 A 
HETATM    6  N4  UNL     1      35.470  39.996  -5.676  1.00  0.00    -0.184 N 
ATOM      7  H4  UNL     1      35.951  39.143  -5.393  1.00  0.00     0.184 HD
HETATM    8  C16 UNL     1      35.392  41.138  -4.925  1.00  0.00     0.682 A 
HETATM    9  N7  UNL     1      34.683  42.011  -5.651  1.00  0.00    -0.174 N 
ATOM     10  H7  UNL     1      34.450  42.962  -5.363  1.00  0.00     0.186 HD
HETATM   11  C23 UNL     1      34.319  41.444  -6.828  1.00  0.00     0.154 A 
HETATM   12  N8  UNL     1      33.588  42.064  -7.787  1.00  0.00    -0.322 N 
ATOM     13  H8  UNL     1      33.582  43.084  -7.771  1.00  0.00     0.169 HD
HETATM   14  C24 UNL     1      32.865  41.466  -8.762  1.00  0.00     0.166 C 
ENDROOT
BRANCH   1  15
HETATM   15  N1  UNL     1      32.688  40.152 -10.609  1.00  0.00    -0.353 N 
ATOM     16  H1  UNL     1      32.181  40.973 -10.941  1.00  0.00     0.166 HD
BRANCH  15  17
HETATM   17  C12 UNL     1      32.751  39.122 -11.566  1.00  0.00     0.062 C 
BRANCH  17  18
HETATM   18  C11 UNL     1      32.212  39.615 -12.910  1.00  0.00     0.044 C 
BRANCH  18  19
HETATM   19  C10 UNL     1      31.678  41.009 -12.776  1.00  0.00     0.005 C 
BRANCH  19  20
HETATM   20  C9  UNL     1      32.256  41.957 -13.780  1.00  0.00     0.000 C 
BRANCH  20  21
HETATM   21  C8  UNL     1      32.708  43.243 -13.155  1.00  0.00     0.000 C 
BRANCH  21  22
HETATM   22  C7  UNL     1      32.525  44.408 -14.078  1.00  0.00     0.000 C 
BRANCH  22  23
HETATM   23  C6  UNL     1      31.430  44.173 -15.090  1.00  0.00     0.000 C 
BRANCH  23  24
HETATM   24  C5  UNL     1      31.810  44.903 -16.372  1.00  0.00     0.000 C 
BRANCH  24  25
HETATM   25  C4  UNL     1      33.021  44.223 -16.953  1.00  0.00     0.000 C 
BRANCH  25  26
HETATM   26  C3  UNL     1      32.633  43.426 -18.179  1.00  0.00    -0.000 C 
BRANCH  26  27
HETATM   27  C2  UNL     1      33.034  41.971 -18.004  1.00  0.00    -0.005 C 
HETATM   28  C1  UNL     1      31.884  41.191 -17.409  1.00  0.00     0.005 C 
ENDBRANCH  26  27
ENDBRANCH  25  26
ENDBRANCH  24  25
ENDBRANCH  23  24
ENDBRANCH  22  23
ENDBRANCH  21  22
ENDBRANCH  20  21
ENDBRANCH  19  20
ENDBRANCH  18  19
ENDBRANCH  17  18
ENDBRANCH  15  17
ENDBRANCH   1  15
BRANCH  14  29
HETATM   29  N9  UNL     1      31.803  42.104  -9.080  1.00  0.00    -0.289 N 
ATOM     30  H9  UNL     1      30.905  41.627  -9.006  1.00  0.00     0.188 HD
BRANCH  29  31
HETATM   31  N10 UNL     1      31.826  43.411  -9.517  1.00  0.00    -0.344 N 
ATOM     32 2H10 UNL     1      31.915  44.145  -8.814  1.00  0.00     0.176 HD
ATOM     33 1H10 UNL     1      31.759  43.660 -10.504  1.00  0.00     0.176 HD
ENDBRANCH  29  31
ENDBRANCH  14  29
BRANCH   4  34
HETATM   34  N3  UNL     1      35.506  38.259  -7.776  1.00  0.00    -0.383 N 
ATOM     35  H32 UNL     1      35.116  37.379  -8.113  1.00  0.00     0.157 HD
ATOM     36  H31 UNL     1      36.433  38.451  -7.397  1.00  0.00     0.157 HD
ENDBRANCH   4  34
BRANCH   8  37
HETATM   37  N5  UNL     1      35.941  41.352  -3.644  1.00  0.00    -0.217 N 
HETATM   38  C17 UNL     1      37.363  41.497  -3.485  1.00  0.00     0.141 C 
HETATM   39  C18 UNL     1      37.561  42.881  -2.850  1.00  0.00     0.027 C 
HETATM   40  C19 UNL     1      36.965  42.853  -1.486  1.00  0.00     0.014 C 
HETATM   41  C21 UNL     1      35.930  41.810  -1.243  1.00  0.00     0.027 C 
HETATM   42  C22 UNL     1      35.112  41.439  -2.461  1.00  0.00     0.141 C 
BRANCH  40  43
HETATM   43  C20 UNL     1      36.465  44.242  -1.061  1.00  0.00     0.234 C 
BRANCH  43  44
HETATM   44  N6  UNL     1      37.616  45.089  -0.911  1.00  0.00    -0.079 N 
ATOM     45  H63 UNL     1      38.033  45.032   0.018  1.00  0.00     0.274 HD
ATOM     46  H62 UNL     1      38.423  44.761  -1.441  1.00  0.00     0.274 HD
ATOM     47  H61 UNL     1      37.335  46.037  -1.163  1.00  0.00     0.274 HD
ENDBRANCH  43  44
ENDBRANCH  40  43
ENDBRANCH   8  37
TORSDOF 18
ENDMDL
