MODEL 1
REMARK VINA RESULT: -8.377190508      0.000      0.000
REMARK  12 active torsions:
REMARK  status: ('A' for Active; 'I' for Inactive)
REMARK    1  A    between atoms: N3_4  and  C2_6 
REMARK    2  A    between atoms: C2_6  and  C3_7 
REMARK    3  A    between atoms: C3_7  and  C4_8 
REMARK    4  A    between atoms: C4_8  and  C5_9 
REMARK    5  A    between atoms: C5_9  and  N4_10 
REMARK    6  A    between atoms: C5_9  and  C12_18 
REMARK    7  A    between atoms: N4_10  and  C6_12 
REMARK    8  A    between atoms: C12_18  and  C13_20 
REMARK    9  A    between atoms: C13_20  and  C14_21 
REMARK   10  A    between atoms: C14_21  and  C15_22 
REMARK   11  A    between atoms: C17_28  and  C18_29 
REMARK   12  A    between atoms: C18_29  and  N7_30 
ROOT
HETATM    1  C5  UNL     1      10.483  39.007  -4.084  1.00  0.00     0.147 C 
ENDROOT
BRANCH   1   2
HETATM    2  C4  UNL     1      11.015  38.230  -5.248  1.00  0.00     0.034 C 
BRANCH   2   3
HETATM    3  C3  UNL     1      11.313  39.196  -6.403  1.00  0.00     0.022 C 
BRANCH   3   4
HETATM    4  C2  UNL     1      12.551  38.609  -7.089  1.00  0.00     0.122 C 
BRANCH   4   5
HETATM    5  N3  UNL     1      12.292  38.273  -8.468  1.00  0.00    -0.367 N 
HETATM    6  C1  UNL     1      13.177  37.687  -9.172  1.00  0.00     0.196 C 
HETATM    7  N1  UNL     1      14.430  37.363  -8.591  1.00  0.00    -0.067 NA
HETATM    8  N2  UNL     1      12.990  37.329 -10.538  1.00  0.00    -0.067 NA
ATOM      9  H3  UNL     1      11.391  38.507  -8.884  1.00  0.00     0.161 HD
ENDBRANCH   4   5
ENDBRANCH   3   4
ENDBRANCH   2   3
ENDBRANCH   1   2
BRANCH   1  10
HETATM   10  N4  UNL     1      11.073  38.663  -2.864  1.00  0.00    -0.406 N 
ATOM     11  H4  UNL     1      12.066  38.860  -2.736  1.00  0.00     0.154 HD
BRANCH  10  12
HETATM   12  C6  UNL     1      10.384  38.068  -1.816  1.00  0.00     0.077 C 
HETATM   13  C7  UNL     1      10.727  38.655  -0.444  1.00  0.00     0.024 C 
HETATM   14  C8  UNL     1       9.553  38.405   0.454  1.00  0.00     0.002 C 
HETATM   15  C9  UNL     1       8.527  37.471  -0.103  1.00  0.00     0.000 C 
HETATM   16  C10 UNL     1       9.061  36.281  -0.824  1.00  0.00     0.002 C 
HETATM   17  C11 UNL     1      10.331  36.600  -1.645  1.00  0.00     0.024 C 
ENDBRANCH  10  12
ENDBRANCH   1  10
BRANCH   1  18
HETATM   18  C12 UNL     1       8.987  38.773  -4.068  1.00  0.00     0.149 C 
HETATM   19  O1  UNL     1       8.551  37.808  -4.655  1.00  0.00    -0.296 OA
BRANCH  18  20
HETATM   20  C13 UNL     1       8.074  39.689  -3.359  1.00  0.00     0.081 C 
BRANCH  20  21
HETATM   21  C14 UNL     1       8.460  41.120  -3.456  1.00  0.00     0.016 C 
BRANCH  21  22
HETATM   22  C15 UNL     1       7.563  42.109  -2.850  1.00  0.00     0.031 C 
HETATM   23  C16 UNL     1       8.020  42.678  -1.530  1.00  0.00     0.145 C 
HETATM   24  N5  UNL     1       9.093  43.531  -1.942  1.00  0.00    -0.340 N 
HETATM   25  N6  UNL     1       8.867  43.948  -3.105  1.00  0.00    -0.334 N 
ATOM     26  H5  UNL     1       9.912  43.765  -1.381  1.00  0.00     0.179 HD
HETATM   27  C17 UNL     1       7.650  43.444  -3.610  1.00  0.00     0.122 C 
ATOM     28  H6  UNL     1       9.488  44.573  -3.620  1.00  0.00     0.180 HD
BRANCH  27  29
HETATM   29  C18 UNL     1       7.551  43.296  -5.071  1.00  0.00     0.149 C 
BRANCH  29  30
HETATM   30  N7  UNL     1       6.147  43.294  -5.427  1.00  0.00    -0.365 N 
HETATM   31  C19 UNL     1       5.585  44.084  -6.239  1.00  0.00     0.197 C 
HETATM   32  N8  UNL     1       6.220  45.130  -6.964  1.00  0.00    -0.067 NA
HETATM   33  N9  UNL     1       4.182  43.920  -6.458  1.00  0.00    -0.067 NA
ATOM     34  H7  UNL     1       5.557  42.592  -4.980  1.00  0.00     0.161 HD
ENDBRANCH  29  30
ENDBRANCH  27  29
ENDBRANCH  21  22
ENDBRANCH  20  21
ENDBRANCH  18  20
ENDBRANCH   1  18
TORSDOF 12
ENDMDL
MODEL 2
REMARK VINA RESULT: -8.343366945      0.902      1.192
REMARK  12 active torsions:
REMARK  status: ('A' for Active; 'I' for Inactive)
REMARK    1  A    between atoms: N3_4  and  C2_6 
REMARK    2  A    between atoms: C2_6  and  C3_7 
REMARK    3  A    between atoms: C3_7  and  C4_8 
REMARK    4  A    between atoms: C4_8  and  C5_9 
REMARK    5  A    between atoms: C5_9  and  N4_10 
REMARK    6  A    between atoms: C5_9  and  C12_18 
REMARK    7  A    between atoms: N4_10  and  C6_12 
REMARK    8  A    between atoms: C12_18  and  C13_20 
REMARK    9  A    between atoms: C13_20  and  C14_21 
REMARK   10  A    between atoms: C14_21  and  C15_22 
REMARK   11  A    between atoms: C17_28  and  C18_29 
REMARK   12  A    between atoms: C18_29  and  N7_30 
ROOT
HETATM    1  C5  UNL     1      10.472  39.034  -4.061  1.00  0.00     0.147 C 
ENDROOT
BRANCH   1   2
HETATM    2  C4  UNL     1      11.003  38.278  -5.240  1.00  0.00     0.034 C 
BRANCH   2   3
HETATM    3  C3  UNL     1      11.303  39.267  -6.374  1.00  0.00     0.022 C 
BRANCH   3   4
HETATM    4  C2  UNL     1      12.545  38.695  -7.066  1.00  0.00     0.122 C 
BRANCH   4   5
HETATM    5  N3  UNL     1      12.281  38.342  -8.440  1.00  0.00    -0.367 N 
HETATM    6  C1  UNL     1      13.157  37.732  -9.134  1.00  0.00     0.196 C 
HETATM    7  N1  UNL     1      14.405  37.399  -8.549  1.00  0.00    -0.067 NA
HETATM    8  N2  UNL     1      12.964  37.356 -10.494  1.00  0.00    -0.067 NA
ATOM      9  H3  UNL     1      11.383  38.583  -8.859  1.00  0.00     0.161 HD
ENDBRANCH   4   5
ENDBRANCH   3   4
ENDBRANCH   2   3
ENDBRANCH   1   2
BRANCH   1  10
HETATM   10  N4  UNL     1      11.070  38.673  -2.848  1.00  0.00    -0.406 N 
ATOM     11  H4  UNL     1      12.067  38.852  -2.731  1.00  0.00     0.154 HD
BRANCH  10  12
HETATM   12  C6  UNL     1      10.382  38.084  -1.796  1.00  0.00     0.077 C 
HETATM   13  C7  UNL     1      10.729  38.677  -0.428  1.00  0.00     0.024 C 
HETATM   14  C8  UNL     1       9.557  38.434   0.474  1.00  0.00     0.002 C 
HETATM   15  C9  UNL     1       8.528  37.499  -0.076  1.00  0.00     0.000 C 
HETATM   16  C10 UNL     1       9.058  36.304  -0.792  1.00  0.00     0.002 C 
HETATM   17  C11 UNL     1      10.327  36.617  -1.618  1.00  0.00     0.024 C 
ENDBRANCH  10  12
ENDBRANCH   1  10
BRANCH   1  18
HETATM   18  C12 UNL     1       8.977  38.791  -4.042  1.00  0.00     0.149 C 
HETATM   19  O1  UNL     1       8.542  37.846  -4.659  1.00  0.00    -0.296 OA
BRANCH  18  20
HETATM   20  C13 UNL     1       8.065  39.676  -3.292  1.00  0.00     0.081 C 
BRANCH  20  21
HETATM   21  C14 UNL     1       8.459  41.108  -3.317  1.00  0.00     0.016 C 
BRANCH  21  22
HETATM   22  C15 UNL     1       7.650  42.049  -2.537  1.00  0.00     0.031 C 
HETATM   23  C16 UNL     1       8.401  42.840  -1.494  1.00  0.00     0.145 C 
HETATM   24  N5  UNL     1       9.138  43.759  -2.308  1.00  0.00    -0.340 N 
HETATM   25  N6  UNL     1       8.496  43.986  -3.362  1.00  0.00    -0.334 N 
ATOM     26  H5  UNL     1      10.044  44.164  -2.069  1.00  0.00     0.179 HD
HETATM   27  C17 UNL     1       7.279  43.273  -3.393  1.00  0.00     0.122 C 
ATOM     28  H6  UNL     1       8.815  44.610  -4.104  1.00  0.00     0.180 HD
BRANCH  27  29
HETATM   29  C18 UNL     1       6.752  42.921  -4.722  1.00  0.00     0.149 C 
BRANCH  29  30
HETATM   30  N7  UNL     1       5.387  43.399  -4.802  1.00  0.00    -0.365 N 
HETATM   31  C19 UNL     1       4.359  42.780  -4.403  1.00  0.00     0.197 C 
HETATM   32  N8  UNL     1       4.339  41.495  -3.796  1.00  0.00    -0.067 NA
HETATM   33  N9  UNL     1       3.093  43.423  -4.571  1.00  0.00    -0.067 NA
ATOM     34  H7  UNL     1       5.242  44.319  -5.220  1.00  0.00     0.161 HD
ENDBRANCH  29  30
ENDBRANCH  27  29
ENDBRANCH  21  22
ENDBRANCH  20  21
ENDBRANCH  18  20
ENDBRANCH   1  18
TORSDOF 12
ENDMDL
MODEL 3
REMARK VINA RESULT: -8.314502255      1.705      7.347
REMARK  12 active torsions:
REMARK  status: ('A' for Active; 'I' for Inactive)
REMARK    1  A    between atoms: N3_4  and  C2_6 
REMARK    2  A    between atoms: C2_6  and  C3_7 
REMARK    3  A    between atoms: C3_7  and  C4_8 
REMARK    4  A    between atoms: C4_8  and  C5_9 
REMARK    5  A    between atoms: C5_9  and  N4_10 
REMARK    6  A    between atoms: C5_9  and  C12_18 
REMARK    7  A    between atoms: N4_10  and  C6_12 
REMARK    8  A    between atoms: C12_18  and  C13_20 
REMARK    9  A    between atoms: C13_20  and  C14_21 
REMARK   10  A    between atoms: C14_21  and  C15_22 
REMARK   11  A    between atoms: C17_28  and  C18_29 
REMARK   12  A    between atoms: C18_29  and  N7_30 
ROOT
HETATM    1  C5  UNL     1      10.190  38.750  -4.397  1.00  0.00     0.147 C 
ENDROOT
BRANCH   1   2
HETATM    2  C4  UNL     1       9.541  40.093  -4.527  1.00  0.00     0.034 C 
BRANCH   2   3
HETATM    3  C3  UNL     1       8.253  40.110  -3.693  1.00  0.00     0.022 C 
BRANCH   3   4
HETATM    4  C2  UNL     1       7.945  41.597  -3.487  1.00  0.00     0.122 C 
BRANCH   4   5
HETATM    5  N3  UNL     1       7.091  42.118  -4.527  1.00  0.00    -0.367 N 
HETATM    6  C1  UNL     1       7.493  43.056  -5.289  1.00  0.00     0.196 C 
HETATM    7  N1  UNL     1       8.793  43.593  -5.111  1.00  0.00    -0.067 NA
HETATM    8  N2  UNL     1       6.702  43.619  -6.331  1.00  0.00    -0.067 NA
ATOM      9  H3  UNL     1       6.156  41.731  -4.652  1.00  0.00     0.161 HD
ENDBRANCH   4   5
ENDBRANCH   3   4
ENDBRANCH   2   3
ENDBRANCH   1   2
BRANCH   1  10
HETATM   10  N4  UNL     1      10.918  38.591  -3.213  1.00  0.00    -0.406 N 
ATOM     11  H4  UNL     1      11.912  38.819  -3.224  1.00  0.00     0.154 HD
BRANCH  10  12
HETATM   12  C6  UNL     1      10.363  38.142  -2.023  1.00  0.00     0.077 C 
HETATM   13  C7  UNL     1      11.128  38.597  -0.778  1.00  0.00     0.024 C 
HETATM   14  C8  UNL     1      10.159  38.598   0.367  1.00  0.00     0.002 C 
HETATM   15  C9  UNL     1       8.850  37.939   0.076  1.00  0.00     0.000 C 
HETATM   16  C10 UNL     1       8.922  36.678  -0.715  1.00  0.00     0.002 C 
HETATM   17  C11 UNL     1      10.015  36.720  -1.807  1.00  0.00     0.024 C 
ENDBRANCH  10  12
ENDBRANCH   1  10
BRANCH   1  18
HETATM   18  C12 UNL     1      11.068  38.584  -5.620  1.00  0.00     0.149 C 
HETATM   19  O1  UNL     1      11.419  37.467  -5.927  1.00  0.00    -0.296 OA
BRANCH  18  20
HETATM   20  C13 UNL     1      11.489  39.745  -6.425  1.00  0.00     0.081 C 
BRANCH  20  21
HETATM   21  C14 UNL     1      12.567  39.443  -7.403  1.00  0.00     0.016 C 
BRANCH  21  22
HETATM   22  C15 UNL     1      12.340  39.818  -8.802  1.00  0.00     0.031 C 
HETATM   23  C16 UNL     1      12.626  41.260  -9.142  1.00  0.00     0.145 C 
HETATM   24  N5  UNL     1      14.057  41.284  -9.104  1.00  0.00    -0.340 N 
HETATM   25  N6  UNL     1      14.499  40.151  -9.416  1.00  0.00    -0.334 N 
ATOM     26  H5  UNL     1      14.628  42.094  -8.862  1.00  0.00     0.179 HD
HETATM   27  C17 UNL     1      13.454  39.244  -9.695  1.00  0.00     0.122 C 
ATOM     28  H6  UNL     1      15.491  39.915  -9.460  1.00  0.00     0.180 HD
BRANCH  27  29
HETATM   29  C18 UNL     1      13.731  37.820  -9.448  1.00  0.00     0.149 C 
BRANCH  29  30
HETATM   30  N7  UNL     1      13.075  37.051 -10.485  1.00  0.00    -0.365 N 
HETATM   31  C19 UNL     1      13.632  36.220 -11.259  1.00  0.00     0.197 C 
HETATM   32  N8  UNL     1      15.012  35.876 -11.264  1.00  0.00    -0.067 NA
HETATM   33  N9  UNL     1      12.809  35.557 -12.222  1.00  0.00    -0.067 NA
ATOM     34  H7  UNL     1      12.071  37.192 -10.603  1.00  0.00     0.161 HD
ENDBRANCH  29  30
ENDBRANCH  27  29
ENDBRANCH  21  22
ENDBRANCH  20  21
ENDBRANCH  18  20
ENDBRANCH   1  18
TORSDOF 12
ENDMDL
MODEL 4
REMARK VINA RESULT: -8.309750988      4.743     11.422
REMARK  12 active torsions:
REMARK  status: ('A' for Active; 'I' for Inactive)
REMARK    1  A    between atoms: N3_4  and  C2_6 
REMARK    2  A    between atoms: C2_6  and  C3_7 
REMARK    3  A    between atoms: C3_7  and  C4_8 
REMARK    4  A    between atoms: C4_8  and  C5_9 
REMARK    5  A    between atoms: C5_9  and  N4_10 
REMARK    6  A    between atoms: C5_9  and  C12_18 
REMARK    7  A    between atoms: N4_10  and  C6_12 
REMARK    8  A    between atoms: C12_18  and  C13_20 
REMARK    9  A    between atoms: C13_20  and  C14_21 
REMARK   10  A    between atoms: C14_21  and  C15_22 
REMARK   11  A    between atoms: C17_28  and  C18_29 
REMARK   12  A    between atoms: C18_29  and  N7_30 
ROOT
HETATM    1  C5  UNL     1      14.122  38.090  -9.041  1.00  0.00     0.147 C 
ENDROOT
BRANCH   1   2
HETATM    2  C4  UNL     1      12.699  38.456  -8.754  1.00  0.00     0.034 C 
BRANCH   2   3
HETATM    3  C3  UNL     1      12.604  39.020  -7.330  1.00  0.00     0.022 C 
BRANCH   3   4
HETATM    4  C2  UNL     1      11.950  37.901  -6.513  1.00  0.00     0.122 C 
BRANCH   4   5
HETATM    5  N3  UNL     1      11.793  38.267  -5.126  1.00  0.00    -0.367 N 
HETATM    6  C1  UNL     1      10.637  38.331  -4.597  1.00  0.00     0.196 C 
HETATM    7  N1  UNL     1       9.492  38.038  -5.381  1.00  0.00    -0.067 NA
HETATM    8  N2  UNL     1      10.410  38.688  -3.237  1.00  0.00    -0.067 NA
ATOM      9  H3  UNL     1      12.618  38.478  -4.565  1.00  0.00     0.161 HD
ENDBRANCH   4   5
ENDBRANCH   3   4
ENDBRANCH   2   3
ENDBRANCH   1   2
BRANCH   1  10
HETATM   10  N4  UNL     1      14.905  39.170  -9.463  1.00  0.00    -0.406 N 
ATOM     11  H4  UNL     1      15.919  39.069  -9.439  1.00  0.00     0.154 HD
BRANCH  10  12
HETATM   12  C6  UNL     1      14.377  40.372  -9.913  1.00  0.00     0.077 C 
HETATM   13  C7  UNL     1      14.464  40.550 -11.431  1.00  0.00     0.024 C 
HETATM   14  C8  UNL     1      13.379  41.504 -11.832  1.00  0.00     0.002 C 
HETATM   15  C9  UNL     1      12.707  42.200 -10.693  1.00  0.00     0.000 C 
HETATM   16  C10 UNL     1      13.606  42.660  -9.597  1.00  0.00     0.002 C 
HETATM   17  C11 UNL     1      14.759  41.670  -9.314  1.00  0.00     0.024 C 
ENDBRANCH  10  12
ENDBRANCH   1  10
BRANCH   1  18
HETATM   18  C12 UNL     1      14.074  36.992 -10.083  1.00  0.00     0.149 C 
HETATM   19  O1  UNL     1      14.905  36.113 -10.028  1.00  0.00    -0.296 OA
BRANCH  18  20
HETATM   20  C13 UNL     1      13.046  36.982 -11.140  1.00  0.00     0.081 C 
BRANCH  20  21
HETATM   21  C14 UNL     1      13.494  36.355 -12.411  1.00  0.00     0.016 C 
BRANCH  21  22
HETATM   22  C15 UNL     1      14.097  37.227 -13.423  1.00  0.00     0.031 C 
HETATM   23  C16 UNL     1      15.543  37.590 -13.191  1.00  0.00     0.145 C 
HETATM   24  N5  UNL     1      16.200  36.356 -13.500  1.00  0.00    -0.340 N 
HETATM   25  N6  UNL     1      15.525  35.729 -14.353  1.00  0.00    -0.334 N 
ATOM     26  H5  UNL     1      17.078  36.035 -13.091  1.00  0.00     0.179 HD
HETATM   27  C17 UNL     1      14.361  36.439 -14.718  1.00  0.00     0.122 C 
ATOM     28  H6  UNL     1      15.785  34.819 -14.734  1.00  0.00     0.180 HD
BRANCH  27  29
HETATM   29  C18 UNL     1      13.210  35.637 -15.164  1.00  0.00     0.149 C 
BRANCH  29  30
HETATM   30  N7  UNL     1      13.633  34.837 -16.295  1.00  0.00    -0.365 N 
HETATM   31  C19 UNL     1      13.631  35.204 -17.505  1.00  0.00     0.197 C 
HETATM   32  N8  UNL     1      13.215  36.472 -17.996  1.00  0.00    -0.067 NA
HETATM   33  N9  UNL     1      14.089  34.264 -18.481  1.00  0.00    -0.067 NA
ATOM     34  H7  UNL     1      13.962  33.892 -16.097  1.00  0.00     0.161 HD
ENDBRANCH  29  30
ENDBRANCH  27  29
ENDBRANCH  21  22
ENDBRANCH  20  21
ENDBRANCH  18  20
ENDBRANCH   1  18
TORSDOF 12
ENDMDL
MODEL 5
REMARK VINA RESULT: -8.285924158      1.173      1.629
REMARK  12 active torsions:
REMARK  status: ('A' for Active; 'I' for Inactive)
REMARK    1  A    between atoms: N3_4  and  C2_6 
REMARK    2  A    between atoms: C2_6  and  C3_7 
REMARK    3  A    between atoms: C3_7  and  C4_8 
REMARK    4  A    between atoms: C4_8  and  C5_9 
REMARK    5  A    between atoms: C5_9  and  N4_10 
REMARK    6  A    between atoms: C5_9  and  C12_18 
REMARK    7  A    between atoms: N4_10  and  C6_12 
REMARK    8  A    between atoms: C12_18  and  C13_20 
REMARK    9  A    between atoms: C13_20  and  C14_21 
REMARK   10  A    between atoms: C14_21  and  C15_22 
REMARK   11  A    between atoms: C17_28  and  C18_29 
REMARK   12  A    between atoms: C18_29  and  N7_30 
ROOT
HETATM    1  C5  UNL     1      10.482  39.012  -4.083  1.00  0.00     0.147 C 
ENDROOT
BRANCH   1   2
HETATM    2  C4  UNL     1      11.013  38.259  -5.263  1.00  0.00     0.034 C 
BRANCH   2   3
HETATM    3  C3  UNL     1      11.313  39.250  -6.396  1.00  0.00     0.022 C 
BRANCH   3   4
HETATM    4  C2  UNL     1      12.554  38.679  -7.090  1.00  0.00     0.122 C 
BRANCH   4   5
HETATM    5  N3  UNL     1      12.293  38.346  -8.470  1.00  0.00    -0.367 N 
HETATM    6  C1  UNL     1      13.163  37.728  -9.165  1.00  0.00     0.196 C 
HETATM    7  N1  UNL     1      14.400  37.364  -8.575  1.00  0.00    -0.067 NA
HETATM    8  N2  UNL     1      12.972  37.371 -10.531  1.00  0.00    -0.067 NA
ATOM      9  H3  UNL     1      11.403  38.610  -8.892  1.00  0.00     0.161 HD
ENDBRANCH   4   5
ENDBRANCH   3   4
ENDBRANCH   2   3
ENDBRANCH   1   2
BRANCH   1  10
HETATM   10  N4  UNL     1      11.075  38.644  -2.870  1.00  0.00    -0.406 N 
ATOM     11  H4  UNL     1      12.073  38.816  -2.750  1.00  0.00     0.154 HD
BRANCH  10  12
HETATM   12  C6  UNL     1      10.381  38.058  -1.821  1.00  0.00     0.077 C 
HETATM   13  C7  UNL     1      10.714  38.659  -0.453  1.00  0.00     0.024 C 
HETATM   14  C8  UNL     1       9.536  38.415   0.442  1.00  0.00     0.002 C 
HETATM   15  C9  UNL     1       8.515  37.473  -0.113  1.00  0.00     0.000 C 
HETATM   16  C10 UNL     1       9.056  36.277  -0.818  1.00  0.00     0.002 C 
HETATM   17  C11 UNL     1      10.330  36.591  -1.636  1.00  0.00     0.024 C 
ENDBRANCH  10  12
ENDBRANCH   1  10
BRANCH   1  18
HETATM   18  C12 UNL     1       8.986  38.776  -4.069  1.00  0.00     0.149 C 
HETATM   19  O1  UNL     1       8.550  37.828  -4.683  1.00  0.00    -0.296 OA
BRANCH  18  20
HETATM   20  C13 UNL     1       8.074  39.668  -3.329  1.00  0.00     0.081 C 
BRANCH  20  21
HETATM   21  C14 UNL     1       8.437  41.107  -3.415  1.00  0.00     0.016 C 
BRANCH  21  22
HETATM   22  C15 UNL     1       7.499  42.080  -2.848  1.00  0.00     0.031 C 
HETATM   23  C16 UNL     1       7.940  42.733  -1.562  1.00  0.00     0.145 C 
HETATM   24  N5  UNL     1       8.967  43.616  -2.027  1.00  0.00    -0.340 N 
HETATM   25  N6  UNL     1       8.711  43.965  -3.206  1.00  0.00    -0.334 N 
ATOM     26  H5  UNL     1       9.779  43.915  -1.487  1.00  0.00     0.179 HD
HETATM   27  C17 UNL     1       7.514  43.379  -3.672  1.00  0.00     0.122 C 
ATOM     28  H6  UNL     1       9.295  44.593  -3.758  1.00  0.00     0.180 HD
BRANCH  27  29
HETATM   29  C18 UNL     1       7.409  43.156  -5.123  1.00  0.00     0.149 C 
BRANCH  29  30
HETATM   30  N7  UNL     1       8.268  44.115  -5.787  1.00  0.00    -0.365 N 
HETATM   31  C19 UNL     1       9.374  43.859  -6.346  1.00  0.00     0.197 C 
HETATM   32  N8  UNL     1       9.991  42.581  -6.434  1.00  0.00    -0.067 NA
HETATM   33  N9  UNL     1      10.077  44.947  -6.949  1.00  0.00    -0.067 NA
ATOM     34  H7  UNL     1       7.954  45.085  -5.804  1.00  0.00     0.161 HD
ENDBRANCH  29  30
ENDBRANCH  27  29
ENDBRANCH  21  22
ENDBRANCH  20  21
ENDBRANCH  18  20
ENDBRANCH   1  18
TORSDOF 12
ENDMDL
