MODEL 1
REMARK VINA RESULT: -7.420570315      0.000      0.000
REMARK  9 active torsions:
REMARK  status: ('A' for Active; 'I' for Inactive)
REMARK    1  A    between atoms: C2_2  and  N1_3 
REMARK    2  A    between atoms: N1_3  and  C3_5 
REMARK    3  A    between atoms: C3_5  and  N2_7 
REMARK    4  A    between atoms: N2_7  and  N3_9 
REMARK    5  A    between atoms: C4_11  and  C5_12 
REMARK    6  A    between atoms: C5_12  and  C6_13 
REMARK    7  A    between atoms: C6_13  and  C7_14 
REMARK    8  A    between atoms: C14_22  and  O1_23 
REMARK    9  A    between atoms: C19_29  and  O2_30 
ROOT
HETATM    1  C7  UNL     1      20.258 -22.827 -42.865  1.00  0.00    -0.035 C 
HETATM    2  C8  UNL     1      19.813 -24.065 -43.568  1.00  0.00     0.016 C 
HETATM    3  C9  UNL     1      19.427 -21.630 -43.277  1.00  0.00     0.012 C 
HETATM    4  C10 UNL     1      20.404 -20.596 -43.830  1.00  0.00     0.032 C 
HETATM    5  C11 UNL     1      21.543 -21.443 -44.253  1.00  0.00     0.071 C 
HETATM    6 CL1  UNL     1      21.272 -22.212 -45.811  1.00  0.00    -0.113 Cl
HETATM    7  C12 UNL     1      22.845 -20.742 -44.317  1.00  0.00    -0.025 A 
HETATM    8  C13 UNL     1      22.931 -19.378 -44.485  1.00  0.00     0.046 A 
HETATM    9  C14 UNL     1      24.187 -18.833 -44.530  1.00  0.00     0.066 A 
HETATM   10  C15 UNL     1      25.336 -19.580 -44.416  1.00  0.00     0.037 A 
HETATM   11  C16 UNL     1      25.211 -20.948 -44.248  1.00  0.00     0.010 A 
HETATM   12  C17 UNL     1      23.964 -21.545 -44.196  1.00  0.00    -0.047 A 
HETATM   13  C18 UNL     1      23.899 -23.016 -44.015  1.00  0.00     0.071 C 
HETATM   14  C19 UNL     1      22.660 -23.488 -43.301  1.00  0.00     0.129 C 
HETATM   15  C20 UNL     1      21.660 -22.423 -43.108  1.00  0.00     0.051 C 
ENDROOT
BRANCH   1  16
HETATM   16  C6  UNL     1      20.105 -23.044 -41.355  1.00  0.00     0.014 C 
BRANCH  16  17
HETATM   17  C5  UNL     1      18.752 -22.626 -40.853  1.00  0.00     0.047 C 
BRANCH  17  18
HETATM   18  C4  UNL     1      17.867 -23.811 -40.939  1.00  0.00     0.080 C 
HETATM   19  N3  UNL     1      16.928 -23.947 -40.078  1.00  0.00    -0.314 N 
ATOM     20  H3  UNL     1      16.306 -24.755 -40.119  1.00  0.00     0.185 HD
BRANCH  19  21
HETATM   21  N2  UNL     1      16.765 -22.984 -39.089  1.00  0.00    -0.277 N 
ATOM     22  H2  UNL     1      17.499 -22.293 -38.935  1.00  0.00     0.189 HD
BRANCH  21  23
HETATM   23  C3  UNL     1      15.588 -22.945 -38.288  1.00  0.00     0.186 C 
HETATM   24  S1  UNL     1      14.148 -22.916 -39.056  1.00  0.00    -0.040 SA
BRANCH  23  25
HETATM   25  N1  UNL     1      15.645 -22.931 -36.865  1.00  0.00    -0.366 N 
ATOM     26  H1  UNL     1      16.153 -22.194 -36.375  1.00  0.00     0.161 HD
BRANCH  25  27
HETATM   27  C2  UNL     1      14.979 -23.969 -36.129  1.00  0.00     0.117 C 
HETATM   28  C1  UNL     1      15.825 -25.229 -36.132  1.00  0.00     0.026 C 
ENDBRANCH  25  27
ENDBRANCH  23  25
ENDBRANCH  21  23
ENDBRANCH  19  21
ENDBRANCH  17  18
ENDBRANCH  16  17
ENDBRANCH   1  16
BRANCH  14  29
HETATM   29  O2  UNL     1      23.073 -23.943 -42.025  1.00  0.00    -0.395 OA
ATOM     30  H2  UNL     1      22.537 -23.489 -41.386  1.00  0.00     0.210 HD
ENDBRANCH  14  29
BRANCH   9  31
HETATM   31  O1  UNL     1      24.318 -17.460 -44.699  1.00  0.00    -0.361 OA
ATOM     32  H1  UNL     1      25.005 -17.131 -45.266  1.00  0.00     0.217 HD
ENDBRANCH   9  31
TORSDOF 9
ENDMDL
MODEL 2
REMARK VINA RESULT: -7.186046092      1.466      2.214
REMARK  9 active torsions:
REMARK  status: ('A' for Active; 'I' for Inactive)
REMARK    1  A    between atoms: C2_2  and  N1_3 
REMARK    2  A    between atoms: N1_3  and  C3_5 
REMARK    3  A    between atoms: C3_5  and  N2_7 
REMARK    4  A    between atoms: N2_7  and  N3_9 
REMARK    5  A    between atoms: C4_11  and  C5_12 
REMARK    6  A    between atoms: C5_12  and  C6_13 
REMARK    7  A    between atoms: C6_13  and  C7_14 
REMARK    8  A    between atoms: C14_22  and  O1_23 
REMARK    9  A    between atoms: C19_29  and  O2_30 
ROOT
HETATM    1  C7  UNL     1      20.163 -22.695 -42.937  1.00  0.00    -0.035 C 
HETATM    2  C8  UNL     1      19.754 -23.974 -43.587  1.00  0.00     0.016 C 
HETATM    3  C9  UNL     1      19.372 -21.522 -43.479  1.00  0.00     0.012 C 
HETATM    4  C10 UNL     1      20.395 -20.531 -44.031  1.00  0.00     0.032 C 
HETATM    5  C11 UNL     1      21.551 -21.411 -44.321  1.00  0.00     0.071 C 
HETATM    6 CL1  UNL     1      21.376 -22.277 -45.842  1.00  0.00    -0.113 Cl
HETATM    7  C12 UNL     1      22.861 -20.722 -44.343  1.00  0.00    -0.025 A 
HETATM    8  C13 UNL     1      22.971 -19.372 -44.592  1.00  0.00     0.046 A 
HETATM    9  C14 UNL     1      24.233 -18.838 -44.588  1.00  0.00     0.066 A 
HETATM   10  C15 UNL     1      25.364 -19.582 -44.351  1.00  0.00     0.037 A 
HETATM   11  C16 UNL     1      25.215 -20.936 -44.103  1.00  0.00     0.010 A 
HETATM   12  C17 UNL     1      23.962 -21.521 -44.097  1.00  0.00    -0.047 A 
HETATM   13  C18 UNL     1      23.870 -22.977 -43.827  1.00  0.00     0.071 C 
HETATM   14  C19 UNL     1      22.582 -23.395 -43.168  1.00  0.00     0.129 C 
HETATM   15  C20 UNL     1      21.582 -22.315 -43.111  1.00  0.00     0.051 C 
ENDROOT
BRANCH   1  16
HETATM   16  C6  UNL     1      19.908 -22.813 -41.429  1.00  0.00     0.014 C 
BRANCH  16  17
HETATM   17  C5  UNL     1      18.573 -23.430 -41.124  1.00  0.00     0.047 C 
BRANCH  17  18
HETATM   18  C4  UNL     1      17.967 -22.643 -40.025  1.00  0.00     0.080 C 
HETATM   19  N3  UNL     1      16.890 -23.068 -39.477  1.00  0.00    -0.314 N 
ATOM     20  H3  UNL     1      16.456 -22.543 -38.718  1.00  0.00     0.185 HD
BRANCH  19  21
HETATM   21  N2  UNL     1      16.319 -24.253 -39.928  1.00  0.00    -0.277 N 
ATOM     22  H2  UNL     1      16.850 -25.121 -39.866  1.00  0.00     0.189 HD
BRANCH  21  23
HETATM   23  C3  UNL     1      15.003 -24.274 -40.473  1.00  0.00     0.186 C 
HETATM   24  S1  UNL     1      13.864 -23.362 -39.741  1.00  0.00    -0.040 SA
BRANCH  23  25
HETATM   25  N1  UNL     1      14.674 -25.057 -41.617  1.00  0.00    -0.366 N 
ATOM     26  H1  UNL     1      13.841 -24.844 -42.166  1.00  0.00     0.161 HD
BRANCH  25  27
HETATM   27  C2  UNL     1      15.529 -26.150 -41.986  1.00  0.00     0.117 C 
HETATM   28  C1  UNL     1      16.389 -25.755 -43.173  1.00  0.00     0.026 C 
ENDBRANCH  25  27
ENDBRANCH  23  25
ENDBRANCH  21  23
ENDBRANCH  19  21
ENDBRANCH  17  18
ENDBRANCH  16  17
ENDBRANCH   1  16
BRANCH  14  29
HETATM   29  O2  UNL     1      22.906 -23.769 -41.841  1.00  0.00    -0.395 OA
ATOM     30  H2  UNL     1      22.438 -24.577 -41.662  1.00  0.00     0.210 HD
ENDBRANCH  14  29
BRANCH   9  31
HETATM   31  O1  UNL     1      24.387 -17.479 -44.835  1.00  0.00    -0.361 OA
ATOM     32  H1  UNL     1      24.285 -17.161 -45.724  1.00  0.00     0.217 HD
ENDBRANCH   9  31
TORSDOF 9
ENDMDL
MODEL 3
REMARK VINA RESULT: -7.060159707      5.631      8.701
REMARK  9 active torsions:
REMARK  status: ('A' for Active; 'I' for Inactive)
REMARK    1  A    between atoms: C2_2  and  N1_3 
REMARK    2  A    between atoms: N1_3  and  C3_5 
REMARK    3  A    between atoms: C3_5  and  N2_7 
REMARK    4  A    between atoms: N2_7  and  N3_9 
REMARK    5  A    between atoms: C4_11  and  C5_12 
REMARK    6  A    between atoms: C5_12  and  C6_13 
REMARK    7  A    between atoms: C6_13  and  C7_14 
REMARK    8  A    between atoms: C14_22  and  O1_23 
REMARK    9  A    between atoms: C19_29  and  O2_30 
ROOT
HETATM    1  C7  UNL     1      22.274 -21.686 -43.625  1.00  0.00    -0.035 C 
HETATM    2  C8  UNL     1      22.113 -20.389 -42.904  1.00  0.00     0.016 C 
HETATM    3  C9  UNL     1      22.355 -21.478 -45.123  1.00  0.00     0.012 C 
HETATM    4  C10 UNL     1      21.224 -22.302 -45.734  1.00  0.00     0.032 C 
HETATM    5  C11 UNL     1      20.269 -22.399 -44.606  1.00  0.00     0.071 C 
HETATM    6 CL1  UNL     1      19.289 -20.949 -44.423  1.00  0.00    -0.113 Cl
HETATM    7  C12 UNL     1      19.350 -23.558 -44.671  1.00  0.00    -0.025 A 
HETATM    8  C13 UNL     1      19.040 -24.176 -45.863  1.00  0.00     0.046 A 
HETATM    9  C14 UNL     1      18.180 -25.241 -45.807  1.00  0.00     0.066 A 
HETATM   10  C15 UNL     1      17.628 -25.702 -44.635  1.00  0.00     0.037 A 
HETATM   11  C16 UNL     1      17.963 -25.057 -43.458  1.00  0.00     0.010 A 
HETATM   12  C17 UNL     1      18.828 -23.978 -43.462  1.00  0.00    -0.047 A 
HETATM   13  C18 UNL     1      19.145 -23.329 -42.166  1.00  0.00     0.071 C 
HETATM   14  C19 UNL     1      20.512 -22.697 -42.119  1.00  0.00     0.129 C 
HETATM   15  C20 UNL     1      21.181 -22.664 -43.431  1.00  0.00     0.051 C 
ENDROOT
BRANCH   1  16
HETATM   16  C6  UNL     1      23.568 -22.352 -43.144  1.00  0.00     0.014 C 
BRANCH  16  17
HETATM   17  C5  UNL     1      24.766 -21.906 -43.933  1.00  0.00     0.047 C 
BRANCH  17  18
HETATM   18  C4  UNL     1      25.295 -20.687 -43.277  1.00  0.00     0.080 C 
HETATM   19  N3  UNL     1      25.551 -19.657 -43.994  1.00  0.00    -0.314 N 
ATOM     20  H3  UNL     1      25.914 -18.807 -43.563  1.00  0.00     0.185 HD
BRANCH  19  21
HETATM   21  N2  UNL     1      25.327 -19.710 -45.366  1.00  0.00    -0.277 N 
ATOM     22  H2  UNL     1      24.809 -20.494 -45.760  1.00  0.00     0.189 HD
BRANCH  21  23
HETATM   23  C3  UNL     1      25.811 -18.685 -46.229  1.00  0.00     0.186 C 
HETATM   24  S1  UNL     1      26.378 -19.133 -47.693  1.00  0.00    -0.040 SA
BRANCH  23  25
HETATM   25  N1  UNL     1      25.808 -17.313 -45.847  1.00  0.00    -0.366 N 
ATOM     26  H1  UNL     1      26.678 -16.782 -45.821  1.00  0.00     0.161 HD
BRANCH  25  27
HETATM   27  C2  UNL     1      24.563 -16.688 -45.498  1.00  0.00     0.117 C 
HETATM   28  C1  UNL     1      23.865 -16.191 -46.751  1.00  0.00     0.026 C 
ENDBRANCH  25  27
ENDBRANCH  23  25
ENDBRANCH  21  23
ENDBRANCH  19  21
ENDBRANCH  17  18
ENDBRANCH  16  17
ENDBRANCH   1  16
BRANCH  14  29
HETATM   29  O2  UNL     1      21.295 -23.487 -41.243  1.00  0.00    -0.395 OA
ATOM     30  H2  UNL     1      21.390 -22.990 -40.438  1.00  0.00     0.210 HD
ENDBRANCH  14  29
BRANCH   9  31
HETATM   31  O1  UNL     1      17.840 -25.892 -46.987  1.00  0.00    -0.361 OA
ATOM     32  H1  UNL     1      17.004 -25.699 -47.393  1.00  0.00     0.217 HD
ENDBRANCH   9  31
TORSDOF 9
ENDMDL
MODEL 4
REMARK VINA RESULT: -7.028446802      1.629      1.841
REMARK  9 active torsions:
REMARK  status: ('A' for Active; 'I' for Inactive)
REMARK    1  A    between atoms: C2_2  and  N1_3 
REMARK    2  A    between atoms: N1_3  and  C3_5 
REMARK    3  A    between atoms: C3_5  and  N2_7 
REMARK    4  A    between atoms: N2_7  and  N3_9 
REMARK    5  A    between atoms: C4_11  and  C5_12 
REMARK    6  A    between atoms: C5_12  and  C6_13 
REMARK    7  A    between atoms: C6_13  and  C7_14 
REMARK    8  A    between atoms: C14_22  and  O1_23 
REMARK    9  A    between atoms: C19_29  and  O2_30 
ROOT
HETATM    1  C7  UNL     1      20.096 -22.554 -42.925  1.00  0.00    -0.035 C 
HETATM    2  C8  UNL     1      19.729 -23.878 -43.508  1.00  0.00     0.016 C 
HETATM    3  C9  UNL     1      19.345 -21.426 -43.602  1.00  0.00     0.012 C 
HETATM    4  C10 UNL     1      20.404 -20.474 -44.154  1.00  0.00     0.032 C 
HETATM    5  C11 UNL     1      21.575 -21.368 -44.302  1.00  0.00     0.071 C 
HETATM    6 CL1  UNL     1      21.501 -22.342 -45.765  1.00  0.00    -0.113 Cl
HETATM    7  C12 UNL     1      22.885 -20.679 -44.286  1.00  0.00    -0.025 A 
HETATM    8  C13 UNL     1      23.014 -19.349 -44.623  1.00  0.00     0.046 A 
HETATM    9  C14 UNL     1      24.273 -18.813 -44.573  1.00  0.00     0.066 A 
HETATM   10  C15 UNL     1      25.385 -19.534 -44.207  1.00  0.00     0.037 A 
HETATM   11  C16 UNL     1      25.217 -20.867 -43.874  1.00  0.00     0.010 A 
HETATM   12  C17 UNL     1      23.966 -21.455 -43.910  1.00  0.00    -0.047 A 
HETATM   13  C18 UNL     1      23.854 -22.887 -43.542  1.00  0.00     0.071 C 
HETATM   14  C19 UNL     1      22.523 -23.261 -42.943  1.00  0.00     0.129 C 
HETATM   15  C20 UNL     1      21.524 -22.183 -43.031  1.00  0.00     0.051 C 
ENDROOT
BRANCH   1  16
HETATM   16  C6  UNL     1      19.740 -22.565 -41.434  1.00  0.00     0.014 C 
BRANCH  16  17
HETATM   17  C5  UNL     1      18.551 -23.434 -41.138  1.00  0.00     0.047 C 
BRANCH  17  18
HETATM   18  C4  UNL     1      17.886 -22.873 -39.939  1.00  0.00     0.080 C 
HETATM   19  N3  UNL     1      16.751 -23.347 -39.580  1.00  0.00    -0.314 N 
ATOM     20  H3  UNL     1      16.275 -22.978 -38.758  1.00  0.00     0.185 HD
BRANCH  19  21
HETATM   21  N2  UNL     1      16.175 -24.372 -40.323  1.00  0.00    -0.277 N 
ATOM     22  H2  UNL     1      16.775 -25.037 -40.811  1.00  0.00     0.189 HD
BRANCH  21  23
HETATM   23  C3  UNL     1      14.761 -24.509 -40.415  1.00  0.00     0.186 C 
HETATM   24  S1  UNL     1      14.150 -25.185 -41.770  1.00  0.00    -0.040 SA
BRANCH  23  25
HETATM   25  N1  UNL     1      13.892 -24.077 -39.372  1.00  0.00    -0.366 N 
ATOM     26  H1  UNL     1      14.048 -24.380 -38.411  1.00  0.00     0.161 HD
BRANCH  25  27
HETATM   27  C2  UNL     1      12.794 -23.208 -39.692  1.00  0.00     0.117 C 
HETATM   28  C1  UNL     1      13.314 -21.828 -40.053  1.00  0.00     0.026 C 
ENDBRANCH  25  27
ENDBRANCH  23  25
ENDBRANCH  21  23
ENDBRANCH  19  21
ENDBRANCH  17  18
ENDBRANCH  16  17
ENDBRANCH   1  16
BRANCH  14  29
HETATM   29  O2  UNL     1      22.757 -23.538 -41.574  1.00  0.00    -0.395 OA
ATOM     30  H2  UNL     1      21.905 -23.630 -41.164  1.00  0.00     0.210 HD
ENDBRANCH  14  29
BRANCH   9  31
HETATM   31  O1  UNL     1      24.446 -17.475 -44.907  1.00  0.00    -0.361 OA
ATOM     32  H1  UNL     1      24.861 -17.258 -45.733  1.00  0.00     0.217 HD
ENDBRANCH   9  31
TORSDOF 9
ENDMDL
MODEL 5
REMARK VINA RESULT: -6.868846513      4.636      6.474
REMARK  9 active torsions:
REMARK  status: ('A' for Active; 'I' for Inactive)
REMARK    1  A    between atoms: C2_2  and  N1_3 
REMARK    2  A    between atoms: N1_3  and  C3_5 
REMARK    3  A    between atoms: C3_5  and  N2_7 
REMARK    4  A    between atoms: N2_7  and  N3_9 
REMARK    5  A    between atoms: C4_11  and  C5_12 
REMARK    6  A    between atoms: C5_12  and  C6_13 
REMARK    7  A    between atoms: C6_13  and  C7_14 
REMARK    8  A    between atoms: C14_22  and  O1_23 
REMARK    9  A    between atoms: C19_29  and  O2_30 
ROOT
HETATM    1  C7  UNL     1      21.014 -22.777 -43.258  1.00  0.00    -0.035 C 
HETATM    2  C8  UNL     1      20.784 -23.025 -41.805  1.00  0.00     0.016 C 
HETATM    3  C9  UNL     1      21.937 -23.819 -43.857  1.00  0.00     0.012 C 
HETATM    4  C10 UNL     1      23.118 -23.057 -44.453  1.00  0.00     0.032 C 
HETATM    5  C11 UNL     1      23.107 -21.804 -43.663  1.00  0.00     0.071 C 
HETATM    6 CL1  UNL     1      23.859 -21.994 -42.084  1.00  0.00    -0.113 Cl
HETATM    7  C12 UNL     1      23.746 -20.647 -44.330  1.00  0.00    -0.025 A 
HETATM    8  C13 UNL     1      24.696 -20.806 -45.315  1.00  0.00     0.046 A 
HETATM    9  C14 UNL     1      25.220 -19.666 -45.864  1.00  0.00     0.066 A 
HETATM   10  C15 UNL     1      24.843 -18.401 -45.478  1.00  0.00     0.037 A 
HETATM   11  C16 UNL     1      23.886 -18.280 -44.486  1.00  0.00     0.010 A 
HETATM   12  C17 UNL     1      23.326 -19.401 -43.900  1.00  0.00    -0.047 A 
HETATM   13  C18 UNL     1      22.306 -19.203 -42.842  1.00  0.00     0.071 C 
HETATM   14  C19 UNL     1      21.293 -20.315 -42.756  1.00  0.00     0.129 C 
HETATM   15  C20 UNL     1      21.634 -21.477 -43.594  1.00  0.00     0.051 C 
ENDROOT
BRANCH   1  16
HETATM   16  C6  UNL     1      19.663 -22.835 -43.981  1.00  0.00     0.014 C 
BRANCH  16  17
HETATM   17  C5  UNL     1      19.748 -23.562 -45.292  1.00  0.00     0.047 C 
BRANCH  17  18
HETATM   18  C4  UNL     1      18.649 -24.554 -45.317  1.00  0.00     0.080 C 
HETATM   19  N3  UNL     1      17.863 -24.585 -46.328  1.00  0.00    -0.314 N 
ATOM     20  H3  UNL     1      17.100 -25.260 -46.367  1.00  0.00     0.185 HD
BRANCH  19  21
HETATM   21  N2  UNL     1      18.062 -23.690 -47.373  1.00  0.00    -0.277 N 
ATOM     22  H2  UNL     1      18.184 -22.698 -47.168  1.00  0.00     0.189 HD
BRANCH  21  23
HETATM   23  C3  UNL     1      18.099 -24.134 -48.726  1.00  0.00     0.186 C 
HETATM   24  S1  UNL     1      17.242 -23.285 -49.826  1.00  0.00    -0.040 SA
BRANCH  23  25
HETATM   25  N1  UNL     1      18.850 -25.277 -49.124  1.00  0.00    -0.366 N 
ATOM     26  H1  UNL     1      18.396 -26.049 -49.611  1.00  0.00     0.161 HD
BRANCH  25  27
HETATM   27  C2  UNL     1      20.255 -25.327 -48.830  1.00  0.00     0.117 C 
HETATM   28  C1  UNL     1      21.034 -24.590 -49.905  1.00  0.00     0.026 C 
ENDBRANCH  25  27
ENDBRANCH  23  25
ENDBRANCH  21  23
ENDBRANCH  19  21
ENDBRANCH  17  18
ENDBRANCH  16  17
ENDBRANCH   1  16
BRANCH  14  29
HETATM   29  O2  UNL     1      20.064 -19.782 -43.215  1.00  0.00    -0.395 OA
ATOM     30  H2  UNL     1      19.375 -20.304 -42.821  1.00  0.00     0.210 HD
ENDBRANCH  14  29
BRANCH   9  31
HETATM   31  O1  UNL     1      26.182 -19.783 -46.861  1.00  0.00    -0.361 OA
ATOM     32  H1  UNL     1      26.842 -19.104 -46.943  1.00  0.00     0.217 HD
ENDBRANCH   9  31
TORSDOF 9
ENDMDL
