MODEL 1
REMARK VINA RESULT: -6.060871096      0.000      0.000
REMARK  11 active torsions:
REMARK  status: ('A' for Active; 'I' for Inactive)
REMARK    1  A    between atoms: C3_3  and  O1_4 
REMARK    2  A    between atoms: C6_8  and  C7_9 
REMARK    3  A    between atoms: C7_9  and  C8_10 
REMARK    4  A    between atoms: C8_10  and  C9_11 
REMARK    5  A    between atoms: C9_11  and  C10_12 
REMARK    6  A    between atoms: C11_14  and  C12_15 
REMARK    7  A    between atoms: C17_21  and  C18_22 
REMARK    8  A    between atoms: C18_22  and  C19_23 
REMARK    9  A    between atoms: C21_26  and  O5_27 
REMARK   10  A    between atoms: O5_27  and  C22_28 
REMARK   11  A    between atoms: C30_37  and  O7_38 
ROOT
HETATM    1  C9  UNL     1       7.275  -0.936  28.158  1.00  0.00     0.058 C 
HETATM    2  C11 UNL     1       8.376  -0.202  28.906  1.00  0.00     0.033 C 
HETATM    3  C13 UNL     1       8.585  -0.868  30.261  1.00  0.00     0.024 C 
HETATM    4  C14 UNL     1       9.242  -2.142  30.041  1.00  0.00     0.003 C 
HETATM    5  C15 UNL     1       8.522  -2.877  28.932  1.00  0.00     0.027 C 
HETATM    6  C16 UNL     1       9.539  -3.965  28.762  1.00  0.00     0.021 C 
HETATM    7  C17 UNL     1       9.817  -4.365  30.203  1.00  0.00     0.001 C 
HETATM    8  C21 UNL     1      11.326  -4.453  30.294  1.00  0.00     0.141 C 
HETATM    9  C24 UNL     1      11.799  -4.711  31.704  1.00  0.00     0.034 C 
HETATM   10  C25 UNL     1      11.046  -4.024  32.762  1.00  0.00     0.007 C 
HETATM   11  C26 UNL     1      10.258  -2.865  32.214  1.00  0.00    -0.009 C 
HETATM   12  C27 UNL     1      11.160  -1.693  32.055  1.00  0.00     0.011 C 
HETATM   13  C28 UNL     1       9.336  -3.182  31.074  1.00  0.00    -0.026 C 
HETATM   14  C29 UNL     1       7.997  -3.530  31.737  1.00  0.00     0.017 C 
HETATM   15  C30 UNL     1       8.333  -1.945  27.798  1.00  0.00     0.078 C 
HETATM   16  C31 UNL     1       9.263  -0.745  27.806  1.00  0.00     0.057 C 
ENDROOT
BRANCH   1  17
HETATM   17  C8  UNL     1       6.078  -1.300  28.879  1.00  0.00     0.022 C 
BRANCH  17  18
HETATM   18  C7  UNL     1       5.461  -2.572  28.269  1.00  0.00     0.010 C 
BRANCH  18  19
HETATM   19  C6  UNL     1       4.044  -2.234  27.854  1.00  0.00     0.016 C 
HETATM   20  C2  UNL     1       3.013  -2.845  28.719  1.00  0.00    -0.057 C 
HETATM   21  C1  UNL     1       3.144  -3.330  29.936  1.00  0.00     0.017 C 
HETATM   22  C3  UNL     1       1.747  -2.811  27.943  1.00  0.00     0.146 C 
HETATM   23  C4  UNL     1       2.205  -3.035  26.515  1.00  0.00     0.037 C 
HETATM   24  C5  UNL     1       3.705  -2.837  26.502  1.00  0.00     0.012 C 
BRANCH  22  25
HETATM   25  O1  UNL     1       0.826  -3.734  28.375  1.00  0.00    -0.391 OA
ATOM     26  H1  UNL     1       0.352  -4.149  27.663  1.00  0.00     0.210 HD
ENDBRANCH  22  25
ENDBRANCH  18  19
ENDBRANCH  17  18
ENDBRANCH   1  17
BRANCH   1  27
HETATM   27  C10 UNL     1       6.933  -0.114  26.948  1.00  0.00     0.245 C 
HETATM   28  O2  UNL     1       5.865   0.420  26.811  1.00  0.00    -0.306 OA
ENDBRANCH   1  27
BRANCH   2  29
HETATM   29  C12 UNL     1       8.267   1.263  28.956  1.00  0.00     0.242 C 
HETATM   30  O3  UNL     1       9.169   1.901  29.464  1.00  0.00    -0.306 OA
ENDBRANCH   2  29
BRANCH  15  31
HETATM   31  O7  UNL     1       8.213  -2.473  26.531  1.00  0.00    -0.388 OA
ATOM     32  H7  UNL     1       7.397  -2.932  26.371  1.00  0.00     0.210 HD
ENDBRANCH  15  31
BRANCH   7  33
HETATM   33  C18 UNL     1       9.173  -5.632  30.606  1.00  0.00     0.090 C 
BRANCH  33  34
HETATM   34  C19 UNL     1       8.466  -6.437  29.611  1.00  0.00     0.123 C 
HETATM   35  C20 UNL     1       9.091  -7.536  28.823  1.00  0.00     0.091 C 
HETATM   36  O4  UNL     1       7.285  -6.242  29.366  1.00  0.00    -0.298 OA
ENDBRANCH  33  34
ENDBRANCH   7  33
BRANCH   8  37
HETATM   37  O5  UNL     1      11.813  -5.484  29.487  1.00  0.00    -0.316 OA
BRANCH  37  38
HETATM   38  C22 UNL     1      12.793  -5.291  28.537  1.00  0.00     0.255 C 
HETATM   39  C23 UNL     1      14.056  -4.519  28.806  1.00  0.00     0.126 C 
HETATM   40  O6  UNL     1      12.666  -5.771  27.361  1.00  0.00    -0.266 OA
ENDBRANCH  37  38
ENDBRANCH   8  37
TORSDOF 11
ENDMDL
MODEL 2
REMARK VINA RESULT: -6.025313828      2.548      7.286
REMARK  11 active torsions:
REMARK  status: ('A' for Active; 'I' for Inactive)
REMARK    1  A    between atoms: C3_3  and  O1_4 
REMARK    2  A    between atoms: C6_8  and  C7_9 
REMARK    3  A    between atoms: C7_9  and  C8_10 
REMARK    4  A    between atoms: C8_10  and  C9_11 
REMARK    5  A    between atoms: C9_11  and  C10_12 
REMARK    6  A    between atoms: C11_14  and  C12_15 
REMARK    7  A    between atoms: C17_21  and  C18_22 
REMARK    8  A    between atoms: C18_22  and  C19_23 
REMARK    9  A    between atoms: C21_26  and  O5_27 
REMARK   10  A    between atoms: O5_27  and  C22_28 
REMARK   11  A    between atoms: C30_37  and  O7_38 
ROOT
HETATM    1  C9  UNL     1       3.274  -2.476  28.468  1.00  0.00     0.058 C 
HETATM    2  C11 UNL     1       2.416  -1.227  28.363  1.00  0.00     0.033 C 
HETATM    3  C13 UNL     1       3.194  -0.041  28.921  1.00  0.00     0.024 C 
HETATM    4  C14 UNL     1       4.242   0.297  27.976  1.00  0.00     0.003 C 
HETATM    5  C15 UNL     1       4.963  -0.971  27.575  1.00  0.00     0.027 C 
HETATM    6  C16 UNL     1       5.755  -0.367  26.455  1.00  0.00     0.021 C 
HETATM    7  C17 UNL     1       6.274   0.915  27.090  1.00  0.00     0.001 C 
HETATM    8  C21 UNL     1       6.024   1.988  26.050  1.00  0.00     0.141 C 
HETATM    9  C24 UNL     1       6.357   3.368  26.563  1.00  0.00     0.034 C 
HETATM   10  C25 UNL     1       6.012   3.623  27.968  1.00  0.00     0.007 C 
HETATM   11  C26 UNL     1       5.001   2.631  28.477  1.00  0.00    -0.009 C 
HETATM   12  C27 UNL     1       3.643   3.049  28.037  1.00  0.00     0.011 C 
HETATM   13  C28 UNL     1       5.362   1.185  28.309  1.00  0.00    -0.026 C 
HETATM   14  C29 UNL     1       6.096   0.811  29.604  1.00  0.00     0.017 C 
HETATM   15  C30 UNL     1       3.954  -1.992  27.216  1.00  0.00     0.078 C 
HETATM   16  C31 UNL     1       2.586  -1.431  26.872  1.00  0.00     0.057 C 
ENDROOT
BRANCH   1  17
HETATM   17  C8  UNL     1       3.998  -2.712  29.695  1.00  0.00     0.022 C 
BRANCH  17  18
HETATM   18  C7  UNL     1       4.797  -4.023  29.592  1.00  0.00     0.010 C 
BRANCH  18  19
HETATM   19  C6  UNL     1       6.267  -3.659  29.571  1.00  0.00     0.016 C 
HETATM   20  C2  UNL     1       7.158  -4.772  29.961  1.00  0.00    -0.057 C 
HETATM   21  C1  UNL     1       6.897  -6.061  29.989  1.00  0.00     0.017 C 
HETATM   22  C3  UNL     1       8.458  -4.153  30.329  1.00  0.00     0.146 C 
HETATM   23  C4  UNL     1       8.052  -2.840  30.971  1.00  0.00     0.037 C 
HETATM   24  C5  UNL     1       6.595  -2.619  30.627  1.00  0.00     0.012 C 
BRANCH  22  25
HETATM   25  O1  UNL     1       9.222  -4.950  31.146  1.00  0.00    -0.391 OA
ATOM     26  H1  UNL     1      10.105  -5.079  30.821  1.00  0.00     0.210 HD
ENDBRANCH  22  25
ENDBRANCH  18  19
ENDBRANCH  17  18
ENDBRANCH   1  17
BRANCH   1  27
HETATM   27  C10 UNL     1       2.395  -3.650  28.139  1.00  0.00     0.245 C 
HETATM   28  O2  UNL     1       1.729  -4.211  28.969  1.00  0.00    -0.306 OA
ENDBRANCH   1  27
BRANCH   2  29
HETATM   29  C12 UNL     1       1.036  -1.338  28.856  1.00  0.00     0.242 C 
HETATM   30  O3  UNL     1       0.776  -0.928  29.972  1.00  0.00    -0.306 OA
ENDBRANCH   2  29
BRANCH  15  31
HETATM   31  O7  UNL     1       4.318  -2.989  26.339  1.00  0.00    -0.388 OA
ATOM     32  H7  UNL     1       4.779  -3.718  26.739  1.00  0.00     0.210 HD
ENDBRANCH  15  31
BRANCH   7  33
HETATM   33  C18 UNL     1       7.697   0.856  27.479  1.00  0.00     0.090 C 
BRANCH  33  34
HETATM   34  C19 UNL     1       8.551  -0.210  26.954  1.00  0.00     0.123 C 
HETATM   35  C20 UNL     1       8.611  -1.589  27.513  1.00  0.00     0.091 C 
HETATM   36  O4  UNL     1       9.285  -0.015  25.996  1.00  0.00    -0.298 OA
ENDBRANCH  33  34
ENDBRANCH   7  33
BRANCH   8  37
HETATM   37  O5  UNL     1       6.796   1.761  24.908  1.00  0.00    -0.316 OA
BRANCH  37  38
HETATM   38  C22 UNL     1       7.255   2.780  24.102  1.00  0.00     0.255 C 
HETATM   39  C23 UNL     1       6.364   3.554  23.169  1.00  0.00     0.126 C 
HETATM   40  O6  UNL     1       8.487   3.116  24.111  1.00  0.00    -0.266 OA
ENDBRANCH  37  38
ENDBRANCH   8  37
TORSDOF 11
ENDMDL
MODEL 3
REMARK VINA RESULT: -5.898721328      5.452     10.027
REMARK  11 active torsions:
REMARK  status: ('A' for Active; 'I' for Inactive)
REMARK    1  A    between atoms: C3_3  and  O1_4 
REMARK    2  A    between atoms: C6_8  and  C7_9 
REMARK    3  A    between atoms: C7_9  and  C8_10 
REMARK    4  A    between atoms: C8_10  and  C9_11 
REMARK    5  A    between atoms: C9_11  and  C10_12 
REMARK    6  A    between atoms: C11_14  and  C12_15 
REMARK    7  A    between atoms: C17_21  and  C18_22 
REMARK    8  A    between atoms: C18_22  and  C19_23 
REMARK    9  A    between atoms: C21_26  and  O5_27 
REMARK   10  A    between atoms: O5_27  and  C22_28 
REMARK   11  A    between atoms: C30_37  and  O7_38 
ROOT
HETATM    1  C9  UNL     1       5.787   2.345  27.373  1.00  0.00     0.058 C 
HETATM    2  C11 UNL     1       6.860   2.021  26.347  1.00  0.00     0.033 C 
HETATM    3  C13 UNL     1       6.290   2.233  24.949  1.00  0.00     0.024 C 
HETATM    4  C14 UNL     1       6.158   3.660  24.727  1.00  0.00     0.003 C 
HETATM    5  C15 UNL     1       5.481   4.279  25.930  1.00  0.00     0.027 C 
HETATM    6  C16 UNL     1       5.721   5.707  25.542  1.00  0.00     0.021 C 
HETATM    7  C17 UNL     1       5.330   5.705  24.072  1.00  0.00     0.001 C 
HETATM    8  C21 UNL     1       6.444   6.460  23.376  1.00  0.00     0.141 C 
HETATM    9  C24 UNL     1       6.293   6.443  21.874  1.00  0.00     0.034 C 
HETATM   10  C25 UNL     1       5.800   5.184  21.300  1.00  0.00     0.007 C 
HETATM   11  C26 UNL     1       5.972   4.036  22.257  1.00  0.00    -0.009 C 
HETATM   12  C27 UNL     1       7.376   3.550  22.189  1.00  0.00     0.011 C 
HETATM   13  C28 UNL     1       5.376   4.227  23.620  1.00  0.00    -0.026 C 
HETATM   14  C29 UNL     1       3.952   3.669  23.509  1.00  0.00     0.017 C 
HETATM   15  C30 UNL     1       6.154   3.788  27.152  1.00  0.00     0.078 C 
HETATM   16  C31 UNL     1       7.551   3.239  26.924  1.00  0.00     0.057 C 
ENDROOT
BRANCH   1  17
HETATM   17  C8  UNL     1       4.450   1.849  27.150  1.00  0.00     0.022 C 
BRANCH  17  18
HETATM   18  C7  UNL     1       4.233   0.544  27.936  1.00  0.00     0.010 C 
BRANCH  18  19
HETATM   19  C6  UNL     1       3.742  -0.501  26.954  1.00  0.00     0.016 C 
HETATM   20  C2  UNL     1       2.667  -1.360  27.493  1.00  0.00    -0.057 C 
HETATM   21  C1  UNL     1       1.878  -1.140  28.523  1.00  0.00     0.017 C 
HETATM   22  C3  UNL     1       2.629  -2.568  26.628  1.00  0.00     0.146 C 
HETATM   23  C4  UNL     1       4.086  -2.787  26.268  1.00  0.00     0.037 C 
HETATM   24  C5  UNL     1       4.823  -1.521  26.644  1.00  0.00     0.012 C 
BRANCH  22  25
HETATM   25  O1  UNL     1       2.047  -3.651  27.242  1.00  0.00    -0.391 OA
ATOM     26  H1  UNL     1       1.581  -3.423  28.037  1.00  0.00     0.210 HD
ENDBRANCH  22  25
ENDBRANCH  18  19
ENDBRANCH  17  18
ENDBRANCH   1  17
BRANCH   1  27
HETATM   27  C10 UNL     1       6.300   1.896  28.712  1.00  0.00     0.245 C 
HETATM   28  O2  UNL     1       5.858   2.319  29.748  1.00  0.00    -0.306 OA
ENDBRANCH   1  27
BRANCH   2  29
HETATM   29  C12 UNL     1       7.576   0.751  26.529  1.00  0.00     0.242 C 
HETATM   30  O3  UNL     1       8.728   0.666  26.147  1.00  0.00    -0.306 OA
ENDBRANCH   2  29
BRANCH  15  31
HETATM   31  O7  UNL     1       6.106   4.571  28.284  1.00  0.00    -0.388 OA
ATOM     32  H7  UNL     1       6.718   5.298  28.288  1.00  0.00     0.210 HD
ENDBRANCH  15  31
BRANCH   7  33
HETATM   33  C18 UNL     1       4.011   6.313  23.803  1.00  0.00     0.090 C 
BRANCH  33  34
HETATM   34  C19 UNL     1       3.250   6.913  24.899  1.00  0.00     0.123 C 
HETATM   35  C20 UNL     1       2.222   6.192  25.700  1.00  0.00     0.091 C 
HETATM   36  O4  UNL     1       3.425   8.078  25.224  1.00  0.00    -0.298 OA
ENDBRANCH  33  34
ENDBRANCH   7  33
BRANCH   8  37
HETATM   37  O5  UNL     1       6.470   7.795  23.786  1.00  0.00    -0.316 OA
BRANCH  37  38
HETATM   38  C22 UNL     1       7.637   8.463  24.086  1.00  0.00     0.255 C 
HETATM   39  C23 UNL     1       8.831   7.790  24.710  1.00  0.00     0.126 C 
HETATM   40  O6  UNL     1       7.757   9.710  23.844  1.00  0.00    -0.266 OA
ENDBRANCH  37  38
ENDBRANCH   8  37
TORSDOF 11
ENDMDL
MODEL 4
REMARK VINA RESULT: -5.873734085      8.573     11.209
REMARK  11 active torsions:
REMARK  status: ('A' for Active; 'I' for Inactive)
REMARK    1  A    between atoms: C3_3  and  O1_4 
REMARK    2  A    between atoms: C6_8  and  C7_9 
REMARK    3  A    between atoms: C7_9  and  C8_10 
REMARK    4  A    between atoms: C8_10  and  C9_11 
REMARK    5  A    between atoms: C9_11  and  C10_12 
REMARK    6  A    between atoms: C11_14  and  C12_15 
REMARK    7  A    between atoms: C17_21  and  C18_22 
REMARK    8  A    between atoms: C18_22  and  C19_23 
REMARK    9  A    between atoms: C21_26  and  O5_27 
REMARK   10  A    between atoms: O5_27  and  C22_28 
REMARK   11  A    between atoms: C30_37  and  O7_38 
ROOT
HETATM    1  C9  UNL     1       3.187   6.421  22.010  1.00  0.00     0.058 C 
HETATM    2  C11 UNL     1       2.863   7.096  23.332  1.00  0.00     0.033 C 
HETATM    3  C13 UNL     1       3.037   6.085  24.461  1.00  0.00     0.024 C 
HETATM    4  C14 UNL     1       4.457   5.852  24.643  1.00  0.00     0.003 C 
HETATM    5  C15 UNL     1       5.087   5.602  23.290  1.00  0.00     0.027 C 
HETATM    6  C16 UNL     1       6.511   5.664  23.754  1.00  0.00     0.021 C 
HETATM    7  C17 UNL     1       6.473   4.803  25.007  1.00  0.00     0.001 C 
HETATM    8  C21 UNL     1       7.234   5.601  26.046  1.00  0.00     0.141 C 
HETATM    9  C24 UNL     1       7.186   4.956  27.409  1.00  0.00     0.034 C 
HETATM   10  C25 UNL     1       5.907   4.329  27.769  1.00  0.00     0.007 C 
HETATM   11  C26 UNL     1       4.781   4.839  26.911  1.00  0.00    -0.009 C 
HETATM   12  C27 UNL     1       4.319   6.150  27.441  1.00  0.00     0.011 C 
HETATM   13  C28 UNL     1       4.987   4.731  25.429  1.00  0.00    -0.026 C 
HETATM   14  C29 UNL     1       4.401   3.365  25.049  1.00  0.00     0.017 C 
HETATM   15  C30 UNL     1       4.632   6.659  22.359  1.00  0.00     0.078 C 
HETATM   16  C31 UNL     1       4.104   7.911  23.036  1.00  0.00     0.057 C 
ENDROOT
BRANCH   1  17
HETATM   17  C8  UNL     1       2.662   5.099  21.765  1.00  0.00     0.022 C 
BRANCH  17  18
HETATM   18  C7  UNL     1       1.153   5.067  22.063  1.00  0.00     0.010 C 
BRANCH  18  19
HETATM   19  C6  UNL     1       0.440   4.753  20.763  1.00  0.00     0.016 C 
HETATM   20  C2  UNL     1      -0.698   5.653  20.480  1.00  0.00    -0.057 C 
HETATM   21  C1  UNL     1      -0.955   6.837  20.993  1.00  0.00     0.017 C 
HETATM   22  C3  UNL     1      -1.536   4.957  19.469  1.00  0.00     0.146 C 
HETATM   23  C4  UNL     1      -1.405   3.496  19.853  1.00  0.00     0.037 C 
HETATM   24  C5  UNL     1      -0.246   3.400  20.820  1.00  0.00     0.012 C 
BRANCH  22  25
HETATM   25  O1  UNL     1      -2.835   5.404  19.447  1.00  0.00    -0.391 OA
ATOM     26  H1  UNL     1      -3.374   4.948  18.812  1.00  0.00     0.210 HD
ENDBRANCH  22  25
ENDBRANCH  18  19
ENDBRANCH  17  18
ENDBRANCH   1  17
BRANCH   1  27
HETATM   27  C10 UNL     1       2.774   7.365  20.915  1.00  0.00     0.245 C 
HETATM   28  O2  UNL     1       2.955   7.122  19.751  1.00  0.00    -0.306 OA
ENDBRANCH   1  27
BRANCH   2  29
HETATM   29  C12 UNL     1       1.610   7.862  23.386  1.00  0.00     0.242 C 
HETATM   30  O3  UNL     1       1.237   8.303  24.457  1.00  0.00    -0.306 OA
ENDBRANCH   2  29
BRANCH  15  31
HETATM   31  O7  UNL     1       5.437   6.974  21.286  1.00  0.00    -0.388 OA
ATOM     32  H7  UNL     1       6.039   6.286  21.029  1.00  0.00     0.210 HD
ENDBRANCH  15  31
BRANCH   7  33
HETATM   33  C18 UNL     1       7.051   3.457  24.825  1.00  0.00     0.090 C 
BRANCH  33  34
HETATM   34  C19 UNL     1       7.854   3.164  23.638  1.00  0.00     0.123 C 
HETATM   35  C20 UNL     1       7.327   2.509  22.408  1.00  0.00     0.091 C 
HETATM   36  O4  UNL     1       9.041   3.453  23.593  1.00  0.00    -0.298 OA
ENDBRANCH  33  34
ENDBRANCH   7  33
BRANCH   8  37
HETATM   37  O5  UNL     1       8.578   5.731  25.684  1.00  0.00    -0.316 OA
BRANCH  37  38
HETATM   38  C22 UNL     1       9.595   5.822  26.609  1.00  0.00     0.255 C 
HETATM   39  C23 UNL     1       9.883   7.075  27.391  1.00  0.00     0.126 C 
HETATM   40  O6  UNL     1      10.355   4.825  26.845  1.00  0.00    -0.266 OA
ENDBRANCH  37  38
ENDBRANCH   8  37
TORSDOF 11
ENDMDL
MODEL 5
REMARK VINA RESULT: -5.806716625      8.700     13.083
REMARK  11 active torsions:
REMARK  status: ('A' for Active; 'I' for Inactive)
REMARK    1  A    between atoms: C3_3  and  O1_4 
REMARK    2  A    between atoms: C6_8  and  C7_9 
REMARK    3  A    between atoms: C7_9  and  C8_10 
REMARK    4  A    between atoms: C8_10  and  C9_11 
REMARK    5  A    between atoms: C9_11  and  C10_12 
REMARK    6  A    between atoms: C11_14  and  C12_15 
REMARK    7  A    between atoms: C17_21  and  C18_22 
REMARK    8  A    between atoms: C18_22  and  C19_23 
REMARK    9  A    between atoms: C21_26  and  O5_27 
REMARK   10  A    between atoms: O5_27  and  C22_28 
REMARK   11  A    between atoms: C30_37  and  O7_38 
ROOT
HETATM    1  C9  UNL     1       8.282   4.784  21.903  1.00  0.00     0.058 C 
HETATM    2  C11 UNL     1       7.672   3.884  22.964  1.00  0.00     0.033 C 
HETATM    3  C13 UNL     1       6.659   4.687  23.773  1.00  0.00     0.024 C 
HETATM    4  C14 UNL     1       5.493   4.914  22.940  1.00  0.00     0.003 C 
HETATM    5  C15 UNL     1       5.952   5.407  21.585  1.00  0.00     0.027 C 
HETATM    6  C16 UNL     1       4.620   5.295  20.906  1.00  0.00     0.021 C 
HETATM    7  C17 UNL     1       3.688   5.924  21.931  1.00  0.00     0.001 C 
HETATM    8  C21 UNL     1       2.512   4.973  22.017  1.00  0.00     0.141 C 
HETATM    9  C24 UNL     1       1.535   5.371  23.097  1.00  0.00     0.034 C 
HETATM   10  C25 UNL     1       2.133   5.901  24.330  1.00  0.00     0.007 C 
HETATM   11  C26 UNL     1       3.585   5.524  24.445  1.00  0.00    -0.009 C 
HETATM   12  C27 UNL     1       3.690   4.132  24.958  1.00  0.00     0.011 C 
HETATM   13  C28 UNL     1       4.451   5.892  23.276  1.00  0.00    -0.026 C 
HETATM   14  C29 UNL     1       4.986   7.291  23.607  1.00  0.00     0.017 C 
HETATM   15  C30 UNL     1       7.033   4.519  21.105  1.00  0.00     0.078 C 
HETATM   16  C31 UNL     1       7.077   3.158  21.776  1.00  0.00     0.057 C 
ENDROOT
BRANCH   1  17
HETATM   17  C8  UNL     1       8.685   6.118  22.280  1.00  0.00     0.022 C 
BRANCH  17  18
HETATM   18  C7  UNL     1       9.905   6.056  23.216  1.00  0.00     0.010 C 
BRANCH  18  19
HETATM   19  C6  UNL     1       9.775   7.195  24.207  1.00  0.00     0.016 C 
HETATM   20  C2  UNL     1       9.414   6.754  25.571  1.00  0.00    -0.057 C 
HETATM   21  C1  UNL     1       9.520   5.554  26.101  1.00  0.00     0.017 C 
HETATM   22  C3  UNL     1       8.889   7.956  26.270  1.00  0.00     0.146 C 
HETATM   23  C4  UNL     1       8.169   8.713  25.171  1.00  0.00     0.037 C 
HETATM   24  C5  UNL     1       8.608   8.102  23.859  1.00  0.00     0.012 C 
BRANCH  22  25
HETATM   25  O1  UNL     1       8.086   7.648  27.341  1.00  0.00    -0.391 OA
ATOM     26  H1  UNL     1       8.309   6.819  27.747  1.00  0.00     0.210 HD
ENDBRANCH  22  25
ENDBRANCH  18  19
ENDBRANCH  17  18
ENDBRANCH   1  17
BRANCH   1  27
HETATM   27  C10 UNL     1       9.435   4.037  21.293  1.00  0.00     0.245 C 
HETATM   28  O2  UNL     1       9.905   4.333  20.227  1.00  0.00    -0.306 OA
ENDBRANCH   1  27
BRANCH   2  29
HETATM   29  C12 UNL     1       8.612   3.096  23.772  1.00  0.00     0.242 C 
HETATM   30  O3  UNL     1       8.186   2.160  24.423  1.00  0.00    -0.306 OA
ENDBRANCH   2  29
BRANCH  15  31
HETATM   31  O7  UNL     1       7.234   4.411  19.746  1.00  0.00    -0.388 OA
ATOM     32  H7  UNL     1       8.124   4.583  19.463  1.00  0.00     0.210 HD
ENDBRANCH  15  31
BRANCH   7  33
HETATM   33  C18 UNL     1       3.257   7.293  21.584  1.00  0.00     0.090 C 
BRANCH  33  34
HETATM   34  C19 UNL     1       3.739   7.918  20.353  1.00  0.00     0.123 C 
HETATM   35  C20 UNL     1       4.723   9.036  20.309  1.00  0.00     0.091 C 
HETATM   36  O4  UNL     1       3.346   7.541  19.259  1.00  0.00    -0.298 OA
ENDBRANCH  33  34
ENDBRANCH   7  33
BRANCH   8  37
HETATM   37  O5  UNL     1       1.816   4.936  20.806  1.00  0.00    -0.316 OA
BRANCH  37  38
HETATM   38  C22 UNL     1       0.674   4.186  20.624  1.00  0.00     0.255 C 
HETATM   39  C23 UNL     1      -0.696   4.796  20.495  1.00  0.00     0.126 C 
HETATM   40  O6  UNL     1       0.732   2.913  20.556  1.00  0.00    -0.266 OA
ENDBRANCH  37  38
ENDBRANCH   8  37
TORSDOF 11
ENDMDL
