MODEL 1
REMARK VINA RESULT: -6.758286186      0.000      0.000
REMARK  7 active torsions:
REMARK  status: ('A' for Active; 'I' for Inactive)
REMARK    1  A    between atoms: C2_2  and  O1_4 
REMARK    2  A    between atoms: O1_4  and  C4_5 
REMARK    3  A    between atoms: C6_7  and  C7_8 
REMARK    4  A    between atoms: C9_13  and  C10_14 
REMARK    5  A    between atoms: C12_16  and  C13_17 
REMARK    6  A    between atoms: C14_18  and  C15_19 
REMARK       I    between atoms: C15_19  and  N2_21 
REMARK    7  A    between atoms: C18_25  and  C19_26 
ROOT
HETATM    1  C10 UNL     1      35.387  14.628  -9.552  1.00  0.00    -0.003 A 
HETATM    2  C11 UNL     1      34.475  13.789 -10.127  1.00  0.00     0.042 A 
HETATM    3  C12 UNL     1      33.682  13.056  -9.303  1.00  0.00     0.060 A 
HETATM    4  S1  UNL     1      34.201  13.530  -7.761  1.00  0.00    -0.080 SA
HETATM    5  C18 UNL     1      35.432  14.661  -8.203  1.00  0.00     0.024 A 
ENDROOT
BRANCH   1   6
HETATM    6  C9  UNL     1      36.193  15.504 -10.478  1.00  0.00     0.018 A 
HETATM    7  C8  UNL     1      37.539  15.269 -10.616  1.00  0.00     0.142 A 
HETATM    8  C6  UNL     1      38.253  16.039 -11.537  1.00  0.00     0.071 A 
HETATM    9  F1  UNL     1      38.194  14.339  -9.910  1.00  0.00    -0.204 F 
HETATM   10  C5  UNL     1      37.608  17.014 -12.291  1.00  0.00     0.056 A 
HETATM   11  C4  UNL     1      36.264  17.251 -12.156  1.00  0.00     0.071 A 
HETATM   12  C23 UNL     1      35.573  16.468 -11.227  1.00  0.00     0.052 A 
BRANCH   8  13
HETATM   13  C7  UNL     1      39.678  15.839 -11.726  1.00  0.00     0.268 C 
HETATM   14  N1  UNL     1      40.148  14.972 -12.727  1.00  0.00    -0.057 NA
HETATM   15  O2  UNL     1      40.486  16.440 -10.996  1.00  0.00    -0.271 OA
ENDBRANCH   8  13
BRANCH  11  16
HETATM   16  O1  UNL     1      35.607  18.210 -12.891  1.00  0.00    -0.347 OA
BRANCH  16  17
HETATM   17  C2  UNL     1      34.581  19.052 -12.520  1.00  0.00     0.120 C 
HETATM   18  C1  UNL     1      34.816  20.492 -13.007  1.00  0.00     0.040 C 
HETATM   19  C3  UNL     1      33.309  18.572 -13.184  1.00  0.00     0.040 C 
ENDBRANCH  16  17
ENDBRANCH  11  16
ENDBRANCH   1   6
BRANCH   5  20
HETATM   20  C19 UNL     1      36.353  15.383  -7.271  1.00  0.00    -0.029 C 
HETATM   21  C20 UNL     1      37.260  14.700  -6.633  1.00  0.00    -0.003 C 
HETATM   22  C21 UNL     1      38.158  15.438  -5.722  1.00  0.00     0.168 C 
HETATM   23  S2  UNL     1      38.120  17.034  -6.580  1.00  0.00     0.151 S 
HETATM   24  O4  UNL     1      38.316  18.169  -5.660  1.00  0.00    -0.227 OA
HETATM   25  O5  UNL     1      38.974  17.011  -7.784  1.00  0.00    -0.227 OA
HETATM   26  C22 UNL     1      36.364  16.835  -7.029  1.00  0.00     0.180 C 
ENDBRANCH   5  20
BRANCH   3  27
HETATM   27  C13 UNL     1      32.648  12.107  -9.649  1.00  0.00    -0.049 C 
HETATM   28  C14 UNL     1      31.790  11.322  -9.959  1.00  0.00     0.001 C 
BRANCH  28  29
HETATM   29  C15 UNL     1      30.752  10.382 -10.362  1.00  0.00     0.298 C 
HETATM   30  O3  UNL     1      30.801   9.174  -9.977  1.00  0.00    -0.258 OA
HETATM   31  N2  UNL     1      29.696  10.792 -11.171  1.00  0.00    -0.350 N 
HETATM   32  C16 UNL     1      29.612  12.160 -11.626  1.00  0.00     0.153 C 
HETATM   33  C17 UNL     1      28.671   9.859 -11.568  1.00  0.00     0.153 C 
ENDBRANCH  28  29
ENDBRANCH   3  27
TORSDOF 7
ENDMDL
MODEL 2
REMARK VINA RESULT: -6.652965324      3.672      6.738
REMARK  7 active torsions:
REMARK  status: ('A' for Active; 'I' for Inactive)
REMARK    1  A    between atoms: C2_2  and  O1_4 
REMARK    2  A    between atoms: O1_4  and  C4_5 
REMARK    3  A    between atoms: C6_7  and  C7_8 
REMARK    4  A    between atoms: C9_13  and  C10_14 
REMARK    5  A    between atoms: C12_16  and  C13_17 
REMARK    6  A    between atoms: C14_18  and  C15_19 
REMARK       I    between atoms: C15_19  and  N2_21 
REMARK    7  A    between atoms: C18_25  and  C19_26 
ROOT
HETATM    1  C10 UNL     1      37.289  15.384  -7.561  1.00  0.00    -0.003 A 
HETATM    2  C11 UNL     1      36.099  14.712  -7.555  1.00  0.00     0.042 A 
HETATM    3  C12 UNL     1      35.703  14.117  -8.710  1.00  0.00     0.060 A 
HETATM    4  S1  UNL     1      36.964  14.489  -9.778  1.00  0.00    -0.080 SA
HETATM    5  C18 UNL     1      37.979  15.407  -8.721  1.00  0.00     0.024 A 
ENDROOT
BRANCH   1   6
HETATM    6  C9  UNL     1      37.761  15.957  -6.248  1.00  0.00     0.018 A 
HETATM    7  C8  UNL     1      37.070  17.005  -5.691  1.00  0.00     0.142 A 
HETATM    8  C6  UNL     1      37.474  17.470  -4.438  1.00  0.00     0.071 A 
HETATM    9  F1  UNL     1      36.032  17.599  -6.294  1.00  0.00    -0.204 F 
HETATM   10  C5  UNL     1      38.547  16.879  -3.779  1.00  0.00     0.056 A 
HETATM   11  C4  UNL     1      39.238  15.832  -4.333  1.00  0.00     0.071 A 
HETATM   12  C23 UNL     1      38.815  15.386  -5.587  1.00  0.00     0.052 A 
BRANCH   8  13
HETATM   13  C7  UNL     1      36.786  18.577  -3.799  1.00  0.00     0.268 C 
HETATM   14  N1  UNL     1      35.539  18.378  -3.182  1.00  0.00    -0.057 NA
HETATM   15  O2  UNL     1      37.306  19.707  -3.798  1.00  0.00    -0.271 OA
ENDBRANCH   8  13
BRANCH  11  16
HETATM   16  O1  UNL     1      40.302  15.233  -3.698  1.00  0.00    -0.347 OA
BRANCH  16  17
HETATM   17  C2  UNL     1      40.376  14.008  -3.072  1.00  0.00     0.120 C 
HETATM   18  C1  UNL     1      41.681  13.267  -3.413  1.00  0.00     0.040 C 
HETATM   19  C3  UNL     1      40.386  14.237  -1.577  1.00  0.00     0.040 C 
ENDBRANCH  16  17
ENDBRANCH  11  16
ENDBRANCH   1   6
BRANCH   5  20
HETATM   20  C19 UNL     1      39.245  16.113  -9.095  1.00  0.00    -0.029 C 
HETATM   21  C20 UNL     1      40.296  15.402  -9.386  1.00  0.00    -0.003 C 
HETATM   22  C21 UNL     1      41.530  16.124  -9.754  1.00  0.00     0.168 C 
HETATM   23  S2  UNL     1      40.749  17.606 -10.447  1.00  0.00     0.151 S 
HETATM   24  O4  UNL     1      41.592  18.806 -10.296  1.00  0.00    -0.227 OA
HETATM   25  O5  UNL     1      40.218  17.344 -11.800  1.00  0.00    -0.227 OA
HETATM   26  C22 UNL     1      39.411  17.571  -9.210  1.00  0.00     0.180 C 
ENDBRANCH   5  20
BRANCH   3  27
HETATM   27  C13 UNL     1      34.503  13.352  -8.969  1.00  0.00    -0.049 C 
HETATM   28  C14 UNL     1      33.501  12.727  -9.202  1.00  0.00     0.001 C 
BRANCH  28  29
HETATM   29  C15 UNL     1      32.281  11.991  -9.505  1.00  0.00     0.298 C 
HETATM   30  O3  UNL     1      32.322  10.970 -10.257  1.00  0.00    -0.258 OA
HETATM   31  N2  UNL     1      31.058  12.394  -8.977  1.00  0.00    -0.350 N 
HETATM   32  C16 UNL     1      30.977  13.552  -8.118  1.00  0.00     0.153 C 
HETATM   33  C17 UNL     1      29.851  11.663  -9.280  1.00  0.00     0.153 C 
ENDBRANCH  28  29
ENDBRANCH   3  27
TORSDOF 7
ENDMDL
MODEL 3
REMARK VINA RESULT: -6.642652612      3.869      6.812
REMARK  7 active torsions:
REMARK  status: ('A' for Active; 'I' for Inactive)
REMARK    1  A    between atoms: C2_2  and  O1_4 
REMARK    2  A    between atoms: O1_4  and  C4_5 
REMARK    3  A    between atoms: C6_7  and  C7_8 
REMARK    4  A    between atoms: C9_13  and  C10_14 
REMARK    5  A    between atoms: C12_16  and  C13_17 
REMARK    6  A    between atoms: C14_18  and  C15_19 
REMARK       I    between atoms: C15_19  and  N2_21 
REMARK    7  A    between atoms: C18_25  and  C19_26 
ROOT
HETATM    1  C10 UNL     1      37.386  15.397  -7.459  1.00  0.00    -0.003 A 
HETATM    2  C11 UNL     1      36.198  14.722  -7.457  1.00  0.00     0.042 A 
HETATM    3  C12 UNL     1      35.808  14.122  -8.612  1.00  0.00     0.060 A 
HETATM    4  S1  UNL     1      37.072  14.496  -9.676  1.00  0.00    -0.080 SA
HETATM    5  C18 UNL     1      38.081  15.420  -8.617  1.00  0.00     0.024 A 
ENDROOT
BRANCH   1   6
HETATM    6  C9  UNL     1      37.850  15.974  -6.146  1.00  0.00     0.018 A 
HETATM    7  C8  UNL     1      37.152  17.019  -5.592  1.00  0.00     0.142 A 
HETATM    8  C6  UNL     1      37.549  17.488  -4.338  1.00  0.00     0.071 A 
HETATM    9  F1  UNL     1      36.111  17.605  -6.198  1.00  0.00    -0.204 F 
HETATM   10  C5  UNL     1      38.624  16.905  -3.676  1.00  0.00     0.056 A 
HETATM   11  C4  UNL     1      39.324  15.861  -4.226  1.00  0.00     0.071 A 
HETATM   12  C23 UNL     1      38.906  15.411  -5.481  1.00  0.00     0.052 A 
BRANCH   8  13
HETATM   13  C7  UNL     1      36.853  18.591  -3.702  1.00  0.00     0.268 C 
HETATM   14  N1  UNL     1      35.586  18.394  -3.124  1.00  0.00    -0.057 NA
HETATM   15  O2  UNL     1      37.381  19.716  -3.670  1.00  0.00    -0.271 OA
ENDBRANCH   8  13
BRANCH  11  16
HETATM   16  O1  UNL     1      40.389  15.270  -3.588  1.00  0.00    -0.347 OA
BRANCH  16  17
HETATM   17  C2  UNL     1      40.463  14.056  -2.939  1.00  0.00     0.120 C 
HETATM   18  C1  UNL     1      41.892  13.488  -2.946  1.00  0.00     0.040 C 
HETATM   19  C3  UNL     1      40.087  14.269  -1.490  1.00  0.00     0.040 C 
ENDBRANCH  16  17
ENDBRANCH  11  16
ENDBRANCH   1   6
BRANCH   5  20
HETATM   20  C19 UNL     1      39.345  16.129  -8.987  1.00  0.00    -0.029 C 
HETATM   21  C20 UNL     1      39.287  17.394  -9.292  1.00  0.00    -0.003 C 
HETATM   22  C21 UNL     1      40.550  18.070  -9.650  1.00  0.00     0.168 C 
HETATM   23  S2  UNL     1      41.668  17.036  -8.667  1.00  0.00     0.151 S 
HETATM   24  O4  UNL     1      43.014  16.946  -9.261  1.00  0.00    -0.227 OA
HETATM   25  O5  UNL     1      41.606  17.397  -7.237  1.00  0.00    -0.227 OA
HETATM   26  C22 UNL     1      40.691  15.534  -8.998  1.00  0.00     0.180 C 
ENDBRANCH   5  20
BRANCH   3  27
HETATM   27  C13 UNL     1      34.612  13.353  -8.873  1.00  0.00    -0.049 C 
HETATM   28  C14 UNL     1      33.609  12.728  -9.105  1.00  0.00     0.001 C 
BRANCH  28  29
HETATM   29  C15 UNL     1      32.385  11.996  -9.399  1.00  0.00     0.298 C 
HETATM   30  O3  UNL     1      32.412  10.994 -10.175  1.00  0.00    -0.258 OA
HETATM   31  N2  UNL     1      31.172  12.383  -8.835  1.00  0.00    -0.350 N 
HETATM   32  C16 UNL     1      31.108  13.520  -7.947  1.00  0.00     0.153 C 
HETATM   33  C17 UNL     1      29.962  11.656  -9.128  1.00  0.00     0.153 C 
ENDBRANCH  28  29
ENDBRANCH   3  27
TORSDOF 7
ENDMDL
MODEL 4
REMARK VINA RESULT: -6.518423202      0.953      1.249
REMARK  7 active torsions:
REMARK  status: ('A' for Active; 'I' for Inactive)
REMARK    1  A    between atoms: C2_2  and  O1_4 
REMARK    2  A    between atoms: O1_4  and  C4_5 
REMARK    3  A    between atoms: C6_7  and  C7_8 
REMARK    4  A    between atoms: C9_13  and  C10_14 
REMARK    5  A    between atoms: C12_16  and  C13_17 
REMARK    6  A    between atoms: C14_18  and  C15_19 
REMARK       I    between atoms: C15_19  and  N2_21 
REMARK    7  A    between atoms: C18_25  and  C19_26 
ROOT
HETATM    1  C10 UNL     1      35.808  14.893  -9.703  1.00  0.00    -0.003 A 
HETATM    2  C11 UNL     1      34.854  14.059 -10.212  1.00  0.00     0.042 A 
HETATM    3  C12 UNL     1      34.036  13.422  -9.334  1.00  0.00     0.060 A 
HETATM    4  S1  UNL     1      34.590  13.976  -7.832  1.00  0.00    -0.080 SA
HETATM    5  C18 UNL     1      35.867  15.017  -8.360  1.00  0.00     0.024 A 
ENDROOT
BRANCH   1   6
HETATM    6  C9  UNL     1      36.644  15.666 -10.692  1.00  0.00     0.018 A 
HETATM    7  C8  UNL     1      37.965  15.329 -10.856  1.00  0.00     0.142 A 
HETATM    8  C6  UNL     1      38.702  16.002 -11.833  1.00  0.00     0.071 A 
HETATM    9  F1  UNL     1      38.575  14.388 -10.124  1.00  0.00    -0.204 F 
HETATM   10  C5  UNL     1      38.104  16.985 -12.614  1.00  0.00     0.056 A 
HETATM   11  C4  UNL     1      36.784  17.323 -12.454  1.00  0.00     0.071 A 
HETATM   12  C23 UNL     1      36.070  16.635 -11.470  1.00  0.00     0.052 A 
BRANCH   8  13
HETATM   13  C7  UNL     1      40.103  15.693 -12.051  1.00  0.00     0.268 C 
HETATM   14  N1  UNL     1      40.474  14.599 -12.853  1.00  0.00    -0.057 NA
HETATM   15  O2  UNL     1      40.979  16.401 -11.525  1.00  0.00    -0.271 OA
ENDBRANCH   8  13
BRANCH  11  16
HETATM   16  O1  UNL     1      36.174  18.291 -13.216  1.00  0.00    -0.347 OA
BRANCH  16  17
HETATM   17  C2  UNL     1      35.634  19.501 -12.833  1.00  0.00     0.120 C 
HETATM   18  C1  UNL     1      36.100  20.650 -13.744  1.00  0.00     0.040 C 
HETATM   19  C3  UNL     1      34.131  19.417 -12.975  1.00  0.00     0.040 C 
ENDBRANCH  16  17
ENDBRANCH  11  16
ENDBRANCH   1   6
BRANCH   5  20
HETATM   20  C19 UNL     1      36.829  15.759  -7.485  1.00  0.00    -0.029 C 
HETATM   21  C20 UNL     1      37.083  17.007  -7.753  1.00  0.00    -0.003 C 
HETATM   22  C21 UNL     1      38.033  17.716  -6.872  1.00  0.00     0.168 C 
HETATM   23  S2  UNL     1      37.724  16.763  -5.362  1.00  0.00     0.151 S 
HETATM   24  O4  UNL     1      38.909  16.700  -4.487  1.00  0.00    -0.227 OA
HETATM   25  O5  UNL     1      36.459  17.175  -4.722  1.00  0.00    -0.227 OA
HETATM   26  C22 UNL     1      37.502  15.213  -6.295  1.00  0.00     0.180 C 
ENDBRANCH   5  20
BRANCH   3  27
HETATM   27  C13 UNL     1      32.957  12.499  -9.608  1.00  0.00    -0.049 C 
HETATM   28  C14 UNL     1      32.060  11.735  -9.858  1.00  0.00     0.001 C 
BRANCH  28  29
HETATM   29  C15 UNL     1      30.976  10.821 -10.187  1.00  0.00     0.298 C 
HETATM   30  O3  UNL     1      31.022   9.612  -9.805  1.00  0.00    -0.258 OA
HETATM   31  N2  UNL     1      29.877  11.256 -10.923  1.00  0.00    -0.350 N 
HETATM   32  C16 UNL     1      29.795  12.626 -11.374  1.00  0.00     0.153 C 
HETATM   33  C17 UNL     1      28.805  10.347 -11.248  1.00  0.00     0.153 C 
ENDBRANCH  28  29
ENDBRANCH   3  27
TORSDOF 7
ENDMDL
MODEL 5
REMARK VINA RESULT: -6.372289041      3.650      6.593
REMARK  7 active torsions:
REMARK  status: ('A' for Active; 'I' for Inactive)
REMARK    1  A    between atoms: C2_2  and  O1_4 
REMARK    2  A    between atoms: O1_4  and  C4_5 
REMARK    3  A    between atoms: C6_7  and  C7_8 
REMARK    4  A    between atoms: C9_13  and  C10_14 
REMARK    5  A    between atoms: C12_16  and  C13_17 
REMARK    6  A    between atoms: C14_18  and  C15_19 
REMARK       I    between atoms: C15_19  and  N2_21 
REMARK    7  A    between atoms: C18_25  and  C19_26 
ROOT
HETATM    1  C10 UNL     1      36.781  15.207  -7.434  1.00  0.00    -0.003 A 
HETATM    2  C11 UNL     1      35.537  14.668  -7.270  1.00  0.00     0.042 A 
HETATM    3  C12 UNL     1      34.983  14.020  -8.329  1.00  0.00     0.060 A 
HETATM    4  S1  UNL     1      36.176  14.164  -9.524  1.00  0.00    -0.080 SA
HETATM    5  C18 UNL     1      37.365  15.057  -8.642  1.00  0.00     0.024 A 
ENDROOT
BRANCH   1   6
HETATM    6  C9  UNL     1      37.421  15.839  -6.223  1.00  0.00     0.018 A 
HETATM    7  C8  UNL     1      36.814  16.922  -5.637  1.00  0.00     0.142 A 
HETATM    8  C6  UNL     1      37.377  17.444  -4.470  1.00  0.00     0.071 A 
HETATM    9  F1  UNL     1      35.711  17.499  -6.132  1.00  0.00    -0.204 F 
HETATM   10  C5  UNL     1      38.522  16.873  -3.924  1.00  0.00     0.056 A 
HETATM   11  C4  UNL     1      39.130  15.790  -4.507  1.00  0.00     0.071 A 
HETATM   12  C23 UNL     1      38.547  15.288  -5.673  1.00  0.00     0.052 A 
BRANCH   8  13
HETATM   13  C7  UNL     1      36.784  18.590  -3.806  1.00  0.00     0.268 C 
HETATM   14  N1  UNL     1      37.358  19.865  -3.940  1.00  0.00    -0.057 NA
HETATM   15  O2  UNL     1      35.762  18.439  -3.114  1.00  0.00    -0.271 OA
ENDBRANCH   8  13
BRANCH  11  16
HETATM   16  O1  UNL     1      40.262  15.210  -3.984  1.00  0.00    -0.347 OA
BRANCH  16  17
HETATM   17  C2  UNL     1      40.410  14.008  -3.326  1.00  0.00     0.120 C 
HETATM   18  C1  UNL     1      41.766  13.349  -3.634  1.00  0.00     0.040 C 
HETATM   19  C3  UNL     1      40.387  14.274  -1.837  1.00  0.00     0.040 C 
ENDBRANCH  16  17
ENDBRANCH  11  16
ENDBRANCH   1   6
BRANCH   5  20
HETATM   20  C19 UNL     1      38.656  15.592  -9.179  1.00  0.00    -0.029 C 
HETATM   21  C20 UNL     1      39.467  14.774  -9.787  1.00  0.00    -0.003 C 
HETATM   22  C21 UNL     1      40.732  15.328 -10.310  1.00  0.00     0.168 C 
HETATM   23  S2  UNL     1      40.154  17.020 -10.606  1.00  0.00     0.151 S 
HETATM   24  O4  UNL     1      41.236  18.013 -10.477  1.00  0.00    -0.227 OA
HETATM   25  O5  UNL     1      39.338  17.097 -11.834  1.00  0.00    -0.227 OA
HETATM   26  C22 UNL     1      39.091  16.997  -9.125  1.00  0.00     0.180 C 
ENDBRANCH   5  20
BRANCH   3  27
HETATM   27  C13 UNL     1      33.697  13.367  -8.418  1.00  0.00    -0.049 C 
HETATM   28  C14 UNL     1      32.617  12.841  -8.500  1.00  0.00     0.001 C 
BRANCH  28  29
HETATM   29  C15 UNL     1      31.298  12.231  -8.605  1.00  0.00     0.298 C 
HETATM   30  O3  UNL     1      30.917  11.384  -7.741  1.00  0.00    -0.258 OA
HETATM   31  N2  UNL     1      30.440  12.568  -9.648  1.00  0.00    -0.350 N 
HETATM   32  C16 UNL     1      30.845  13.529 -10.647  1.00  0.00     0.153 C 
HETATM   33  C17 UNL     1      29.135  11.962  -9.749  1.00  0.00     0.153 C 
ENDBRANCH  28  29
ENDBRANCH   3  27
TORSDOF 7
ENDMDL
