MODEL 1
REMARK VINA RESULT: -4.062660933      0.000      0.000
REMARK  1 active torsions:
REMARK  status: ('A' for Active; 'I' for Inactive)
REMARK       I    between atoms: C2_2  and  N1_4 
REMARK    1  A    between atoms: N1_4  and  C3_6 
ROOT
HETATM    1  C3  UNL     1      -0.304  11.766   2.408  1.00  0.00     0.088 C 
HETATM    2  C4  UNL     1       0.569  12.424   3.412  1.00  0.00     0.051 C 
HETATM    3  C5  UNL     1       0.940  13.827   3.162  1.00  0.00     0.170 C 
HETATM    4  O2  UNL     1       0.597  14.328   1.926  1.00  0.00    -0.386 OA
HETATM    5  C6  UNL     1       0.915  13.331   0.981  1.00  0.00     0.119 C 
HETATM    6  C7  UNL     1       1.078  13.926  -0.399  1.00  0.00     0.039 C 
HETATM    7  C8  UNL     1      -0.196  12.336   1.020  1.00  0.00     0.056 C 
ENDROOT
BRANCH   1   8
HETATM    8  N1  UNL     1      -0.058  10.333   2.332  1.00  0.00    -0.357 N 
HETATM    9  C2  UNL     1      -1.105   9.378   2.308  1.00  0.00     0.213 C 
HETATM   10  C1  UNL     1      -0.814   7.940   2.231  1.00  0.00     0.117 C 
HETATM   11  O1  UNL     1      -2.303   9.753   2.354  1.00  0.00    -0.274 OA
ATOM     12  H1  UNL     1       0.906  10.003   2.294  1.00  0.00     0.162 HD
ENDBRANCH   1   8
TORSDOF 1
ENDMDL
MODEL 2
REMARK VINA RESULT: -4.053975649      3.227      5.707
REMARK  1 active torsions:
REMARK  status: ('A' for Active; 'I' for Inactive)
REMARK       I    between atoms: C2_2  and  N1_4 
REMARK    1  A    between atoms: N1_4  and  C3_6 
ROOT
HETATM    1  C3  UNL     1       0.965  13.612  -0.763  1.00  0.00     0.088 C 
HETATM    2  C4  UNL     1       0.634  13.671   0.683  1.00  0.00     0.051 C 
HETATM    3  C5  UNL     1       0.022  12.473   1.280  1.00  0.00     0.170 C 
HETATM    4  O2  UNL     1      -0.357  11.487   0.395  1.00  0.00    -0.386 OA
HETATM    5  C6  UNL     1      -0.978  12.134  -0.692  1.00  0.00     0.119 C 
HETATM    6  C7  UNL     1      -1.875  11.180  -1.448  1.00  0.00     0.039 C 
HETATM    7  C8  UNL     1       0.115  12.660  -1.559  1.00  0.00     0.056 C 
ENDROOT
BRANCH   1   8
HETATM    8  N1  UNL     1       0.889  14.924  -1.391  1.00  0.00    -0.357 N 
HETATM    9  C2  UNL     1       1.653  15.270  -2.533  1.00  0.00     0.213 C 
HETATM   10  C1  UNL     1       1.547  16.605  -3.137  1.00  0.00     0.117 C 
HETATM   11  O1  UNL     1       2.436  14.432  -3.047  1.00  0.00    -0.274 OA
ATOM     12  H1  UNL     1       0.261  15.622  -0.993  1.00  0.00     0.162 HD
ENDBRANCH   1   8
TORSDOF 1
ENDMDL
MODEL 3
REMARK VINA RESULT: -3.824975226      3.197      4.537
REMARK  1 active torsions:
REMARK  status: ('A' for Active; 'I' for Inactive)
REMARK       I    between atoms: C2_2  and  N1_4 
REMARK    1  A    between atoms: N1_4  and  C3_6 
ROOT
HETATM    1  C3  UNL     1       1.468  13.673  -0.117  1.00  0.00     0.088 C 
HETATM    2  C4  UNL     1       0.288  12.980  -0.691  1.00  0.00     0.051 C 
HETATM    3  C5  UNL     1       0.201  12.907  -2.159  1.00  0.00     0.170 C 
HETATM    4  O2  UNL     1       1.127  13.656  -2.853  1.00  0.00    -0.386 OA
HETATM    5  C6  UNL     1       1.202  14.907  -2.208  1.00  0.00     0.119 C 
HETATM    6  C7  UNL     1       1.758  15.962  -3.138  1.00  0.00     0.039 C 
HETATM    7  C8  UNL     1       2.073  14.719  -1.011  1.00  0.00     0.056 C 
ENDROOT
BRANCH   1   8
HETATM    8  N1  UNL     1       1.162  14.293   1.166  1.00  0.00    -0.357 N 
HETATM    9  C2  UNL     1       1.044  13.548   2.366  1.00  0.00     0.213 C 
HETATM   10  C1  UNL     1       0.733  14.211   3.639  1.00  0.00     0.117 C 
HETATM   11  O1  UNL     1       1.204  12.301   2.354  1.00  0.00    -0.274 OA
ATOM     12  H1  UNL     1       1.026  15.303   1.202  1.00  0.00     0.162 HD
ENDBRANCH   1   8
TORSDOF 1
ENDMDL
MODEL 4
REMARK VINA RESULT: -3.805867850      3.968      5.987
REMARK  1 active torsions:
REMARK  status: ('A' for Active; 'I' for Inactive)
REMARK       I    between atoms: C2_2  and  N1_4 
REMARK    1  A    between atoms: N1_4  and  C3_6 
ROOT
HETATM    1  C3  UNL     1       1.002  14.873  -2.286  1.00  0.00     0.088 C 
HETATM    2  C4  UNL     1       1.506  16.165  -2.816  1.00  0.00     0.051 C 
HETATM    3  C5  UNL     1       1.751  16.246  -4.266  1.00  0.00     0.170 C 
HETATM    4  O2  UNL     1       1.669  15.056  -4.956  1.00  0.00    -0.386 OA
HETATM    5  C6  UNL     1       2.335  14.089  -4.177  1.00  0.00     0.119 C 
HETATM    6  C7  UNL     1       2.764  12.913  -5.025  1.00  0.00     0.039 C 
HETATM    7  C8  UNL     1       1.383  13.672  -3.106  1.00  0.00     0.056 C 
ENDROOT
BRANCH   1   8
HETATM    8  N1  UNL     1       1.435  14.644  -0.914  1.00  0.00    -0.357 N 
HETATM    9  C2  UNL     1       0.697  13.848  -0.003  1.00  0.00     0.213 C 
HETATM   10  C1  UNL     1       1.168  13.641   1.372  1.00  0.00     0.117 C 
HETATM   11  O1  UNL     1      -0.379  13.307  -0.364  1.00  0.00    -0.274 OA
ATOM     12  H1  UNL     1       2.304  15.073  -0.597  1.00  0.00     0.162 HD
ENDBRANCH   1   8
TORSDOF 1
ENDMDL
MODEL 5
REMARK VINA RESULT: -3.797101385      1.594      5.065
REMARK  1 active torsions:
REMARK  status: ('A' for Active; 'I' for Inactive)
REMARK       I    between atoms: C2_2  and  N1_4 
REMARK    1  A    between atoms: N1_4  and  C3_6 
ROOT
HETATM    1  C3  UNL     1      -0.845  10.410   2.926  1.00  0.00     0.088 C 
HETATM    2  C4  UNL     1      -2.064   9.756   2.387  1.00  0.00     0.051 C 
HETATM    3  C5  UNL     1      -2.367   8.399   2.871  1.00  0.00     0.170 C 
HETATM    4  O2  UNL     1      -1.385   7.799   3.629  1.00  0.00    -0.386 OA
HETATM    5  C6  UNL     1      -0.158   8.067   2.990  1.00  0.00     0.119 C 
HETATM    6  C7  UNL     1       0.897   7.065   3.403  1.00  0.00     0.039 C 
HETATM    7  C8  UNL     1       0.229   9.456   3.371  1.00  0.00     0.056 C 
ENDROOT
BRANCH   1   8
HETATM    8  N1  UNL     1      -0.260  11.339   1.968  1.00  0.00    -0.357 N 
HETATM    9  C2  UNL     1       0.328  12.568   2.357  1.00  0.00     0.213 C 
HETATM   10  C1  UNL     1       0.908  13.477   1.359  1.00  0.00     0.117 C 
HETATM   11  O1  UNL     1       0.361  12.897   3.569  1.00  0.00    -0.274 OA
ATOM     12  H1  UNL     1      -0.275  11.095   0.978  1.00  0.00     0.162 HD
ENDBRANCH   1   8
TORSDOF 1
ENDMDL
