MODEL 1
REMARK VINA RESULT: -9.557173009      0.000      0.000
REMARK  10 active torsions:
REMARK  status: ('A' for Active; 'I' for Inactive)
REMARK    1  A    between atoms: O1_2  and  C2_3 
REMARK    2  A    between atoms: C6_7  and  C7_8 
REMARK    3  A    between atoms: C8_9  and  C9_10 
REMARK    4  A    between atoms: C10_11  and  C11_12 
REMARK    5  A    between atoms: C11_12  and  O3_14 
REMARK    6  A    between atoms: O3_14  and  C12_15 
REMARK    7  A    between atoms: C13_16  and  O4_17 
REMARK    8  A    between atoms: C15_20  and  O5_21 
REMARK    9  A    between atoms: O5_21  and  C16_22 
REMARK   10  A    between atoms: C19_25  and  O6_26 
ROOT
HETATM    1  C12 UNL     1     -27.505   7.529 -15.526  1.00  0.00     0.105 C 
HETATM    2  C13 UNL     1     -27.251   8.755 -14.729  1.00  0.00     0.156 C 
HETATM    3  C14 UNL     1     -26.344   9.791 -15.247  1.00  0.00     0.067 C 
HETATM    4  C15 UNL     1     -25.867   9.636 -16.657  1.00  0.00     0.125 C 
HETATM    5  C23 UNL     1     -25.504   8.202 -16.967  1.00  0.00     0.039 C 
HETATM    6  C24 UNL     1     -26.552   7.197 -16.602  1.00  0.00     0.026 C 
HETATM    7  C25 UNL     1     -27.189   6.798 -17.932  1.00  0.00     0.009 C 
HETATM    8  C26 UNL     1     -28.267   5.785 -17.748  1.00  0.00     0.016 C 
HETATM    9  C27 UNL     1     -29.296   6.208 -16.738  1.00  0.00     0.028 C 
HETATM   10  C28 UNL     1     -29.711   5.002 -15.933  1.00  0.00     0.022 C 
HETATM   11  C29 UNL     1     -28.978   7.398 -15.926  1.00  0.00     0.038 C 
HETATM   12  C30 UNL     1     -29.597   8.587 -16.490  1.00  0.00     0.014 C 
HETATM   13  C31 UNL     1     -30.337   8.115 -17.720  1.00  0.00     0.080 C 
HETATM   14  C32 UNL     1     -30.569   6.634 -17.494  1.00  0.00     0.251 C 
HETATM   15  F1  UNL     1     -31.686   6.501 -16.698  1.00  0.00    -0.205 F 
HETATM   16  F2  UNL     1     -30.763   5.933 -18.641  1.00  0.00    -0.205 F 
ENDROOT
BRANCH   1  17
HETATM   17  O3  UNL     1     -27.432   6.459 -14.514  1.00  0.00    -0.303 OA
BRANCH  17  18
HETATM   18  C11 UNL     1     -26.308   6.170 -13.862  1.00  0.00     0.283 C 
HETATM   19  O2  UNL     1     -26.210   6.699 -12.701  1.00  0.00    -0.260 OA
BRANCH  18  20
HETATM   20  C10 UNL     1     -25.212   5.362 -14.279  1.00  0.00     0.082 C 
HETATM   21  C9  UNL     1     -24.837   4.160 -14.011  1.00  0.00     0.006 C 
BRANCH  21  22
HETATM   22  C8  UNL     1     -25.423   3.159 -13.142  1.00  0.00     0.001 C 
HETATM   23  C7  UNL     1     -26.730   2.958 -13.100  1.00  0.00     0.011 C 
BRANCH  23  24
HETATM   24  C6  UNL     1     -27.448   2.011 -12.300  1.00  0.00    -0.034 A 
HETATM   25  C5  UNL     1     -27.821   0.793 -12.895  1.00  0.00     0.011 A 
HETATM   26  C4  UNL     1     -28.501  -0.174 -12.187  1.00  0.00     0.004 A 
HETATM   27  C3  UNL     1     -28.837   0.015 -10.887  1.00  0.00     0.037 A 
HETATM   28  C2  UNL     1     -28.493   1.193 -10.257  1.00  0.00     0.069 A 
HETATM   29  C33 UNL     1     -27.807   2.160 -10.985  1.00  0.00     0.048 A 
BRANCH  28  30
HETATM   30  O1  UNL     1     -28.859   1.328  -8.938  1.00  0.00    -0.356 OA
HETATM   31  C1  UNL     1     -28.588   0.364  -7.960  1.00  0.00     0.210 C 
ENDBRANCH  28  30
ENDBRANCH  23  24
ENDBRANCH  21  22
ENDBRANCH  18  20
ENDBRANCH  17  18
ENDBRANCH   1  17
BRANCH   2  32
HETATM   32  O4  UNL     1     -28.510   9.349 -14.429  1.00  0.00    -0.392 OA
ATOM     33  H4  UNL     1     -29.054   9.282 -15.205  1.00  0.00     0.210 HD
ENDBRANCH   2  32
BRANCH   4  34
HETATM   34  O5  UNL     1     -24.738  10.385 -16.933  1.00  0.00    -0.381 OA
BRANCH  34  35
HETATM   35  C16 UNL     1     -24.930  11.698 -17.257  1.00  0.00     0.122 C 
HETATM   36  C17 UNL     1     -26.331  12.061 -16.798  1.00  0.00     0.034 C 
HETATM   37  C18 UNL     1     -26.462  13.482 -16.347  1.00  0.00     0.034 C 
HETATM   38  C19 UNL     1     -25.591  13.835 -15.162  1.00  0.00     0.120 C 
HETATM   39  C21 UNL     1     -24.403  12.862 -15.128  1.00  0.00     0.034 C 
HETATM   40  C22 UNL     1     -23.996  12.660 -16.573  1.00  0.00     0.034 C 
BRANCH  38  41
HETATM   41  O6  UNL     1     -26.259  13.792 -13.969  1.00  0.00    -0.391 OA
HETATM   42  C20 UNL     1     -25.545  13.010 -13.067  1.00  0.00     0.202 C 
ENDBRANCH  38  41
ENDBRANCH  34  35
ENDBRANCH   4  34
TORSDOF 10
ENDMDL
MODEL 2
REMARK VINA RESULT: -9.491615239      2.060      2.758
REMARK  10 active torsions:
REMARK  status: ('A' for Active; 'I' for Inactive)
REMARK    1  A    between atoms: O1_2  and  C2_3 
REMARK    2  A    between atoms: C6_7  and  C7_8 
REMARK    3  A    between atoms: C8_9  and  C9_10 
REMARK    4  A    between atoms: C10_11  and  C11_12 
REMARK    5  A    between atoms: C11_12  and  O3_14 
REMARK    6  A    between atoms: O3_14  and  C12_15 
REMARK    7  A    between atoms: C13_16  and  O4_17 
REMARK    8  A    between atoms: C15_20  and  O5_21 
REMARK    9  A    between atoms: O5_21  and  C16_22 
REMARK   10  A    between atoms: C19_25  and  O6_26 
ROOT
HETATM    1  C12 UNL     1     -26.998   7.114 -15.735  1.00  0.00     0.105 C 
HETATM    2  C13 UNL     1     -26.535   8.101 -14.728  1.00  0.00     0.156 C 
HETATM    3  C14 UNL     1     -25.769   9.281 -15.156  1.00  0.00     0.067 C 
HETATM    4  C15 UNL     1     -25.658   9.524 -16.629  1.00  0.00     0.125 C 
HETATM    5  C23 UNL     1     -25.406   8.241 -17.387  1.00  0.00     0.039 C 
HETATM    6  C24 UNL     1     -26.346   7.123 -17.059  1.00  0.00     0.026 C 
HETATM    7  C25 UNL     1     -27.298   7.053 -18.252  1.00  0.00     0.009 C 
HETATM    8  C26 UNL     1     -28.313   5.973 -18.087  1.00  0.00     0.016 C 
HETATM    9  C27 UNL     1     -29.053   6.064 -16.783  1.00  0.00     0.028 C 
HETATM   10  C28 UNL     1     -29.275   4.671 -16.251  1.00  0.00     0.022 C 
HETATM   11  C29 UNL     1     -28.526   7.016 -15.786  1.00  0.00     0.038 C 
HETATM   12  C30 UNL     1     -29.246   8.278 -15.847  1.00  0.00     0.014 C 
HETATM   13  C31 UNL     1     -30.275   8.106 -16.940  1.00  0.00     0.080 C 
HETATM   14  C32 UNL     1     -30.467   6.607 -17.066  1.00  0.00     0.251 C 
HETATM   15  F1  UNL     1     -31.354   6.215 -16.087  1.00  0.00    -0.205 F 
HETATM   16  F2  UNL     1     -30.949   6.221 -18.275  1.00  0.00    -0.205 F 
ENDROOT
BRANCH   1  17
HETATM   17  O3  UNL     1     -26.693   5.821 -15.093  1.00  0.00    -0.303 OA
BRANCH  17  18
HETATM   18  C11 UNL     1     -26.441   5.714 -13.791  1.00  0.00     0.283 C 
HETATM   19  O2  UNL     1     -25.337   6.240 -13.412  1.00  0.00    -0.260 OA
BRANCH  18  20
HETATM   20  C10 UNL     1     -27.225   5.099 -12.774  1.00  0.00     0.082 C 
HETATM   21  C9  UNL     1     -27.754   3.933 -12.637  1.00  0.00     0.006 C 
BRANCH  21  22
HETATM   22  C8  UNL     1     -27.743   2.781 -13.518  1.00  0.00     0.001 C 
HETATM   23  C7  UNL     1     -27.297   1.604 -13.112  1.00  0.00     0.011 C 
BRANCH  23  24
HETATM   24  C6  UNL     1     -27.227   0.385 -13.861  1.00  0.00    -0.034 A 
HETATM   25  C5  UNL     1     -28.353  -0.455 -13.861  1.00  0.00     0.011 A 
HETATM   26  C4  UNL     1     -28.368  -1.638 -14.568  1.00  0.00     0.004 A 
HETATM   27  C3  UNL     1     -27.292  -2.035 -15.293  1.00  0.00     0.037 A 
HETATM   28  C2  UNL     1     -26.161  -1.245 -15.325  1.00  0.00     0.069 A 
HETATM   29  C33 UNL     1     -26.162  -0.055 -14.606  1.00  0.00     0.048 A 
BRANCH  28  30
HETATM   30  O1  UNL     1     -25.103  -1.698 -16.076  1.00  0.00    -0.356 OA
HETATM   31  C1  UNL     1     -25.203  -2.746 -16.998  1.00  0.00     0.210 C 
ENDBRANCH  28  30
ENDBRANCH  23  24
ENDBRANCH  21  22
ENDBRANCH  18  20
ENDBRANCH  17  18
ENDBRANCH   1  17
BRANCH   2  32
HETATM   32  O4  UNL     1     -27.672   8.530 -13.986  1.00  0.00    -0.392 OA
ATOM     33  H4  UNL     1     -28.444   8.355 -14.510  1.00  0.00     0.210 HD
ENDBRANCH   2  32
BRANCH   4  34
HETATM   34  O5  UNL     1     -24.621  10.375 -16.962  1.00  0.00    -0.381 OA
BRANCH  34  35
HETATM   35  C16 UNL     1     -24.958  11.650 -17.318  1.00  0.00     0.122 C 
HETATM   36  C17 UNL     1     -26.352  11.902 -16.775  1.00  0.00     0.034 C 
HETATM   37  C18 UNL     1     -26.586  13.323 -16.367  1.00  0.00     0.034 C 
HETATM   38  C19 UNL     1     -25.674  13.805 -15.261  1.00  0.00     0.120 C 
HETATM   39  C21 UNL     1     -24.400  12.948 -15.276  1.00  0.00     0.034 C 
HETATM   40  C22 UNL     1     -24.074  12.722 -16.738  1.00  0.00     0.034 C 
BRANCH  38  41
HETATM   41  O6  UNL     1     -26.254  13.752 -14.023  1.00  0.00    -0.391 OA
HETATM   42  C20 UNL     1     -25.515  12.905 -13.203  1.00  0.00     0.202 C 
ENDBRANCH  38  41
ENDBRANCH  34  35
ENDBRANCH   4  34
TORSDOF 10
ENDMDL
MODEL 3
REMARK VINA RESULT: -9.484295670      1.422      1.802
REMARK  10 active torsions:
REMARK  status: ('A' for Active; 'I' for Inactive)
REMARK    1  A    between atoms: O1_2  and  C2_3 
REMARK    2  A    between atoms: C6_7  and  C7_8 
REMARK    3  A    between atoms: C8_9  and  C9_10 
REMARK    4  A    between atoms: C10_11  and  C11_12 
REMARK    5  A    between atoms: C11_12  and  O3_14 
REMARK    6  A    between atoms: O3_14  and  C12_15 
REMARK    7  A    between atoms: C13_16  and  O4_17 
REMARK    8  A    between atoms: C15_20  and  O5_21 
REMARK    9  A    between atoms: O5_21  and  C16_22 
REMARK   10  A    between atoms: C19_25  and  O6_26 
ROOT
HETATM    1  C12 UNL     1     -28.741   8.353 -16.342  1.00  0.00     0.105 C 
HETATM    2  C13 UNL     1     -29.255   9.692 -15.960  1.00  0.00     0.156 C 
HETATM    3  C14 UNL     1     -28.530  10.901 -16.378  1.00  0.00     0.067 C 
HETATM    4  C15 UNL     1     -27.399  10.720 -17.340  1.00  0.00     0.125 C 
HETATM    5  C23 UNL     1     -26.558   9.514 -16.990  1.00  0.00     0.039 C 
HETATM    6  C24 UNL     1     -27.333   8.252 -16.769  1.00  0.00     0.026 C 
HETATM    7  C25 UNL     1     -27.095   7.425 -18.032  1.00  0.00     0.009 C 
HETATM    8  C26 UNL     1     -27.804   6.114 -17.976  1.00  0.00     0.016 C 
HETATM    9  C27 UNL     1     -29.267   6.256 -17.665  1.00  0.00     0.028 C 
HETATM   10  C28 UNL     1     -29.681   5.132 -16.749  1.00  0.00     0.022 C 
HETATM   11  C29 UNL     1     -29.726   7.590 -17.233  1.00  0.00     0.038 C 
HETATM   12  C30 UNL     1     -30.282   8.332 -18.354  1.00  0.00     0.014 C 
HETATM   13  C31 UNL     1     -30.160   7.415 -19.549  1.00  0.00     0.080 C 
HETATM   14  C32 UNL     1     -30.063   6.019 -18.963  1.00  0.00     0.251 C 
HETATM   15  F1  UNL     1     -31.343   5.590 -18.688  1.00  0.00    -0.205 F 
HETATM   16  F2  UNL     1     -29.468   5.123 -19.792  1.00  0.00    -0.205 F 
ENDROOT
BRANCH   1  17
HETATM   17  O3  UNL     1     -28.890   7.577 -15.096  1.00  0.00    -0.303 OA
BRANCH  17  18
HETATM   18  C11 UNL     1     -27.901   7.446 -14.216  1.00  0.00     0.283 C 
HETATM   19  O2  UNL     1     -28.031   8.147 -13.153  1.00  0.00    -0.260 OA
BRANCH  18  20
HETATM   20  C10 UNL     1     -26.729   6.640 -14.297  1.00  0.00     0.082 C 
HETATM   21  C9  UNL     1     -26.421   5.467 -13.866  1.00  0.00     0.006 C 
BRANCH  21  22
HETATM   22  C8  UNL     1     -27.195   4.508 -13.103  1.00  0.00     0.001 C 
HETATM   23  C7  UNL     1     -26.853   3.231 -13.047  1.00  0.00     0.011 C 
BRANCH  23  24
HETATM   24  C6  UNL     1     -27.512   2.175 -12.337  1.00  0.00    -0.034 A 
HETATM   25  C5  UNL     1     -27.759   0.973 -13.022  1.00  0.00     0.011 A 
HETATM   26  C4  UNL     1     -28.375  -0.093 -12.404  1.00  0.00     0.004 A 
HETATM   27  C3  UNL     1     -28.768  -0.021 -11.108  1.00  0.00     0.037 A 
HETATM   28  C2  UNL     1     -28.548   1.138 -10.391  1.00  0.00     0.069 A 
HETATM   29  C33 UNL     1     -27.925   2.205 -11.029  1.00  0.00     0.048 A 
BRANCH  28  30
HETATM   30  O1  UNL     1     -28.965   1.152  -9.081  1.00  0.00    -0.356 OA
HETATM   31  C1  UNL     1     -28.340   0.424  -8.063  1.00  0.00     0.210 C 
ENDBRANCH  28  30
ENDBRANCH  23  24
ENDBRANCH  21  22
ENDBRANCH  18  20
ENDBRANCH  17  18
ENDBRANCH   1  17
BRANCH   2  32
HETATM   32  O4  UNL     1     -30.605   9.783 -16.405  1.00  0.00    -0.392 OA
ATOM     33  H4  UNL     1     -30.998  10.539 -15.987  1.00  0.00     0.210 HD
ENDBRANCH   2  32
BRANCH   4  34
HETATM   34  O5  UNL     1     -26.532  11.796 -17.368  1.00  0.00    -0.381 OA
BRANCH  34  35
HETATM   35  C16 UNL     1     -26.539  12.625 -16.282  1.00  0.00     0.122 C 
HETATM   36  C17 UNL     1     -26.172  11.774 -15.080  1.00  0.00     0.034 C 
HETATM   37  C18 UNL     1     -25.400  12.519 -14.036  1.00  0.00     0.034 C 
HETATM   38  C19 UNL     1     -24.072  13.057 -14.517  1.00  0.00     0.120 C 
HETATM   39  C21 UNL     1     -24.141  13.224 -16.043  1.00  0.00     0.034 C 
HETATM   40  C22 UNL     1     -25.533  13.744 -16.336  1.00  0.00     0.034 C 
BRANCH  38  41
HETATM   41  O6  UNL     1     -23.013  12.255 -14.187  1.00  0.00    -0.391 OA
HETATM   42  C20 UNL     1     -23.101  11.905 -12.843  1.00  0.00     0.202 C 
ENDBRANCH  38  41
ENDBRANCH  34  35
ENDBRANCH   4  34
TORSDOF 10
ENDMDL
MODEL 4
REMARK VINA RESULT: -9.179942810      2.477      3.365
REMARK  10 active torsions:
REMARK  status: ('A' for Active; 'I' for Inactive)
REMARK    1  A    between atoms: O1_2  and  C2_3 
REMARK    2  A    between atoms: C6_7  and  C7_8 
REMARK    3  A    between atoms: C8_9  and  C9_10 
REMARK    4  A    between atoms: C10_11  and  C11_12 
REMARK    5  A    between atoms: C11_12  and  O3_14 
REMARK    6  A    between atoms: O3_14  and  C12_15 
REMARK    7  A    between atoms: C13_16  and  O4_17 
REMARK    8  A    between atoms: C15_20  and  O5_21 
REMARK    9  A    between atoms: O5_21  and  C16_22 
REMARK   10  A    between atoms: C19_25  and  O6_26 
ROOT
HETATM    1  C12 UNL     1     -27.311   7.021 -15.332  1.00  0.00     0.105 C 
HETATM    2  C13 UNL     1     -27.090   7.668 -14.015  1.00  0.00     0.156 C 
HETATM    3  C14 UNL     1     -26.173   8.813 -13.905  1.00  0.00     0.067 C 
HETATM    4  C15 UNL     1     -25.648   9.391 -15.183  1.00  0.00     0.125 C 
HETATM    5  C23 UNL     1     -25.267   8.310 -16.168  1.00  0.00     0.039 C 
HETATM    6  C24 UNL     1     -26.321   7.271 -16.397  1.00  0.00     0.026 C 
HETATM    7  C25 UNL     1     -26.910   7.611 -17.765  1.00  0.00     0.009 C 
HETATM    8  C26 UNL     1     -27.989   6.658 -18.155  1.00  0.00     0.016 C 
HETATM    9  C27 UNL     1     -29.052   6.520 -17.104  1.00  0.00     0.028 C 
HETATM   10  C28 UNL     1     -29.487   5.078 -17.037  1.00  0.00     0.022 C 
HETATM   11  C29 UNL     1     -28.769   7.128 -15.790  1.00  0.00     0.038 C 
HETATM   12  C30 UNL     1     -29.375   8.446 -15.690  1.00  0.00     0.014 C 
HETATM   13  C31 UNL     1     -30.072   8.674 -17.011  1.00  0.00     0.080 C 
HETATM   14  C32 UNL     1     -30.303   7.286 -17.577  1.00  0.00     0.251 C 
HETATM   15  F1  UNL     1     -31.444   6.781 -16.995  1.00  0.00    -0.205 F 
HETATM   16  F2  UNL     1     -30.454   7.268 -18.927  1.00  0.00    -0.205 F 
ENDROOT
BRANCH   1  17
HETATM   17  O3  UNL     1     -27.265   5.584 -15.003  1.00  0.00    -0.303 OA
BRANCH  17  18
HETATM   18  C11 UNL     1     -26.696   5.125 -13.891  1.00  0.00     0.283 C 
HETATM   19  O2  UNL     1     -25.427   5.285 -13.831  1.00  0.00    -0.260 OA
BRANCH  18  20
HETATM   20  C10 UNL     1     -27.302   4.484 -12.773  1.00  0.00     0.082 C 
HETATM   21  C9  UNL     1     -27.754   3.298 -12.561  1.00  0.00     0.006 C 
BRANCH  21  22
HETATM   22  C8  UNL     1     -27.816   2.141 -13.433  1.00  0.00     0.001 C 
HETATM   23  C7  UNL     1     -26.842   1.246 -13.465  1.00  0.00     0.011 C 
BRANCH  23  24
HETATM   24  C6  UNL     1     -26.764   0.060 -14.265  1.00  0.00    -0.034 A 
HETATM   25  C5  UNL     1     -27.843  -0.840 -14.219  1.00  0.00     0.011 A 
HETATM   26  C4  UNL     1     -27.848  -1.995 -14.970  1.00  0.00     0.004 A 
HETATM   27  C3  UNL     1     -26.809  -2.307 -15.784  1.00  0.00     0.037 A 
HETATM   28  C2  UNL     1     -25.726  -1.456 -15.866  1.00  0.00     0.069 A 
HETATM   29  C33 UNL     1     -25.735  -0.294 -15.101  1.00  0.00     0.048 A 
BRANCH  28  30
HETATM   30  O1  UNL     1     -24.704  -1.823 -16.708  1.00  0.00    -0.356 OA
HETATM   31  C1  UNL     1     -24.246  -3.139 -16.839  1.00  0.00     0.210 C 
ENDBRANCH  28  30
ENDBRANCH  23  24
ENDBRANCH  21  22
ENDBRANCH  18  20
ENDBRANCH  17  18
ENDBRANCH   1  17
BRANCH   2  32
HETATM   32  O4  UNL     1     -28.362   8.042 -13.495  1.00  0.00    -0.392 OA
ATOM     33  H4  UNL     1     -28.937   7.290 -13.565  1.00  0.00     0.210 HD
ENDBRANCH   2  32
BRANCH   4  34
HETATM   34  O5  UNL     1     -24.516  10.163 -15.005  1.00  0.00    -0.381 OA
BRANCH  34  35
HETATM   35  C16 UNL     1     -24.689  11.517 -14.965  1.00  0.00     0.122 C 
HETATM   36  C17 UNL     1     -24.573  12.014 -16.394  1.00  0.00     0.034 C 
HETATM   37  C18 UNL     1     -25.437  13.200 -16.686  1.00  0.00     0.034 C 
HETATM   38  C19 UNL     1     -26.917  12.942 -16.513  1.00  0.00     0.120 C 
HETATM   39  C21 UNL     1     -27.093  11.771 -15.535  1.00  0.00     0.034 C 
HETATM   40  C22 UNL     1     -26.037  11.966 -14.466  1.00  0.00     0.034 C 
BRANCH  38  41
HETATM   41  O6  UNL     1     -27.557  12.662 -17.690  1.00  0.00    -0.391 OA
HETATM   42  C20 UNL     1     -27.928  11.321 -17.707  1.00  0.00     0.202 C 
ENDBRANCH  38  41
ENDBRANCH  34  35
ENDBRANCH   4  34
TORSDOF 10
ENDMDL
MODEL 5
REMARK VINA RESULT: -9.178185456      1.725      2.417
REMARK  10 active torsions:
REMARK  status: ('A' for Active; 'I' for Inactive)
REMARK    1  A    between atoms: O1_2  and  C2_3 
REMARK    2  A    between atoms: C6_7  and  C7_8 
REMARK    3  A    between atoms: C8_9  and  C9_10 
REMARK    4  A    between atoms: C10_11  and  C11_12 
REMARK    5  A    between atoms: C11_12  and  O3_14 
REMARK    6  A    between atoms: O3_14  and  C12_15 
REMARK    7  A    between atoms: C13_16  and  O4_17 
REMARK    8  A    between atoms: C15_20  and  O5_21 
REMARK    9  A    between atoms: O5_21  and  C16_22 
REMARK   10  A    between atoms: C19_25  and  O6_26 
ROOT
HETATM    1  C12 UNL     1     -28.623   8.307 -16.300  1.00  0.00     0.105 C 
HETATM    2  C13 UNL     1     -29.126   9.638 -15.877  1.00  0.00     0.156 C 
HETATM    3  C14 UNL     1     -28.416  10.856 -16.296  1.00  0.00     0.067 C 
HETATM    4  C15 UNL     1     -27.317  10.694 -17.299  1.00  0.00     0.125 C 
HETATM    5  C23 UNL     1     -26.464   9.483 -16.998  1.00  0.00     0.039 C 
HETATM    6  C24 UNL     1     -27.230   8.216 -16.775  1.00  0.00     0.026 C 
HETATM    7  C25 UNL     1     -27.033   7.412 -18.060  1.00  0.00     0.009 C 
HETATM    8  C26 UNL     1     -27.738   6.100 -18.005  1.00  0.00     0.016 C 
HETATM    9  C27 UNL     1     -29.190   6.234 -17.643  1.00  0.00     0.028 C 
HETATM   10  C28 UNL     1     -29.573   5.093 -16.734  1.00  0.00     0.022 C 
HETATM   11  C29 UNL     1     -29.636   7.559 -17.172  1.00  0.00     0.038 C 
HETATM   12  C30 UNL     1     -30.229   8.320 -18.260  1.00  0.00     0.014 C 
HETATM   13  C31 UNL     1     -30.146   7.425 -19.475  1.00  0.00     0.080 C 
HETATM   14  C32 UNL     1     -30.028   6.019 -18.918  1.00  0.00     0.251 C 
HETATM   15  F1  UNL     1     -31.298   5.583 -18.609  1.00  0.00    -0.205 F 
HETATM   16  F2  UNL     1     -29.460   5.139 -19.782  1.00  0.00    -0.205 F 
ENDROOT
BRANCH   1  17
HETATM   17  O3  UNL     1     -28.730   7.508 -15.064  1.00  0.00    -0.303 OA
BRANCH  17  18
HETATM   18  C11 UNL     1     -27.891   7.661 -14.042  1.00  0.00     0.283 C 
HETATM   19  O2  UNL     1     -28.416   8.159 -12.987  1.00  0.00    -0.260 OA
BRANCH  18  20
HETATM   20  C10 UNL     1     -26.504   7.350 -13.967  1.00  0.00     0.082 C 
HETATM   21  C9  UNL     1     -25.840   6.252 -13.860  1.00  0.00     0.006 C 
BRANCH  21  22
HETATM   22  C8  UNL     1     -26.295   4.878 -13.768  1.00  0.00     0.001 C 
HETATM   23  C7  UNL     1     -26.987   4.446 -12.728  1.00  0.00     0.011 C 
BRANCH  23  24
HETATM   24  C6  UNL     1     -27.503   3.128 -12.500  1.00  0.00    -0.034 A 
HETATM   25  C5  UNL     1     -28.200   2.890 -11.304  1.00  0.00     0.011 A 
HETATM   26  C4  UNL     1     -28.738   1.654 -11.019  1.00  0.00     0.004 A 
HETATM   27  C3  UNL     1     -28.612   0.618 -11.886  1.00  0.00     0.037 A 
HETATM   28  C2  UNL     1     -27.936   0.801 -13.075  1.00  0.00     0.069 A 
HETATM   29  C33 UNL     1     -27.399   2.055 -13.348  1.00  0.00     0.048 A 
BRANCH  28  30
HETATM   30  O1  UNL     1     -27.842  -0.284 -13.915  1.00  0.00    -0.356 OA
HETATM   31  C1  UNL     1     -26.679  -0.617 -14.618  1.00  0.00     0.210 C 
ENDBRANCH  28  30
ENDBRANCH  23  24
ENDBRANCH  21  22
ENDBRANCH  18  20
ENDBRANCH  17  18
ENDBRANCH   1  17
BRANCH   2  32
HETATM   32  O4  UNL     1     -30.489   9.735 -16.276  1.00  0.00    -0.392 OA
ATOM     33  H4  UNL     1     -30.947   8.979 -15.930  1.00  0.00     0.210 HD
ENDBRANCH   2  32
BRANCH   4  34
HETATM   34  O5  UNL     1     -26.452  11.772 -17.336  1.00  0.00    -0.381 OA
BRANCH  34  35
HETATM   35  C16 UNL     1     -26.467  12.615 -16.261  1.00  0.00     0.122 C 
HETATM   36  C17 UNL     1     -26.106  11.781 -15.046  1.00  0.00     0.034 C 
HETATM   37  C18 UNL     1     -25.343  12.540 -14.006  1.00  0.00     0.034 C 
HETATM   38  C19 UNL     1     -24.012  13.074 -14.486  1.00  0.00     0.120 C 
HETATM   39  C21 UNL     1     -24.072  13.221 -16.014  1.00  0.00     0.034 C 
HETATM   40  C22 UNL     1     -25.463  13.735 -16.323  1.00  0.00     0.034 C 
BRANCH  38  41
HETATM   41  O6  UNL     1     -22.954  12.278 -14.138  1.00  0.00    -0.391 OA
HETATM   42  C20 UNL     1     -23.091  11.881 -12.812  1.00  0.00     0.202 C 
ENDBRANCH  38  41
ENDBRANCH  34  35
ENDBRANCH   4  34
TORSDOF 10
ENDMDL
