MODEL 1
REMARK VINA RESULT: -9.935360337      0.000      0.000
REMARK  8 active torsions:
REMARK  status: ('A' for Active; 'I' for Inactive)
REMARK    1  A    between atoms: C7_9  and  N1_10 
REMARK    2  A    between atoms: C8_13  and  C9_14 
REMARK    3  A    between atoms: N3_20  and  C15_22 
REMARK    4  A    between atoms: C15_22  and  C16_23 
REMARK    5  A    between atoms: C16_23  and  N4_24 
REMARK    6  A    between atoms: N4_24  and  C17_26 
REMARK    7  A    between atoms: C19_28  and  C20_29 
REMARK    8  A    between atoms: C22_33  and  N6_34 
ROOT
HETATM    1  C1  UNL     1     -90.861 -15.976  12.259  1.00  0.00     0.210 C 
HETATM    2  O1  UNL     1     -91.373 -17.032  11.675  1.00  0.00    -0.354 OA
HETATM    3  C2  UNL     1     -91.898 -18.057  11.122  1.00  0.00     0.097 A 
HETATM    4  C3  UNL     1     -93.124 -18.582  11.374  1.00  0.00     0.042 A 
HETATM    5  C4  UNL     1     -93.626 -19.707  10.753  1.00  0.00     0.045 A 
HETATM    6  C5  UNL     1     -92.839 -20.352   9.834  1.00  0.00     0.118 A 
HETATM    7  F1  UNL     1     -93.285 -21.468   9.231  1.00  0.00    -0.206 F 
HETATM    8  C6  UNL     1     -91.608 -19.855   9.564  1.00  0.00     0.076 A 
HETATM    9  C7  UNL     1     -91.105 -18.775  10.123  1.00  0.00     0.094 A 
ENDROOT
BRANCH   9  10
HETATM   10  N1  UNL     1     -89.977 -18.105   9.551  1.00  0.00    -0.237 N 
HETATM   11  N2  UNL     1     -90.003 -17.701   8.264  1.00  0.00    -0.295 N 
HETATM   12  C8  UNL     1     -88.839 -17.116   7.902  1.00  0.00     0.037 A 
ATOM     13  H2  UNL     1     -90.802 -17.821   7.642  1.00  0.00     0.187 HD
HETATM   14  C13 UNL     1     -88.050 -17.199   9.000  1.00  0.00     0.077 A 
HETATM   15  C14 UNL     1     -88.760 -17.821  10.013  1.00  0.00     0.125 A 
HETATM   16  N3  UNL     1     -88.307 -18.063  11.246  1.00  0.00    -0.373 N 
ATOM     17  H3  UNL     1     -88.876 -18.454  11.996  1.00  0.00     0.161 HD
BRANCH  12  18
HETATM   18  C9  UNL     1     -88.615 -16.399   6.630  1.00  0.00    -0.007 C 
HETATM   19  C10 UNL     1     -87.480 -15.360   6.822  1.00  0.00     0.021 C 
HETATM   20  C11 UNL     1     -89.834 -15.797   6.065  1.00  0.00     0.021 C 
HETATM   21  C12 UNL     1     -87.999 -17.385   5.627  1.00  0.00     0.021 C 
ENDBRANCH  12  18
BRANCH  16  22
HETATM   22  C15 UNL     1     -86.918 -17.706  11.395  1.00  0.00     0.141 C 
BRANCH  22  23
HETATM   23  C16 UNL     1     -86.359 -17.320  12.690  1.00  0.00     0.141 C 
BRANCH  23  24
HETATM   24  N4  UNL     1     -87.114 -17.853  13.846  1.00  0.00    -0.375 N 
ATOM     25  H4  UNL     1     -87.921 -17.384  14.258  1.00  0.00     0.161 HD
BRANCH  24  26
HETATM   26  C17 UNL     1     -86.615 -19.038  14.301  1.00  0.00     0.101 A 
HETATM   27  C18 UNL     1     -87.518 -20.107  14.210  1.00  0.00     0.060 A 
HETATM   28  C19 UNL     1     -87.132 -21.346  14.741  1.00  0.00    -0.020 A 
HETATM   29  C25 UNL     1     -85.817 -21.320  15.276  1.00  0.00     0.029 A 
HETATM   30  C26 UNL     1     -85.002 -20.275  15.348  1.00  0.00     0.090 A 
HETATM   31  N7  UNL     1     -85.425 -19.068  14.820  1.00  0.00    -0.353 N 
ATOM     32  H7  UNL     1     -84.829 -18.240  14.838  1.00  0.00     0.166 HD
BRANCH  28  33
HETATM   33  C20 UNL     1     -87.921 -22.518  14.972  1.00  0.00    -0.007 A 
HETATM   34  C21 UNL     1     -87.656 -23.686  14.276  1.00  0.00     0.102 A 
HETATM   35  N5  UNL     1     -88.201 -24.851  14.673  1.00  0.00    -0.349 N 
HETATM   36  C22 UNL     1     -88.996 -24.913  15.730  1.00  0.00     0.138 A 
ATOM     37  H5  UNL     1     -87.997 -25.702  14.148  1.00  0.00     0.167 HD
HETATM   38  C23 UNL     1     -89.316 -23.785  16.437  1.00  0.00     0.160 A 
HETATM   39  F2  UNL     1     -90.180 -23.877  17.491  1.00  0.00    -0.202 F 
HETATM   40  C24 UNL     1     -88.783 -22.610  16.055  1.00  0.00     0.059 A 
BRANCH  36  41
HETATM   41  N6  UNL     1     -89.348 -26.068  16.292  1.00  0.00    -0.383 N 
ATOM     42  H62 UNL     1     -88.742 -26.863  16.091  1.00  0.00     0.157 HD
ATOM     43  H61 UNL     1     -90.247 -26.200  16.754  1.00  0.00     0.157 HD
ENDBRANCH  36  41
ENDBRANCH  28  33
ENDBRANCH  24  26
ENDBRANCH  23  24
ENDBRANCH  22  23
ENDBRANCH  16  22
ENDBRANCH   9  10
TORSDOF 8
ENDMDL
MODEL 2
REMARK VINA RESULT: -9.785961430      4.000      9.441
REMARK  8 active torsions:
REMARK  status: ('A' for Active; 'I' for Inactive)
REMARK    1  A    between atoms: C7_9  and  N1_10 
REMARK    2  A    between atoms: C8_13  and  C9_14 
REMARK    3  A    between atoms: N3_20  and  C15_22 
REMARK    4  A    between atoms: C15_22  and  C16_23 
REMARK    5  A    between atoms: C16_23  and  N4_24 
REMARK    6  A    between atoms: N4_24  and  C17_26 
REMARK    7  A    between atoms: C19_28  and  C20_29 
REMARK    8  A    between atoms: C22_33  and  N6_34 
ROOT
HETATM    1  C1  UNL     1     -88.370 -16.108  19.015  1.00  0.00     0.210 C 
HETATM    2  O1  UNL     1     -87.577 -15.542  18.138  1.00  0.00    -0.354 OA
HETATM    3  C2  UNL     1     -86.791 -14.973  17.307  1.00  0.00     0.097 A 
HETATM    4  C3  UNL     1     -85.899 -13.986  17.572  1.00  0.00     0.042 A 
HETATM    5  C4  UNL     1     -85.089 -13.399  16.621  1.00  0.00     0.045 A 
HETATM    6  C5  UNL     1     -85.196 -13.821  15.321  1.00  0.00     0.118 A 
HETATM    7  F1  UNL     1     -84.444 -13.251  14.365  1.00  0.00    -0.206 F 
HETATM    8  C6  UNL     1     -86.082 -14.803  15.024  1.00  0.00     0.076 A 
HETATM    9  C7  UNL     1     -86.856 -15.397  15.908  1.00  0.00     0.094 A 
ENDROOT
BRANCH   9  10
HETATM   10  N1  UNL     1     -87.492 -16.644  15.610  1.00  0.00    -0.237 N 
HETATM   11  N2  UNL     1     -86.844 -17.809  15.817  1.00  0.00    -0.295 N 
HETATM   12  C8  UNL     1     -87.597 -18.870  15.450  1.00  0.00     0.037 A 
ATOM     13  H2  UNL     1     -85.902 -17.880  16.202  1.00  0.00     0.187 HD
HETATM   14  C13 UNL     1     -88.741 -18.334  14.962  1.00  0.00     0.077 A 
HETATM   15  C14 UNL     1     -88.663 -16.955  15.057  1.00  0.00     0.125 A 
HETATM   16  N3  UNL     1     -89.615 -16.094  14.683  1.00  0.00    -0.373 N 
ATOM     17  H3  UNL     1     -89.562 -15.087  14.834  1.00  0.00     0.161 HD
BRANCH  12  18
HETATM   18  C9  UNL     1     -87.257 -20.281  15.726  1.00  0.00    -0.007 C 
HETATM   19  C10 UNL     1     -85.719 -20.419  15.862  1.00  0.00     0.021 C 
HETATM   20  C11 UNL     1     -87.820 -21.230  14.751  1.00  0.00     0.021 C 
HETATM   21  C12 UNL     1     -87.749 -20.624  17.140  1.00  0.00     0.021 C 
ENDBRANCH  12  18
BRANCH  16  22
HETATM   22  C15 UNL     1     -90.724 -16.754  14.043  1.00  0.00     0.141 C 
BRANCH  22  23
HETATM   23  C16 UNL     1     -91.191 -16.355  12.715  1.00  0.00     0.141 C 
BRANCH  23  24
HETATM   24  N4  UNL     1     -92.321 -17.168  12.214  1.00  0.00    -0.375 N 
ATOM     25  H4  UNL     1     -93.233 -17.208  12.668  1.00  0.00     0.161 HD
BRANCH  24  26
HETATM   26  C17 UNL     1     -92.012 -17.860  11.080  1.00  0.00     0.101 A 
HETATM   27  C18 UNL     1     -90.984 -17.279  10.323  1.00  0.00     0.060 A 
HETATM   28  C19 UNL     1     -90.658 -17.863   9.090  1.00  0.00    -0.020 A 
HETATM   29  C25 UNL     1     -91.436 -19.018   8.817  1.00  0.00     0.029 A 
HETATM   30  C26 UNL     1     -92.408 -19.526   9.564  1.00  0.00     0.090 A 
HETATM   31  N7  UNL     1     -92.704 -18.914  10.769  1.00  0.00    -0.353 N 
ATOM     32  H7  UNL     1     -93.434 -19.273  11.386  1.00  0.00     0.166 HD
BRANCH  28  33
HETATM   33  C20 UNL     1     -89.822 -17.360   8.043  1.00  0.00    -0.007 A 
HETATM   34  C21 UNL     1     -90.385 -16.762   6.927  1.00  0.00     0.102 A 
HETATM   35  N5  UNL     1     -89.619 -16.053   6.078  1.00  0.00    -0.349 N 
HETATM   36  C22 UNL     1     -88.319 -15.907   6.283  1.00  0.00     0.138 A 
ATOM     37  H5  UNL     1     -90.049 -15.620   5.260  1.00  0.00     0.167 HD
HETATM   38  C23 UNL     1     -87.705 -16.502   7.353  1.00  0.00     0.160 A 
HETATM   39  F2  UNL     1     -86.353 -16.374   7.506  1.00  0.00    -0.202 F 
HETATM   40  C24 UNL     1     -88.453 -17.216   8.212  1.00  0.00     0.059 A 
BRANCH  36  41
HETATM   41  N6  UNL     1     -87.585 -15.020   5.613  1.00  0.00    -0.383 N 
ATOM     42  H62 UNL     1     -86.635 -15.313   5.384  1.00  0.00     0.157 HD
ATOM     43  H61 UNL     1     -87.882 -14.054   5.480  1.00  0.00     0.157 HD
ENDBRANCH  36  41
ENDBRANCH  28  33
ENDBRANCH  24  26
ENDBRANCH  23  24
ENDBRANCH  22  23
ENDBRANCH  16  22
ENDBRANCH   9  10
TORSDOF 8
ENDMDL
MODEL 3
REMARK VINA RESULT: -9.651168584      1.713      2.286
REMARK  8 active torsions:
REMARK  status: ('A' for Active; 'I' for Inactive)
REMARK    1  A    between atoms: C7_9  and  N1_10 
REMARK    2  A    between atoms: C8_13  and  C9_14 
REMARK    3  A    between atoms: N3_20  and  C15_22 
REMARK    4  A    between atoms: C15_22  and  C16_23 
REMARK    5  A    between atoms: C16_23  and  N4_24 
REMARK    6  A    between atoms: N4_24  and  C17_26 
REMARK    7  A    between atoms: C19_28  and  C20_29 
REMARK    8  A    between atoms: C22_33  and  N6_34 
ROOT
HETATM    1  C1  UNL     1     -90.924 -20.703   8.429  1.00  0.00     0.210 C 
HETATM    2  O1  UNL     1     -91.573 -19.795   9.116  1.00  0.00    -0.354 OA
HETATM    3  C2  UNL     1     -92.227 -18.931   9.794  1.00  0.00     0.097 A 
HETATM    4  C3  UNL     1     -93.371 -19.140  10.494  1.00  0.00     0.042 A 
HETATM    5  C4  UNL     1     -94.039 -18.156  11.193  1.00  0.00     0.045 A 
HETATM    6  C5  UNL     1     -93.535 -16.881  11.172  1.00  0.00     0.118 A 
HETATM    7  F1  UNL     1     -94.176 -15.893  11.818  1.00  0.00    -0.206 F 
HETATM    8  C6  UNL     1     -92.396 -16.641  10.478  1.00  0.00     0.076 A 
HETATM    9  C7  UNL     1     -91.722 -17.558   9.816  1.00  0.00     0.094 A 
ENDROOT
BRANCH   9  10
HETATM   10  N1  UNL     1     -90.367 -17.331   9.414  1.00  0.00    -0.237 N 
HETATM   11  N2  UNL     1     -90.074 -17.060   8.125  1.00  0.00    -0.295 N 
HETATM   12  C8  UNL     1     -88.743 -16.905   7.940  1.00  0.00     0.037 A 
ATOM     13  H2  UNL     1     -90.769 -16.981   7.384  1.00  0.00     0.187 HD
HETATM   14  C13 UNL     1     -88.193 -17.130   9.157  1.00  0.00     0.077 A 
HETATM   15  C14 UNL     1     -89.206 -17.402  10.061  1.00  0.00     0.125 A 
HETATM   16  N3  UNL     1     -89.040 -17.658  11.362  1.00  0.00    -0.373 N 
ATOM     17  H3  UNL     1     -89.809 -17.781  12.020  1.00  0.00     0.161 HD
BRANCH  12  18
HETATM   18  C9  UNL     1     -88.117 -16.415   6.696  1.00  0.00    -0.007 C 
HETATM   19  C10 UNL     1     -87.991 -17.588   5.690  1.00  0.00     0.021 C 
HETATM   20  C11 UNL     1     -86.835 -15.722   6.908  1.00  0.00     0.021 C 
HETATM   21  C12 UNL     1     -89.113 -15.479   5.995  1.00  0.00     0.021 C 
ENDBRANCH  12  18
BRANCH  16  22
HETATM   22  C15 UNL     1     -87.648 -17.743  11.726  1.00  0.00     0.141 C 
BRANCH  22  23
HETATM   23  C16 UNL     1     -87.208 -18.487  12.906  1.00  0.00     0.141 C 
BRANCH  23  24
HETATM   24  N4  UNL     1     -87.711 -17.931  14.181  1.00  0.00    -0.375 N 
ATOM     25  H4  UNL     1     -88.032 -16.969  14.291  1.00  0.00     0.161 HD
BRANCH  24  26
HETATM   26  C17 UNL     1     -87.699 -18.843  15.195  1.00  0.00     0.101 A 
HETATM   27  C18 UNL     1     -88.035 -20.144  14.794  1.00  0.00     0.060 A 
HETATM   28  C19 UNL     1     -88.144 -21.134  15.781  1.00  0.00    -0.020 A 
HETATM   29  C25 UNL     1     -87.848 -20.639  17.078  1.00  0.00     0.029 A 
HETATM   30  C26 UNL     1     -87.544 -19.391  17.410  1.00  0.00     0.090 A 
HETATM   31  N7  UNL     1     -87.455 -18.443  16.407  1.00  0.00    -0.353 N 
ATOM     32  H7  UNL     1     -87.211 -17.473  16.609  1.00  0.00     0.166 HD
BRANCH  28  33
HETATM   33  C20 UNL     1     -88.672 -22.461  15.679  1.00  0.00    -0.007 A 
HETATM   34  C21 UNL     1     -87.982 -23.434  14.975  1.00  0.00     0.102 A 
HETATM   35  N5  UNL     1     -88.321 -24.730  15.097  1.00  0.00    -0.349 N 
HETATM   36  C22 UNL     1     -89.314 -25.109  15.889  1.00  0.00     0.138 A 
ATOM     37  H5  UNL     1     -87.804 -25.435  14.570  1.00  0.00     0.167 HD
HETATM   38  C23 UNL     1     -90.049 -24.187  16.585  1.00  0.00     0.160 A 
HETATM   39  F2  UNL     1     -91.099 -24.607  17.351  1.00  0.00    -0.202 F 
HETATM   40  C24 UNL     1     -89.726 -22.886  16.474  1.00  0.00     0.059 A 
BRANCH  36  41
HETATM   41  N6  UNL     1     -89.515 -26.382  16.223  1.00  0.00    -0.383 N 
ATOM     42  H62 UNL     1     -90.486 -26.653  16.376  1.00  0.00     0.157 HD
ATOM     43  H61 UNL     1     -88.750 -27.008  16.475  1.00  0.00     0.157 HD
ENDBRANCH  36  41
ENDBRANCH  28  33
ENDBRANCH  24  26
ENDBRANCH  23  24
ENDBRANCH  22  23
ENDBRANCH  16  22
ENDBRANCH   9  10
TORSDOF 8
ENDMDL
MODEL 4
REMARK VINA RESULT: -9.633588803      4.756      6.990
REMARK  8 active torsions:
REMARK  status: ('A' for Active; 'I' for Inactive)
REMARK    1  A    between atoms: C7_9  and  N1_10 
REMARK    2  A    between atoms: C8_13  and  C9_14 
REMARK    3  A    between atoms: N3_20  and  C15_22 
REMARK    4  A    between atoms: C15_22  and  C16_23 
REMARK    5  A    between atoms: C16_23  and  N4_24 
REMARK    6  A    between atoms: N4_24  and  C17_26 
REMARK    7  A    between atoms: C19_28  and  C20_29 
REMARK    8  A    between atoms: C22_33  and  N6_34 
ROOT
HETATM    1  C1  UNL     1     -85.670 -18.277  10.620  1.00  0.00     0.210 C 
HETATM    2  O1  UNL     1     -86.217 -17.693   9.582  1.00  0.00    -0.354 OA
HETATM    3  C2  UNL     1     -86.779 -17.137   8.577  1.00  0.00     0.097 A 
HETATM    4  C3  UNL     1     -88.055 -17.318   8.154  1.00  0.00     0.042 A 
HETATM    5  C4  UNL     1     -88.597 -16.698   7.045  1.00  0.00     0.045 A 
HETATM    6  C5  UNL     1     -87.799 -15.861   6.309  1.00  0.00     0.118 A 
HETATM    7  F1  UNL     1     -88.284 -15.265   5.208  1.00  0.00    -0.206 F 
HETATM    8  C6  UNL     1     -86.517 -15.664   6.705  1.00  0.00     0.076 A 
HETATM    9  C7  UNL     1     -85.974 -16.223   7.767  1.00  0.00     0.094 A 
ENDROOT
BRANCH   9  10
HETATM   10  N1  UNL     1     -84.762 -15.711   8.330  1.00  0.00    -0.237 N 
HETATM   11  N2  UNL     1     -83.589 -15.866   7.682  1.00  0.00    -0.295 N 
HETATM   12  C8  UNL     1     -82.559 -15.342   8.386  1.00  0.00     0.037 A 
ATOM     13  H2  UNL     1     -83.491 -16.321   6.775  1.00  0.00     0.187 HD
HETATM   14  C13 UNL     1     -83.117 -14.881   9.531  1.00  0.00     0.077 A 
HETATM   15  C14 UNL     1     -84.479 -15.123   9.491  1.00  0.00     0.125 A 
HETATM   16  N3  UNL     1     -85.356 -14.790  10.443  1.00  0.00    -0.373 N 
ATOM     17  H3  UNL     1     -86.365 -14.912  10.355  1.00  0.00     0.161 HD
BRANCH  12  18
HETATM   18  C9  UNL     1     -81.185 -15.178   7.871  1.00  0.00    -0.007 C 
HETATM   19  C10 UNL     1     -80.918 -16.241   6.775  1.00  0.00     0.021 C 
HETATM   20  C11 UNL     1     -80.151 -15.186   8.920  1.00  0.00     0.021 C 
HETATM   21  C12 UNL     1     -81.124 -13.862   7.081  1.00  0.00     0.021 C 
ENDBRANCH  12  18
BRANCH  16  22
HETATM   22  C15 UNL     1     -84.711 -14.242  11.609  1.00  0.00     0.141 C 
BRANCH  22  23
HETATM   23  C16 UNL     1     -85.450 -13.984  12.845  1.00  0.00     0.141 C 
BRANCH  23  24
HETATM   24  N4  UNL     1     -86.839 -13.526  12.622  1.00  0.00    -0.375 N 
ATOM     25  H4  UNL     1     -87.077 -12.630  12.198  1.00  0.00     0.161 HD
BRANCH  24  26
HETATM   26  C17 UNL     1     -87.768 -14.431  13.046  1.00  0.00     0.101 A 
HETATM   27  C18 UNL     1     -88.298 -15.224  12.019  1.00  0.00     0.060 A 
HETATM   28  C19 UNL     1     -89.329 -16.120  12.339  1.00  0.00    -0.020 A 
HETATM   29  C25 UNL     1     -89.655 -16.097  13.720  1.00  0.00     0.029 A 
HETATM   30  C26 UNL     1     -89.129 -15.318  14.656  1.00  0.00     0.090 A 
HETATM   31  N7  UNL     1     -88.120 -14.442  14.296  1.00  0.00    -0.353 N 
ATOM     32  H7  UNL     1     -87.674 -13.831  14.981  1.00  0.00     0.166 HD
BRANCH  28  33
HETATM   33  C20 UNL     1     -90.178 -16.873  11.466  1.00  0.00    -0.007 A 
HETATM   34  C21 UNL     1     -91.100 -16.225  10.660  1.00  0.00     0.102 A 
HETATM   35  N5  UNL     1     -91.703 -16.884   9.654  1.00  0.00    -0.349 N 
HETATM   36  C22 UNL     1     -91.434 -18.158   9.407  1.00  0.00     0.138 A 
ATOM     37  H5  UNL     1     -92.381 -16.393   9.070  1.00  0.00     0.167 HD
HETATM   38  C23 UNL     1     -90.554 -18.855  10.192  1.00  0.00     0.160 A 
HETATM   39  F2  UNL     1     -90.340 -20.181   9.942  1.00  0.00    -0.202 F 
HETATM   40  C24 UNL     1     -89.942 -18.214  11.203  1.00  0.00     0.059 A 
BRANCH  36  41
HETATM   41  N6  UNL     1     -91.818 -18.764   8.286  1.00  0.00    -0.383 N 
ATOM     42  H62 UNL     1     -91.984 -18.155   7.485  1.00  0.00     0.157 HD
ATOM     43  H61 UNL     1     -92.091 -19.746   8.261  1.00  0.00     0.157 HD
ENDBRANCH  36  41
ENDBRANCH  28  33
ENDBRANCH  24  26
ENDBRANCH  23  24
ENDBRANCH  22  23
ENDBRANCH  16  22
ENDBRANCH   9  10
TORSDOF 8
ENDMDL
MODEL 5
REMARK VINA RESULT: -9.618316671      1.515      2.299
REMARK  8 active torsions:
REMARK  status: ('A' for Active; 'I' for Inactive)
REMARK    1  A    between atoms: C7_9  and  N1_10 
REMARK    2  A    between atoms: C8_13  and  C9_14 
REMARK    3  A    between atoms: N3_20  and  C15_22 
REMARK    4  A    between atoms: C15_22  and  C16_23 
REMARK    5  A    between atoms: C16_23  and  N4_24 
REMARK    6  A    between atoms: N4_24  and  C17_26 
REMARK    7  A    between atoms: C19_28  and  C20_29 
REMARK    8  A    between atoms: C22_33  and  N6_34 
ROOT
HETATM    1  C1  UNL     1     -91.290 -16.488  12.946  1.00  0.00     0.210 C 
HETATM    2  O1  UNL     1     -91.495 -17.394  12.021  1.00  0.00    -0.354 OA
HETATM    3  C2  UNL     1     -91.726 -18.273  11.123  1.00  0.00     0.097 A 
HETATM    4  C3  UNL     1     -92.939 -18.694  10.687  1.00  0.00     0.042 A 
HETATM    5  C4  UNL     1     -93.121 -19.664   9.721  1.00  0.00     0.045 A 
HETATM    6  C5  UNL     1     -92.012 -20.257   9.176  1.00  0.00     0.118 A 
HETATM    7  F1  UNL     1     -92.152 -21.226   8.255  1.00  0.00    -0.206 F 
HETATM    8  C6  UNL     1     -90.785 -19.861   9.594  1.00  0.00     0.076 A 
HETATM    9  C7  UNL     1     -90.575 -18.927  10.498  1.00  0.00     0.094 A 
ENDROOT
BRANCH   9  10
HETATM   10  N1  UNL     1     -89.292 -18.308  10.634  1.00  0.00    -0.237 N 
HETATM   11  N2  UNL     1     -88.691 -17.740   9.569  1.00  0.00    -0.295 N 
HETATM   12  C8  UNL     1     -87.478 -17.236   9.892  1.00  0.00     0.037 A 
ATOM     13  H2  UNL     1     -89.100 -17.695   8.636  1.00  0.00     0.187 HD
HETATM   14  C13 UNL     1     -87.310 -17.542  11.201  1.00  0.00     0.077 A 
HETATM   15  C14 UNL     1     -88.434 -18.214  11.649  1.00  0.00     0.125 A 
HETATM   16  N3  UNL     1     -88.630 -18.659  12.894  1.00  0.00    -0.373 N 
ATOM     17  H3  UNL     1     -89.499 -19.084  13.216  1.00  0.00     0.161 HD
BRANCH  12  18
HETATM   18  C9  UNL     1     -86.655 -16.386   9.007  1.00  0.00    -0.007 C 
HETATM   19  C10 UNL     1     -86.155 -15.153   9.803  1.00  0.00     0.021 C 
HETATM   20  C11 UNL     1     -87.327 -16.008   7.753  1.00  0.00     0.021 C 
HETATM   21  C12 UNL     1     -85.350 -17.137   8.701  1.00  0.00     0.021 C 
ENDBRANCH  12  18
BRANCH  16  22
HETATM   22  C15 UNL     1     -87.470 -18.470  13.727  1.00  0.00     0.141 C 
BRANCH  22  23
HETATM   23  C16 UNL     1     -87.470 -18.851  15.140  1.00  0.00     0.141 C 
BRANCH  23  24
HETATM   24  N4  UNL     1     -86.398 -19.805  15.498  1.00  0.00    -0.375 N 
ATOM     25  H4  UNL     1     -85.540 -19.536  15.979  1.00  0.00     0.161 HD
BRANCH  24  26
HETATM   26  C17 UNL     1     -86.680 -21.084  15.116  1.00  0.00     0.101 A 
HETATM   27  C18 UNL     1     -87.846 -21.606  15.695  1.00  0.00     0.060 A 
HETATM   28  C19 UNL     1     -88.170 -22.946  15.439  1.00  0.00    -0.020 A 
HETATM   29  C25 UNL     1     -87.238 -23.570  14.568  1.00  0.00     0.029 A 
HETATM   30  C26 UNL     1     -86.140 -23.035  14.051  1.00  0.00     0.090 A 
HETATM   31  N7  UNL     1     -85.852 -21.712  14.336  1.00  0.00    -0.353 N 
ATOM     32  H7  UNL     1     -85.027 -21.250  13.952  1.00  0.00     0.166 HD
BRANCH  28  33
HETATM   33  C20 UNL     1     -89.157 -23.775  16.061  1.00  0.00    -0.007 A 
HETATM   34  C21 UNL     1     -88.841 -25.067  16.448  1.00  0.00     0.102 A 
HETATM   35  N5  UNL     1     -89.662 -25.751  17.266  1.00  0.00    -0.349 N 
HETATM   36  C22 UNL     1     -90.783 -25.213  17.721  1.00  0.00     0.138 A 
ATOM     37  H5  UNL     1     -89.415 -26.702  17.540  1.00  0.00     0.167 HD
HETATM   38  C23 UNL     1     -91.160 -23.950  17.347  1.00  0.00     0.160 A 
HETATM   39  F2  UNL     1     -92.349 -23.446  17.793  1.00  0.00    -0.202 F 
HETATM   40  C24 UNL     1     -90.354 -23.251  16.528  1.00  0.00     0.059 A 
BRANCH  36  41
HETATM   41  N6  UNL     1     -91.485 -25.756  18.714  1.00  0.00    -0.383 N 
ATOM     42  H62 UNL     1     -92.015 -26.595  18.477  1.00  0.00     0.157 HD
ATOM     43  H61 UNL     1     -91.624 -25.284  19.607  1.00  0.00     0.157 HD
ENDBRANCH  36  41
ENDBRANCH  28  33
ENDBRANCH  24  26
ENDBRANCH  23  24
ENDBRANCH  22  23
ENDBRANCH  16  22
ENDBRANCH   9  10
TORSDOF 8
ENDMDL
