MODEL 1
REMARK VINA RESULT: -8.138942940      0.000      0.000
REMARK  10 active torsions:
REMARK  status: ('A' for Active; 'I' for Inactive)
REMARK    1  A    between atoms: O1_1  and  C1_3 
REMARK    2  A    between atoms: C1_3  and  C2_4 
REMARK    3  A    between atoms: C7_10  and  C8_11 
REMARK    4  A    between atoms: C13_20  and  C14_21 
REMARK    5  A    between atoms: C14_21  and  C15_22 
REMARK    6  A    between atoms: C16_23  and  C17_24 
REMARK    7  A    between atoms: C17_24  and  C18_25 
REMARK    8  A    between atoms: C18_25  and  C19_26 
REMARK    9  A    between atoms: C20_28  and  O3_29 
REMARK   10  A    between atoms: C21_31  and  O4_32 
ROOT
HETATM    1  C2  UNL     1     127.739  41.427 -26.075  1.00  0.00     0.155 C 
HETATM    2  O2  UNL     1     128.251  40.231 -26.558  1.00  0.00    -0.373 OA
HETATM    3  C3  UNL     1     127.158  39.613 -25.973  1.00  0.00     0.165 C 
HETATM    4  C4  UNL     1     127.361  38.286 -25.411  1.00  0.00    -0.018 A 
HETATM    5  C5  UNL     1     126.522  37.309 -25.837  1.00  0.00     0.011 A 
HETATM    6  C6  UNL     1     126.605  35.999 -25.338  1.00  0.00     0.013 A 
HETATM    7  C7  UNL     1     127.541  35.653 -24.395  1.00  0.00    -0.022 A 
HETATM    8  C11 UNL     1     128.402  36.663 -23.961  1.00  0.00     0.024 A 
HETATM    9  C12 UNL     1     128.323  37.943 -24.447  1.00  0.00    -0.021 A 
HETATM   10  C13 UNL     1     129.289  38.876 -23.893  1.00  0.00    -0.035 C 
HETATM   11  C20 UNL     1     128.648  39.981 -23.101  1.00  0.00     0.177 C 
HETATM   12  C21 UNL     1     127.450  40.614 -23.632  1.00  0.00     0.160 C 
HETATM   13  C22 UNL     1     127.036  40.712 -25.003  1.00  0.00     0.082 C 
ENDROOT
BRANCH   7  14
HETATM   14  C8  UNL     1     127.660  34.304 -23.851  1.00  0.00     0.008 A 
HETATM   15  C9  UNL     1     126.660  33.625 -23.193  1.00  0.00     0.120 A 
HETATM   16  N1  UNL     1     127.134  32.420 -22.840  1.00  0.00    -0.311 N 
HETATM   17  N2  UNL     1     128.381  32.280 -23.232  1.00  0.00    -0.311 N 
ATOM     18  H1  UNL     1     126.600  31.711 -22.337  1.00  0.00     0.186 HD
HETATM   19  C10 UNL     1     128.716  33.422 -23.850  1.00  0.00     0.120 A 
ATOM     20  H2  UNL     1     128.977  31.464 -23.093  1.00  0.00     0.186 HD
ENDBRANCH   7  14
BRANCH  10  21
HETATM   21  C14 UNL     1     130.521  38.309 -23.261  1.00  0.00     0.064 C 
BRANCH  21  22
HETATM   22  C15 UNL     1     131.749  38.460 -24.077  1.00  0.00    -0.026 C 
HETATM   23  C16 UNL     1     132.431  37.477 -24.612  1.00  0.00    -0.030 C 
BRANCH  23  24
HETATM   24  C17 UNL     1     132.179  36.048 -24.548  1.00  0.00     0.027 C 
BRANCH  24  25
HETATM   25  C18 UNL     1     131.263  35.484 -25.601  1.00  0.00     0.014 C 
BRANCH  25  26
HETATM   26  C19 UNL     1     131.245  36.226 -26.901  1.00  0.00     0.085 C 
HETATM   27 BR1  UNL     1     132.300  35.428 -28.275  1.00  0.00    -0.097 Br
ENDBRANCH  25  26
ENDBRANCH  24  25
ENDBRANCH  23  24
ENDBRANCH  21  22
ENDBRANCH  10  21
BRANCH  11  28
HETATM   28  O3  UNL     1     129.627  40.864 -22.616  1.00  0.00    -0.389 OA
ATOM     29  H3  UNL     1     129.333  41.270 -21.809  1.00  0.00     0.210 HD
ENDBRANCH  11  28
BRANCH  12  30
HETATM   30  O4  UNL     1     127.401  41.901 -22.980  1.00  0.00    -0.392 OA
ATOM     31  H4  UNL     1     126.483  42.146 -23.006  1.00  0.00     0.210 HD
ENDBRANCH  12  30
BRANCH   1  32
HETATM   32  C1  UNL     1     128.722  42.508 -25.789  1.00  0.00     0.196 C 
BRANCH  32  33
HETATM   33  O1  UNL     1     129.975  41.852 -25.642  1.00  0.00    -0.398 OA
ATOM     34  H1  UNL     1     130.611  42.547 -25.517  1.00  0.00     0.209 HD
ENDBRANCH  32  33
ENDBRANCH   1  32
TORSDOF 10
ENDMDL
MODEL 2
REMARK VINA RESULT: -7.896278323      1.103      1.166
REMARK  10 active torsions:
REMARK  status: ('A' for Active; 'I' for Inactive)
REMARK    1  A    between atoms: O1_1  and  C1_3 
REMARK    2  A    between atoms: C1_3  and  C2_4 
REMARK    3  A    between atoms: C7_10  and  C8_11 
REMARK    4  A    between atoms: C13_20  and  C14_21 
REMARK    5  A    between atoms: C14_21  and  C15_22 
REMARK    6  A    between atoms: C16_23  and  C17_24 
REMARK    7  A    between atoms: C17_24  and  C18_25 
REMARK    8  A    between atoms: C18_25  and  C19_26 
REMARK    9  A    between atoms: C20_28  and  O3_29 
REMARK   10  A    between atoms: C21_31  and  O4_32 
ROOT
HETATM    1  C2  UNL     1     126.791  41.606 -25.039  1.00  0.00     0.155 C 
HETATM    2  O2  UNL     1     127.532  40.641 -25.707  1.00  0.00    -0.373 OA
HETATM    3  C3  UNL     1     126.594  39.723 -25.268  1.00  0.00     0.165 C 
HETATM    4  C4  UNL     1     127.067  38.387 -24.936  1.00  0.00    -0.018 A 
HETATM    5  C5  UNL     1     126.442  37.351 -25.548  1.00  0.00     0.011 A 
HETATM    6  C6  UNL     1     126.794  36.017 -25.280  1.00  0.00     0.013 A 
HETATM    7  C7  UNL     1     127.789  35.709 -24.384  1.00  0.00    -0.022 A 
HETATM    8  C11 UNL     1     128.428  36.781 -23.759  1.00  0.00     0.024 A 
HETATM    9  C12 UNL     1     128.087  38.083 -24.020  1.00  0.00    -0.021 A 
HETATM   10  C13 UNL     1     128.847  39.081 -23.286  1.00  0.00    -0.035 C 
HETATM   11  C20 UNL     1     128.000  39.879 -22.334  1.00  0.00     0.177 C 
HETATM   12  C21 UNL     1     126.694  40.340 -22.782  1.00  0.00     0.160 C 
HETATM   13  C22 UNL     1     126.258  40.589 -24.127  1.00  0.00     0.082 C 
ENDROOT
BRANCH   7  14
HETATM   14  C8  UNL     1     128.184  34.339 -24.077  1.00  0.00     0.008 A 
HETATM   15  C9  UNL     1     127.387  33.404 -23.457  1.00  0.00     0.120 A 
HETATM   16  N1  UNL     1     128.085  32.265 -23.344  1.00  0.00    -0.311 N 
HETATM   17  N2  UNL     1     129.289  32.407 -23.856  1.00  0.00    -0.311 N 
ATOM     18  H1  UNL     1     127.733  31.407 -22.920  1.00  0.00     0.186 HD
HETATM   19  C10 UNL     1     129.363  33.667 -24.308  1.00  0.00     0.120 A 
ATOM     20  H2  UNL     1     130.021  31.699 -23.901  1.00  0.00     0.186 HD
ENDBRANCH   7  14
BRANCH  10  21
HETATM   21  C14 UNL     1     130.173  38.674 -22.727  1.00  0.00     0.064 C 
BRANCH  21  22
HETATM   22  C15 UNL     1     131.336  39.135 -23.522  1.00  0.00    -0.026 C 
HETATM   23  C16 UNL     1     132.332  38.380 -23.918  1.00  0.00    -0.030 C 
BRANCH  23  24
HETATM   24  C17 UNL     1     132.551  36.962 -23.693  1.00  0.00     0.027 C 
BRANCH  24  25
HETATM   25  C18 UNL     1     132.159  36.039 -24.816  1.00  0.00     0.014 C 
BRANCH  25  26
HETATM   26  C19 UNL     1     132.304  36.607 -26.193  1.00  0.00     0.085 C 
HETATM   27 BR1  UNL     1     130.701  37.355 -26.908  1.00  0.00    -0.097 Br
ENDBRANCH  25  26
ENDBRANCH  24  25
ENDBRANCH  23  24
ENDBRANCH  21  22
ENDBRANCH  10  21
BRANCH  11  28
HETATM   28  O3  UNL     1     128.781  40.843 -21.677  1.00  0.00    -0.389 OA
ATOM     29  H3  UNL     1     129.109  40.497 -20.855  1.00  0.00     0.210 HD
ENDBRANCH  11  28
BRANCH  12  30
HETATM   30  O4  UNL     1     126.388  41.456 -21.920  1.00  0.00    -0.392 OA
ATOM     31  H4  UNL     1     125.639  41.166 -21.412  1.00  0.00     0.210 HD
ENDBRANCH  12  30
BRANCH   1  32
HETATM   32  C1  UNL     1     127.536  42.797 -24.544  1.00  0.00     0.196 C 
BRANCH  32  33
HETATM   33  O1  UNL     1     128.897  42.395 -24.482  1.00  0.00    -0.398 OA
ATOM     34  H1  UNL     1     128.909  41.626 -23.924  1.00  0.00     0.209 HD
ENDBRANCH  32  33
ENDBRANCH   1  32
TORSDOF 10
ENDMDL
MODEL 3
REMARK VINA RESULT: -7.591010293      3.608      5.842
REMARK  10 active torsions:
REMARK  status: ('A' for Active; 'I' for Inactive)
REMARK    1  A    between atoms: O1_1  and  C1_3 
REMARK    2  A    between atoms: C1_3  and  C2_4 
REMARK    3  A    between atoms: C7_10  and  C8_11 
REMARK    4  A    between atoms: C13_20  and  C14_21 
REMARK    5  A    between atoms: C14_21  and  C15_22 
REMARK    6  A    between atoms: C16_23  and  C17_24 
REMARK    7  A    between atoms: C17_24  and  C18_25 
REMARK    8  A    between atoms: C18_25  and  C19_26 
REMARK    9  A    between atoms: C20_28  and  O3_29 
REMARK   10  A    between atoms: C21_31  and  O4_32 
ROOT
HETATM    1  C2  UNL     1     126.628  39.055 -22.929  1.00  0.00     0.155 C 
HETATM    2  O2  UNL     1     127.873  38.468 -22.752  1.00  0.00    -0.373 OA
HETATM    3  C3  UNL     1     128.245  39.073 -23.940  1.00  0.00     0.165 C 
HETATM    4  C4  UNL     1     129.165  38.347 -24.803  1.00  0.00    -0.018 A 
HETATM    5  C5  UNL     1     130.288  39.004 -25.185  1.00  0.00     0.011 A 
HETATM    6  C6  UNL     1     131.230  38.411 -26.043  1.00  0.00     0.013 A 
HETATM    7  C7  UNL     1     131.051  37.140 -26.530  1.00  0.00    -0.022 A 
HETATM    8  C11 UNL     1     129.893  36.470 -26.132  1.00  0.00     0.024 A 
HETATM    9  C12 UNL     1     128.972  37.045 -25.295  1.00  0.00    -0.021 A 
HETATM   10  C13 UNL     1     127.822  36.217 -24.977  1.00  0.00    -0.035 C 
HETATM   11  C20 UNL     1     126.530  36.784 -25.497  1.00  0.00     0.177 C 
HETATM   12  C21 UNL     1     126.289  38.212 -25.355  1.00  0.00     0.160 C 
HETATM   13  C22 UNL     1     126.842  39.109 -24.380  1.00  0.00     0.082 C 
ENDROOT
BRANCH   7  14
HETATM   14  C8  UNL     1     132.005  36.490 -27.423  1.00  0.00     0.008 A 
HETATM   15  C9  UNL     1     131.866  35.223 -27.943  1.00  0.00     0.120 A 
HETATM   16  N1  UNL     1     132.932  34.968 -28.716  1.00  0.00    -0.311 N 
HETATM   17  N2  UNL     1     133.753  35.997 -28.727  1.00  0.00    -0.311 N 
ATOM     18  H1  UNL     1     133.086  34.098 -29.225  1.00  0.00     0.186 HD
HETATM   19  C10 UNL     1     133.199  36.933 -27.943  1.00  0.00     0.120 A 
ATOM     20  H2  UNL     1     134.635  36.068 -29.233  1.00  0.00     0.186 HD
ENDBRANCH   7  14
BRANCH  10  21
HETATM   21  C14 UNL     1     127.956  34.738 -25.162  1.00  0.00     0.064 C 
BRANCH  21  22
HETATM   22  C15 UNL     1     128.372  34.008 -23.941  1.00  0.00    -0.026 C 
HETATM   23  C16 UNL     1     127.564  33.384 -23.118  1.00  0.00    -0.030 C 
BRANCH  23  24
HETATM   24  C17 UNL     1     126.120  33.250 -23.180  1.00  0.00     0.027 C 
BRANCH  24  25
HETATM   25  C18 UNL     1     125.588  31.875 -23.486  1.00  0.00     0.014 C 
BRANCH  25  26
HETATM   26  C19 UNL     1     124.153  31.821 -23.908  1.00  0.00     0.085 C 
HETATM   27 BR1  UNL     1     123.223  33.479 -23.744  1.00  0.00    -0.097 Br
ENDBRANCH  25  26
ENDBRANCH  24  25
ENDBRANCH  23  24
ENDBRANCH  21  22
ENDBRANCH  10  21
BRANCH  11  28
HETATM   28  O3  UNL     1     125.454  35.957 -25.136  1.00  0.00    -0.389 OA
ATOM     29  H3  UNL     1     124.629  36.376 -25.350  1.00  0.00     0.210 HD
ENDBRANCH  11  28
BRANCH  12  30
HETATM   30  O4  UNL     1     124.855  38.347 -25.433  1.00  0.00    -0.392 OA
ATOM     31  H4  UNL     1     124.697  39.278 -25.324  1.00  0.00     0.210 HD
ENDBRANCH  12  30
BRANCH   1  32
HETATM   32  C1  UNL     1     125.463  38.347 -22.329  1.00  0.00     0.196 C 
BRANCH  32  33
HETATM   33  O1  UNL     1     125.880  36.997 -22.171  1.00  0.00    -0.398 OA
ATOM     34  H1  UNL     1     126.409  36.987 -21.382  1.00  0.00     0.209 HD
ENDBRANCH  32  33
ENDBRANCH   1  32
TORSDOF 10
ENDMDL
MODEL 4
REMARK VINA RESULT: -7.578803162      2.946      5.091
REMARK  10 active torsions:
REMARK  status: ('A' for Active; 'I' for Inactive)
REMARK    1  A    between atoms: O1_1  and  C1_3 
REMARK    2  A    between atoms: C1_3  and  C2_4 
REMARK    3  A    between atoms: C7_10  and  C8_11 
REMARK    4  A    between atoms: C13_20  and  C14_21 
REMARK    5  A    between atoms: C14_21  and  C15_22 
REMARK    6  A    between atoms: C16_23  and  C17_24 
REMARK    7  A    between atoms: C17_24  and  C18_25 
REMARK    8  A    between atoms: C18_25  and  C19_26 
REMARK    9  A    between atoms: C20_28  and  O3_29 
REMARK   10  A    between atoms: C21_31  and  O4_32 
ROOT
HETATM    1  C2  UNL     1     128.624  41.380 -22.678  1.00  0.00     0.155 C 
HETATM    2  O2  UNL     1     129.246  40.145 -22.560  1.00  0.00    -0.373 OA
HETATM    3  C3  UNL     1     130.106  40.566 -23.561  1.00  0.00     0.165 C 
HETATM    4  C4  UNL     1     130.575  39.564 -24.506  1.00  0.00    -0.018 A 
HETATM    5  C5  UNL     1     131.918  39.461 -24.666  1.00  0.00     0.011 A 
HETATM    6  C6  UNL     1     132.482  38.550 -25.575  1.00  0.00     0.013 A 
HETATM    7  C7  UNL     1     131.694  37.727 -26.341  1.00  0.00    -0.022 A 
HETATM    8  C11 UNL     1     130.313  37.839 -26.171  1.00  0.00     0.024 A 
HETATM    9  C12 UNL     1     129.760  38.726 -25.284  1.00  0.00    -0.021 A 
HETATM   10  C13 UNL     1     128.308  38.720 -25.227  1.00  0.00    -0.035 C 
HETATM   11  C20 UNL     1     127.699  40.016 -25.685  1.00  0.00     0.177 C 
HETATM   12  C21 UNL     1     128.304  41.264 -25.246  1.00  0.00     0.160 C 
HETATM   13  C22 UNL     1     129.087  41.500 -24.065  1.00  0.00     0.082 C 
ENDROOT
BRANCH   7  14
HETATM   14  C8  UNL     1     132.240  36.769 -27.297  1.00  0.00     0.008 A 
HETATM   15  C9  UNL     1     133.359  36.973 -28.072  1.00  0.00     0.120 A 
HETATM   16  N1  UNL     1     133.554  35.879 -28.824  1.00  0.00    -0.311 N 
HETATM   17  N2  UNL     1     132.627  34.979 -28.580  1.00  0.00    -0.311 N 
ATOM     18  H1  UNL     1     134.316  35.762 -29.492  1.00  0.00     0.186 HD
HETATM   19  C10 UNL     1     131.818  35.508 -27.651  1.00  0.00     0.120 A 
ATOM     20  H2  UNL     1     132.540  34.060 -29.013  1.00  0.00     0.186 HD
ENDBRANCH   7  14
BRANCH  10  21
HETATM   21  C14 UNL     1     127.597  37.502 -25.725  1.00  0.00     0.064 C 
BRANCH  21  22
HETATM   22  C15 UNL     1     126.994  36.670 -24.658  1.00  0.00    -0.026 C 
HETATM   23  C16 UNL     1     127.494  35.550 -24.194  1.00  0.00    -0.030 C 
BRANCH  23  24
HETATM   24  C17 UNL     1     128.711  34.862 -24.585  1.00  0.00     0.027 C 
BRANCH  24  25
HETATM   25  C18 UNL     1     128.838  33.428 -24.144  1.00  0.00     0.014 C 
BRANCH  25  26
HETATM   26  C19 UNL     1     128.027  33.051 -22.944  1.00  0.00     0.085 C 
HETATM   27 BR1  UNL     1     126.306  32.335 -23.352  1.00  0.00    -0.097 Br
ENDBRANCH  25  26
ENDBRANCH  24  25
ENDBRANCH  23  24
ENDBRANCH  21  22
ENDBRANCH  10  21
BRANCH  11  28
HETATM   28  O3  UNL     1     126.300  39.960 -25.581  1.00  0.00    -0.389 OA
ATOM     29  H3  UNL     1     125.899  40.142 -26.423  1.00  0.00     0.210 HD
ENDBRANCH  11  28
BRANCH  12  30
HETATM   30  O4  UNL     1     127.253  42.244 -25.377  1.00  0.00    -0.392 OA
ATOM     31  H4  UNL     1     126.694  42.096 -24.623  1.00  0.00     0.210 HD
ENDBRANCH  12  30
BRANCH   1  32
HETATM   32  C1  UNL     1     127.180  41.438 -22.320  1.00  0.00     0.196 C 
BRANCH  32  33
HETATM   33  O1  UNL     1     127.021  42.638 -21.575  1.00  0.00    -0.398 OA
ATOM     34  H1  UNL     1     126.126  42.917 -21.732  1.00  0.00     0.209 HD
ENDBRANCH  32  33
ENDBRANCH   1  32
TORSDOF 10
ENDMDL
MODEL 5
REMARK VINA RESULT: -7.532760784      3.282      5.562
REMARK  10 active torsions:
REMARK  status: ('A' for Active; 'I' for Inactive)
REMARK    1  A    between atoms: O1_1  and  C1_3 
REMARK    2  A    between atoms: C1_3  and  C2_4 
REMARK    3  A    between atoms: C7_10  and  C8_11 
REMARK    4  A    between atoms: C13_20  and  C14_21 
REMARK    5  A    between atoms: C14_21  and  C15_22 
REMARK    6  A    between atoms: C16_23  and  C17_24 
REMARK    7  A    between atoms: C17_24  and  C18_25 
REMARK    8  A    between atoms: C18_25  and  C19_26 
REMARK    9  A    between atoms: C20_28  and  O3_29 
REMARK   10  A    between atoms: C21_31  and  O4_32 
ROOT
HETATM    1  C2  UNL     1     127.798  39.685 -22.154  1.00  0.00     0.155 C 
HETATM    2  O2  UNL     1     128.831  38.758 -22.154  1.00  0.00    -0.373 OA
HETATM    3  C3  UNL     1     129.339  39.436 -23.249  1.00  0.00     0.165 C 
HETATM    4  C4  UNL     1     130.005  38.648 -24.276  1.00  0.00    -0.018 A 
HETATM    5  C5  UNL     1     131.260  39.028 -24.617  1.00  0.00     0.011 A 
HETATM    6  C6  UNL     1     131.985  38.360 -25.618  1.00  0.00     0.013 A 
HETATM    7  C7  UNL     1     131.449  37.291 -26.293  1.00  0.00    -0.022 A 
HETATM    8  C11 UNL     1     130.155  36.904 -25.937  1.00  0.00     0.024 A 
HETATM    9  C12 UNL     1     129.447  37.555 -24.960  1.00  0.00    -0.021 A 
HETATM   10  C13 UNL     1     128.115  37.030 -24.708  1.00  0.00    -0.035 C 
HETATM   11  C20 UNL     1     127.026  38.011 -25.045  1.00  0.00     0.177 C 
HETATM   12  C21 UNL     1     127.198  39.403 -24.658  1.00  0.00     0.160 C 
HETATM   13  C22 UNL     1     127.995  39.930 -23.587  1.00  0.00     0.082 C 
ENDROOT
BRANCH   7  14
HETATM   14  C8  UNL     1     132.167  36.571 -27.340  1.00  0.00     0.008 A 
HETATM   15  C9  UNL     1     133.306  37.018 -27.970  1.00  0.00     0.120 A 
HETATM   16  N1  UNL     1     133.678  36.093 -28.868  1.00  0.00    -0.311 N 
HETATM   17  N2  UNL     1     132.847  35.074 -28.855  1.00  0.00    -0.311 N 
ATOM     18  H1  UNL     1     134.493  36.170 -29.478  1.00  0.00     0.186 HD
HETATM   19  C10 UNL     1     131.920  35.351 -27.926  1.00  0.00     0.120 A 
ATOM     20  H2  UNL     1     132.898  34.237 -29.435  1.00  0.00     0.186 HD
ENDBRANCH   7  14
BRANCH  10  21
HETATM   21  C14 UNL     1     127.827  35.627 -25.139  1.00  0.00     0.064 C 
BRANCH  21  22
HETATM   22  C15 UNL     1     128.590  34.594 -24.399  1.00  0.00    -0.026 C 
HETATM   23  C16 UNL     1     128.092  33.781 -23.499  1.00  0.00    -0.030 C 
BRANCH  23  24
HETATM   24  C17 UNL     1     126.728  33.683 -23.011  1.00  0.00     0.027 C 
BRANCH  24  25
HETATM   25  C18 UNL     1     126.000  32.401 -23.317  1.00  0.00     0.014 C 
BRANCH  25  26
HETATM   26  C19 UNL     1     124.566  32.557 -23.716  1.00  0.00     0.085 C 
HETATM   27 BR1  UNL     1     124.017  34.365 -23.984  1.00  0.00    -0.097 Br
ENDBRANCH  25  26
ENDBRANCH  24  25
ENDBRANCH  23  24
ENDBRANCH  21  22
ENDBRANCH  10  21
BRANCH  11  28
HETATM   28  O3  UNL     1     125.768  37.460 -24.755  1.00  0.00    -0.389 OA
ATOM     29  H3  UNL     1     125.458  37.770 -23.912  1.00  0.00     0.210 HD
ENDBRANCH  11  28
BRANCH  12  30
HETATM   30  O4  UNL     1     125.858  39.937 -24.621  1.00  0.00    -0.392 OA
ATOM     31  H4  UNL     1     125.376  39.334 -24.066  1.00  0.00     0.210 HD
ENDBRANCH  12  30
BRANCH   1  32
HETATM   32  C1  UNL     1     126.491  39.230 -21.604  1.00  0.00     0.196 C 
BRANCH  32  33
HETATM   33  O1  UNL     1     125.683  40.397 -21.530  1.00  0.00    -0.398 OA
ATOM     34  H1  UNL     1     125.327  40.402 -20.649  1.00  0.00     0.209 HD
ENDBRANCH  32  33
ENDBRANCH   1  32
TORSDOF 10
ENDMDL
