MODEL 1
REMARK VINA RESULT: -9.159197578      0.000      0.000
REMARK  9 active torsions:
REMARK  status: ('A' for Active; 'I' for Inactive)
REMARK    1  A    between atoms: C2_2  and  C3_3 
REMARK    2  A    between atoms: C3_3  and  C4_4 
REMARK    3  A    between atoms: C3_3  and  N1_7 
REMARK    4  A    between atoms: C4_4  and  O1_5 
REMARK    5  A    between atoms: N1_7  and  C5_9 
REMARK    6  A    between atoms: C7_11  and  C8_12 
REMARK    7  A    between atoms: C11_19  and  C12_20 
REMARK    8  A    between atoms: C15_23  and  C16_24 
REMARK    9  A    between atoms: C16_24  and  N4_25 
ROOT
HETATM    1  C8  UNL     1     127.306  34.803 -24.396  1.00  0.00     0.048 A 
HETATM    2  C9  UNL     1     126.871  35.963 -25.056  1.00  0.00     0.063 A 
HETATM    3  C10 UNL     1     125.491  36.016 -25.022  1.00  0.00     0.079 A 
HETATM    4  N2  UNL     1     124.377  36.660 -25.413  1.00  0.00    -0.298 N 
ATOM      5  H2  UNL     1     124.340  37.532 -25.941  1.00  0.00     0.187 HD
HETATM    6  N3  UNL     1     123.320  35.947 -24.984  1.00  0.00    -0.302 N 
ATOM      7  H3  UNL     1     122.347  36.207 -25.144  1.00  0.00     0.186 HD
HETATM    8  C11 UNL     1     123.713  34.847 -24.314  1.00  0.00     0.059 A 
HETATM    9  C22 UNL     1     125.091  34.888 -24.338  1.00  0.00     0.085 A 
HETATM   10  N5  UNL     1     126.200  34.194 -23.979  1.00  0.00    -0.352 N 
ATOM     11  H5  UNL     1     126.186  33.317 -23.458  1.00  0.00     0.166 HD
ENDROOT
BRANCH   1  12
HETATM   12  C7  UNL     1     128.709  34.416 -24.329  1.00  0.00     0.034 A 
HETATM   13  C6  UNL     1     129.679  35.153 -24.945  1.00  0.00     0.065 A 
HETATM   14  C5  UNL     1     131.034  34.830 -25.031  1.00  0.00     0.102 A 
HETATM   15  N6  UNL     1     131.417  33.639 -24.419  1.00  0.00    -0.350 N 
HETATM   16  C24 UNL     1     130.460  32.929 -23.817  1.00  0.00     0.133 A 
ATOM     17  H6  UNL     1     132.387  33.324 -24.430  1.00  0.00     0.166 HD
HETATM   18  C23 UNL     1     129.134  33.234 -23.728  1.00  0.00     0.144 A 
HETATM   19  F1  UNL     1     128.273  32.405 -23.057  1.00  0.00    -0.204 F 
BRANCH  14  20
HETATM   20  N1  UNL     1     131.852  35.538 -25.646  1.00  0.00    -0.370 N 
ATOM     21  H1  UNL     1     132.634  35.712 -25.015  1.00  0.00     0.161 HD
BRANCH  20  22
HETATM   22  C3  UNL     1     132.129  36.174 -26.812  1.00  0.00     0.106 C 
BRANCH  22  23
HETATM   23  C2  UNL     1     131.325  37.393 -27.180  1.00  0.00     0.023 C 
HETATM   24  C1  UNL     1     131.174  38.342 -25.999  1.00  0.00     0.007 C 
ENDBRANCH  22  23
BRANCH  22  25
HETATM   25  C4  UNL     1     131.904  35.164 -27.974  1.00  0.00     0.189 C 
BRANCH  25  26
HETATM   26  O1  UNL     1     133.084  34.748 -28.534  1.00  0.00    -0.399 OA
ATOM     27  H1  UNL     1     132.969  34.435 -29.423  1.00  0.00     0.209 HD
ENDBRANCH  25  26
ENDBRANCH  22  25
ENDBRANCH  20  22
ENDBRANCH  14  20
ENDBRANCH   1  12
BRANCH   8  28
HETATM   28  C12 UNL     1     122.827  33.928 -23.595  1.00  0.00     0.040 C 
HETATM   29  C13 UNL     1     121.855  33.205 -24.514  1.00  0.00     0.011 C 
HETATM   30  C14 UNL     1     120.984  32.594 -23.357  1.00  0.00     0.007 C 
HETATM   31  C15 UNL     1     120.572  33.869 -22.664  1.00  0.00     0.015 C 
HETATM   32  C21 UNL     1     121.749  34.800 -22.855  1.00  0.00     0.017 C 
BRANCH  31  33
HETATM   33  C16 UNL     1     120.306  33.730 -21.196  1.00  0.00     0.277 C 
BRANCH  33  34
HETATM   34  N4  UNL     1     121.533  33.373 -20.440  1.00  0.00     0.092 N 
HETATM   35  C17 UNL     1     121.458  32.003 -19.969  1.00  0.00     0.298 C 
HETATM   36  C18 UNL     1     120.392  31.806 -18.940  1.00  0.00     0.198 C 
HETATM   37  O2  UNL     1     120.711  32.582 -17.815  1.00  0.00    -0.388 OA
HETATM   38  C19 UNL     1     120.696  33.904 -18.168  1.00  0.00     0.198 C 
HETATM   39  C20 UNL     1     121.630  34.237 -19.272  1.00  0.00     0.298 C 
ENDBRANCH  33  34
ENDBRANCH  31  33
ENDBRANCH   8  28
TORSDOF 9
ENDMDL
MODEL 2
REMARK VINA RESULT: -8.987371373      1.074      1.354
REMARK  9 active torsions:
REMARK  status: ('A' for Active; 'I' for Inactive)
REMARK    1  A    between atoms: C2_2  and  C3_3 
REMARK    2  A    between atoms: C3_3  and  C4_4 
REMARK    3  A    between atoms: C3_3  and  N1_7 
REMARK    4  A    between atoms: C4_4  and  O1_5 
REMARK    5  A    between atoms: N1_7  and  C5_9 
REMARK    6  A    between atoms: C7_11  and  C8_12 
REMARK    7  A    between atoms: C11_19  and  C12_20 
REMARK    8  A    between atoms: C15_23  and  C16_24 
REMARK    9  A    between atoms: C16_24  and  N4_25 
ROOT
HETATM    1  C8  UNL     1     127.274  34.693 -24.308  1.00  0.00     0.048 A 
HETATM    2  C9  UNL     1     126.889  35.867 -24.976  1.00  0.00     0.063 A 
HETATM    3  C10 UNL     1     125.510  35.958 -24.977  1.00  0.00     0.079 A 
HETATM    4  N2  UNL     1     124.425  36.635 -25.394  1.00  0.00    -0.298 N 
ATOM      5  H2  UNL     1     124.425  37.509 -25.919  1.00  0.00     0.187 HD
HETATM    6  N3  UNL     1     123.338  35.951 -24.993  1.00  0.00    -0.302 N 
ATOM      7  H3  UNL     1     122.377  36.238 -25.177  1.00  0.00     0.186 HD
HETATM    8  C11 UNL     1     123.683  34.838 -24.317  1.00  0.00     0.059 A 
HETATM    9  C22 UNL     1     125.061  34.841 -24.306  1.00  0.00     0.085 A 
HETATM   10  N5  UNL     1     126.141  34.115 -23.921  1.00  0.00    -0.352 N 
ATOM     11  H5  UNL     1     126.089  33.238 -23.403  1.00  0.00     0.166 HD
ENDROOT
BRANCH   1  12
HETATM   12  C7  UNL     1     128.663  34.266 -24.208  1.00  0.00     0.034 A 
HETATM   13  C6  UNL     1     129.677  35.023 -24.720  1.00  0.00     0.065 A 
HETATM   14  C5  UNL     1     131.028  34.673 -24.768  1.00  0.00     0.102 A 
HETATM   15  N6  UNL     1     131.354  33.430 -24.233  1.00  0.00    -0.350 N 
HETATM   16  C24 UNL     1     130.355  32.700 -23.733  1.00  0.00     0.133 A 
ATOM     17  H6  UNL     1     132.317  33.092 -24.224  1.00  0.00     0.166 HD
HETATM   18  C23 UNL     1     129.032  33.031 -23.681  1.00  0.00     0.144 A 
HETATM   19  F1  UNL     1     128.122  32.176 -23.117  1.00  0.00    -0.204 F 
BRANCH  14  20
HETATM   20  N1  UNL     1     131.889  35.405 -25.288  1.00  0.00    -0.370 N 
ATOM     21  H1  UNL     1     132.749  34.860 -25.352  1.00  0.00     0.161 HD
BRANCH  20  22
HETATM   22  C3  UNL     1     132.154  36.631 -25.805  1.00  0.00     0.106 C 
BRANCH  22  23
HETATM   23  C2  UNL     1     132.473  36.744 -27.272  1.00  0.00     0.023 C 
HETATM   24  C1  UNL     1     131.892  35.580 -28.063  1.00  0.00     0.007 C 
ENDBRANCH  22  23
BRANCH  22  25
HETATM   25  C4  UNL     1     133.397  37.205 -25.065  1.00  0.00     0.189 C 
BRANCH  25  26
HETATM   26  O1  UNL     1     133.225  37.232 -23.706  1.00  0.00    -0.399 OA
ATOM     27  H1  UNL     1     132.416  37.661 -23.455  1.00  0.00     0.209 HD
ENDBRANCH  25  26
ENDBRANCH  22  25
ENDBRANCH  20  22
ENDBRANCH  14  20
ENDBRANCH   1  12
BRANCH   8  28
HETATM   28  C12 UNL     1     122.753  33.943 -23.623  1.00  0.00     0.040 C 
HETATM   29  C13 UNL     1     121.724  33.324 -24.555  1.00  0.00     0.011 C 
HETATM   30  C14 UNL     1     120.836  32.715 -23.410  1.00  0.00     0.007 C 
HETATM   31  C15 UNL     1     120.514  33.979 -22.653  1.00  0.00     0.015 C 
HETATM   32  C21 UNL     1     121.742  34.845 -22.825  1.00  0.00     0.017 C 
BRANCH  31  33
HETATM   33  C16 UNL     1     120.263  33.790 -21.189  1.00  0.00     0.277 C 
BRANCH  33  34
HETATM   34  N4  UNL     1     121.499  33.415 -20.457  1.00  0.00     0.092 N 
HETATM   35  C17 UNL     1     121.427  32.035 -20.015  1.00  0.00     0.298 C 
HETATM   36  C18 UNL     1     120.375  31.818 -18.976  1.00  0.00     0.198 C 
HETATM   37  O2  UNL     1     120.710  32.569 -17.839  1.00  0.00    -0.388 OA
HETATM   38  C19 UNL     1     120.693  33.898 -18.163  1.00  0.00     0.198 C 
HETATM   39  C20 UNL     1     121.612  34.254 -19.271  1.00  0.00     0.298 C 
ENDBRANCH  33  34
ENDBRANCH  31  33
ENDBRANCH   8  28
TORSDOF 9
ENDMDL
MODEL 3
REMARK VINA RESULT: -8.903153900      1.997      2.943
REMARK  9 active torsions:
REMARK  status: ('A' for Active; 'I' for Inactive)
REMARK    1  A    between atoms: C2_2  and  C3_3 
REMARK    2  A    between atoms: C3_3  and  C4_4 
REMARK    3  A    between atoms: C3_3  and  N1_7 
REMARK    4  A    between atoms: C4_4  and  O1_5 
REMARK    5  A    between atoms: N1_7  and  C5_9 
REMARK    6  A    between atoms: C7_11  and  C8_12 
REMARK    7  A    between atoms: C11_19  and  C12_20 
REMARK    8  A    between atoms: C15_23  and  C16_24 
REMARK    9  A    between atoms: C16_24  and  N4_25 
ROOT
HETATM    1  C8  UNL     1     128.210  35.318 -24.449  1.00  0.00     0.048 A 
HETATM    2  C9  UNL     1     128.778  34.050 -24.249  1.00  0.00     0.063 A 
HETATM    3  C10 UNL     1     127.795  33.172 -23.834  1.00  0.00     0.079 A 
HETATM    4  N2  UNL     1     127.498  31.931 -23.409  1.00  0.00    -0.298 N 
ATOM      5  H2  UNL     1     128.149  31.149 -23.331  1.00  0.00     0.187 HD
HETATM    6  N3  UNL     1     126.188  31.906 -23.105  1.00  0.00    -0.302 N 
ATOM      7  H3  UNL     1     125.694  31.085 -22.754  1.00  0.00     0.186 HD
HETATM    8  C11 UNL     1     125.613  33.104 -23.324  1.00  0.00     0.059 A 
HETATM    9  C22 UNL     1     126.632  33.909 -23.787  1.00  0.00     0.085 A 
HETATM   10  N5  UNL     1     126.919  35.181 -24.162  1.00  0.00    -0.352 N 
ATOM     11  H5  UNL     1     126.233  35.933 -24.216  1.00  0.00     0.166 HD
ENDROOT
BRANCH   1  12
HETATM   12  C7  UNL     1     129.003  36.486 -24.811  1.00  0.00     0.034 A 
HETATM   13  C6  UNL     1     129.935  36.430 -25.807  1.00  0.00     0.065 A 
HETATM   14  C5  UNL     1     130.815  37.449 -26.175  1.00  0.00     0.102 A 
HETATM   15  N6  UNL     1     130.715  38.633 -25.447  1.00  0.00    -0.350 N 
HETATM   16  C24 UNL     1     129.798  38.676 -24.478  1.00  0.00     0.133 A 
ATOM     17  H6  UNL     1     131.316  39.432 -25.647  1.00  0.00     0.166 HD
HETATM   18  C23 UNL     1     128.934  37.687 -24.110  1.00  0.00     0.144 A 
HETATM   19  F1  UNL     1     128.032  37.891 -23.099  1.00  0.00    -0.204 F 
BRANCH  14  20
HETATM   20  N1  UNL     1     131.665  37.306 -27.072  1.00  0.00    -0.370 N 
ATOM     21  H1  UNL     1     131.444  37.979 -27.806  1.00  0.00     0.161 HD
BRANCH  20  22
HETATM   22  C3  UNL     1     132.766  36.623 -27.473  1.00  0.00     0.106 C 
BRANCH  22  23
HETATM   23  C2  UNL     1     133.816  37.348 -28.274  1.00  0.00     0.023 C 
HETATM   24  C1  UNL     1     134.263  38.628 -27.583  1.00  0.00     0.007 C 
ENDBRANCH  22  23
BRANCH  22  25
HETATM   25  C4  UNL     1     132.296  35.446 -28.377  1.00  0.00     0.189 C 
BRANCH  25  26
HETATM   26  O1  UNL     1     133.335  34.637 -28.756  1.00  0.00    -0.399 OA
ATOM     27  H1  UNL     1     133.085  33.722 -28.785  1.00  0.00     0.209 HD
ENDBRANCH  25  26
ENDBRANCH  22  25
ENDBRANCH  20  22
ENDBRANCH  14  20
ENDBRANCH   1  12
BRANCH   8  28
HETATM   28  C12 UNL     1     124.179  33.387 -23.231  1.00  0.00     0.040 C 
HETATM   29  C13 UNL     1     123.695  34.340 -24.313  1.00  0.00     0.011 C 
HETATM   30  C14 UNL     1     122.268  34.559 -23.689  1.00  0.00     0.007 C 
HETATM   31  C15 UNL     1     122.674  35.088 -22.335  1.00  0.00     0.015 C 
HETATM   32  C21 UNL     1     123.973  34.376 -22.026  1.00  0.00     0.017 C 
BRANCH  31  33
HETATM   33  C16 UNL     1     121.701  34.806 -21.232  1.00  0.00     0.277 C 
BRANCH  33  34
HETATM   34  N4  UNL     1     122.254  33.863 -20.229  1.00  0.00     0.092 N 
HETATM   35  C17 UNL     1     121.748  32.522 -20.460  1.00  0.00     0.298 C 
HETATM   36  C18 UNL     1     120.278  32.413 -20.211  1.00  0.00     0.198 C 
HETATM   37  O2  UNL     1     120.035  32.687 -18.856  1.00  0.00    -0.388 OA
HETATM   38  C19 UNL     1     120.396  33.980 -18.593  1.00  0.00     0.198 C 
HETATM   39  C20 UNL     1     121.816  34.278 -18.904  1.00  0.00     0.298 C 
ENDBRANCH  33  34
ENDBRANCH  31  33
ENDBRANCH   8  28
TORSDOF 9
ENDMDL
MODEL 4
REMARK VINA RESULT: -8.765709181      1.032      1.415
REMARK  9 active torsions:
REMARK  status: ('A' for Active; 'I' for Inactive)
REMARK    1  A    between atoms: C2_2  and  C3_3 
REMARK    2  A    between atoms: C3_3  and  C4_4 
REMARK    3  A    between atoms: C3_3  and  N1_7 
REMARK    4  A    between atoms: C4_4  and  O1_5 
REMARK    5  A    between atoms: N1_7  and  C5_9 
REMARK    6  A    between atoms: C7_11  and  C8_12 
REMARK    7  A    between atoms: C11_19  and  C12_20 
REMARK    8  A    between atoms: C15_23  and  C16_24 
REMARK    9  A    between atoms: C16_24  and  N4_25 
ROOT
HETATM    1  C8  UNL     1     127.343  34.664 -24.324  1.00  0.00     0.048 A 
HETATM    2  C9  UNL     1     126.828  35.849 -24.873  1.00  0.00     0.063 A 
HETATM    3  C10 UNL     1     125.447  35.807 -24.833  1.00  0.00     0.079 A 
HETATM    4  N2  UNL     1     124.291  36.410 -25.160  1.00  0.00    -0.298 N 
ATOM      5  H2  UNL     1     124.192  37.323 -25.604  1.00  0.00     0.187 HD
HETATM    6  N3  UNL     1     123.286  35.591 -24.797  1.00  0.00    -0.302 N 
ATOM      7  H3  UNL     1     122.297  35.800 -24.932  1.00  0.00     0.186 HD
HETATM    8  C11 UNL     1     123.756  34.462 -24.234  1.00  0.00     0.059 A 
HETATM    9  C22 UNL     1     125.128  34.597 -24.255  1.00  0.00     0.085 A 
HETATM   10  N5  UNL     1     126.282  33.947 -23.965  1.00  0.00    -0.352 N 
ATOM     11  H5  UNL     1     126.330  33.027 -23.527  1.00  0.00     0.166 HD
ENDROOT
BRANCH   1  12
HETATM   12  C7  UNL     1     128.769  34.366 -24.296  1.00  0.00     0.034 A 
HETATM   13  C6  UNL     1     129.678  35.191 -24.893  1.00  0.00     0.065 A 
HETATM   14  C5  UNL     1     131.050  34.961 -25.013  1.00  0.00     0.102 A 
HETATM   15  N6  UNL     1     131.519  33.772 -24.461  1.00  0.00    -0.350 N 
HETATM   16  C24 UNL     1     130.621  32.975 -23.878  1.00  0.00     0.133 A 
ATOM     17  H6  UNL     1     132.507  33.521 -24.500  1.00  0.00     0.166 HD
HETATM   18  C23 UNL     1     129.279  33.189 -23.755  1.00  0.00     0.144 A 
HETATM   19  F1  UNL     1     128.485  32.278 -23.109  1.00  0.00    -0.204 F 
BRANCH  14  20
HETATM   20  N1  UNL     1     131.809  35.747 -25.608  1.00  0.00    -0.370 N 
ATOM     21  H1  UNL     1     132.076  36.471 -24.940  1.00  0.00     0.161 HD
BRANCH  20  22
HETATM   22  C3  UNL     1     132.428  36.036 -26.780  1.00  0.00     0.106 C 
BRANCH  22  23
HETATM   23  C2  UNL     1     132.540  37.477 -27.203  1.00  0.00     0.023 C 
HETATM   24  C1  UNL     1     133.970  37.842 -27.576  1.00  0.00     0.007 C 
ENDBRANCH  22  23
BRANCH  22  25
HETATM   25  C4  UNL     1     131.644  35.329 -27.923  1.00  0.00     0.189 C 
BRANCH  25  26
HETATM   26  O1  UNL     1     132.461  34.956 -28.957  1.00  0.00    -0.399 OA
ATOM     27  H1  UNL     1     132.702  34.038 -28.911  1.00  0.00     0.209 HD
ENDBRANCH  25  26
ENDBRANCH  22  25
ENDBRANCH  20  22
ENDBRANCH  14  20
ENDBRANCH   1  12
BRANCH   8  28
HETATM   28  C12 UNL     1     122.938  33.424 -23.602  1.00  0.00     0.040 C 
HETATM   29  C13 UNL     1     121.569  33.277 -24.249  1.00  0.00     0.011 C 
HETATM   30  C14 UNL     1     120.985  32.324 -23.143  1.00  0.00     0.007 C 
HETATM   31  C15 UNL     1     121.166  33.211 -21.937  1.00  0.00     0.015 C 
HETATM   32  C21 UNL     1     122.421  34.002 -22.235  1.00  0.00     0.017 C 
BRANCH  31  33
HETATM   33  C16 UNL     1     121.357  32.482 -20.642  1.00  0.00     0.277 C 
BRANCH  33  34
HETATM   34  N4  UNL     1     120.230  32.712 -19.704  1.00  0.00     0.092 N 
HETATM   35  C17 UNL     1     120.546  32.179 -18.392  1.00  0.00     0.298 C 
HETATM   36  C18 UNL     1     120.653  30.688 -18.388  1.00  0.00     0.198 C 
HETATM   37  O2  UNL     1     119.403  30.151 -18.729  1.00  0.00    -0.388 OA
HETATM   38  C19 UNL     1     119.090  30.532 -20.005  1.00  0.00     0.198 C 
HETATM   39  C20 UNL     1     119.058  32.002 -20.198  1.00  0.00     0.298 C 
ENDBRANCH  33  34
ENDBRANCH  31  33
ENDBRANCH   8  28
TORSDOF 9
ENDMDL
MODEL 5
REMARK VINA RESULT: -8.728910646      1.039      1.395
REMARK  9 active torsions:
REMARK  status: ('A' for Active; 'I' for Inactive)
REMARK    1  A    between atoms: C2_2  and  C3_3 
REMARK    2  A    between atoms: C3_3  and  C4_4 
REMARK    3  A    between atoms: C3_3  and  N1_7 
REMARK    4  A    between atoms: C4_4  and  O1_5 
REMARK    5  A    between atoms: N1_7  and  C5_9 
REMARK    6  A    between atoms: C7_11  and  C8_12 
REMARK    7  A    between atoms: C11_19  and  C12_20 
REMARK    8  A    between atoms: C15_23  and  C16_24 
REMARK    9  A    between atoms: C16_24  and  N4_25 
ROOT
HETATM    1  C8  UNL     1     127.213  35.175 -24.536  1.00  0.00     0.048 A 
HETATM    2  C9  UNL     1     126.932  36.360 -25.236  1.00  0.00     0.063 A 
HETATM    3  C10 UNL     1     125.566  36.569 -25.247  1.00  0.00     0.079 A 
HETATM    4  N2  UNL     1     124.545  37.325 -25.687  1.00  0.00    -0.298 N 
ATOM      5  H2  UNL     1     124.622  38.182 -26.234  1.00  0.00     0.187 HD
HETATM    6  N3  UNL     1     123.402  36.747 -25.275  1.00  0.00    -0.302 N 
ATOM      7  H3  UNL     1     122.469  37.111 -25.472  1.00  0.00     0.186 HD
HETATM    8  C11 UNL     1     123.647  35.627 -24.569  1.00  0.00     0.059 A 
HETATM    9  C22 UNL     1     125.021  35.512 -24.550  1.00  0.00     0.085 A 
HETATM   10  N5  UNL     1     126.033  34.706 -24.141  1.00  0.00    -0.352 N 
ATOM     11  H5  UNL     1     125.904  33.850 -23.601  1.00  0.00     0.166 HD
ENDROOT
BRANCH   1  12
HETATM   12  C7  UNL     1     128.560  34.634 -24.417  1.00  0.00     0.034 A 
HETATM   13  C6  UNL     1     129.627  35.251 -25.002  1.00  0.00     0.065 A 
HETATM   14  C5  UNL     1     130.940  34.777 -25.037  1.00  0.00     0.102 A 
HETATM   15  N6  UNL     1     131.165  33.557 -24.404  1.00  0.00    -0.350 N 
HETATM   16  C24 UNL     1     130.114  32.965 -23.833  1.00  0.00     0.133 A 
ATOM     17  H6  UNL     1     132.093  33.135 -24.378  1.00  0.00     0.166 HD
HETATM   18  C23 UNL     1     128.827  33.417 -23.794  1.00  0.00     0.144 A 
HETATM   19  F1  UNL     1     127.856  32.698 -23.149  1.00  0.00    -0.204 F 
BRANCH  14  20
HETATM   20  N1  UNL     1     131.853  35.383 -25.626  1.00  0.00    -0.370 N 
ATOM     21  H1  UNL     1     132.686  35.317 -25.040  1.00  0.00     0.161 HD
BRANCH  20  22
HETATM   22  C3  UNL     1     132.196  36.095 -26.729  1.00  0.00     0.106 C 
BRANCH  22  23
HETATM   23  C2  UNL     1     131.483  37.393 -27.002  1.00  0.00     0.023 C 
HETATM   24  C1  UNL     1     131.599  38.354 -25.827  1.00  0.00     0.007 C 
ENDBRANCH  22  23
BRANCH  22  25
HETATM   25  C4  UNL     1     131.926  35.204 -27.977  1.00  0.00     0.189 C 
BRANCH  25  26
HETATM   26  O1  UNL     1     133.085  34.730 -28.534  1.00  0.00    -0.399 OA
ATOM     27  H1  UNL     1     133.540  34.128 -27.959  1.00  0.00     0.209 HD
ENDBRANCH  25  26
ENDBRANCH  22  25
ENDBRANCH  20  22
ENDBRANCH  14  20
ENDBRANCH   1  12
BRANCH   8  28
HETATM   28  C12 UNL     1     122.642  34.833 -23.858  1.00  0.00     0.040 C 
HETATM   29  C13 UNL     1     121.307  35.550 -23.730  1.00  0.00     0.011 C 
HETATM   30  C14 UNL     1     120.680  34.516 -22.726  1.00  0.00     0.007 C 
HETATM   31  C15 UNL     1     121.700  34.603 -21.618  1.00  0.00     0.015 C 
HETATM   32  C21 UNL     1     123.007  34.875 -22.329  1.00  0.00     0.017 C 
BRANCH  31  33
HETATM   33  C16 UNL     1     121.851  33.357 -20.801  1.00  0.00     0.277 C 
BRANCH  33  34
HETATM   34  N4  UNL     1     120.714  32.423 -20.997  1.00  0.00     0.092 N 
HETATM   35  C17 UNL     1     119.873  32.392 -19.814  1.00  0.00     0.298 C 
HETATM   36  C18 UNL     1     120.565  31.794 -18.633  1.00  0.00     0.198 C 
HETATM   37  O2  UNL     1     120.866  30.455 -18.925  1.00  0.00    -0.388 OA
HETATM   38  C19 UNL     1     121.745  30.415 -19.973  1.00  0.00     0.198 C 
HETATM   39  C20 UNL     1     121.241  31.080 -21.199  1.00  0.00     0.298 C 
ENDBRANCH  33  34
ENDBRANCH  31  33
ENDBRANCH   8  28
TORSDOF 9
ENDMDL
