MODEL 1
REMARK VINA RESULT: -9.919298019      0.000      0.000
REMARK  8 active torsions:
REMARK  status: ('A' for Active; 'I' for Inactive)
REMARK    1  A    between atoms: C3_3  and  C4_4 
REMARK    2  A    between atoms: C4_4  and  N1_5 
REMARK       I    between atoms: N1_5  and  C5_7 
REMARK    3  A    between atoms: C5_7  and  C6_9 
REMARK    4  A    between atoms: N2_13  and  C10_14 
REMARK    5  A    between atoms: C15_21  and  O2_22 
REMARK    6  A    between atoms: N4_26  and  C18_27 
REMARK    7  A    between atoms: C18_27  and  C20_29 
REMARK    8  A    between atoms: C20_29  and  O3_30 
ROOT
HETATM    1  C6  UNL     1     -86.887 -12.090   8.970  1.00  0.00     0.104 A 
HETATM    2  C7  UNL     1     -85.662 -11.505   9.403  1.00  0.00     0.054 A 
HETATM    3  C8  UNL     1     -84.932 -11.193   8.306  1.00  0.00     0.058 A 
HETATM    4  C9  UNL     1     -85.624 -11.546   7.194  1.00  0.00     0.034 A 
HETATM    5  N2  UNL     1     -86.835 -12.095   7.656  1.00  0.00    -0.341 N 
HETATM    6  C13 UNL     1     -85.285 -11.460   5.748  1.00  0.00     0.117 C 
HETATM    7  C14 UNL     1     -83.847 -11.636   5.425  1.00  0.00     0.044 A 
HETATM    8  N3  UNL     1     -83.465 -12.217   4.227  1.00  0.00    -0.338 N 
ATOM      9  H3  UNL     1     -84.108 -12.565   3.515  1.00  0.00     0.168 HD
HETATM   10  C15 UNL     1     -82.137 -12.254   4.140  1.00  0.00     0.142 A 
HETATM   11  C16 UNL     1     -81.628 -11.697   5.285  1.00  0.00     0.087 A 
HETATM   12  C17 UNL     1     -82.684 -11.317   6.075  1.00  0.00     0.065 A 
HETATM   13  N4  UNL     1     -82.542 -10.704   7.351  1.00  0.00    -0.305 N 
HETATM   14  C21 UNL     1     -83.602 -10.564   8.331  1.00  0.00     0.261 C 
HETATM   15  O4  UNL     1     -83.409  -9.838   9.328  1.00  0.00    -0.267 OA
ENDROOT
BRANCH   1  16
HETATM   16  C5  UNL     1     -87.866 -12.519   9.980  1.00  0.00     0.268 C 
HETATM   17  N1  UNL     1     -87.870 -13.930  10.333  1.00  0.00    -0.351 N 
ATOM     18  H1  UNL     1     -87.211 -14.573   9.893  1.00  0.00     0.163 HD
HETATM   19  O1  UNL     1     -88.699 -11.843  10.587  1.00  0.00    -0.266 OA
BRANCH  17  20
HETATM   20  C4  UNL     1     -88.800 -14.404  11.296  1.00  0.00     0.162 C 
BRANCH  20  21
HETATM   21  C3  UNL     1     -90.008 -15.054  10.783  1.00  0.00    -0.028 A 
HETATM   22  C2  UNL     1     -91.148 -15.007  11.556  1.00  0.00    -0.012 A 
HETATM   23  C1  UNL     1     -91.161 -14.279  12.870  1.00  0.00     0.052 C 
HETATM   24  C25 UNL     1     -92.285 -15.650  11.088  1.00  0.00     0.164 A 
HETATM   25  C24 UNL     1     -92.323 -16.327   9.899  1.00  0.00     0.193 A 
HETATM   26  F3  UNL     1     -93.389 -15.577  11.885  1.00  0.00    -0.202 F 
HETATM   27  C23 UNL     1     -91.174 -16.362   9.143  1.00  0.00     0.158 A 
HETATM   28  F2  UNL     1     -93.479 -16.916   9.538  1.00  0.00    -0.200 F 
HETATM   29  C22 UNL     1     -90.007 -15.720   9.589  1.00  0.00     0.055 A 
HETATM   30  F1  UNL     1     -91.193 -17.029   7.955  1.00  0.00    -0.203 F 
ENDBRANCH  20  21
ENDBRANCH  17  20
ENDBRANCH   1  16
BRANCH   5  31
HETATM   31  C10 UNL     1     -87.810 -12.474   6.663  1.00  0.00     0.082 C 
HETATM   32  C11 UNL     1     -88.237 -11.187   5.883  1.00  0.00     0.032 C 
HETATM   33  C12 UNL     1     -89.100 -13.045   7.117  1.00  0.00     0.032 C 
ENDBRANCH   5  31
BRANCH  13  34
HETATM   34  C18 UNL     1     -81.276 -10.169   7.715  1.00  0.00     0.113 C 
HETATM   35  C19 UNL     1     -80.142 -11.182   7.754  1.00  0.00     0.035 C 
BRANCH  34  36
HETATM   36  C20 UNL     1     -80.903  -8.875   7.065  1.00  0.00     0.189 C 
BRANCH  36  37
HETATM   37  O3  UNL     1     -81.473  -7.785   7.765  1.00  0.00    -0.399 OA
ATOM     38  H3  UNL     1     -82.226  -7.445   7.296  1.00  0.00     0.209 HD
ENDBRANCH  36  37
ENDBRANCH  34  36
ENDBRANCH  13  34
BRANCH  10  39
HETATM   39  O2  UNL     1     -81.414 -12.763   3.089  1.00  0.00    -0.346 OA
ATOM     40  H2  UNL     1     -81.347 -13.679   2.851  1.00  0.00     0.219 HD
ENDBRANCH  10  39
TORSDOF 8
ENDMDL
MODEL 2
REMARK VINA RESULT: -9.833715002      0.698      1.010
REMARK  8 active torsions:
REMARK  status: ('A' for Active; 'I' for Inactive)
REMARK    1  A    between atoms: C3_3  and  C4_4 
REMARK    2  A    between atoms: C4_4  and  N1_5 
REMARK       I    between atoms: N1_5  and  C5_7 
REMARK    3  A    between atoms: C5_7  and  C6_9 
REMARK    4  A    between atoms: N2_13  and  C10_14 
REMARK    5  A    between atoms: C15_21  and  O2_22 
REMARK    6  A    between atoms: N4_26  and  C18_27 
REMARK    7  A    between atoms: C18_27  and  C20_29 
REMARK    8  A    between atoms: C20_29  and  O3_30 
ROOT
HETATM    1  C6  UNL     1     -86.867 -12.091   8.978  1.00  0.00     0.104 A 
HETATM    2  C7  UNL     1     -85.631 -11.529   9.411  1.00  0.00     0.054 A 
HETATM    3  C8  UNL     1     -84.899 -11.224   8.314  1.00  0.00     0.058 A 
HETATM    4  C9  UNL     1     -85.600 -11.558   7.202  1.00  0.00     0.034 A 
HETATM    5  N2  UNL     1     -86.819 -12.090   7.664  1.00  0.00    -0.341 N 
HETATM    6  C13 UNL     1     -85.264 -11.470   5.755  1.00  0.00     0.117 C 
HETATM    7  C14 UNL     1     -83.831 -11.668   5.427  1.00  0.00     0.044 A 
HETATM    8  N3  UNL     1     -83.462 -12.249   4.225  1.00  0.00    -0.338 N 
ATOM      9  H3  UNL     1     -84.113 -12.582   3.513  1.00  0.00     0.168 HD
HETATM   10  C15 UNL     1     -82.135 -12.308   4.133  1.00  0.00     0.142 A 
HETATM   11  C16 UNL     1     -81.613 -11.766   5.280  1.00  0.00     0.087 A 
HETATM   12  C17 UNL     1     -82.660 -11.373   6.076  1.00  0.00     0.065 A 
HETATM   13  N4  UNL     1     -82.504 -10.770   7.354  1.00  0.00    -0.305 N 
HETATM   14  C21 UNL     1     -83.559 -10.617   8.339  1.00  0.00     0.261 C 
HETATM   15  O4  UNL     1     -83.351  -9.901   9.339  1.00  0.00    -0.267 OA
ENDROOT
BRANCH   1  16
HETATM   16  C5  UNL     1     -87.850 -12.509   9.989  1.00  0.00     0.268 C 
HETATM   17  N1  UNL     1     -87.855 -13.917  10.358  1.00  0.00    -0.351 N 
ATOM     18  H1  UNL     1     -87.194 -14.564   9.929  1.00  0.00     0.163 HD
HETATM   19  O1  UNL     1     -88.687 -11.827  10.584  1.00  0.00    -0.266 OA
BRANCH  17  20
HETATM   20  C4  UNL     1     -88.789 -14.379  11.323  1.00  0.00     0.162 C 
BRANCH  20  21
HETATM   21  C3  UNL     1     -89.994 -15.038  10.812  1.00  0.00    -0.028 A 
HETATM   22  C2  UNL     1     -91.140 -14.976  11.574  1.00  0.00    -0.012 A 
HETATM   23  C1  UNL     1     -91.163 -14.224  12.874  1.00  0.00     0.052 C 
HETATM   24  C25 UNL     1     -92.274 -15.627  11.109  1.00  0.00     0.164 A 
HETATM   25  C24 UNL     1     -92.303 -16.325   9.932  1.00  0.00     0.193 A 
HETATM   26  F3  UNL     1     -93.384 -15.538  11.895  1.00  0.00    -0.202 F 
HETATM   27  C23 UNL     1     -91.147 -16.375   9.186  1.00  0.00     0.158 A 
HETATM   28  F2  UNL     1     -93.456 -16.920   9.573  1.00  0.00    -0.200 F 
HETATM   29  C22 UNL     1     -89.983 -15.726   9.630  1.00  0.00     0.055 A 
HETATM   30  F1  UNL     1     -91.157 -17.064   8.010  1.00  0.00    -0.203 F 
ENDBRANCH  20  21
ENDBRANCH  17  20
ENDBRANCH   1  16
BRANCH   5  31
HETATM   31  C10 UNL     1     -87.804 -12.446   6.672  1.00  0.00     0.082 C 
HETATM   32  C11 UNL     1     -88.214 -11.146   5.904  1.00  0.00     0.032 C 
HETATM   33  C12 UNL     1     -89.100 -13.002   7.127  1.00  0.00     0.032 C 
ENDBRANCH   5  31
BRANCH  13  34
HETATM   34  C18 UNL     1     -81.229 -10.259   7.718  1.00  0.00     0.113 C 
HETATM   35  C19 UNL     1     -81.116  -8.742   7.690  1.00  0.00     0.035 C 
BRANCH  34  36
HETATM   36  C20 UNL     1     -80.593 -10.886   8.918  1.00  0.00     0.189 C 
BRANCH  36  37
HETATM   37  O3  UNL     1     -80.404 -12.273   8.713  1.00  0.00    -0.399 OA
ATOM     38  H3  UNL     1     -79.553 -12.440   8.323  1.00  0.00     0.209 HD
ENDBRANCH  36  37
ENDBRANCH  34  36
ENDBRANCH  13  34
BRANCH  10  39
HETATM   39  O2  UNL     1     -81.423 -12.823   3.078  1.00  0.00    -0.346 OA
ATOM     40  H2  UNL     1     -81.791 -13.247   2.312  1.00  0.00     0.219 HD
ENDBRANCH  10  39
TORSDOF 8
ENDMDL
MODEL 3
REMARK VINA RESULT: -9.429558502      1.437      1.612
REMARK  8 active torsions:
REMARK  status: ('A' for Active; 'I' for Inactive)
REMARK    1  A    between atoms: C3_3  and  C4_4 
REMARK    2  A    between atoms: C4_4  and  N1_5 
REMARK       I    between atoms: N1_5  and  C5_7 
REMARK    3  A    between atoms: C5_7  and  C6_9 
REMARK    4  A    between atoms: N2_13  and  C10_14 
REMARK    5  A    between atoms: C15_21  and  O2_22 
REMARK    6  A    between atoms: N4_26  and  C18_27 
REMARK    7  A    between atoms: C18_27  and  C20_29 
REMARK    8  A    between atoms: C20_29  and  O3_30 
ROOT
HETATM    1  C6  UNL     1     -86.503 -12.052   9.166  1.00  0.00     0.104 A 
HETATM    2  C7  UNL     1     -85.282 -11.386   9.480  1.00  0.00     0.054 A 
HETATM    3  C8  UNL     1     -84.643 -11.108   8.319  1.00  0.00     0.058 A 
HETATM    4  C9  UNL     1     -85.389 -11.559   7.280  1.00  0.00     0.034 A 
HETATM    5  N2  UNL     1     -86.537 -12.135   7.855  1.00  0.00    -0.341 N 
HETATM    6  C13 UNL     1     -85.151 -11.546   5.811  1.00  0.00     0.117 C 
HETATM    7  C14 UNL     1     -83.731 -11.675   5.400  1.00  0.00     0.044 A 
HETATM    8  N3  UNL     1     -83.400 -12.309   4.214  1.00  0.00    -0.338 N 
ATOM      9  H3  UNL     1     -84.070 -12.729   3.569  1.00  0.00     0.168 HD
HETATM   10  C15 UNL     1     -82.081 -12.290   4.038  1.00  0.00     0.142 A 
HETATM   11  C16 UNL     1     -81.525 -11.642   5.111  1.00  0.00     0.087 A 
HETATM   12  C17 UNL     1     -82.544 -11.264   5.950  1.00  0.00     0.065 A 
HETATM   13  N4  UNL     1     -82.349 -10.568   7.175  1.00  0.00    -0.305 N 
HETATM   14  C21 UNL     1     -83.348 -10.418   8.216  1.00  0.00     0.261 C 
HETATM   15  O4  UNL     1     -83.126  -9.624   9.154  1.00  0.00    -0.267 OA
ENDROOT
BRANCH   1  16
HETATM   16  C5  UNL     1     -87.390 -12.463  10.265  1.00  0.00     0.268 C 
HETATM   17  N1  UNL     1     -88.455 -11.541  10.630  1.00  0.00    -0.351 N 
ATOM     18  H1  UNL     1     -88.567 -10.660  10.129  1.00  0.00     0.163 HD
HETATM   19  O1  UNL     1     -87.364 -13.498  10.934  1.00  0.00    -0.266 OA
BRANCH  17  20
HETATM   20  C4  UNL     1     -89.337 -11.881  11.690  1.00  0.00     0.162 C 
BRANCH  20  21
HETATM   21  C3  UNL     1     -90.529 -12.655  11.335  1.00  0.00    -0.028 A 
HETATM   22  C2  UNL     1     -90.829 -13.768  12.090  1.00  0.00    -0.012 A 
HETATM   23  C1  UNL     1     -89.977 -14.156  13.265  1.00  0.00     0.052 C 
HETATM   24  C25 UNL     1     -91.939 -14.522  11.736  1.00  0.00     0.164 A 
HETATM   25  C24 UNL     1     -92.744 -14.210  10.674  1.00  0.00     0.193 A 
HETATM   26  F3  UNL     1     -92.197 -15.614  12.511  1.00  0.00    -0.202 F 
HETATM   27  C23 UNL     1     -92.427 -13.095   9.933  1.00  0.00     0.158 A 
HETATM   28  F2  UNL     1     -93.797 -15.009  10.418  1.00  0.00    -0.200 F 
HETATM   29  C22 UNL     1     -91.310 -12.311  10.266  1.00  0.00     0.055 A 
HETATM   30  F1  UNL     1     -93.218 -12.767   8.873  1.00  0.00    -0.203 F 
ENDBRANCH  20  21
ENDBRANCH  17  20
ENDBRANCH   1  16
BRANCH   5  31
HETATM   31  C10 UNL     1     -87.556 -12.617   6.955  1.00  0.00     0.082 C 
HETATM   32  C11 UNL     1     -88.200 -11.384   6.240  1.00  0.00     0.032 C 
HETATM   33  C12 UNL     1     -88.722 -13.334   7.523  1.00  0.00     0.032 C 
ENDBRANCH   5  31
BRANCH  13  34
HETATM   34  C18 UNL     1     -81.091  -9.955   7.420  1.00  0.00     0.113 C 
HETATM   35  C19 UNL     1     -79.902 -10.903   7.394  1.00  0.00     0.035 C 
BRANCH  34  36
HETATM   36  C20 UNL     1     -80.844  -8.664   6.705  1.00  0.00     0.189 C 
BRANCH  36  37
HETATM   37  O3  UNL     1     -81.364  -7.578   7.447  1.00  0.00    -0.399 OA
ATOM     38  H3  UNL     1     -80.871  -6.785   7.269  1.00  0.00     0.209 HD
ENDBRANCH  36  37
ENDBRANCH  34  36
ENDBRANCH  13  34
BRANCH  10  39
HETATM   39  O2  UNL     1     -81.404 -12.828   2.971  1.00  0.00    -0.346 OA
ATOM     40  H2  UNL     1     -81.774 -13.393   2.304  1.00  0.00     0.219 HD
ENDBRANCH  10  39
TORSDOF 8
ENDMDL
MODEL 4
REMARK VINA RESULT: -9.277542185      2.248      4.177
REMARK  8 active torsions:
REMARK  status: ('A' for Active; 'I' for Inactive)
REMARK    1  A    between atoms: C3_3  and  C4_4 
REMARK    2  A    between atoms: C4_4  and  N1_5 
REMARK       I    between atoms: N1_5  and  C5_7 
REMARK    3  A    between atoms: C5_7  and  C6_9 
REMARK    4  A    between atoms: N2_13  and  C10_14 
REMARK    5  A    between atoms: C15_21  and  O2_22 
REMARK    6  A    between atoms: N4_26  and  C18_27 
REMARK    7  A    between atoms: C18_27  and  C20_29 
REMARK    8  A    between atoms: C20_29  and  O3_30 
ROOT
HETATM    1  C6  UNL     1     -86.801 -12.237   8.430  1.00  0.00     0.104 A 
HETATM    2  C7  UNL     1     -85.687 -12.106   7.551  1.00  0.00     0.054 A 
HETATM    3  C8  UNL     1     -84.580 -11.898   8.301  1.00  0.00     0.058 A 
HETATM    4  C9  UNL     1     -84.925 -11.889   9.612  1.00  0.00     0.034 A 
HETATM    5  N2  UNL     1     -86.314 -12.107   9.644  1.00  0.00    -0.341 N 
HETATM    6  C13 UNL     1     -84.121 -11.673  10.846  1.00  0.00     0.117 C 
HETATM    7  C14 UNL     1     -82.982 -10.733  10.701  1.00  0.00     0.044 A 
HETATM    8  N3  UNL     1     -82.580  -9.951  11.772  1.00  0.00    -0.338 N 
ATOM      9  H3  UNL     1     -83.020  -9.949  12.692  1.00  0.00     0.168 HD
HETATM   10  C15 UNL     1     -81.534  -9.204  11.424  1.00  0.00     0.142 A 
HETATM   11  C16 UNL     1     -81.236  -9.485  10.115  1.00  0.00     0.087 A 
HETATM   12  C17 UNL     1     -82.130 -10.427   9.672  1.00  0.00     0.065 A 
HETATM   13  N4  UNL     1     -82.134 -10.962   8.354  1.00  0.00    -0.305 N 
HETATM   14  C21 UNL     1     -83.222 -11.718   7.764  1.00  0.00     0.261 C 
HETATM   15  O4  UNL     1     -83.031 -12.300   6.676  1.00  0.00    -0.267 OA
ENDROOT
BRANCH   1  16
HETATM   16  C5  UNL     1     -88.135 -12.473   7.856  1.00  0.00     0.268 C 
HETATM   17  N1  UNL     1     -88.906 -13.573   8.417  1.00  0.00    -0.351 N 
ATOM     18  H1  UNL     1     -88.522 -14.136   9.176  1.00  0.00     0.163 HD
HETATM   19  O1  UNL     1     -88.709 -11.861   6.953  1.00  0.00    -0.266 OA
BRANCH  17  20
HETATM   20  C4  UNL     1     -90.196 -13.854   7.896  1.00  0.00     0.162 C 
BRANCH  20  21
HETATM   21  C3  UNL     1     -91.251 -14.148   8.868  1.00  0.00    -0.028 A 
HETATM   22  C2  UNL     1     -91.532 -15.470   9.141  1.00  0.00    -0.012 A 
HETATM   23  C1  UNL     1     -90.755 -16.576   8.485  1.00  0.00     0.052 C 
HETATM   24  C25 UNL     1     -92.553 -15.752  10.037  1.00  0.00     0.164 A 
HETATM   25  C24 UNL     1     -93.290 -14.781  10.660  1.00  0.00     0.193 A 
HETATM   26  F3  UNL     1     -92.796 -17.073  10.276  1.00  0.00    -0.202 F 
HETATM   27  C23 UNL     1     -92.993 -13.468  10.373  1.00  0.00     0.158 A 
HETATM   28  F2  UNL     1     -94.257 -15.165  11.512  1.00  0.00    -0.200 F 
HETATM   29  C22 UNL     1     -91.965 -13.149   9.471  1.00  0.00     0.055 A 
HETATM   30  F1  UNL     1     -93.715 -12.486  10.984  1.00  0.00    -0.203 F 
ENDBRANCH  20  21
ENDBRANCH  17  20
ENDBRANCH   1  16
BRANCH   5  31
HETATM   31  C10 UNL     1     -86.934 -12.237  10.940  1.00  0.00     0.082 C 
HETATM   32  C11 UNL     1     -87.218 -13.754  11.195  1.00  0.00     0.032 C 
HETATM   33  C12 UNL     1     -88.252 -11.597  11.164  1.00  0.00     0.032 C 
ENDBRANCH   5  31
BRANCH  13  34
HETATM   34  C18 UNL     1     -80.991 -10.762   7.533  1.00  0.00     0.113 C 
HETATM   35  C19 UNL     1     -80.642  -9.306   7.266  1.00  0.00     0.035 C 
BRANCH  34  36
HETATM   36  C20 UNL     1     -79.804 -11.616   7.847  1.00  0.00     0.189 C 
BRANCH  36  37
HETATM   37  O3  UNL     1     -80.032 -12.952   7.443  1.00  0.00    -0.399 OA
ATOM     38  H3  UNL     1     -79.208 -13.410   7.322  1.00  0.00     0.209 HD
ENDBRANCH  36  37
ENDBRANCH  34  36
ENDBRANCH  13  34
BRANCH  10  39
HETATM   39  O2  UNL     1     -80.878  -8.311  12.236  1.00  0.00    -0.346 OA
ATOM     40  H2  UNL     1     -80.977  -8.238  13.178  1.00  0.00     0.219 HD
ENDBRANCH  10  39
TORSDOF 8
ENDMDL
MODEL 5
REMARK VINA RESULT: -9.131682615      4.741     10.298
REMARK  8 active torsions:
REMARK  status: ('A' for Active; 'I' for Inactive)
REMARK    1  A    between atoms: C3_3  and  C4_4 
REMARK    2  A    between atoms: C4_4  and  N1_5 
REMARK       I    between atoms: N1_5  and  C5_7 
REMARK    3  A    between atoms: C5_7  and  C6_9 
REMARK    4  A    between atoms: N2_13  and  C10_14 
REMARK    5  A    between atoms: C15_21  and  O2_22 
REMARK    6  A    between atoms: N4_26  and  C18_27 
REMARK    7  A    between atoms: C18_27  and  C20_29 
REMARK    8  A    between atoms: C20_29  and  O3_30 
ROOT
HETATM    1  C6  UNL     1     -86.161 -12.446   9.429  1.00  0.00     0.104 A 
HETATM    2  C7  UNL     1     -87.367 -12.999   8.909  1.00  0.00     0.054 A 
HETATM    3  C8  UNL     1     -88.368 -12.720   9.777  1.00  0.00     0.058 A 
HETATM    4  C9  UNL     1     -87.868 -12.018  10.824  1.00  0.00     0.034 A 
HETATM    5  N2  UNL     1     -86.493 -11.868  10.562  1.00  0.00    -0.341 N 
HETATM    6  C13 UNL     1     -88.509 -11.490  12.059  1.00  0.00     0.117 C 
HETATM    7  C14 UNL     1     -89.622 -12.313  12.594  1.00  0.00     0.044 A 
HETATM    8  N3  UNL     1     -89.863 -12.361  13.957  1.00  0.00    -0.338 N 
ATOM      9  H3  UNL     1     -89.316 -11.872  14.666  1.00  0.00     0.168 HD
HETATM   10  C15 UNL     1     -90.915 -13.139  14.207  1.00  0.00     0.142 A 
HETATM   11  C16 UNL     1     -91.378 -13.614  13.007  1.00  0.00     0.087 A 
HETATM   12  C17 UNL     1     -90.579 -13.104  12.014  1.00  0.00     0.065 A 
HETATM   13  N4  UNL     1     -90.754 -13.383  10.631  1.00  0.00    -0.305 N 
HETATM   14  C21 UNL     1     -89.773 -13.116   9.596  1.00  0.00     0.261 C 
HETATM   15  O4  UNL     1     -90.115 -13.222   8.400  1.00  0.00    -0.267 OA
ENDROOT
BRANCH   1  16
HETATM   16  C5  UNL     1     -84.916 -12.612   8.664  1.00  0.00     0.268 C 
HETATM   17  N1  UNL     1     -84.753 -11.777   7.483  1.00  0.00    -0.351 N 
ATOM     18  H1  UNL     1     -85.479 -11.110   7.221  1.00  0.00     0.163 HD
HETATM   19  O1  UNL     1     -83.968 -13.369   8.884  1.00  0.00    -0.266 OA
BRANCH  17  20
HETATM   20  C4  UNL     1     -83.575 -11.901   6.701  1.00  0.00     0.162 C 
BRANCH  20  21
HETATM   21  C3  UNL     1     -82.613 -10.799   6.777  1.00  0.00    -0.028 A 
HETATM   22  C2  UNL     1     -81.875 -10.503   5.652  1.00  0.00    -0.012 A 
HETATM   23  C1  UNL     1     -82.077 -11.265   4.372  1.00  0.00     0.052 C 
HETATM   24  C25 UNL     1     -80.939  -9.482   5.730  1.00  0.00     0.164 A 
HETATM   25  C24 UNL     1     -80.718  -8.759   6.871  1.00  0.00     0.193 A 
HETATM   26  F3  UNL     1     -80.233  -9.224   4.593  1.00  0.00    -0.202 F 
HETATM   27  C23 UNL     1     -81.465  -9.071   7.984  1.00  0.00     0.158 A 
HETATM   28  F2  UNL     1     -79.786  -7.788   6.839  1.00  0.00    -0.200 F 
HETATM   29  C22 UNL     1     -82.420 -10.100   7.936  1.00  0.00     0.055 A 
HETATM   30  F1  UNL     1     -81.259  -8.362   9.130  1.00  0.00    -0.203 F 
ENDBRANCH  20  21
ENDBRANCH  17  20
ENDBRANCH   1  16
BRANCH   5  31
HETATM   31  C10 UNL     1     -85.727 -11.069  11.487  1.00  0.00     0.082 C 
HETATM   32  C11 UNL     1     -84.987  -9.957  10.673  1.00  0.00     0.032 C 
HETATM   33  C12 UNL     1     -84.637 -11.719  12.253  1.00  0.00     0.032 C 
ENDBRANCH   5  31
BRANCH  13  34
HETATM   34  C18 UNL     1     -91.979 -13.961  10.200  1.00  0.00     0.113 C 
HETATM   35  C19 UNL     1     -92.830 -13.065   9.312  1.00  0.00     0.035 C 
BRANCH  34  36
HETATM   36  C20 UNL     1     -91.901 -15.377   9.725  1.00  0.00     0.189 C 
BRANCH  36  37
HETATM   37  O3  UNL     1     -91.789 -15.423   8.315  1.00  0.00    -0.399 OA
ATOM     38  H3  UNL     1     -92.410 -16.042   7.951  1.00  0.00     0.209 HD
ENDBRANCH  36  37
ENDBRANCH  34  36
ENDBRANCH  13  34
BRANCH  10  39
HETATM   39  O2  UNL     1     -91.435 -13.413  15.448  1.00  0.00    -0.346 OA
ATOM     40  H2  UNL     1     -92.094 -12.900  15.901  1.00  0.00     0.219 HD
ENDBRANCH  10  39
TORSDOF 8
ENDMDL
