MODEL 1
REMARK VINA RESULT: -7.601162045      0.000      0.000
REMARK  8 active torsions:
REMARK  status: ('A' for Active; 'I' for Inactive)
REMARK    1  A    between atoms: N1_2  and  C2_4 
REMARK    2  A    between atoms: C3_7  and  C4_8 
REMARK    3  A    between atoms: N3_10  and  C6_11 
REMARK    4  A    between atoms: C6_11  and  C7_12 
REMARK    5  A    between atoms: C7_12  and  C8_13 
REMARK    6  A    between atoms: C8_13  and  N4_14 
REMARK    7  A    between atoms: N4_14  and  C9_16 
REMARK    8  A    between atoms: C14_27  and  N7_28 
ROOT
HETATM    1  C4  UNL     1     -87.845 -17.295  11.243  1.00  0.00     0.053 A 
HETATM    2  C5  UNL     1     -88.707 -17.110  12.318  1.00  0.00     0.127 A 
HETATM    3  N3  UNL     1     -88.126 -17.486  13.469  1.00  0.00    -0.301 N 
HETATM    4  N6  UNL     1     -86.939 -17.897  13.149  1.00  0.00    -0.283 N 
ATOM      5  H6  UNL     1     -86.258 -18.249  13.823  1.00  0.00     0.189 HD
HETATM    6  C14 UNL     1     -86.704 -17.806  11.791  1.00  0.00     0.127 A 
ENDROOT
BRANCH   1   7
HETATM    7  C3  UNL     1     -88.180 -16.983   9.866  1.00  0.00     0.051 A 
HETATM    8  N2  UNL     1     -89.469 -17.229   9.468  1.00  0.00    -0.341 N 
HETATM    9  C2  UNL     1     -89.919 -16.990   8.229  1.00  0.00     0.114 A 
ATOM     10  H2  UNL     1     -90.121 -17.615  10.152  1.00  0.00     0.167 HD
HETATM   11  C17 UNL     1     -89.021 -16.469   7.321  1.00  0.00     0.036 A 
HETATM   12  C16 UNL     1     -87.717 -16.208   7.679  1.00  0.00     0.050 A 
HETATM   13  C18 UNL     1     -89.162 -16.114   5.980  1.00  0.00     0.034 A 
HETATM   14  C15 UNL     1     -87.272 -16.468   8.984  1.00  0.00     0.061 A 
HETATM   15  N8  UNL     1     -87.056 -15.710   6.620  1.00  0.00    -0.360 N 
HETATM   16  C19 UNL     1     -87.930 -15.652   5.591  1.00  0.00     0.092 A 
HETATM   17  C20 UNL     1     -85.668 -15.305   6.571  1.00  0.00     0.155 C 
BRANCH   9  18
HETATM   18  N1  UNL     1     -91.144 -17.242   7.916  1.00  0.00    -0.380 N 
HETATM   19  C1  UNL     1     -92.210 -17.003   8.866  1.00  0.00     0.147 C 
ATOM     20  H1  UNL     1     -91.365 -17.612   6.991  1.00  0.00     0.160 HD
ENDBRANCH   9  18
ENDBRANCH   1   7
BRANCH   6  21
HETATM   21  N7  UNL     1     -85.637 -18.144  11.256  1.00  0.00    -0.384 N 
ATOM     22  H72 UNL     1     -85.207 -17.633  10.484  1.00  0.00     0.157 HD
ATOM     23  H71 UNL     1     -85.018 -18.929  11.454  1.00  0.00     0.157 HD
ENDBRANCH   6  21
BRANCH   3  24
HETATM   24  C6  UNL     1     -88.743 -17.430  14.808  1.00  0.00     0.150 C 
BRANCH  24  25
HETATM   25  C7  UNL     1     -88.960 -15.970  15.105  1.00  0.00     0.041 C 
BRANCH  25  26
HETATM   26  C8  UNL     1     -87.747 -15.351  15.770  1.00  0.00     0.123 C 
BRANCH  26  27
HETATM   27  N4  UNL     1     -87.229 -14.245  14.999  1.00  0.00    -0.375 N 
ATOM     28  H4  UNL     1     -87.468 -13.303  15.308  1.00  0.00     0.161 HD
BRANCH  27  29
HETATM   29  C9  UNL     1     -86.488 -14.358  13.955  1.00  0.00     0.123 A 
HETATM   30  N5  UNL     1     -85.265 -14.900  13.946  1.00  0.00    -0.350 N 
HETATM   31  C10 UNL     1     -84.509 -15.002  12.813  1.00  0.00     0.109 A 
ATOM     32  H5  UNL     1     -84.880 -15.251  14.822  1.00  0.00     0.166 HD
HETATM   33  C11 UNL     1     -84.980 -14.542  11.601  1.00  0.00     0.028 A 
HETATM   34 BR1  UNL     1     -83.946 -14.673  10.006  1.00  0.00    -0.050 Br
HETATM   35  C12 UNL     1     -86.237 -13.981  11.587  1.00  0.00     0.048 A 
HETATM   36  C13 UNL     1     -87.005 -13.879  12.745  1.00  0.00     0.079 A 
HETATM   37 CL1  UNL     1     -88.582 -13.169  12.699  1.00  0.00    -0.080 Cl
ENDBRANCH  27  29
ENDBRANCH  26  27
ENDBRANCH  25  26
ENDBRANCH  24  25
ENDBRANCH   3  24
TORSDOF 8
ENDMDL
MODEL 2
REMARK VINA RESULT: -7.374944445      2.690      5.696
REMARK  8 active torsions:
REMARK  status: ('A' for Active; 'I' for Inactive)
REMARK    1  A    between atoms: N1_2  and  C2_4 
REMARK    2  A    between atoms: C3_7  and  C4_8 
REMARK    3  A    between atoms: N3_10  and  C6_11 
REMARK    4  A    between atoms: C6_11  and  C7_12 
REMARK    5  A    between atoms: C7_12  and  C8_13 
REMARK    6  A    between atoms: C8_13  and  N4_14 
REMARK    7  A    between atoms: N4_14  and  C9_16 
REMARK    8  A    between atoms: C14_27  and  N7_28 
ROOT
HETATM    1  C4  UNL     1     -87.939 -14.820  11.794  1.00  0.00     0.053 A 
HETATM    2  C5  UNL     1     -86.639 -15.255  11.563  1.00  0.00     0.127 A 
HETATM    3  N3  UNL     1     -85.768 -14.239  11.664  1.00  0.00    -0.301 N 
HETATM    4  N6  UNL     1     -86.476 -13.191  11.949  1.00  0.00    -0.283 N 
ATOM      5  H6  UNL     1     -86.084 -12.259  12.087  1.00  0.00     0.189 HD
HETATM    6  C14 UNL     1     -87.824 -13.482  12.042  1.00  0.00     0.127 A 
ENDROOT
BRANCH   1   7
HETATM    7  C3  UNL     1     -89.107 -15.680  11.756  1.00  0.00     0.051 A 
HETATM    8  N2  UNL     1     -89.763 -15.891  12.943  1.00  0.00    -0.341 N 
HETATM    9  C2  UNL     1     -90.854 -16.660  13.058  1.00  0.00     0.114 A 
ATOM     10  H2  UNL     1     -89.400 -15.438  13.782  1.00  0.00     0.167 HD
HETATM   11  C17 UNL     1     -91.325 -17.262  11.911  1.00  0.00     0.036 A 
HETATM   12  C16 UNL     1     -90.696 -17.078  10.700  1.00  0.00     0.050 A 
HETATM   13  C18 UNL     1     -92.414 -18.107  11.690  1.00  0.00     0.034 A 
HETATM   14  C15 UNL     1     -89.556 -16.267  10.606  1.00  0.00     0.061 A 
HETATM   15  N8  UNL     1     -91.350 -17.769   9.749  1.00  0.00    -0.360 N 
HETATM   16  C19 UNL     1     -92.389 -18.391  10.348  1.00  0.00     0.092 A 
HETATM   17  C20 UNL     1     -91.018 -17.844   8.343  1.00  0.00     0.155 C 
BRANCH   9  18
HETATM   18  N1  UNL     1     -91.426 -16.819  14.203  1.00  0.00    -0.380 N 
HETATM   19  C1  UNL     1     -90.635 -17.027  15.397  1.00  0.00     0.147 C 
ATOM     20  H1  UNL     1     -92.444 -16.797  14.267  1.00  0.00     0.160 HD
ENDBRANCH   9  18
ENDBRANCH   1   7
BRANCH   6  21
HETATM   21  N7  UNL     1     -88.691 -12.636  12.305  1.00  0.00    -0.384 N 
ATOM     22  H72 UNL     1     -88.477 -11.684  12.604  1.00  0.00     0.157 HD
ATOM     23  H71 UNL     1     -89.708 -12.701  12.279  1.00  0.00     0.157 HD
ENDBRANCH   6  21
BRANCH   3  24
HETATM   24  C6  UNL     1     -84.306 -14.330  11.482  1.00  0.00     0.150 C 
BRANCH  24  25
HETATM   25  C7  UNL     1     -84.050 -14.028  10.029  1.00  0.00     0.041 C 
BRANCH  25  26
HETATM   26  C8  UNL     1     -83.048 -14.992   9.428  1.00  0.00     0.123 C 
BRANCH  26  27
HETATM   27  N4  UNL     1     -83.707 -16.074   8.733  1.00  0.00    -0.375 N 
ATOM     28  H4  UNL     1     -83.255 -16.987   8.748  1.00  0.00     0.161 HD
BRANCH  27  29
HETATM   29  C9  UNL     1     -84.819 -15.971   8.096  1.00  0.00     0.123 A 
HETATM   30  N5  UNL     1     -85.027 -15.158   7.055  1.00  0.00    -0.350 N 
HETATM   31  C10 UNL     1     -86.225 -15.079   6.404  1.00  0.00     0.109 A 
ATOM     32  H5  UNL     1     -84.257 -14.572   6.733  1.00  0.00     0.166 HD
HETATM   33  C11 UNL     1     -87.299 -15.848   6.799  1.00  0.00     0.028 A 
HETATM   34 BR1  UNL     1     -88.981 -15.757   5.909  1.00  0.00    -0.050 Br
HETATM   35  C12 UNL     1     -87.108 -16.693   7.869  1.00  0.00     0.048 A 
HETATM   36  C13 UNL     1     -85.883 -16.771   8.530  1.00  0.00     0.079 A 
HETATM   37 CL1  UNL     1     -85.672 -17.841   9.872  1.00  0.00    -0.080 Cl
ENDBRANCH  27  29
ENDBRANCH  26  27
ENDBRANCH  25  26
ENDBRANCH  24  25
ENDBRANCH   3  24
TORSDOF 8
ENDMDL
MODEL 3
REMARK VINA RESULT: -7.319027143      2.704      4.192
REMARK  8 active torsions:
REMARK  status: ('A' for Active; 'I' for Inactive)
REMARK    1  A    between atoms: N1_2  and  C2_4 
REMARK    2  A    between atoms: C3_7  and  C4_8 
REMARK    3  A    between atoms: N3_10  and  C6_11 
REMARK    4  A    between atoms: C6_11  and  C7_12 
REMARK    5  A    between atoms: C7_12  and  C8_13 
REMARK    6  A    between atoms: C8_13  and  N4_14 
REMARK    7  A    between atoms: N4_14  and  C9_16 
REMARK    8  A    between atoms: C14_27  and  N7_28 
ROOT
HETATM    1  C4  UNL     1     -87.491 -16.750  11.000  1.00  0.00     0.053 A 
HETATM    2  C5  UNL     1     -88.242 -16.127  11.990  1.00  0.00     0.127 A 
HETATM    3  N3  UNL     1     -87.816 -16.486  13.211  1.00  0.00    -0.301 N 
HETATM    4  N6  UNL     1     -86.831 -17.306  13.017  1.00  0.00    -0.283 N 
ATOM      5  H6  UNL     1     -86.303 -17.749  13.769  1.00  0.00     0.189 HD
HETATM    6  C14 UNL     1     -86.580 -17.511  11.674  1.00  0.00     0.127 A 
ENDROOT
BRANCH   1   7
HETATM    7  C3  UNL     1     -87.705 -16.567   9.576  1.00  0.00     0.051 A 
HETATM    8  N2  UNL     1     -88.954 -16.865   9.092  1.00  0.00    -0.341 N 
HETATM    9  C2  UNL     1     -89.295 -16.744   7.801  1.00  0.00     0.114 A 
ATOM     10  H2  UNL     1     -89.660 -17.198   9.748  1.00  0.00     0.167 HD
HETATM   11  C17 UNL     1     -88.324 -16.295   6.932  1.00  0.00     0.036 A 
HETATM   12  C16 UNL     1     -87.058 -15.984   7.376  1.00  0.00     0.050 A 
HETATM   13  C18 UNL     1     -88.349 -16.062   5.556  1.00  0.00     0.034 A 
HETATM   14  C15 UNL     1     -86.727 -16.120   8.733  1.00  0.00     0.061 A 
HETATM   15  N8  UNL     1     -86.310 -15.574   6.338  1.00  0.00    -0.360 N 
HETATM   16  C19 UNL     1     -87.091 -15.620   5.236  1.00  0.00     0.092 A 
HETATM   17  C20 UNL     1     -84.925 -15.155   6.372  1.00  0.00     0.155 C 
BRANCH   9  18
HETATM   18  N1  UNL     1     -90.486 -17.041   7.408  1.00  0.00    -0.380 N 
HETATM   19  C1  UNL     1     -91.518 -16.026   7.358  1.00  0.00     0.147 C 
ATOM     20  H1  UNL     1     -90.704 -17.997   7.129  1.00  0.00     0.160 HD
ENDBRANCH   9  18
ENDBRANCH   1   7
BRANCH   6  21
HETATM   21  N7  UNL     1     -85.684 -18.257  11.251  1.00  0.00    -0.384 N 
ATOM     22  H72 UNL     1     -85.534 -18.450  10.260  1.00  0.00     0.157 HD
ATOM     23  H71 UNL     1     -84.972 -18.786  11.753  1.00  0.00     0.157 HD
ENDBRANCH   6  21
BRANCH   3  24
HETATM   24  C6  UNL     1     -88.379 -16.023  14.495  1.00  0.00     0.150 C 
BRANCH  24  25
HETATM   25  C7  UNL     1     -89.771 -15.538  14.186  1.00  0.00     0.041 C 
BRANCH  25  26
HETATM   26  C8  UNL     1     -90.771 -16.676  14.194  1.00  0.00     0.123 C 
BRANCH  26  27
HETATM   27  N4  UNL     1     -91.664 -16.602  13.061  1.00  0.00    -0.375 N 
ATOM     28  H4  UNL     1     -92.335 -15.835  13.040  1.00  0.00     0.161 HD
BRANCH  27  29
HETATM   29  C9  UNL     1     -91.677 -17.430  12.078  1.00  0.00     0.123 A 
HETATM   30  N5  UNL     1     -90.763 -18.386  11.878  1.00  0.00    -0.350 N 
HETATM   31  C10 UNL     1     -90.812 -19.248  10.820  1.00  0.00     0.109 A 
ATOM     32  H5  UNL     1     -89.997 -18.476  12.545  1.00  0.00     0.166 HD
HETATM   33  C11 UNL     1     -91.826 -19.170   9.888  1.00  0.00     0.028 A 
HETATM   34 BR1  UNL     1     -91.919 -20.359   8.403  1.00  0.00    -0.050 Br
HETATM   35  C12 UNL     1     -92.778 -18.193  10.074  1.00  0.00     0.048 A 
HETATM   36  C13 UNL     1     -92.724 -17.316  11.156  1.00  0.00     0.079 A 
HETATM   37 CL1  UNL     1     -93.933 -16.097  11.365  1.00  0.00    -0.080 Cl
ENDBRANCH  27  29
ENDBRANCH  26  27
ENDBRANCH  25  26
ENDBRANCH  24  25
ENDBRANCH   3  24
TORSDOF 8
ENDMDL
MODEL 4
REMARK VINA RESULT: -7.297232525      2.510      5.077
REMARK  8 active torsions:
REMARK  status: ('A' for Active; 'I' for Inactive)
REMARK    1  A    between atoms: N1_2  and  C2_4 
REMARK    2  A    between atoms: C3_7  and  C4_8 
REMARK    3  A    between atoms: N3_10  and  C6_11 
REMARK    4  A    between atoms: C6_11  and  C7_12 
REMARK    5  A    between atoms: C7_12  and  C8_13 
REMARK    6  A    between atoms: C8_13  and  N4_14 
REMARK    7  A    between atoms: N4_14  and  C9_16 
REMARK    8  A    between atoms: C14_27  and  N7_28 
ROOT
HETATM    1  C4  UNL     1     -88.494 -16.779   8.690  1.00  0.00     0.053 A 
HETATM    2  C5  UNL     1     -87.251 -16.668   9.303  1.00  0.00     0.127 A 
HETATM    3  N3  UNL     1     -86.346 -16.146   8.460  1.00  0.00    -0.301 N 
HETATM    4  N6  UNL     1     -86.978 -15.930   7.349  1.00  0.00    -0.283 N 
ATOM      5  H6  UNL     1     -86.545 -15.533   6.515  1.00  0.00     0.189 HD
HETATM    6  C14 UNL     1     -88.308 -16.299   7.425  1.00  0.00     0.127 A 
ENDROOT
BRANCH   1   7
HETATM    7  C3  UNL     1     -89.680 -17.307   9.339  1.00  0.00     0.051 A 
HETATM    8  N2  UNL     1     -90.100 -16.670  10.479  1.00  0.00    -0.341 N 
HETATM    9  C2  UNL     1     -91.178 -17.046  11.182  1.00  0.00     0.114 A 
ATOM     10  H2  UNL     1     -89.564 -15.867  10.810  1.00  0.00     0.167 HD
HETATM   11  C17 UNL     1     -91.886 -18.133  10.717  1.00  0.00     0.036 A 
HETATM   12  C16 UNL     1     -91.498 -18.802   9.577  1.00  0.00     0.050 A 
HETATM   13  C18 UNL     1     -93.029 -18.770  11.202  1.00  0.00     0.034 A 
HETATM   14  C15 UNL     1     -90.366 -18.387   8.859  1.00  0.00     0.061 A 
HETATM   15  N8  UNL     1     -92.350 -19.815   9.343  1.00  0.00    -0.360 N 
HETATM   16  C19 UNL     1     -93.277 -19.795  10.326  1.00  0.00     0.092 A 
HETATM   17  C20 UNL     1     -92.301 -20.760   8.249  1.00  0.00     0.155 C 
BRANCH   9  18
HETATM   18  N1  UNL     1     -91.522 -16.405  12.246  1.00  0.00    -0.380 N 
HETATM   19  C1  UNL     1     -90.911 -16.716  13.521  1.00  0.00     0.147 C 
ATOM     20  H1  UNL     1     -92.231 -15.674  12.190  1.00  0.00     0.160 HD
ENDBRANCH   9  18
ENDBRANCH   1   7
BRANCH   6  21
HETATM   21  N7  UNL     1     -89.106 -16.184   6.483  1.00  0.00    -0.384 N 
ATOM     22  H72 UNL     1     -89.595 -16.973   6.060  1.00  0.00     0.157 HD
ATOM     23  H71 UNL     1     -89.417 -15.355   5.977  1.00  0.00     0.157 HD
ENDBRANCH   6  21
BRANCH   3  24
HETATM   24  C6  UNL     1     -84.926 -15.886   8.767  1.00  0.00     0.150 C 
BRANCH  24  25
HETATM   25  C7  UNL     1     -84.855 -14.447   9.207  1.00  0.00     0.041 C 
BRANCH  25  26
HETATM   26  C8  UNL     1     -84.732 -14.331  10.712  1.00  0.00     0.123 C 
BRANCH  26  27
HETATM   27  N4  UNL     1     -85.984 -13.935  11.315  1.00  0.00    -0.375 N 
ATOM     28  H4  UNL     1     -86.532 -13.221  10.836  1.00  0.00     0.161 HD
BRANCH  27  29
HETATM   29  C9  UNL     1     -86.459 -14.415  12.409  1.00  0.00     0.123 A 
HETATM   30  N5  UNL     1     -85.882 -15.384  13.127  1.00  0.00    -0.350 N 
HETATM   31  C10 UNL     1     -86.419 -15.867  14.287  1.00  0.00     0.109 A 
ATOM     32  H5  UNL     1     -85.003 -15.781  12.795  1.00  0.00     0.166 HD
HETATM   33  C11 UNL     1     -87.606 -15.368  14.780  1.00  0.00     0.028 A 
HETATM   34 BR1  UNL     1     -88.377 -16.022  16.394  1.00  0.00    -0.050 Br
HETATM   35  C12 UNL     1     -88.218 -14.368  14.057  1.00  0.00     0.048 A 
HETATM   36  C13 UNL     1     -87.666 -13.879  12.875  1.00  0.00     0.079 A 
HETATM   37 CL1  UNL     1     -88.456 -12.623  11.985  1.00  0.00    -0.080 Cl
ENDBRANCH  27  29
ENDBRANCH  26  27
ENDBRANCH  25  26
ENDBRANCH  24  25
ENDBRANCH   3  24
TORSDOF 8
ENDMDL
MODEL 5
REMARK VINA RESULT: -7.296523404      2.448      3.630
REMARK  8 active torsions:
REMARK  status: ('A' for Active; 'I' for Inactive)
REMARK    1  A    between atoms: N1_2  and  C2_4 
REMARK    2  A    between atoms: C3_7  and  C4_8 
REMARK    3  A    between atoms: N3_10  and  C6_11 
REMARK    4  A    between atoms: C6_11  and  C7_12 
REMARK    5  A    between atoms: C7_12  and  C8_13 
REMARK    6  A    between atoms: C8_13  and  N4_14 
REMARK    7  A    between atoms: N4_14  and  C9_16 
REMARK    8  A    between atoms: C14_27  and  N7_28 
ROOT
HETATM    1  C4  UNL     1     -89.573 -15.888  13.841  1.00  0.00     0.053 A 
HETATM    2  C5  UNL     1     -89.444 -16.712  14.953  1.00  0.00     0.127 A 
HETATM    3  N3  UNL     1     -88.892 -16.046  15.980  1.00  0.00    -0.301 N 
HETATM    4  N6  UNL     1     -88.675 -14.843  15.549  1.00  0.00    -0.283 N 
ATOM      5  H6  UNL     1     -88.258 -14.103  16.113  1.00  0.00     0.189 HD
HETATM    6  C14 UNL     1     -89.073 -14.681  14.235  1.00  0.00     0.127 A 
ENDROOT
BRANCH   1   7
HETATM    7  C3  UNL     1     -90.135 -16.313  12.571  1.00  0.00     0.051 A 
HETATM    8  N2  UNL     1     -91.453 -16.693  12.571  1.00  0.00    -0.341 N 
HETATM    9  C2  UNL     1     -92.103 -17.107  11.474  1.00  0.00     0.114 A 
ATOM     10  H2  UNL     1     -91.966 -16.659  13.452  1.00  0.00     0.167 HD
HETATM   11  C17 UNL     1     -91.389 -17.145  10.295  1.00  0.00     0.036 A 
HETATM   12  C16 UNL     1     -90.064 -16.773  10.252  1.00  0.00     0.050 A 
HETATM   13  C18 UNL     1     -91.757 -17.519   9.002  1.00  0.00     0.034 A 
HETATM   14  C15 UNL     1     -89.407 -16.342  11.415  1.00  0.00     0.061 A 
HETATM   15  N8  UNL     1     -89.606 -16.901   8.995  1.00  0.00    -0.360 N 
HETATM   16  C19 UNL     1     -90.631 -17.353   8.238  1.00  0.00     0.092 A 
HETATM   17  C20 UNL     1     -88.269 -16.615   8.520  1.00  0.00     0.155 C 
BRANCH   9  18
HETATM   18  N1  UNL     1     -93.344 -17.451  11.538  1.00  0.00    -0.380 N 
HETATM   19  C1  UNL     1     -93.737 -18.826  11.317  1.00  0.00     0.147 C 
ATOM     20  H1  UNL     1     -94.054 -16.748  11.746  1.00  0.00     0.160 HD
ENDBRANCH   9  18
ENDBRANCH   1   7
BRANCH   6  21
HETATM   21  N7  UNL     1     -88.961 -13.614  13.613  1.00  0.00    -0.384 N 
ATOM     22  H72 UNL     1     -89.669 -12.879  13.623  1.00  0.00     0.157 HD
ATOM     23  H71 UNL     1     -88.209 -13.274  13.014  1.00  0.00     0.157 HD
ENDBRANCH   6  21
BRANCH   3  24
HETATM   24  C6  UNL     1     -88.604 -16.602  17.316  1.00  0.00     0.150 C 
BRANCH  24  25
HETATM   25  C7  UNL     1     -87.708 -17.790  17.087  1.00  0.00     0.041 C 
BRANCH  25  26
HETATM   26  C8  UNL     1     -86.251 -17.442  17.315  1.00  0.00     0.123 C 
BRANCH  26  27
HETATM   27  N4  UNL     1     -85.481 -17.570  16.100  1.00  0.00    -0.375 N 
ATOM     28  H4  UNL     1     -84.843 -18.362  16.029  1.00  0.00     0.161 HD
BRANCH  27  29
HETATM   29  C9  UNL     1     -85.538 -16.762  15.102  1.00  0.00     0.123 A 
HETATM   30  N5  UNL     1     -85.227 -15.462  15.158  1.00  0.00    -0.350 N 
HETATM   31  C10 UNL     1     -85.300 -14.636  14.073  1.00  0.00     0.109 A 
ATOM     32  H5  UNL     1     -84.921 -15.072  16.049  1.00  0.00     0.166 HD
HETATM   33  C11 UNL     1     -85.708 -15.111  12.845  1.00  0.00     0.028 A 
HETATM   34 BR1  UNL     1     -85.820 -13.981  11.316  1.00  0.00    -0.050 Br
HETATM   35  C12 UNL     1     -86.034 -16.447  12.764  1.00  0.00     0.048 A 
HETATM   36  C13 UNL     1     -85.957 -17.286  13.873  1.00  0.00     0.079 A 
HETATM   37 CL1  UNL     1     -86.373 -18.961  13.743  1.00  0.00    -0.080 Cl
ENDBRANCH  27  29
ENDBRANCH  26  27
ENDBRANCH  25  26
ENDBRANCH  24  25
ENDBRANCH   3  24
TORSDOF 8
ENDMDL
