MODEL 1
REMARK VINA RESULT: -7.573127106      0.000      0.000
REMARK  7 active torsions:
REMARK  status: ('A' for Active; 'I' for Inactive)
REMARK    1  A    between atoms: N1_2  and  C2_4 
REMARK    2  A    between atoms: C2_4  and  C3_5 
REMARK    3  A    between atoms: C3_5  and  C5_7 
REMARK    4  A    between atoms: C13_16  and  C14_17 
REMARK    5  A    between atoms: C14_17  and  C15_18 
REMARK    6  A    between atoms: C21_33  and  C22_34 
REMARK    7  A    between atoms: C22_34  and  C24_36 
ROOT
HETATM    1  C5  UNL     1     -83.393 -14.208  13.429  1.00  0.00    -0.048 C 
HETATM    2  C6  UNL     1     -83.698 -15.373  14.254  1.00  0.00    -0.011 C 
HETATM    3  C7  UNL     1     -84.974 -16.091  14.256  1.00  0.00     0.028 C 
HETATM    4  C8  UNL     1     -84.853 -17.090  15.454  1.00  0.00     0.018 C 
HETATM    5  C9  UNL     1     -86.212 -15.390  14.524  1.00  0.00     0.001 C 
HETATM    6  C10 UNL     1     -87.377 -15.732  13.991  1.00  0.00     0.008 C 
HETATM    7 CL1  UNL     1     -88.824 -14.785  14.406  1.00  0.00    -0.089 Cl
HETATM    8  C11 UNL     1     -87.607 -16.862  13.058  1.00  0.00     0.051 C 
HETATM    9  C12 UNL     1     -88.678 -16.418  12.072  1.00  0.00     0.014 C 
HETATM   10  C13 UNL     1     -88.527 -17.252  10.828  1.00  0.00     0.015 C 
HETATM   11  C16 UNL     1     -88.427 -16.365   9.612  1.00  0.00    -0.025 C 
HETATM   12  C17 UNL     1     -87.341 -16.063   8.972  1.00  0.00    -0.021 C 
HETATM   13  C18 UNL     1     -85.954 -16.492   9.252  1.00  0.00     0.129 C 
HETATM   14  C19 UNL     1     -85.043 -15.352   8.978  1.00  0.00     0.221 C 
HETATM   15  O1  UNL     1     -84.523 -15.224   7.818  1.00  0.00    -0.273 OA
HETATM   16  N6  UNL     1     -84.688 -14.358   9.924  1.00  0.00    -0.357 N 
ATOM     17  H6  UNL     1     -84.317 -13.476   9.571  1.00  0.00     0.162 HD
HETATM   18  C20 UNL     1     -84.818 -14.512  11.359  1.00  0.00     0.157 C 
HETATM   19  C21 UNL     1     -83.466 -14.295  11.968  1.00  0.00    -0.051 C 
ENDROOT
BRANCH  10  20
HETATM   20  C14 UNL     1     -89.776 -18.090  10.661  1.00  0.00     0.087 C 
BRANCH  20  21
HETATM   21  C15 UNL     1     -90.880 -17.300  10.088  1.00  0.00     0.107 A 
HETATM   22  N2  UNL     1     -91.520 -16.251  10.645  1.00  0.00    -0.274 N 
HETATM   23  N3  UNL     1     -92.435 -15.856   9.780  1.00  0.00    -0.007 NA
ATOM     24  H2  UNL     1     -91.331 -15.841  11.560  1.00  0.00     0.185 HD
HETATM   25  N4  UNL     1     -92.413 -16.605   8.691  1.00  0.00    -0.007 NA
HETATM   26  N5  UNL     1     -91.451 -17.493   8.890  1.00  0.00    -0.274 N 
ATOM     27  H5  UNL     1     -91.183 -18.220   8.227  1.00  0.00     0.185 HD
ENDBRANCH  20  21
ENDBRANCH  10  20
BRANCH   1  28
HETATM   28  C3  UNL     1     -83.782 -12.856  14.059  1.00  0.00     0.052 C 
HETATM   29  C4  UNL     1     -83.409 -12.922  15.521  1.00  0.00     0.020 C 
BRANCH  28  30
HETATM   30  C2  UNL     1     -82.962 -11.783  13.416  1.00  0.00     0.064 C 
BRANCH  30  31
HETATM   31  N1  UNL     1     -81.785 -11.355  14.062  1.00  0.00    -0.406 N 
HETATM   32  C1  UNL     1     -80.529 -11.356  13.438  1.00  0.00     0.145 C 
ATOM     33  H1  UNL     1     -81.849 -11.031  15.027  1.00  0.00     0.158 HD
ENDBRANCH  30  31
ENDBRANCH  28  30
ENDBRANCH   1  28
BRANCH  19  34
HETATM   34  C22 UNL     1     -82.431 -15.119  11.257  1.00  0.00     0.026 C 
HETATM   35  C23 UNL     1     -82.168 -16.488  11.691  1.00  0.00     0.016 C 
BRANCH  34  36
HETATM   36  C24 UNL     1     -81.118 -14.360  11.108  1.00  0.00     0.123 C 
HETATM   37 CL2  UNL     1     -81.532 -12.856  10.216  1.00  0.00    -0.130 Cl
ENDBRANCH  34  36
ENDBRANCH  19  34
TORSDOF 7
ENDMDL
MODEL 2
REMARK VINA RESULT: -7.415255589      1.959      2.539
REMARK  7 active torsions:
REMARK  status: ('A' for Active; 'I' for Inactive)
REMARK    1  A    between atoms: N1_2  and  C2_4 
REMARK    2  A    between atoms: C2_4  and  C3_5 
REMARK    3  A    between atoms: C3_5  and  C5_7 
REMARK    4  A    between atoms: C13_16  and  C14_17 
REMARK    5  A    between atoms: C14_17  and  C15_18 
REMARK    6  A    between atoms: C21_33  and  C22_34 
REMARK    7  A    between atoms: C22_34  and  C24_36 
ROOT
HETATM    1  C5  UNL     1     -85.579 -15.688  14.368  1.00  0.00    -0.048 C 
HETATM    2  C6  UNL     1     -85.997 -17.034  14.748  1.00  0.00    -0.011 C 
HETATM    3  C7  UNL     1     -87.158 -17.740  14.204  1.00  0.00     0.028 C 
HETATM    4  C8  UNL     1     -87.284 -19.021  15.093  1.00  0.00     0.018 C 
HETATM    5  C9  UNL     1     -88.478 -17.149  14.275  1.00  0.00     0.001 C 
HETATM    6  C10 UNL     1     -89.420 -17.347  13.364  1.00  0.00     0.008 C 
HETATM    7 CL1  UNL     1     -91.000 -16.560  13.574  1.00  0.00    -0.089 Cl
HETATM    8  C11 UNL     1     -89.288 -18.189  12.150  1.00  0.00     0.051 C 
HETATM    9  C12 UNL     1     -90.084 -17.509  11.045  1.00  0.00     0.014 C 
HETATM   10  C13 UNL     1     -89.528 -17.978   9.727  1.00  0.00     0.015 C 
HETATM   11  C16 UNL     1     -89.178 -16.798   8.856  1.00  0.00    -0.025 C 
HETATM   12  C17 UNL     1     -87.987 -16.325   8.651  1.00  0.00    -0.021 C 
HETATM   13  C18 UNL     1     -86.698 -16.800   9.197  1.00  0.00     0.129 C 
HETATM   14  C19 UNL     1     -85.848 -15.618   9.494  1.00  0.00     0.221 C 
HETATM   15  O1  UNL     1     -85.044 -15.180   8.602  1.00  0.00    -0.273 OA
HETATM   16  N6  UNL     1     -85.851 -14.910  10.720  1.00  0.00    -0.357 N 
ATOM     17  H6  UNL     1     -85.475 -13.962  10.724  1.00  0.00     0.162 HD
HETATM   18  C20 UNL     1     -86.355 -15.443  11.971  1.00  0.00     0.157 C 
HETATM   19  C21 UNL     1     -85.243 -15.382  12.975  1.00  0.00    -0.051 C 
ENDROOT
BRANCH  10  20
HETATM   20  C14 UNL     1     -90.608 -18.755   9.004  1.00  0.00     0.087 C 
BRANCH  20  21
HETATM   21  C15 UNL     1     -91.951 -18.379   9.482  1.00  0.00     0.107 A 
HETATM   22  N2  UNL     1     -92.682 -17.303   9.125  1.00  0.00    -0.274 N 
HETATM   23  N3  UNL     1     -93.815 -17.368   9.799  1.00  0.00    -0.007 NA
ATOM     24  H2  UNL     1     -92.412 -16.578   8.460  1.00  0.00     0.185 HD
HETATM   25  N4  UNL     1     -93.844 -18.438  10.575  1.00  0.00    -0.007 NA
HETATM   26  N5  UNL     1     -92.690 -19.056  10.373  1.00  0.00    -0.274 N 
ATOM     27  H5  UNL     1     -92.405 -19.922  10.830  1.00  0.00     0.185 HD
ENDBRANCH  20  21
ENDBRANCH  10  20
BRANCH   1  28
HETATM   28  C3  UNL     1     -86.240 -14.557  15.182  1.00  0.00     0.052 C 
HETATM   29  C4  UNL     1     -86.413 -15.067  16.593  1.00  0.00     0.020 C 
BRANCH  28  30
HETATM   30  C2  UNL     1     -85.302 -13.393  15.218  1.00  0.00     0.064 C 
BRANCH  30  31
HETATM   31  N1  UNL     1     -84.544 -13.174  16.385  1.00  0.00    -0.406 N 
HETATM   32  C1  UNL     1     -83.142 -13.149  16.391  1.00  0.00     0.145 C 
ATOM     33  H1  UNL     1     -85.037 -13.026  17.266  1.00  0.00     0.158 HD
ENDBRANCH  30  31
ENDBRANCH  28  30
ENDBRANCH   1  28
BRANCH  19  34
HETATM   34  C22 UNL     1     -83.987 -15.976  12.405  1.00  0.00     0.026 C 
HETATM   35  C23 UNL     1     -83.895 -17.418  12.194  1.00  0.00     0.016 C 
BRANCH  34  36
HETATM   36  C24 UNL     1     -82.749 -15.479  13.142  1.00  0.00     0.123 C 
HETATM   37 CL2  UNL     1     -82.652 -13.720  12.784  1.00  0.00    -0.130 Cl
ENDBRANCH  34  36
ENDBRANCH  19  34
TORSDOF 7
ENDMDL
MODEL 3
REMARK VINA RESULT: -7.325903265      1.762      2.152
REMARK  7 active torsions:
REMARK  status: ('A' for Active; 'I' for Inactive)
REMARK    1  A    between atoms: N1_2  and  C2_4 
REMARK    2  A    between atoms: C2_4  and  C3_5 
REMARK    3  A    between atoms: C3_5  and  C5_7 
REMARK    4  A    between atoms: C13_16  and  C14_17 
REMARK    5  A    between atoms: C14_17  and  C15_18 
REMARK    6  A    between atoms: C21_33  and  C22_34 
REMARK    7  A    between atoms: C22_34  and  C24_36 
ROOT
HETATM    1  C5  UNL     1     -84.803 -15.423  14.922  1.00  0.00    -0.048 C 
HETATM    2  C6  UNL     1     -84.995 -16.810  15.333  1.00  0.00    -0.011 C 
HETATM    3  C7  UNL     1     -86.151 -17.638  14.986  1.00  0.00     0.028 C 
HETATM    4  C8  UNL     1     -85.973 -18.931  15.849  1.00  0.00     0.018 C 
HETATM    5  C9  UNL     1     -87.493 -17.200  15.308  1.00  0.00     0.001 C 
HETATM    6  C10 UNL     1     -88.556 -17.498  14.574  1.00  0.00     0.008 C 
HETATM    7 CL1  UNL     1     -90.150 -16.895  15.084  1.00  0.00    -0.089 Cl
HETATM    8  C11 UNL     1     -88.554 -18.311  13.334  1.00  0.00     0.051 C 
HETATM    9  C12 UNL     1     -89.606 -17.718  12.407  1.00  0.00     0.014 C 
HETATM   10  C13 UNL     1     -89.249 -18.112  10.999  1.00  0.00     0.015 C 
HETATM   11  C16 UNL     1     -89.193 -16.895  10.112  1.00  0.00    -0.025 C 
HETATM   12  C17 UNL     1     -88.118 -16.289   9.711  1.00  0.00    -0.021 C 
HETATM   13  C18 UNL     1     -86.708 -16.618  10.005  1.00  0.00     0.129 C 
HETATM   14  C19 UNL     1     -85.953 -15.351  10.177  1.00  0.00     0.221 C 
HETATM   15  O1  UNL     1     -85.376 -14.819   9.169  1.00  0.00    -0.273 OA
HETATM   16  N6  UNL     1     -85.813 -14.655  11.403  1.00  0.00    -0.357 N 
ATOM     17  H6  UNL     1     -85.548 -13.671  11.365  1.00  0.00     0.162 HD
HETATM   18  C20 UNL     1     -86.020 -15.250  12.709  1.00  0.00     0.157 C 
HETATM   19  C21 UNL     1     -84.759 -15.072  13.500  1.00  0.00    -0.051 C 
ENDROOT
BRANCH  10  20
HETATM   20  C14 UNL     1     -90.349 -19.001  10.460  1.00  0.00     0.087 C 
BRANCH  20  21
HETATM   21  C15 UNL     1     -91.482 -18.204   9.953  1.00  0.00     0.107 A 
HETATM   22  N2  UNL     1     -91.697 -17.788   8.689  1.00  0.00    -0.274 N 
HETATM   23  N3  UNL     1     -92.829 -17.108   8.695  1.00  0.00    -0.007 NA
ATOM     24  H2  UNL     1     -91.100 -17.965   7.881  1.00  0.00     0.185 HD
HETATM   25  N4  UNL     1     -93.351 -17.069   9.909  1.00  0.00    -0.007 NA
HETATM   26  N5  UNL     1     -92.513 -17.747  10.679  1.00  0.00    -0.274 N 
ATOM     27  H5  UNL     1     -92.635 -17.900  11.680  1.00  0.00     0.185 HD
ENDBRANCH  20  21
ENDBRANCH  10  20
BRANCH   1  28
HETATM   28  C3  UNL     1     -85.427 -14.379  15.870  1.00  0.00     0.052 C 
HETATM   29  C4  UNL     1     -85.283 -14.914  17.276  1.00  0.00     0.020 C 
BRANCH  28  30
HETATM   30  C2  UNL     1     -84.632 -13.116  15.768  1.00  0.00     0.064 C 
BRANCH  30  31
HETATM   31  N1  UNL     1     -83.485 -12.974  16.574  1.00  0.00    -0.406 N 
HETATM   32  C1  UNL     1     -82.288 -12.413  16.106  1.00  0.00     0.145 C 
ATOM     33  H1  UNL     1     -83.527 -13.293  17.542  1.00  0.00     0.158 HD
ENDBRANCH  30  31
ENDBRANCH  28  30
ENDBRANCH   1  28
BRANCH  19  34
HETATM   34  C22 UNL     1     -83.569 -15.516  12.699  1.00  0.00     0.026 C 
HETATM   35  C23 UNL     1     -83.339 -16.939  12.468  1.00  0.00     0.016 C 
BRANCH  34  36
HETATM   36  C24 UNL     1     -82.287 -14.854  13.189  1.00  0.00     0.123 C 
HETATM   37 CL2  UNL     1     -82.358 -13.163  12.584  1.00  0.00    -0.130 Cl
ENDBRANCH  34  36
ENDBRANCH  19  34
TORSDOF 7
ENDMDL
MODEL 4
REMARK VINA RESULT: -7.259029242      3.136      4.748
REMARK  7 active torsions:
REMARK  status: ('A' for Active; 'I' for Inactive)
REMARK    1  A    between atoms: N1_2  and  C2_4 
REMARK    2  A    between atoms: C2_4  and  C3_5 
REMARK    3  A    between atoms: C3_5  and  C5_7 
REMARK    4  A    between atoms: C13_16  and  C14_17 
REMARK    5  A    between atoms: C14_17  and  C15_18 
REMARK    6  A    between atoms: C21_33  and  C22_34 
REMARK    7  A    between atoms: C22_34  and  C24_36 
ROOT
HETATM    1  C5  UNL     1     -83.928 -16.272  12.986  1.00  0.00    -0.048 C 
HETATM    2  C6  UNL     1     -84.441 -14.969  12.574  1.00  0.00    -0.011 C 
HETATM    3  C7  UNL     1     -85.540 -14.759  11.629  1.00  0.00     0.028 C 
HETATM    4  C8  UNL     1     -85.536 -13.216  11.369  1.00  0.00     0.018 C 
HETATM    5  C9  UNL     1     -85.485 -15.325  10.298  1.00  0.00     0.001 C 
HETATM    6  C10 UNL     1     -86.556 -15.720   9.625  1.00  0.00     0.008 C 
HETATM    7 CL1  UNL     1     -86.347 -16.399   7.995  1.00  0.00    -0.089 Cl
HETATM    8  C11 UNL     1     -87.958 -15.646  10.105  1.00  0.00     0.051 C 
HETATM    9  C12 UNL     1     -88.681 -16.872   9.565  1.00  0.00     0.014 C 
HETATM   10  C13 UNL     1     -89.865 -17.133  10.457  1.00  0.00     0.015 C 
HETATM   11  C16 UNL     1     -89.854 -18.563  10.937  1.00  0.00    -0.025 C 
HETATM   12  C17 UNL     1     -89.479 -18.975  12.108  1.00  0.00    -0.021 C 
HETATM   13  C18 UNL     1     -88.980 -18.180  13.250  1.00  0.00     0.129 C 
HETATM   14  C19 UNL     1     -87.902 -18.948  13.924  1.00  0.00     0.221 C 
HETATM   15  O1  UNL     1     -88.195 -19.727  14.894  1.00  0.00    -0.273 OA
HETATM   16  N6  UNL     1     -86.531 -18.893  13.574  1.00  0.00    -0.357 N 
ATOM     17  H6  UNL     1     -85.930 -19.659  13.877  1.00  0.00     0.162 HD
HETATM   18  C20 UNL     1     -85.925 -17.818  12.812  1.00  0.00     0.157 C 
HETATM   19  C21 UNL     1     -84.811 -17.244  13.636  1.00  0.00    -0.051 C 
ENDROOT
BRANCH  10  20
HETATM   20  C14 UNL     1     -91.126 -16.952   9.641  1.00  0.00     0.087 C 
BRANCH  20  21
HETATM   21  C15 UNL     1     -92.220 -16.396  10.459  1.00  0.00     0.107 A 
HETATM   22  N2  UNL     1     -92.468 -16.620  11.766  1.00  0.00    -0.274 N 
HETATM   23  N3  UNL     1     -93.543 -15.920  12.079  1.00  0.00    -0.007 NA
ATOM     24  H2  UNL     1     -91.928 -17.216  12.393  1.00  0.00     0.185 HD
HETATM   25  N4  UNL     1     -93.996 -15.256  11.030  1.00  0.00    -0.007 NA
HETATM   26  N5  UNL     1     -93.175 -15.555  10.035  1.00  0.00    -0.274 N 
ATOM     27  H5  UNL     1     -93.257 -15.197   9.084  1.00  0.00     0.185 HD
ENDBRANCH  20  21
ENDBRANCH  10  20
BRANCH   1  28
HETATM   28  C3  UNL     1     -82.824 -16.845  12.075  1.00  0.00     0.052 C 
HETATM   29  C4  UNL     1     -82.012 -15.675  11.570  1.00  0.00     0.020 C 
BRANCH  28  30
HETATM   30  C2  UNL     1     -81.929 -17.710  12.905  1.00  0.00     0.064 C 
BRANCH  30  31
HETATM   31  N1  UNL     1     -81.020 -17.090  13.785  1.00  0.00    -0.406 N 
HETATM   32  C1  UNL     1     -80.655 -17.644  15.020  1.00  0.00     0.145 C 
ATOM     33  H1  UNL     1     -80.607 -16.198  13.511  1.00  0.00     0.158 HD
ENDBRANCH  30  31
ENDBRANCH  28  30
ENDBRANCH   1  28
BRANCH  19  34
HETATM   34  C22 UNL     1     -85.287 -16.946  15.029  1.00  0.00     0.026 C 
HETATM   35  C23 UNL     1     -86.307 -15.923  15.245  1.00  0.00     0.016 C 
BRANCH  34  36
HETATM   36  C24 UNL     1     -84.120 -16.726  15.983  1.00  0.00     0.123 C 
HETATM   37 CL2  UNL     1     -84.111 -14.963  16.331  1.00  0.00    -0.130 Cl
ENDBRANCH  34  36
ENDBRANCH  19  34
TORSDOF 7
ENDMDL
MODEL 5
REMARK VINA RESULT: -7.249565423      3.008      4.728
REMARK  7 active torsions:
REMARK  status: ('A' for Active; 'I' for Inactive)
REMARK    1  A    between atoms: N1_2  and  C2_4 
REMARK    2  A    between atoms: C2_4  and  C3_5 
REMARK    3  A    between atoms: C3_5  and  C5_7 
REMARK    4  A    between atoms: C13_16  and  C14_17 
REMARK    5  A    between atoms: C14_17  and  C15_18 
REMARK    6  A    between atoms: C21_33  and  C22_34 
REMARK    7  A    between atoms: C22_34  and  C24_36 
ROOT
HETATM    1  C5  UNL     1     -84.243 -15.014  13.301  1.00  0.00    -0.048 C 
HETATM    2  C6  UNL     1     -85.014 -13.920  12.717  1.00  0.00    -0.011 C 
HETATM    3  C7  UNL     1     -86.125 -14.082  11.778  1.00  0.00     0.028 C 
HETATM    4  C8  UNL     1     -86.441 -12.627  11.298  1.00  0.00     0.018 C 
HETATM    5  C9  UNL     1     -85.943 -14.813  10.542  1.00  0.00     0.001 C 
HETATM    6  C10 UNL     1     -86.904 -15.515   9.957  1.00  0.00     0.008 C 
HETATM    7 CL1  UNL     1     -86.546 -16.366   8.438  1.00  0.00    -0.089 Cl
HETATM    8  C11 UNL     1     -88.294 -15.664  10.454  1.00  0.00     0.051 C 
HETATM    9  C12 UNL     1     -88.742 -17.078  10.114  1.00  0.00     0.014 C 
HETATM   10  C13 UNL     1     -89.851 -17.447  11.061  1.00  0.00     0.015 C 
HETATM   11  C16 UNL     1     -89.546 -18.757  11.742  1.00  0.00    -0.025 C 
HETATM   12  C17 UNL     1     -89.103 -18.907  12.952  1.00  0.00    -0.021 C 
HETATM   13  C18 UNL     1     -88.788 -17.868  13.955  1.00  0.00     0.129 C 
HETATM   14  C19 UNL     1     -87.579 -18.290  14.708  1.00  0.00     0.221 C 
HETATM   15  O1  UNL     1     -87.711 -18.962  15.786  1.00  0.00    -0.273 OA
HETATM   16  N6  UNL     1     -86.247 -18.003  14.321  1.00  0.00    -0.357 N 
ATOM     17  H6  UNL     1     -85.502 -18.575  14.718  1.00  0.00     0.162 HD
HETATM   18  C20 UNL     1     -85.873 -16.949  13.398  1.00  0.00     0.157 C 
HETATM   19  C21 UNL     1     -84.909 -16.043  14.104  1.00  0.00    -0.051 C 
ENDROOT
BRANCH  10  20
HETATM   20  C14 UNL     1     -91.117 -17.652  10.257  1.00  0.00     0.087 C 
BRANCH  20  21
HETATM   21  C15 UNL     1     -92.208 -16.788  10.744  1.00  0.00     0.107 A 
HETATM   22  N2  UNL     1     -92.656 -16.660  12.010  1.00  0.00    -0.274 N 
HETATM   23  N3  UNL     1     -93.641 -15.781  11.982  1.00  0.00    -0.007 NA
ATOM     24  H2  UNL     1     -92.301 -17.148  12.832  1.00  0.00     0.185 HD
HETATM   25  N4  UNL     1     -93.846 -15.339  10.753  1.00  0.00    -0.007 NA
HETATM   26  N5  UNL     1     -92.958 -15.965   9.996  1.00  0.00    -0.274 N 
ATOM     27  H5  UNL     1     -92.859 -15.839   8.989  1.00  0.00     0.185 HD
ENDBRANCH  20  21
ENDBRANCH  10  20
BRANCH   1  28
HETATM   28  C3  UNL     1     -83.038 -15.473  12.456  1.00  0.00     0.052 C 
HETATM   29  C4  UNL     1     -82.264 -14.232  12.075  1.00  0.00     0.020 C 
BRANCH  28  30
HETATM   30  C2  UNL     1     -82.158 -16.325  13.315  1.00  0.00     0.064 C 
BRANCH  30  31
HETATM   31  N1  UNL     1     -81.998 -17.683  12.977  1.00  0.00    -0.406 N 
HETATM   32  C1  UNL     1     -82.283 -18.730  13.866  1.00  0.00     0.145 C 
ATOM     33  H1  UNL     1     -81.659 -17.917  12.044  1.00  0.00     0.158 HD
ENDBRANCH  30  31
ENDBRANCH  28  30
ENDBRANCH   1  28
BRANCH  19  34
HETATM   34  C22 UNL     1     -85.447 -15.650  15.451  1.00  0.00     0.026 C 
HETATM   35  C23 UNL     1     -86.681 -14.874  15.542  1.00  0.00     0.016 C 
BRANCH  34  36
HETATM   36  C24 UNL     1     -84.368 -15.015  16.320  1.00  0.00     0.123 C 
HETATM   37 CL2  UNL     1     -84.822 -13.282  16.458  1.00  0.00    -0.130 Cl
ENDBRANCH  34  36
ENDBRANCH  19  34
TORSDOF 7
ENDMDL
