MODEL 1
REMARK VINA RESULT: -7.513591919      0.000      0.000
REMARK  12 active torsions:
REMARK  status: ('A' for Active; 'I' for Inactive)
REMARK    1  A    between atoms: O1_2  and  C2_3 
REMARK    2  A    between atoms: C5_6  and  N1_7 
REMARK    3  A    between atoms: N1_7  and  C6_9 
REMARK    4  A    between atoms: C6_9  and  N2_11 
REMARK    5  A    between atoms: N2_11  and  N3_12 
REMARK    6  A    between atoms: N2_11  and  C7_15 
REMARK    7  A    between atoms: C7_15  and  C8_16 
REMARK    8  A    between atoms: C8_16  and  C9_17 
REMARK    9  A    between atoms: C9_17  and  N4_18 
REMARK   10  A    between atoms: N4_18  and  C10_20 
REMARK   11  A    between atoms: C14_28  and  C15_29 
REMARK   12  A    between atoms: C24_39  and  O2_40 
ROOT
HETATM    1  C9  UNL     1     -84.109 -15.983   7.263  1.00  0.00     0.123 C 
ENDROOT
BRANCH   1   2
HETATM    2  C8  UNL     1     -83.127 -15.440   8.283  1.00  0.00     0.041 C 
BRANCH   2   3
HETATM    3  C7  UNL     1     -83.905 -14.678   9.296  1.00  0.00     0.152 C 
BRANCH   3   4
HETATM    4  N2  UNL     1     -83.648 -15.189  10.630  1.00  0.00    -0.274 N 
BRANCH   4   5
HETATM    5  C6  UNL     1     -84.140 -14.448  11.712  1.00  0.00     0.193 C 
HETATM    6  S1  UNL     1     -83.096 -13.995  12.914  1.00  0.00    -0.039 SA
BRANCH   5   7
HETATM    7  N1  UNL     1     -85.477 -14.072  11.828  1.00  0.00    -0.332 N 
ATOM      8  H1  UNL     1     -85.736 -13.132  11.526  1.00  0.00     0.168 HD
BRANCH   7   9
HETATM    9  C5  UNL     1     -86.494 -14.903  12.334  1.00  0.00     0.037 A 
HETATM   10  C4  UNL     1     -87.833 -14.725  11.986  1.00  0.00     0.032 A 
HETATM   11  C3  UNL     1     -88.785 -15.575  12.497  1.00  0.00     0.042 A 
HETATM   12  C2  UNL     1     -88.443 -16.602  13.347  1.00  0.00     0.101 A 
HETATM   13  C24 UNL     1     -87.127 -16.791  13.698  1.00  0.00     0.103 A 
HETATM   14  C23 UNL     1     -86.172 -15.949  13.194  1.00  0.00     0.069 A 
BRANCH  12  15
HETATM   15  O1  UNL     1     -89.414 -17.471  13.870  1.00  0.00    -0.353 OA
HETATM   16  C1  UNL     1     -90.242 -16.999  14.894  1.00  0.00     0.210 C 
ENDBRANCH  12  15
BRANCH  13  17
HETATM   17  O2  UNL     1     -86.756 -17.832  14.563  1.00  0.00    -0.353 OA
HETATM   18  C25 UNL     1     -86.480 -17.577  15.921  1.00  0.00     0.210 C 
ENDBRANCH  13  17
ENDBRANCH   7   9
ENDBRANCH   5   7
ENDBRANCH   4   5
BRANCH   4  19
HETATM   19  N3  UNL     1     -82.934 -16.379  10.718  1.00  0.00    -0.341 N 
ATOM     20  H32 UNL     1     -82.284 -16.469  11.499  1.00  0.00     0.177 HD
ATOM     21  H31 UNL     1     -83.003 -17.165  10.071  1.00  0.00     0.177 HD
ENDBRANCH   4  19
ENDBRANCH   3   4
ENDBRANCH   2   3
ENDBRANCH   1   2
BRANCH   1  22
HETATM   22  N4  UNL     1     -85.302 -16.504   7.904  1.00  0.00    -0.375 N 
ATOM     23  H4  UNL     1     -85.238 -16.975   8.806  1.00  0.00     0.161 HD
BRANCH  22  24
HETATM   24  C10 UNL     1     -86.432 -16.369   7.329  1.00  0.00     0.115 A 
HETATM   25  N5  UNL     1     -86.542 -15.756   6.118  1.00  0.00    -0.338 N 
HETATM   26  C11 UNL     1     -87.736 -15.617   5.518  1.00  0.00     0.182 A 
ATOM     27  H5  UNL     1     -85.705 -15.396   5.660  1.00  0.00     0.168 HD
HETATM   28  N6  UNL     1     -88.868 -16.068   6.072  1.00  0.00    -0.351 N 
HETATM   29  C12 UNL     1     -88.815 -16.681   7.266  1.00  0.00     0.048 A 
ATOM     30  H6  UNL     1     -89.761 -15.947   5.593  1.00  0.00     0.166 HD
HETATM   31  C13 UNL     1     -89.990 -17.138   7.820  1.00  0.00     0.041 A 
HETATM   32  C22 UNL     1     -87.581 -16.836   7.909  1.00  0.00     0.043 A 
HETATM   33  C14 UNL     1     -89.983 -17.775   9.047  1.00  0.00    -0.009 A 
HETATM   34  C19 UNL     1     -88.778 -17.927   9.674  1.00  0.00     0.130 A 
HETATM   35  F1  UNL     1     -88.688 -18.544  10.877  1.00  0.00    -0.205 F 
HETATM   36  C20 UNL     1     -87.555 -17.472   9.139  1.00  0.00    -0.007 A 
HETATM   37  C21 UNL     1     -86.297 -17.658   9.850  1.00  0.00     0.052 C 
BRANCH  33  38
HETATM   38  C15 UNL     1     -91.212 -18.281   9.688  1.00  0.00    -0.021 C 
HETATM   39  C16 UNL     1     -92.397 -17.578   9.007  1.00  0.00     0.019 C 
HETATM   40  C17 UNL     1     -91.324 -17.904  11.147  1.00  0.00     0.019 C 
HETATM   41  C18 UNL     1     -91.408 -19.762   9.465  1.00  0.00     0.019 C 
ENDBRANCH  33  38
ENDBRANCH  22  24
ENDBRANCH   1  22
TORSDOF 12
ENDMDL
MODEL 2
REMARK VINA RESULT: -7.500214925      3.302      6.731
REMARK  12 active torsions:
REMARK  status: ('A' for Active; 'I' for Inactive)
REMARK    1  A    between atoms: O1_2  and  C2_3 
REMARK    2  A    between atoms: C5_6  and  N1_7 
REMARK    3  A    between atoms: N1_7  and  C6_9 
REMARK    4  A    between atoms: C6_9  and  N2_11 
REMARK    5  A    between atoms: N2_11  and  N3_12 
REMARK    6  A    between atoms: N2_11  and  C7_15 
REMARK    7  A    between atoms: C7_15  and  C8_16 
REMARK    8  A    between atoms: C8_16  and  C9_17 
REMARK    9  A    between atoms: C9_17  and  N4_18 
REMARK   10  A    between atoms: N4_18  and  C10_20 
REMARK   11  A    between atoms: C14_28  and  C15_29 
REMARK   12  A    between atoms: C24_39  and  O2_40 
ROOT
HETATM    1  C9  UNL     1     -88.024 -16.677  10.013  1.00  0.00     0.123 C 
ENDROOT
BRANCH   1   2
HETATM    2  C8  UNL     1     -87.807 -16.077  11.389  1.00  0.00     0.041 C 
BRANCH   2   3
HETATM    3  C7  UNL     1     -88.655 -14.859  11.488  1.00  0.00     0.152 C 
BRANCH   3   4
HETATM    4  N2  UNL     1     -89.364 -14.830  12.754  1.00  0.00    -0.274 N 
BRANCH   4   5
HETATM    5  C6  UNL     1     -90.335 -15.816  12.975  1.00  0.00     0.193 C 
HETATM    6  S1  UNL     1     -90.126 -16.881  14.224  1.00  0.00    -0.039 SA
BRANCH   5   7
HETATM    7  N1  UNL     1     -91.477 -15.944  12.186  1.00  0.00    -0.332 N 
ATOM      8  H1  UNL     1     -92.243 -15.289  12.345  1.00  0.00     0.168 HD
BRANCH   7   9
HETATM    9  C5  UNL     1     -91.643 -16.918  11.183  1.00  0.00     0.037 A 
HETATM   10  C4  UNL     1     -92.165 -18.181  11.462  1.00  0.00     0.032 A 
HETATM   11  C3  UNL     1     -92.321 -19.091  10.443  1.00  0.00     0.042 A 
HETATM   12  C2  UNL     1     -91.972 -18.779   9.149  1.00  0.00     0.101 A 
HETATM   13  C24 UNL     1     -91.457 -17.538   8.858  1.00  0.00     0.103 A 
HETATM   14  C23 UNL     1     -91.298 -16.626   9.867  1.00  0.00     0.069 A 
BRANCH  12  15
HETATM   15  O1  UNL     1     -92.130 -19.707   8.106  1.00  0.00    -0.353 OA
HETATM   16  C1  UNL     1     -91.434 -20.919   8.187  1.00  0.00     0.210 C 
ENDBRANCH  12  15
BRANCH  13  17
HETATM   17  O2  UNL     1     -91.094 -17.199   7.545  1.00  0.00    -0.353 OA
HETATM   18  C25 UNL     1     -91.623 -16.050   6.925  1.00  0.00     0.210 C 
ENDBRANCH  13  17
ENDBRANCH   7   9
ENDBRANCH   5   7
ENDBRANCH   4   5
BRANCH   4  19
HETATM   19  N3  UNL     1     -89.012 -13.822  13.646  1.00  0.00    -0.341 N 
ATOM     20  H32 UNL     1     -88.295 -14.048  14.335  1.00  0.00     0.177 HD
ATOM     21  H31 UNL     1     -89.410 -12.883  13.670  1.00  0.00     0.177 HD
ENDBRANCH   4  19
ENDBRANCH   3   4
ENDBRANCH   2   3
ENDBRANCH   1   2
BRANCH   1  22
HETATM   22  N4  UNL     1     -86.808 -16.637   9.222  1.00  0.00    -0.375 N 
ATOM     23  H4  UNL     1     -85.907 -16.844   9.652  1.00  0.00     0.161 HD
BRANCH  22  24
HETATM   24  C10 UNL     1     -86.876 -16.342   7.984  1.00  0.00     0.115 A 
HETATM   25  N5  UNL     1     -88.070 -16.288   7.333  1.00  0.00    -0.338 N 
HETATM   26  C11 UNL     1     -88.134 -15.976   6.027  1.00  0.00     0.182 A 
ATOM     27  H5  UNL     1     -88.930 -16.489   7.843  1.00  0.00     0.168 HD
HETATM   28  N6  UNL     1     -87.040 -15.703   5.306  1.00  0.00    -0.351 N 
HETATM   29  C12 UNL     1     -85.836 -15.742   5.901  1.00  0.00     0.048 A 
ATOM     30  H6  UNL     1     -87.119 -15.470   4.316  1.00  0.00     0.166 HD
HETATM   31  C13 UNL     1     -84.722 -15.459   5.143  1.00  0.00     0.041 A 
HETATM   32  C22 UNL     1     -85.747 -16.065   7.260  1.00  0.00     0.043 A 
HETATM   33  C14 UNL     1     -83.463 -15.486   5.713  1.00  0.00    -0.009 A 
HETATM   34  C19 UNL     1     -83.376 -15.802   7.040  1.00  0.00     0.130 A 
HETATM   35  F1  UNL     1     -82.178 -15.846   7.672  1.00  0.00    -0.205 F 
HETATM   36  C20 UNL     1     -84.493 -16.098   7.848  1.00  0.00    -0.007 A 
HETATM   37  C21 UNL     1     -84.345 -16.430   9.259  1.00  0.00     0.052 C 
BRANCH  33  38
HETATM   38  C15 UNL     1     -82.236 -15.195   4.947  1.00  0.00    -0.021 C 
HETATM   39  C16 UNL     1     -82.678 -14.663   3.574  1.00  0.00     0.019 C 
HETATM   40  C17 UNL     1     -81.416 -16.427   4.639  1.00  0.00     0.019 C 
HETATM   41  C18 UNL     1     -81.408 -14.103   5.582  1.00  0.00     0.019 C 
ENDBRANCH  33  38
ENDBRANCH  22  24
ENDBRANCH   1  22
TORSDOF 12
ENDMDL
MODEL 3
REMARK VINA RESULT: -7.464956673      3.321      6.198
REMARK  12 active torsions:
REMARK  status: ('A' for Active; 'I' for Inactive)
REMARK    1  A    between atoms: O1_2  and  C2_3 
REMARK    2  A    between atoms: C5_6  and  N1_7 
REMARK    3  A    between atoms: N1_7  and  C6_9 
REMARK    4  A    between atoms: C6_9  and  N2_11 
REMARK    5  A    between atoms: N2_11  and  N3_12 
REMARK    6  A    between atoms: N2_11  and  C7_15 
REMARK    7  A    between atoms: C7_15  and  C8_16 
REMARK    8  A    between atoms: C8_16  and  C9_17 
REMARK    9  A    between atoms: C9_17  and  N4_18 
REMARK   10  A    between atoms: N4_18  and  C10_20 
REMARK   11  A    between atoms: C14_28  and  C15_29 
REMARK   12  A    between atoms: C24_39  and  O2_40 
ROOT
HETATM    1  C9  UNL     1     -89.843 -18.547   8.456  1.00  0.00     0.123 C 
ENDROOT
BRANCH   1   2
HETATM    2  C8  UNL     1     -90.590 -18.761   9.759  1.00  0.00     0.041 C 
BRANCH   2   3
HETATM    3  C7  UNL     1     -92.041 -18.597   9.478  1.00  0.00     0.152 C 
BRANCH   3   4
HETATM    4  N2  UNL     1     -92.793 -18.494  10.715  1.00  0.00    -0.274 N 
BRANCH   4   5
HETATM    5  C6  UNL     1     -92.792 -17.257  11.372  1.00  0.00     0.193 C 
HETATM    6  S1  UNL     1     -93.679 -16.012  10.737  1.00  0.00    -0.039 SA
BRANCH   5   7
HETATM    7  N1  UNL     1     -92.074 -17.021  12.543  1.00  0.00    -0.332 N 
ATOM      8  H1  UNL     1     -92.466 -17.363  13.420  1.00  0.00     0.168 HD
BRANCH   7   9
HETATM    9  C5  UNL     1     -90.842 -16.341  12.595  1.00  0.00     0.037 A 
HETATM   10  C4  UNL     1     -90.221 -15.853  11.445  1.00  0.00     0.032 A 
HETATM   11  C3  UNL     1     -89.026 -15.181  11.553  1.00  0.00     0.042 A 
HETATM   12  C2  UNL     1     -88.429 -14.981  12.776  1.00  0.00     0.101 A 
HETATM   13  C24 UNL     1     -89.029 -15.455  13.918  1.00  0.00     0.103 A 
HETATM   14  C23 UNL     1     -90.220 -16.125  13.820  1.00  0.00     0.069 A 
BRANCH  12  15
HETATM   15  O1  UNL     1     -87.207 -14.296  12.888  1.00  0.00    -0.353 OA
HETATM   16  C1  UNL     1     -86.341 -14.303  11.790  1.00  0.00     0.210 C 
ENDBRANCH  12  15
BRANCH  13  17
HETATM   17  O2  UNL     1     -88.437 -15.261  15.176  1.00  0.00    -0.353 OA
HETATM   18  C25 UNL     1     -88.403 -16.302  16.125  1.00  0.00     0.210 C 
ENDBRANCH  13  17
ENDBRANCH   7   9
ENDBRANCH   5   7
ENDBRANCH   4   5
BRANCH   4  19
HETATM   19  N3  UNL     1     -93.456 -19.640  11.143  1.00  0.00    -0.341 N 
ATOM     20  H32 UNL     1     -94.430 -19.741  10.856  1.00  0.00     0.177 HD
ATOM     21  H31 UNL     1     -93.054 -20.381  11.716  1.00  0.00     0.177 HD
ENDBRANCH   4  19
ENDBRANCH   3   4
ENDBRANCH   2   3
ENDBRANCH   1   2
BRANCH   1  22
HETATM   22  N4  UNL     1     -88.850 -17.497   8.583  1.00  0.00    -0.375 N 
ATOM     23  H4  UNL     1     -88.489 -17.238   9.501  1.00  0.00     0.161 HD
BRANCH  22  24
HETATM   24  C10 UNL     1     -88.432 -16.900   7.537  1.00  0.00     0.115 A 
HETATM   25  N5  UNL     1     -89.271 -16.610   6.505  1.00  0.00    -0.338 N 
HETATM   26  C11 UNL     1     -88.823 -15.980   5.405  1.00  0.00     0.182 A 
ATOM     27  H5  UNL     1     -90.253 -16.875   6.566  1.00  0.00     0.168 HD
HETATM   28  N6  UNL     1     -87.544 -15.609   5.268  1.00  0.00    -0.351 N 
HETATM   29  C12 UNL     1     -86.675 -15.871   6.258  1.00  0.00     0.048 A 
ATOM     30  H6  UNL     1     -87.233 -15.133   4.421  1.00  0.00     0.166 HD
HETATM   31  C13 UNL     1     -85.364 -15.482   6.099  1.00  0.00     0.041 A 
HETATM   32  C22 UNL     1     -87.121 -16.527   7.412  1.00  0.00     0.043 A 
HETATM   33  C14 UNL     1     -84.436 -15.731   7.092  1.00  0.00    -0.009 A 
HETATM   34  C19 UNL     1     -84.870 -16.371   8.219  1.00  0.00     0.130 A 
HETATM   35  F1  UNL     1     -84.022 -16.647   9.238  1.00  0.00    -0.205 F 
HETATM   36  C20 UNL     1     -86.204 -16.784   8.418  1.00  0.00    -0.007 A 
HETATM   37  C21 UNL     1     -86.615 -17.465   9.639  1.00  0.00     0.052 C 
BRANCH  33  38
HETATM   38  C15 UNL     1     -83.018 -15.339   6.973  1.00  0.00    -0.021 C 
HETATM   39  C16 UNL     1     -82.841 -14.707   5.582  1.00  0.00     0.019 C 
HETATM   40  C17 UNL     1     -82.069 -16.515   6.986  1.00  0.00     0.019 C 
HETATM   41  C18 UNL     1     -82.628 -14.280   7.976  1.00  0.00     0.019 C 
ENDBRANCH  33  38
ENDBRANCH  22  24
ENDBRANCH   1  22
TORSDOF 12
ENDMDL
MODEL 4
REMARK VINA RESULT: -7.433845460      0.891      1.119
REMARK  12 active torsions:
REMARK  status: ('A' for Active; 'I' for Inactive)
REMARK    1  A    between atoms: O1_2  and  C2_3 
REMARK    2  A    between atoms: C5_6  and  N1_7 
REMARK    3  A    between atoms: N1_7  and  C6_9 
REMARK    4  A    between atoms: C6_9  and  N2_11 
REMARK    5  A    between atoms: N2_11  and  N3_12 
REMARK    6  A    between atoms: N2_11  and  C7_15 
REMARK    7  A    between atoms: C7_15  and  C8_16 
REMARK    8  A    between atoms: C8_16  and  C9_17 
REMARK    9  A    between atoms: C9_17  and  N4_18 
REMARK   10  A    between atoms: N4_18  and  C10_20 
REMARK   11  A    between atoms: C14_28  and  C15_29 
REMARK   12  A    between atoms: C24_39  and  O2_40 
ROOT
HETATM    1  C9  UNL     1     -85.751 -15.793   6.929  1.00  0.00     0.123 C 
ENDROOT
BRANCH   1   2
HETATM    2  C8  UNL     1     -84.433 -15.981   7.656  1.00  0.00     0.041 C 
BRANCH   2   3
HETATM    3  C7  UNL     1     -84.349 -14.939   8.714  1.00  0.00     0.152 C 
BRANCH   3   4
HETATM    4  N2  UNL     1     -84.196 -15.550  10.022  1.00  0.00    -0.274 N 
BRANCH   4   5
HETATM    5  C6  UNL     1     -84.352 -14.724  11.143  1.00  0.00     0.193 C 
HETATM    6  S1  UNL     1     -83.011 -14.289  12.011  1.00  0.00    -0.039 SA
BRANCH   5   7
HETATM    7  N1  UNL     1     -85.592 -14.249  11.567  1.00  0.00    -0.332 N 
ATOM      8  H1  UNL     1     -85.791 -13.256  11.440  1.00  0.00     0.168 HD
BRANCH   7   9
HETATM    9  C5  UNL     1     -86.587 -15.048  12.160  1.00  0.00     0.037 A 
HETATM   10  C4  UNL     1     -87.945 -14.820  11.938  1.00  0.00     0.032 A 
HETATM   11  C3  UNL     1     -88.876 -15.641  12.530  1.00  0.00     0.042 A 
HETATM   12  C2  UNL     1     -88.494 -16.686  13.339  1.00  0.00     0.101 A 
HETATM   13  C24 UNL     1     -87.159 -16.924  13.567  1.00  0.00     0.103 A 
HETATM   14  C23 UNL     1     -86.225 -16.112  12.982  1.00  0.00     0.069 A 
BRANCH  12  15
HETATM   15  O1  UNL     1     -89.443 -17.526  13.945  1.00  0.00    -0.353 OA
HETATM   16  C1  UNL     1     -90.274 -16.982  14.931  1.00  0.00     0.210 C 
ENDBRANCH  12  15
BRANCH  13  17
HETATM   17  O2  UNL     1     -86.747 -17.985  14.389  1.00  0.00    -0.353 OA
HETATM   18  C25 UNL     1     -86.410 -17.762  15.739  1.00  0.00     0.210 C 
ENDBRANCH  13  17
ENDBRANCH   7   9
ENDBRANCH   5   7
ENDBRANCH   4   5
BRANCH   4  19
HETATM   19  N3  UNL     1     -83.909 -16.910  10.049  1.00  0.00    -0.341 N 
ATOM     20  H32 UNL     1     -83.629 -17.303  10.948  1.00  0.00     0.177 HD
ATOM     21  H31 UNL     1     -83.952 -17.544   9.251  1.00  0.00     0.177 HD
ENDBRANCH   4  19
ENDBRANCH   3   4
ENDBRANCH   2   3
ENDBRANCH   1   2
BRANCH   1  22
HETATM   22  N4  UNL     1     -86.747 -16.744   7.386  1.00  0.00    -0.375 N 
ATOM     23  H4  UNL     1     -86.480 -17.514   7.999  1.00  0.00     0.161 HD
BRANCH  22  24
HETATM   24  C10 UNL     1     -87.959 -16.610   7.014  1.00  0.00     0.115 A 
HETATM   25  N5  UNL     1     -88.273 -16.075   5.803  1.00  0.00    -0.338 N 
HETATM   26  C11 UNL     1     -89.553 -15.936   5.417  1.00  0.00     0.182 A 
ATOM     27  H5  UNL     1     -87.525 -15.774   5.178  1.00  0.00     0.168 HD
HETATM   28  N6  UNL     1     -90.575 -16.312   6.195  1.00  0.00    -0.351 N 
HETATM   29  C12 UNL     1     -90.320 -16.847   7.401  1.00  0.00     0.048 A 
ATOM     30  H6  UNL     1     -91.537 -16.194   5.876  1.00  0.00     0.166 HD
HETATM   31  C13 UNL     1     -91.384 -17.228   8.187  1.00  0.00     0.041 A 
HETATM   32  C22 UNL     1     -88.993 -17.000   7.822  1.00  0.00     0.043 A 
HETATM   33  C14 UNL     1     -91.169 -17.783   9.434  1.00  0.00    -0.009 A 
HETATM   34  C19 UNL     1     -89.874 -17.932   9.846  1.00  0.00     0.130 A 
HETATM   35  F1  UNL     1     -89.581 -18.471  11.053  1.00  0.00    -0.205 F 
HETATM   36  C20 UNL     1     -88.759 -17.554   9.069  1.00  0.00    -0.007 A 
HETATM   37  C21 UNL     1     -87.397 -17.734   9.556  1.00  0.00     0.052 C 
BRANCH  33  38
HETATM   38  C15 UNL     1     -92.272 -18.205  10.319  1.00  0.00    -0.021 C 
HETATM   39  C16 UNL     1     -93.549 -17.519   9.805  1.00  0.00     0.019 C 
HETATM   40  C17 UNL     1     -92.118 -17.719  11.742  1.00  0.00     0.019 C 
HETATM   41  C18 UNL     1     -92.527 -19.692  10.248  1.00  0.00     0.019 C 
ENDBRANCH  33  38
ENDBRANCH  22  24
ENDBRANCH   1  22
TORSDOF 12
ENDMDL
MODEL 5
REMARK VINA RESULT: -7.406829088      1.081      1.178
REMARK  12 active torsions:
REMARK  status: ('A' for Active; 'I' for Inactive)
REMARK    1  A    between atoms: O1_2  and  C2_3 
REMARK    2  A    between atoms: C5_6  and  N1_7 
REMARK    3  A    between atoms: N1_7  and  C6_9 
REMARK    4  A    between atoms: C6_9  and  N2_11 
REMARK    5  A    between atoms: N2_11  and  N3_12 
REMARK    6  A    between atoms: N2_11  and  C7_15 
REMARK    7  A    between atoms: C7_15  and  C8_16 
REMARK    8  A    between atoms: C8_16  and  C9_17 
REMARK    9  A    between atoms: C9_17  and  N4_18 
REMARK   10  A    between atoms: N4_18  and  C10_20 
REMARK   11  A    between atoms: C14_28  and  C15_29 
REMARK   12  A    between atoms: C24_39  and  O2_40 
ROOT
HETATM    1  C9  UNL     1     -83.382 -15.585   8.671  1.00  0.00     0.123 C 
ENDROOT
BRANCH   1   2
HETATM    2  C8  UNL     1     -83.835 -14.537   9.669  1.00  0.00     0.041 C 
BRANCH   2   3
HETATM    3  C7  UNL     1     -82.789 -14.435  10.721  1.00  0.00     0.152 C 
BRANCH   3   4
HETATM    4  N2  UNL     1     -83.314 -14.856  12.007  1.00  0.00    -0.274 N 
BRANCH   4   5
HETATM    5  C6  UNL     1     -83.889 -13.873  12.824  1.00  0.00     0.193 C 
HETATM    6  S1  UNL     1     -82.923 -13.037  13.875  1.00  0.00    -0.039 SA
BRANCH   5   7
HETATM    7  N1  UNL     1     -85.248 -13.564  12.793  1.00  0.00    -0.332 N 
ATOM      8  H1  UNL     1     -85.515 -12.611  12.545  1.00  0.00     0.168 HD
BRANCH   7   9
HETATM    9  C5  UNL     1     -86.277 -14.480  13.084  1.00  0.00     0.037 A 
HETATM   10  C4  UNL     1     -87.269 -14.795  12.155  1.00  0.00     0.032 A 
HETATM   11  C3  UNL     1     -88.241 -15.709  12.484  1.00  0.00     0.042 A 
HETATM   12  C2  UNL     1     -88.257 -16.321  13.716  1.00  0.00     0.101 A 
HETATM   13  C24 UNL     1     -87.286 -16.023  14.642  1.00  0.00     0.103 A 
HETATM   14  C23 UNL     1     -86.313 -15.114  14.323  1.00  0.00     0.069 A 
BRANCH  12  15
HETATM   15  O1  UNL     1     -89.250 -17.255  14.055  1.00  0.00    -0.353 OA
HETATM   16  C1  UNL     1     -90.487 -16.774  14.498  1.00  0.00     0.210 C 
ENDBRANCH  12  15
BRANCH  13  17
HETATM   17  O2  UNL     1     -87.282 -16.637  15.905  1.00  0.00    -0.353 OA
HETATM   18  C25 UNL     1     -87.804 -15.970  17.032  1.00  0.00     0.210 C 
ENDBRANCH  13  17
ENDBRANCH   7   9
ENDBRANCH   5   7
ENDBRANCH   4   5
BRANCH   4  19
HETATM   19  N3  UNL     1     -83.202 -16.206  12.318  1.00  0.00    -0.341 N 
ATOM     20  H32 UNL     1     -82.350 -16.679  12.015  1.00  0.00     0.177 HD
ATOM     21  H31 UNL     1     -83.896 -16.762  12.819  1.00  0.00     0.177 HD
ENDBRANCH   4  19
ENDBRANCH   3   4
ENDBRANCH   2   3
ENDBRANCH   1   2
BRANCH   1  22
HETATM   22  N4  UNL     1     -84.377 -16.630   8.516  1.00  0.00    -0.375 N 
ATOM     23  H4  UNL     1     -84.246 -17.537   8.964  1.00  0.00     0.161 HD
BRANCH  22  24
HETATM   24  C10 UNL     1     -85.417 -16.406   7.813  1.00  0.00     0.115 A 
HETATM   25  N5  UNL     1     -85.341 -15.737   6.630  1.00  0.00    -0.338 N 
HETATM   26  C11 UNL     1     -86.442 -15.504   5.894  1.00  0.00     0.182 A 
ATOM     27  H5  UNL     1     -84.436 -15.408   6.296  1.00  0.00     0.168 HD
HETATM   28  N6  UNL     1     -87.657 -15.912   6.281  1.00  0.00    -0.351 N 
HETATM   29  C12 UNL     1     -87.786 -16.577   7.442  1.00  0.00     0.048 A 
ATOM     30  H6  UNL     1     -88.474 -15.720   5.703  1.00  0.00     0.166 HD
HETATM   31  C13 UNL     1     -89.043 -16.989   7.824  1.00  0.00     0.041 A 
HETATM   32  C22 UNL     1     -86.652 -16.830   8.223  1.00  0.00     0.043 A 
HETATM   33  C14 UNL     1     -89.224 -17.676   9.009  1.00  0.00    -0.009 A 
HETATM   34  C19 UNL     1     -88.117 -17.923   9.773  1.00  0.00     0.130 A 
HETATM   35  F1  UNL     1     -88.212 -18.594  10.945  1.00  0.00    -0.205 F 
HETATM   36  C20 UNL     1     -86.815 -17.518   9.415  1.00  0.00    -0.007 A 
HETATM   37  C21 UNL     1     -85.667 -17.806  10.266  1.00  0.00     0.052 C 
BRANCH  33  38
HETATM   38  C15 UNL     1     -90.548 -18.137   9.468  1.00  0.00    -0.021 C 
HETATM   39  C16 UNL     1     -91.600 -17.378   8.642  1.00  0.00     0.019 C 
HETATM   40  C17 UNL     1     -90.845 -17.770  10.904  1.00  0.00     0.019 C 
HETATM   41  C18 UNL     1     -90.771 -19.606   9.197  1.00  0.00     0.019 C 
ENDBRANCH  33  38
ENDBRANCH  22  24
ENDBRANCH   1  22
TORSDOF 12
ENDMDL
