MODEL 1
REMARK VINA RESULT: -8.192458254      0.000      0.000
REMARK  10 active torsions:
REMARK  status: ('A' for Active; 'I' for Inactive)
REMARK    1  A    between atoms: C2_2  and  C3_3 
REMARK    2  A    between atoms: C3_3  and  C4_4 
REMARK    3  A    between atoms: C4_4  and  N1_6 
REMARK    4  A    between atoms: N1_6  and  C6_9 
REMARK    5  A    between atoms: C6_9  and  C7_10 
REMARK    6  A    between atoms: C7_10  and  O1_11 
REMARK    7  A    between atoms: C7_10  and  C8_13 
REMARK    8  A    between atoms: C23_28  and  O2_29 
REMARK    9  A    between atoms: C25_32  and  O3_33 
REMARK       I    between atoms: N2_37  and  C27_38 
REMARK   10  A    between atoms: C27_38  and  C28_40 
ROOT
HETATM    1  C8  UNL     1     -88.727 -17.116   9.100  1.00  0.00     0.121 C 
HETATM    2  C9  UNL     1     -89.083 -17.609  10.491  1.00  0.00     0.029 C 
HETATM    3  C10 UNL     1     -89.353 -16.383  11.303  1.00  0.00     0.017 C 
HETATM    4  C11 UNL     1     -88.108 -15.545  11.490  1.00  0.00     0.021 C 
HETATM    5  C12 UNL     1     -88.608 -14.077  11.342  1.00  0.00     0.021 C 
HETATM    6  C13 UNL     1     -87.710 -15.714  12.926  1.00  0.00     0.038 C 
HETATM    7  C14 UNL     1     -88.388 -14.716  13.841  1.00  0.00     0.036 C 
HETATM    8  C15 UNL     1     -87.832 -14.821  15.224  1.00  0.00    -0.023 C 
HETATM    9  C16 UNL     1     -86.757 -15.449  15.543  1.00  0.00    -0.072 C 
HETATM   10  C17 UNL     1     -86.297 -15.490  16.963  1.00  0.00     0.034 C 
HETATM   11  C18 UNL     1     -86.277 -16.958  17.338  1.00  0.00     0.004 C 
HETATM   12  C19 UNL     1     -85.669 -17.858  16.324  1.00  0.00     0.001 C 
HETATM   13  C20 UNL     1     -86.094 -17.645  14.905  1.00  0.00     0.017 C 
HETATM   14  C21 UNL     1     -85.914 -16.176  14.576  1.00  0.00     0.011 C 
HETATM   15  C22 UNL     1     -84.431 -15.882  14.799  1.00  0.00     0.023 C 
HETATM   16  C23 UNL     1     -86.239 -15.797  13.177  1.00  0.00     0.076 C 
HETATM   17  C24 UNL     1     -85.741 -16.934  12.278  1.00  0.00     0.076 C 
HETATM   18  C25 UNL     1     -85.924 -16.620  10.826  1.00  0.00     0.182 C 
HETATM   19  C26 UNL     1     -87.078 -15.733  10.485  1.00  0.00     0.214 C 
HETATM   20  F1  UNL     1     -86.505 -14.476  10.184  1.00  0.00    -0.215 F 
HETATM   21  N2  UNL     1     -87.605 -16.219   9.194  1.00  0.00    -0.306 N 
HETATM   22  C27 UNL     1     -86.941 -15.828   7.987  1.00  0.00     0.222 C 
HETATM   23  O4  UNL     1     -85.943 -15.040   8.102  1.00  0.00    -0.273 OA
ENDROOT
BRANCH   1  24
HETATM   24  C7  UNL     1     -89.875 -16.692   8.281  1.00  0.00     0.166 C 
BRANCH  24  25
HETATM   25  C6  UNL     1     -91.133 -17.427   8.839  1.00  0.00     0.266 C 
BRANCH  25  26
HETATM   26  N1  UNL     1     -92.252 -16.474   8.816  1.00  0.00    -0.069 N 
ATOM     27  H12 UNL     1     -92.810 -16.523   7.963  1.00  0.00     0.277 HD
ATOM     28  H11 UNL     1     -91.957 -15.503   8.718  1.00  0.00     0.277 HD
BRANCH  26  29
HETATM   29  C4  UNL     1     -93.018 -16.726  10.020  1.00  0.00     0.182 C 
HETATM   30  C5  UNL     1     -92.957 -15.474  10.876  1.00  0.00     0.040 C 
BRANCH  29  31
HETATM   31  C3  UNL     1     -92.595 -17.942  10.778  1.00  0.00     0.032 C 
BRANCH  31  32
HETATM   32  C2  UNL     1     -93.726 -18.873  11.137  1.00  0.00    -0.002 C 
HETATM   33  C1  UNL     1     -93.307 -20.105  11.874  1.00  0.00     0.005 C 
ENDBRANCH  31  32
ENDBRANCH  29  31
ENDBRANCH  26  29
ENDBRANCH  25  26
ENDBRANCH  24  25
BRANCH  24  34
HETATM   34  O1  UNL     1     -90.241 -15.366   8.321  1.00  0.00    -0.392 OA
ATOM     35  H1  UNL     1     -89.685 -15.007   9.003  1.00  0.00     0.210 HD
ENDBRANCH  24  34
ENDBRANCH   1  24
BRANCH  22  36
HETATM   36  C28 UNL     1     -87.263 -16.228   6.624  1.00  0.00     0.098 C 
HETATM   37  C29 UNL     1     -87.630 -14.968   5.813  1.00  0.00     0.014 C 
ENDBRANCH  22  36
BRANCH  18  38
HETATM   38  O3  UNL     1     -84.713 -16.068  10.408  1.00  0.00    -0.390 OA
ATOM     39  H3  UNL     1     -84.342 -16.700   9.804  1.00  0.00     0.210 HD
ENDBRANCH  18  38
BRANCH  16  40
HETATM   40  O2  UNL     1     -85.573 -14.603  12.905  1.00  0.00    -0.388 OA
ATOM     41  H2  UNL     1     -84.930 -14.378  13.567  1.00  0.00     0.210 HD
ENDBRANCH  16  40
TORSDOF 10
ENDMDL
MODEL 2
REMARK VINA RESULT: -8.142159244      3.348      8.156
REMARK  10 active torsions:
REMARK  status: ('A' for Active; 'I' for Inactive)
REMARK    1  A    between atoms: C2_2  and  C3_3 
REMARK    2  A    between atoms: C3_3  and  C4_4 
REMARK    3  A    between atoms: C4_4  and  N1_6 
REMARK    4  A    between atoms: N1_6  and  C6_9 
REMARK    5  A    between atoms: C6_9  and  C7_10 
REMARK    6  A    between atoms: C7_10  and  O1_11 
REMARK    7  A    between atoms: C7_10  and  C8_13 
REMARK    8  A    between atoms: C23_28  and  O2_29 
REMARK    9  A    between atoms: C25_32  and  O3_33 
REMARK       I    between atoms: N2_37  and  C27_38 
REMARK   10  A    between atoms: C27_38  and  C28_40 
ROOT
HETATM    1  C8  UNL     1     -85.760 -15.222  14.383  1.00  0.00     0.121 C 
HETATM    2  C9  UNL     1     -85.970 -15.493  12.904  1.00  0.00     0.029 C 
HETATM    3  C10 UNL     1     -87.150 -14.667  12.501  1.00  0.00     0.017 C 
HETATM    4  C11 UNL     1     -88.422 -15.137  13.170  1.00  0.00     0.021 C 
HETATM    5  C12 UNL     1     -89.167 -13.821  13.544  1.00  0.00     0.021 C 
HETATM    6  C13 UNL     1     -89.235 -15.793  12.094  1.00  0.00     0.038 C 
HETATM    7  C14 UNL     1     -90.118 -14.813  11.350  1.00  0.00     0.036 C 
HETATM    8  C15 UNL     1     -91.021 -15.541  10.409  1.00  0.00    -0.023 C 
HETATM    9  C16 UNL     1     -91.232 -16.809  10.419  1.00  0.00    -0.072 C 
HETATM   10  C17 UNL     1     -92.158 -17.430   9.426  1.00  0.00     0.034 C 
HETATM   11  C18 UNL     1     -91.310 -18.416   8.647  1.00  0.00     0.004 C 
HETATM   12  C19 UNL     1     -90.414 -19.265   9.475  1.00  0.00     0.001 C 
HETATM   13  C20 UNL     1     -89.629 -18.564  10.539  1.00  0.00     0.017 C 
HETATM   14  C21 UNL     1     -90.593 -17.739  11.367  1.00  0.00     0.011 C 
HETATM   15  C22 UNL     1     -91.604 -18.734  11.938  1.00  0.00     0.023 C 
HETATM   16  C23 UNL     1     -89.984 -17.016  12.514  1.00  0.00     0.076 C 
HETATM   17  C24 UNL     1     -88.927 -17.947  13.119  1.00  0.00     0.076 C 
HETATM   18  C25 UNL     1     -88.309 -17.364  14.351  1.00  0.00     0.182 C 
HETATM   19  C26 UNL     1     -88.236 -15.872  14.408  1.00  0.00     0.214 C 
HETATM   20  F1  UNL     1     -89.243 -15.484  15.320  1.00  0.00    -0.215 F 
HETATM   21  N2  UNL     1     -86.969 -15.546  15.094  1.00  0.00    -0.306 N 
HETATM   22  C27 UNL     1     -86.924 -15.608  16.524  1.00  0.00     0.222 C 
HETATM   23  O4  UNL     1     -88.009 -15.907  17.127  1.00  0.00    -0.273 OA
ENDROOT
BRANCH   1  24
HETATM   24  C7  UNL     1     -85.107 -13.939  14.691  1.00  0.00     0.166 C 
BRANCH  24  25
HETATM   25  C6  UNL     1     -84.210 -13.574  13.468  1.00  0.00     0.266 C 
BRANCH  25  26
HETATM   26  N1  UNL     1     -83.762 -12.186  13.643  1.00  0.00    -0.069 N 
ATOM     27  H12 UNL     1     -84.099 -11.755  14.504  1.00  0.00     0.277 HD
ATOM     28  H11 UNL     1     -84.203 -11.532  12.996  1.00  0.00     0.277 HD
BRANCH  26  29
HETATM   29  C4  UNL     1     -82.317 -12.214  13.539  1.00  0.00     0.182 C 
HETATM   30  C5  UNL     1     -81.950 -13.242  12.486  1.00  0.00     0.040 C 
BRANCH  29  31
HETATM   31  C3  UNL     1     -81.610 -12.460  14.832  1.00  0.00     0.032 C 
BRANCH  31  32
HETATM   32  C2  UNL     1     -82.267 -11.822  16.029  1.00  0.00    -0.002 C 
HETATM   33  C1  UNL     1     -82.617 -12.775  17.128  1.00  0.00     0.005 C 
ENDBRANCH  31  32
ENDBRANCH  29  31
ENDBRANCH  26  29
ENDBRANCH  25  26
ENDBRANCH  24  25
BRANCH  24  34
HETATM   34  O1  UNL     1     -85.906 -12.829  14.839  1.00  0.00    -0.392 OA
ATOM     35  H1  UNL     1     -85.785 -12.363  14.020  1.00  0.00     0.210 HD
ENDBRANCH  24  34
ENDBRANCH   1  24
BRANCH  22  36
HETATM   36  C28 UNL     1     -85.776 -15.374  17.390  1.00  0.00     0.098 C 
HETATM   37  C29 UNL     1     -84.892 -16.638  17.391  1.00  0.00     0.014 C 
ENDBRANCH  22  36
BRANCH  18  38
HETATM   38  O3  UNL     1     -89.044 -17.881  15.418  1.00  0.00    -0.390 OA
ATOM     39  H3  UNL     1     -89.527 -18.616  15.059  1.00  0.00     0.210 HD
ENDBRANCH  18  38
BRANCH  16  40
HETATM   40  O2  UNL     1     -91.005 -16.744  13.423  1.00  0.00    -0.388 OA
ATOM     41  H2  UNL     1     -91.870 -16.915  13.070  1.00  0.00     0.210 HD
ENDBRANCH  16  40
TORSDOF 10
ENDMDL
MODEL 3
REMARK VINA RESULT: -8.062783323      2.388      4.768
REMARK  10 active torsions:
REMARK  status: ('A' for Active; 'I' for Inactive)
REMARK    1  A    between atoms: C2_2  and  C3_3 
REMARK    2  A    between atoms: C3_3  and  C4_4 
REMARK    3  A    between atoms: C4_4  and  N1_6 
REMARK    4  A    between atoms: N1_6  and  C6_9 
REMARK    5  A    between atoms: C6_9  and  C7_10 
REMARK    6  A    between atoms: C7_10  and  O1_11 
REMARK    7  A    between atoms: C7_10  and  C8_13 
REMARK    8  A    between atoms: C23_28  and  O2_29 
REMARK    9  A    between atoms: C25_32  and  O3_33 
REMARK       I    between atoms: N2_37  and  C27_38 
REMARK   10  A    between atoms: C27_38  and  C28_40 
ROOT
HETATM    1  C8  UNL     1     -91.025 -15.511  11.207  1.00  0.00     0.121 C 
HETATM    2  C9  UNL     1     -89.957 -14.560  11.715  1.00  0.00     0.029 C 
HETATM    3  C10 UNL     1     -88.654 -15.265  11.516  1.00  0.00     0.017 C 
HETATM    4  C11 UNL     1     -88.536 -16.492  12.392  1.00  0.00     0.021 C 
HETATM    5  C12 UNL     1     -87.859 -17.554  11.477  1.00  0.00     0.021 C 
HETATM    6  C13 UNL     1     -87.533 -16.145  13.453  1.00  0.00     0.038 C 
HETATM    7  C14 UNL     1     -86.110 -16.445  13.030  1.00  0.00     0.036 C 
HETATM    8  C15 UNL     1     -85.176 -16.239  14.178  1.00  0.00    -0.023 C 
HETATM    9  C16 UNL     1     -85.531 -16.105  15.406  1.00  0.00    -0.072 C 
HETATM   10  C17 UNL     1     -84.506 -15.901  16.472  1.00  0.00     0.034 C 
HETATM   11  C18 UNL     1     -84.837 -14.559  17.096  1.00  0.00     0.004 C 
HETATM   12  C19 UNL     1     -86.277 -14.339  17.385  1.00  0.00     0.001 C 
HETATM   13  C20 UNL     1     -87.238 -14.706  16.298  1.00  0.00     0.017 C 
HETATM   14  C21 UNL     1     -86.933 -16.125  15.861  1.00  0.00     0.011 C 
HETATM   15  C22 UNL     1     -87.100 -16.987  17.112  1.00  0.00     0.023 C 
HETATM   16  C23 UNL     1     -87.838 -16.673  14.817  1.00  0.00     0.076 C 
HETATM   17  C24 UNL     1     -89.249 -16.170  15.139  1.00  0.00     0.076 C 
HETATM   18  C25 UNL     1     -90.272 -16.741  14.207  1.00  0.00     0.182 C 
HETATM   19  C26 UNL     1     -89.797 -17.065  12.828  1.00  0.00     0.214 C 
HETATM   20  F1  UNL     1     -89.689 -18.474  12.791  1.00  0.00    -0.215 F 
HETATM   21  N2  UNL     1     -90.921 -16.756  11.920  1.00  0.00    -0.306 N 
HETATM   22  C27 UNL     1     -91.980 -17.711  11.786  1.00  0.00     0.222 C 
HETATM   23  O4  UNL     1     -91.865 -18.802  12.438  1.00  0.00    -0.273 OA
ENDROOT
BRANCH   1  24
HETATM   24  C7  UNL     1     -91.155 -15.570   9.741  1.00  0.00     0.166 C 
BRANCH  24  25
HETATM   25  C6  UNL     1     -90.567 -16.941   9.284  1.00  0.00     0.266 C 
BRANCH  25  26
HETATM   26  N1  UNL     1     -90.428 -16.901   7.821  1.00  0.00    -0.069 N 
ATOM     27  H12 UNL     1     -91.290 -16.644   7.339  1.00  0.00     0.277 HD
ATOM     28  H11 UNL     1     -90.318 -17.822   7.398  1.00  0.00     0.277 HD
BRANCH  26  29
HETATM   29  C4  UNL     1     -89.324 -16.004   7.547  1.00  0.00     0.182 C 
HETATM   30  C5  UNL     1     -89.556 -15.390   6.179  1.00  0.00     0.040 C 
BRANCH  29  31
HETATM   31  C3  UNL     1     -87.974 -16.636   7.655  1.00  0.00     0.032 C 
BRANCH  31  32
HETATM   32  C2  UNL     1     -86.910 -15.734   8.227  1.00  0.00    -0.002 C 
HETATM   33  C1  UNL     1     -85.702 -16.447   8.745  1.00  0.00     0.005 C 
ENDBRANCH  31  32
ENDBRANCH  29  31
ENDBRANCH  26  29
ENDBRANCH  25  26
ENDBRANCH  24  25
BRANCH  24  34
HETATM   34  O1  UNL     1     -92.423 -15.577   9.206  1.00  0.00    -0.392 OA
ATOM     35  H1  UNL     1     -92.353 -16.195   8.488  1.00  0.00     0.210 HD
ENDBRANCH  24  34
ENDBRANCH   1  24
BRANCH  22  36
HETATM   36  C28 UNL     1     -93.194 -17.588  10.990  1.00  0.00     0.098 C 
HETATM   37  C29 UNL     1     -93.958 -18.927  11.044  1.00  0.00     0.014 C 
ENDBRANCH  22  36
BRANCH  18  38
HETATM   38  O3  UNL     1     -90.776 -17.869  14.853  1.00  0.00    -0.390 OA
ATOM     39  H3  UNL     1     -91.708 -17.870  14.670  1.00  0.00     0.210 HD
ENDBRANCH  18  38
BRANCH  16  40
HETATM   40  O2  UNL     1     -87.762 -18.063  14.892  1.00  0.00    -0.388 OA
ATOM     41  H2  UNL     1     -86.906 -18.374  15.159  1.00  0.00     0.210 HD
ENDBRANCH  16  40
TORSDOF 10
ENDMDL
MODEL 4
REMARK VINA RESULT: -8.060179140      2.788      6.289
REMARK  10 active torsions:
REMARK  status: ('A' for Active; 'I' for Inactive)
REMARK    1  A    between atoms: C2_2  and  C3_3 
REMARK    2  A    between atoms: C3_3  and  C4_4 
REMARK    3  A    between atoms: C4_4  and  N1_6 
REMARK    4  A    between atoms: N1_6  and  C6_9 
REMARK    5  A    between atoms: C6_9  and  C7_10 
REMARK    6  A    between atoms: C7_10  and  O1_11 
REMARK    7  A    between atoms: C7_10  and  C8_13 
REMARK    8  A    between atoms: C23_28  and  O2_29 
REMARK    9  A    between atoms: C25_32  and  O3_33 
REMARK       I    between atoms: N2_37  and  C27_38 
REMARK   10  A    between atoms: C27_38  and  C28_40 
ROOT
HETATM    1  C8  UNL     1     -84.964 -16.121  10.048  1.00  0.00     0.121 C 
HETATM    2  C9  UNL     1     -86.158 -16.542   9.210  1.00  0.00     0.029 C 
HETATM    3  C10 UNL     1     -87.189 -15.477   9.404  1.00  0.00     0.017 C 
HETATM    4  C11 UNL     1     -87.702 -15.440  10.826  1.00  0.00     0.021 C 
HETATM    5  C12 UNL     1     -87.832 -13.922  11.149  1.00  0.00     0.021 C 
HETATM    6  C13 UNL     1     -89.099 -15.984  10.774  1.00  0.00     0.038 C 
HETATM    7  C14 UNL     1     -90.132 -14.913  10.491  1.00  0.00     0.036 C 
HETATM    8  C15 UNL     1     -91.509 -15.478  10.615  1.00  0.00    -0.023 C 
HETATM    9  C16 UNL     1     -91.799 -16.610  11.151  1.00  0.00    -0.072 C 
HETATM   10  C17 UNL     1     -93.217 -17.074  11.219  1.00  0.00     0.034 C 
HETATM   11  C18 UNL     1     -93.251 -18.375  10.440  1.00  0.00     0.004 C 
HETATM   12  C19 UNL     1     -92.137 -19.312  10.734  1.00  0.00     0.001 C 
HETATM   13  C20 UNL     1     -90.762 -18.720  10.781  1.00  0.00     0.017 C 
HETATM   14  C21 UNL     1     -90.797 -17.530  11.718  1.00  0.00     0.011 C 
HETATM   15  C22 UNL     1     -91.248 -18.081  13.070  1.00  0.00     0.023 C 
HETATM   16  C23 UNL     1     -89.491 -16.852  11.927  1.00  0.00     0.076 C 
HETATM   17  C24 UNL     1     -88.422 -17.948  11.987  1.00  0.00     0.076 C 
HETATM   18  C25 UNL     1     -87.067 -17.392  12.295  1.00  0.00     0.182 C 
HETATM   19  C26 UNL     1     -86.805 -15.999  11.822  1.00  0.00     0.214 C 
HETATM   20  F1  UNL     1     -86.862 -15.194  12.983  1.00  0.00    -0.215 F 
HETATM   21  N2  UNL     1     -85.386 -15.960  11.415  1.00  0.00    -0.306 N 
HETATM   22  C27 UNL     1     -84.382 -15.812  12.426  1.00  0.00     0.222 C 
HETATM   23  O4  UNL     1     -84.785 -15.680  13.630  1.00  0.00    -0.273 OA
ENDROOT
BRANCH   1  24
HETATM   24  C7  UNL     1     -84.136 -15.057   9.457  1.00  0.00     0.166 C 
BRANCH  24  25
HETATM   25  C6  UNL     1     -83.900 -15.436   7.962  1.00  0.00     0.266 C 
BRANCH  25  26
HETATM   26  N1  UNL     1     -84.389 -14.323   7.137  1.00  0.00    -0.069 N 
ATOM     27  H12 UNL     1     -83.655 -13.671   6.858  1.00  0.00     0.277 HD
ATOM     28  H11 UNL     1     -84.959 -13.654   7.654  1.00  0.00     0.277 HD
BRANCH  26  29
HETATM   29  C4  UNL     1     -85.082 -14.926   6.017  1.00  0.00     0.182 C 
HETATM   30  C5  UNL     1     -84.211 -14.752   4.787  1.00  0.00     0.040 C 
BRANCH  29  31
HETATM   31  C3  UNL     1     -86.468 -14.412   5.799  1.00  0.00     0.032 C 
BRANCH  31  32
HETATM   32  C2  UNL     1     -87.470 -15.471   5.419  1.00  0.00    -0.002 C 
HETATM   33  C1  UNL     1     -88.879 -15.168   5.820  1.00  0.00     0.005 C 
ENDBRANCH  31  32
ENDBRANCH  29  31
ENDBRANCH  26  29
ENDBRANCH  25  26
ENDBRANCH  24  25
BRANCH  24  34
HETATM   34  O1  UNL     1     -84.671 -13.792   9.381  1.00  0.00    -0.392 OA
ATOM     35  H1  UNL     1     -85.190 -13.726  10.174  1.00  0.00     0.210 HD
ENDBRANCH  24  34
ENDBRANCH   1  24
BRANCH  22  36
HETATM   36  C28 UNL     1     -82.936 -15.797  12.250  1.00  0.00     0.098 C 
HETATM   37  C29 UNL     1     -82.399 -14.417  12.683  1.00  0.00     0.014 C 
ENDBRANCH  22  36
BRANCH  18  38
HETATM   38  O3  UNL     1     -86.926 -17.498  13.678  1.00  0.00    -0.390 OA
ATOM     39  H3  UNL     1     -86.008 -17.326  13.853  1.00  0.00     0.210 HD
ENDBRANCH  18  38
BRANCH  16  40
HETATM   40  O2  UNL     1     -89.574 -16.153  13.130  1.00  0.00    -0.388 OA
ATOM     41  H2  UNL     1     -88.928 -16.434  13.767  1.00  0.00     0.210 HD
ENDBRANCH  16  40
TORSDOF 10
ENDMDL
MODEL 5
REMARK VINA RESULT: -8.015220912      3.027      7.570
REMARK  10 active torsions:
REMARK  status: ('A' for Active; 'I' for Inactive)
REMARK    1  A    between atoms: C2_2  and  C3_3 
REMARK    2  A    between atoms: C3_3  and  C4_4 
REMARK    3  A    between atoms: C4_4  and  N1_6 
REMARK    4  A    between atoms: N1_6  and  C6_9 
REMARK    5  A    between atoms: C6_9  and  C7_10 
REMARK    6  A    between atoms: C7_10  and  O1_11 
REMARK    7  A    between atoms: C7_10  and  C8_13 
REMARK    8  A    between atoms: C23_28  and  O2_29 
REMARK    9  A    between atoms: C25_32  and  O3_33 
REMARK       I    between atoms: N2_37  and  C27_38 
REMARK   10  A    between atoms: C27_38  and  C28_40 
ROOT
HETATM    1  C8  UNL     1     -85.676 -15.427  14.372  1.00  0.00     0.121 C 
HETATM    2  C9  UNL     1     -85.890 -15.748  12.904  1.00  0.00     0.029 C 
HETATM    3  C10 UNL     1     -87.005 -14.862  12.451  1.00  0.00     0.017 C 
HETATM    4  C11 UNL     1     -88.314 -15.212  13.124  1.00  0.00     0.021 C 
HETATM    5  C12 UNL     1     -88.969 -13.833  13.431  1.00  0.00     0.021 C 
HETATM    6  C13 UNL     1     -89.160 -15.858  12.067  1.00  0.00     0.038 C 
HETATM    7  C14 UNL     1     -89.966 -14.853  11.270  1.00  0.00     0.036 C 
HETATM    8  C15 UNL     1     -90.909 -15.558  10.351  1.00  0.00    -0.023 C 
HETATM    9  C16 UNL     1     -91.207 -16.807  10.413  1.00  0.00    -0.072 C 
HETATM   10  C17 UNL     1     -92.164 -17.406   9.437  1.00  0.00     0.034 C 
HETATM   11  C18 UNL     1     -91.379 -18.482   8.712  1.00  0.00     0.004 C 
HETATM   12  C19 UNL     1     -90.553 -19.353   9.587  1.00  0.00     0.001 C 
HETATM   13  C20 UNL     1     -89.731 -18.661  10.630  1.00  0.00     0.017 C 
HETATM   14  C21 UNL     1     -90.644 -17.736  11.409  1.00  0.00     0.011 C 
HETATM   15  C22 UNL     1     -91.726 -18.632  12.009  1.00  0.00     0.023 C 
HETATM   16  C23 UNL     1     -89.996 -17.007  12.530  1.00  0.00     0.076 C 
HETATM   17  C24 UNL     1     -89.013 -17.980  13.189  1.00  0.00     0.076 C 
HETATM   18  C25 UNL     1     -88.367 -17.387  14.402  1.00  0.00     0.182 C 
HETATM   19  C26 UNL     1     -88.191 -15.903  14.394  1.00  0.00     0.214 C 
HETATM   20  F1  UNL     1     -89.177 -15.406  15.276  1.00  0.00    -0.215 F 
HETATM   21  N2  UNL     1     -86.911 -15.635  15.081  1.00  0.00    -0.306 N 
HETATM   22  C27 UNL     1     -86.884 -15.636  16.514  1.00  0.00     0.222 C 
HETATM   23  O4  UNL     1     -87.992 -15.833  17.115  1.00  0.00    -0.273 OA
ENDROOT
BRANCH   1  24
HETATM   24  C7  UNL     1     -84.938 -14.180  14.633  1.00  0.00     0.166 C 
BRANCH  24  25
HETATM   25  C6  UNL     1     -83.625 -14.239  13.793  1.00  0.00     0.266 C 
BRANCH  25  26
HETATM   26  N1  UNL     1     -83.695 -13.177  12.780  1.00  0.00    -0.069 N 
ATOM     27  H12 UNL     1     -83.186 -12.332  13.041  1.00  0.00     0.277 HD
ATOM     28  H11 UNL     1     -84.617 -12.748  12.704  1.00  0.00     0.277 HD
BRANCH  26  29
HETATM   29  C4  UNL     1     -83.232 -13.770  11.543  1.00  0.00     0.182 C 
HETATM   30  C5  UNL     1     -81.873 -13.175  11.225  1.00  0.00     0.040 C 
BRANCH  29  31
HETATM   31  C3  UNL     1     -84.183 -13.634  10.398  1.00  0.00     0.032 C 
BRANCH  31  32
HETATM   32  C2  UNL     1     -84.269 -14.852   9.514  1.00  0.00    -0.002 C 
HETATM   33  C1  UNL     1     -85.629 -15.120   8.954  1.00  0.00     0.005 C 
ENDBRANCH  31  32
ENDBRANCH  29  31
ENDBRANCH  26  29
ENDBRANCH  25  26
ENDBRANCH  24  25
BRANCH  24  34
HETATM   34  O1  UNL     1     -85.514 -12.995  14.235  1.00  0.00    -0.392 OA
ATOM     35  H1  UNL     1     -86.372 -13.023  14.642  1.00  0.00     0.210 HD
ENDBRANCH  24  34
ENDBRANCH   1  24
BRANCH  22  36
HETATM   36  C28 UNL     1     -85.731 -15.444  17.382  1.00  0.00     0.098 C 
HETATM   37  C29 UNL     1     -84.897 -16.742  17.391  1.00  0.00     0.014 C 
ENDBRANCH  22  36
BRANCH  18  38
HETATM   38  O3  UNL     1     -89.146 -17.804  15.481  1.00  0.00    -0.390 OA
ATOM     39  H3  UNL     1     -89.415 -18.691  15.271  1.00  0.00     0.210 HD
ENDBRANCH  18  38
BRANCH  16  40
HETATM   40  O2  UNL     1     -91.005 -16.624  13.414  1.00  0.00    -0.388 OA
ATOM     41  H2  UNL     1     -91.700 -16.133  12.992  1.00  0.00     0.210 HD
ENDBRANCH  16  40
TORSDOF 10
ENDMDL
