MODEL 1
REMARK VINA RESULT: -7.787457424      0.000      0.000
REMARK  8 active torsions:
REMARK  status: ('A' for Active; 'I' for Inactive)
REMARK    1  A    between atoms: C2_2  and  O1_4 
REMARK    2  A    between atoms: O1_4  and  C4_5 
REMARK    3  A    between atoms: C4_5  and  C5_7 
REMARK    4  A    between atoms: C5_7  and  C6_8 
REMARK    5  A    between atoms: C6_8  and  O3_10 
REMARK    6  A    between atoms: O3_10  and  C8_11 
REMARK    7  A    between atoms: C12_16  and  N1_17 
REMARK       I    between atoms: N1_17  and  C13_19 
REMARK       I    between atoms: C13_19  and  N2_21 
REMARK    8  A    between atoms: N3_23  and  C14_25 
ROOT
HETATM    1  C8  UNL     1    -101.676 -15.409  48.163  1.00  0.00     0.156 C 
HETATM    2  C9  UNL     1    -102.585 -15.181  49.312  1.00  0.00     0.147 C 
HETATM    3  C10 UNL     1    -102.652 -13.680  49.631  1.00  0.00     0.042 C 
HETATM    4  O4  UNL     1    -102.366 -15.840  50.469  1.00  0.00    -0.374 OA
HETATM    5  C11 UNL     1    -101.202 -16.523  50.548  1.00  0.00     0.176 C 
HETATM    6  C12 UNL     1    -100.722 -16.750  51.973  1.00  0.00     0.141 C 
HETATM    7  C21 UNL     1     -99.224 -16.793  51.759  1.00  0.00     0.196 C 
HETATM    8  O6  UNL     1     -98.971 -16.338  50.483  1.00  0.00    -0.381 OA
HETATM    9  C22 UNL     1    -100.072 -15.623  50.064  1.00  0.00     0.158 C 
HETATM   10  C23 UNL     1    -100.218 -15.539  48.573  1.00  0.00     0.045 C 
HETATM   11  C24 UNL     1     -99.378 -14.376  48.089  1.00  0.00     0.015 C 
ENDROOT
BRANCH   6  12
HETATM   12  N1  UNL     1    -101.049 -15.580  52.780  1.00  0.00    -0.333 N 
HETATM   13  C13 UNL     1    -100.824 -15.553  54.181  1.00  0.00     0.335 C 
HETATM   14  O5  UNL     1    -100.323 -16.560  54.789  1.00  0.00    -0.246 OA
HETATM   15  N2  UNL     1    -101.146 -14.410  54.951  1.00  0.00    -0.250 N 
HETATM   16  N3  UNL     1    -100.413 -13.408  55.104  1.00  0.00    -0.280 N 
ATOM     17  H2  UNL     1    -102.051 -14.403  55.422  1.00  0.00     0.192 HD
ATOM     18  H3  UNL     1    -100.766 -12.649  55.686  1.00  0.00     0.189 HD
ATOM     19  H1  UNL     1    -101.449 -14.758  52.326  1.00  0.00     0.164 HD
BRANCH  16  20
HETATM   20  C14 UNL     1     -99.125 -13.249  54.523  1.00  0.00     0.147 A 
HETATM   21  N4  UNL     1     -97.913 -13.451  55.071  1.00  0.00    -0.283 N 
HETATM   22  N5  UNL     1     -96.977 -13.185  54.186  1.00  0.00    -0.298 N 
ATOM     23  H4  UNL     1     -97.746 -13.763  56.028  1.00  0.00     0.188 HD
HETATM   24  C15 UNL     1     -97.547 -12.801  53.032  1.00  0.00     0.062 A 
ATOM     25  H5  UNL     1     -95.973 -13.259  54.351  1.00  0.00     0.187 HD
HETATM   26  C16 UNL     1     -97.029 -12.419  51.812  1.00  0.00     0.035 A 
HETATM   27  C20 UNL     1     -98.905 -12.835  53.222  1.00  0.00     0.042 A 
HETATM   28  C17 UNL     1     -97.859 -12.061  50.755  1.00  0.00     0.044 A 
HETATM   29  C18 UNL     1     -99.230 -12.091  50.938  1.00  0.00     0.117 A 
HETATM   30  F1  UNL     1    -100.048 -11.740  49.903  1.00  0.00    -0.206 F 
HETATM   31  C19 UNL     1     -99.708 -12.476  52.165  1.00  0.00     0.060 A 
ENDBRANCH  16  20
ENDBRANCH   6  12
BRANCH   1  32
HETATM   32  O3  UNL     1    -101.974 -16.526  47.400  1.00  0.00    -0.378 OA
BRANCH  32  33
HETATM   33  C6  UNL     1    -103.245 -16.525  46.869  1.00  0.00     0.127 C 
HETATM   34  C7  UNL     1    -103.460 -15.341  45.963  1.00  0.00     0.040 C 
BRANCH  33  35
HETATM   35  C5  UNL     1    -103.657 -17.812  46.227  1.00  0.00     0.142 C 
BRANCH  35  36
HETATM   36  C4  UNL     1    -104.667 -18.452  47.129  1.00  0.00     0.261 C 
HETATM   37  O2  UNL     1    -105.319 -19.481  46.790  1.00  0.00    -0.265 OA
BRANCH  36  38
HETATM   38  O1  UNL     1    -104.948 -17.951  48.397  1.00  0.00    -0.317 OA
BRANCH  38  39
HETATM   39  C2  UNL     1    -106.233 -17.471  48.765  1.00  0.00     0.123 C 
HETATM   40  C1  UNL     1    -106.160 -16.065  49.317  1.00  0.00     0.040 C 
HETATM   41  C3  UNL     1    -106.848 -18.427  49.764  1.00  0.00     0.040 C 
ENDBRANCH  38  39
ENDBRANCH  36  38
ENDBRANCH  35  36
ENDBRANCH  33  35
ENDBRANCH  32  33
ENDBRANCH   1  32
TORSDOF 8
ENDMDL
MODEL 2
REMARK VINA RESULT: -7.762822811      2.167      3.620
REMARK  8 active torsions:
REMARK  status: ('A' for Active; 'I' for Inactive)
REMARK    1  A    between atoms: C2_2  and  O1_4 
REMARK    2  A    between atoms: O1_4  and  C4_5 
REMARK    3  A    between atoms: C4_5  and  C5_7 
REMARK    4  A    between atoms: C5_7  and  C6_8 
REMARK    5  A    between atoms: C6_8  and  O3_10 
REMARK    6  A    between atoms: O3_10  and  C8_11 
REMARK    7  A    between atoms: C12_16  and  N1_17 
REMARK       I    between atoms: N1_17  and  C13_19 
REMARK       I    between atoms: C13_19  and  N2_21 
REMARK    8  A    between atoms: N3_23  and  C14_25 
ROOT
HETATM    1  C8  UNL     1    -101.099 -15.412  49.222  1.00  0.00     0.156 C 
HETATM    2  C9  UNL     1    -101.464 -14.167  49.940  1.00  0.00     0.147 C 
HETATM    3  C10 UNL     1    -100.696 -12.979  49.342  1.00  0.00     0.042 C 
HETATM    4  O4  UNL     1    -101.327 -14.114  51.281  1.00  0.00    -0.374 OA
HETATM    5  C11 UNL     1    -100.677 -15.154  51.851  1.00  0.00     0.176 C 
HETATM    6  C12 UNL     1    -100.044 -14.819  53.191  1.00  0.00     0.141 C 
HETATM    7  C21 UNL     1     -98.869 -15.773  53.191  1.00  0.00     0.196 C 
HETATM    8  O6  UNL     1     -98.741 -16.279  51.916  1.00  0.00    -0.381 OA
HETATM    9  C22 UNL     1     -99.406 -15.431  51.058  1.00  0.00     0.158 C 
HETATM   10  C23 UNL     1     -99.849 -16.075  49.776  1.00  0.00     0.045 C 
HETATM   11  C24 UNL     1     -98.689 -16.022  48.805  1.00  0.00     0.015 C 
ENDROOT
BRANCH   6  12
HETATM   12  N1  UNL     1     -99.538 -13.451  53.154  1.00  0.00    -0.333 N 
HETATM   13  C13 UNL     1     -98.891 -12.863  54.272  1.00  0.00     0.335 C 
HETATM   14  O5  UNL     1     -98.725 -13.516  55.358  1.00  0.00    -0.246 OA
HETATM   15  N2  UNL     1     -98.406 -11.534  54.220  1.00  0.00    -0.250 N 
HETATM   16  N3  UNL     1     -97.299 -11.184  53.756  1.00  0.00    -0.280 N 
ATOM     17  H2  UNL     1     -99.010 -10.801  54.592  1.00  0.00     0.192 HD
ATOM     18  H3  UNL     1     -97.070 -10.190  53.779  1.00  0.00     0.189 HD
ATOM     19  H1  UNL     1     -99.653 -12.902  52.301  1.00  0.00     0.164 HD
BRANCH  16  20
HETATM   20  C14 UNL     1     -96.335 -12.069  53.199  1.00  0.00     0.147 A 
HETATM   21  N4  UNL     1     -95.294 -12.678  53.793  1.00  0.00    -0.283 N 
HETATM   22  N5  UNL     1     -94.650 -13.415  52.914  1.00  0.00    -0.298 N 
ATOM     23  H4  UNL     1     -95.041 -12.583  54.777  1.00  0.00     0.188 HD
HETATM   24  C15 UNL     1     -95.251 -13.311  51.717  1.00  0.00     0.062 A 
ATOM     25  H5  UNL     1     -93.822 -13.978  53.110  1.00  0.00     0.187 HD
HETATM   26  C16 UNL     1     -94.986 -13.868  50.483  1.00  0.00     0.035 A 
HETATM   27  C20 UNL     1     -96.320 -12.465  51.874  1.00  0.00     0.042 A 
HETATM   28  C17 UNL     1     -95.784 -13.589  49.378  1.00  0.00     0.044 A 
HETATM   29  C18 UNL     1     -96.862 -12.737  49.527  1.00  0.00     0.117 A 
HETATM   30  F1  UNL     1     -97.648 -12.461  48.445  1.00  0.00    -0.206 F 
HETATM   31  C19 UNL     1     -97.095 -12.202  50.769  1.00  0.00     0.060 A 
ENDBRANCH  16  20
ENDBRANCH   6  12
BRANCH   1  32
HETATM   32  O3  UNL     1    -102.087 -16.382  49.203  1.00  0.00    -0.378 OA
BRANCH  32  33
HETATM   33  C6  UNL     1    -102.611 -16.630  47.954  1.00  0.00     0.127 C 
HETATM   34  C7  UNL     1    -103.290 -17.974  47.901  1.00  0.00     0.040 C 
BRANCH  33  35
HETATM   35  C5  UNL     1    -103.476 -15.537  47.409  1.00  0.00     0.142 C 
BRANCH  35  36
HETATM   36  C4  UNL     1    -103.010 -15.261  46.012  1.00  0.00     0.261 C 
HETATM   37  O2  UNL     1    -103.799 -14.884  45.099  1.00  0.00    -0.265 OA
BRANCH  36  38
HETATM   38  O1  UNL     1    -101.676 -15.401  45.637  1.00  0.00    -0.317 OA
BRANCH  38  39
HETATM   39  C2  UNL     1    -100.906 -14.323  45.123  1.00  0.00     0.123 C 
HETATM   40  C1  UNL     1    -100.707 -14.451  43.629  1.00  0.00     0.040 C 
HETATM   41  C3  UNL     1     -99.584 -14.271  45.857  1.00  0.00     0.040 C 
ENDBRANCH  38  39
ENDBRANCH  36  38
ENDBRANCH  35  36
ENDBRANCH  33  35
ENDBRANCH  32  33
ENDBRANCH   1  32
TORSDOF 8
ENDMDL
MODEL 3
REMARK VINA RESULT: -7.670613194      1.548      2.930
REMARK  8 active torsions:
REMARK  status: ('A' for Active; 'I' for Inactive)
REMARK    1  A    between atoms: C2_2  and  O1_4 
REMARK    2  A    between atoms: O1_4  and  C4_5 
REMARK    3  A    between atoms: C4_5  and  C5_7 
REMARK    4  A    between atoms: C5_7  and  C6_8 
REMARK    5  A    between atoms: C6_8  and  O3_10 
REMARK    6  A    between atoms: O3_10  and  C8_11 
REMARK    7  A    between atoms: C12_16  and  N1_17 
REMARK       I    between atoms: N1_17  and  C13_19 
REMARK       I    between atoms: C13_19  and  N2_21 
REMARK    8  A    between atoms: N3_23  and  C14_25 
ROOT
HETATM    1  C8  UNL     1    -102.183 -15.882  49.128  1.00  0.00     0.156 C 
HETATM    2  C9  UNL     1    -102.856 -15.503  50.394  1.00  0.00     0.147 C 
HETATM    3  C10 UNL     1    -102.918 -13.973  50.511  1.00  0.00     0.042 C 
HETATM    4  O4  UNL     1    -102.386 -15.988  51.562  1.00  0.00    -0.374 OA
HETATM    5  C11 UNL     1    -101.202 -16.639  51.497  1.00  0.00     0.176 C 
HETATM    6  C12 UNL     1    -100.441 -16.655  52.814  1.00  0.00     0.141 C 
HETATM    7  C21 UNL     1     -99.015 -16.710  52.310  1.00  0.00     0.196 C 
HETATM    8  O6  UNL     1     -99.037 -16.438  50.960  1.00  0.00    -0.381 OA
HETATM    9  C22 UNL     1    -100.227 -15.804  50.678  1.00  0.00     0.158 C 
HETATM   10  C23 UNL     1    -100.669 -15.934  49.249  1.00  0.00     0.045 C 
HETATM   11  C24 UNL     1     -99.989 -14.842  48.451  1.00  0.00     0.015 C 
ENDROOT
BRANCH   6  12
HETATM   12  N1  UNL     1    -100.649 -15.386  53.503  1.00  0.00    -0.333 N 
HETATM   13  C13 UNL     1    -100.103 -15.137  54.789  1.00  0.00     0.335 C 
HETATM   14  O5  UNL     1     -99.404 -16.021  55.393  1.00  0.00    -0.246 OA
HETATM   15  N2  UNL     1    -100.313 -13.900  55.444  1.00  0.00    -0.250 N 
HETATM   16  N3  UNL     1     -99.636 -12.862  55.270  1.00  0.00    -0.280 N 
ATOM     17  H2  UNL     1    -101.080 -13.850  56.115  1.00  0.00     0.192 HD
ATOM     18  H3  UNL     1     -99.893 -12.035  55.808  1.00  0.00     0.189 HD
ATOM     19  H1  UNL     1    -101.201 -14.658  53.048  1.00  0.00     0.164 HD
BRANCH  16  20
HETATM   20  C14 UNL     1     -98.535 -12.752  54.377  1.00  0.00     0.147 A 
HETATM   21  N4  UNL     1     -97.218 -12.850  54.632  1.00  0.00    -0.283 N 
HETATM   22  N5  UNL     1     -96.537 -12.683  53.519  1.00  0.00    -0.298 N 
ATOM     23  H4  UNL     1     -96.809 -13.028  55.550  1.00  0.00     0.188 HD
HETATM   24  C15 UNL     1     -97.387 -12.470  52.501  1.00  0.00     0.062 A 
ATOM     25  H5  UNL     1     -95.520 -12.710  53.442  1.00  0.00     0.187 HD
HETATM   26  C16 UNL     1     -97.198 -12.243  51.154  1.00  0.00     0.035 A 
HETATM   27  C20 UNL     1     -98.656 -12.511  53.020  1.00  0.00     0.042 A 
HETATM   28  C17 UNL     1     -98.276 -12.049  50.296  1.00  0.00     0.044 A 
HETATM   29  C18 UNL     1     -99.559 -12.086  50.812  1.00  0.00     0.117 A 
HETATM   30  F1  UNL     1    -100.620 -11.897  49.972  1.00  0.00    -0.206 F 
HETATM   31  C19 UNL     1     -99.708 -12.315  52.157  1.00  0.00     0.060 A 
ENDBRANCH  16  20
ENDBRANCH   6  12
BRANCH   1  32
HETATM   32  O3  UNL     1    -102.581 -17.099  48.601  1.00  0.00    -0.378 OA
BRANCH  32  33
HETATM   33  C6  UNL     1    -102.976 -17.042  47.282  1.00  0.00     0.127 C 
HETATM   34  C7  UNL     1    -103.573 -18.349  46.832  1.00  0.00     0.040 C 
BRANCH  33  35
HETATM   35  C5  UNL     1    -103.845 -15.874  46.938  1.00  0.00     0.142 C 
BRANCH  35  36
HETATM   36  C4  UNL     1    -103.219 -15.188  45.763  1.00  0.00     0.261 C 
HETATM   37  O2  UNL     1    -103.885 -14.458  44.973  1.00  0.00    -0.265 OA
BRANCH  36  38
HETATM   38  O1  UNL     1    -101.863 -15.313  45.471  1.00  0.00    -0.317 OA
BRANCH  38  39
HETATM   39  C2  UNL     1    -101.123 -14.294  44.813  1.00  0.00     0.123 C 
HETATM   40  C1  UNL     1    -101.242 -14.409  43.310  1.00  0.00     0.040 C 
HETATM   41  C3  UNL     1     -99.680 -14.367  45.263  1.00  0.00     0.040 C 
ENDBRANCH  38  39
ENDBRANCH  36  38
ENDBRANCH  35  36
ENDBRANCH  33  35
ENDBRANCH  32  33
ENDBRANCH   1  32
TORSDOF 8
ENDMDL
MODEL 4
REMARK VINA RESULT: -7.663709506      1.240      1.700
REMARK  8 active torsions:
REMARK  status: ('A' for Active; 'I' for Inactive)
REMARK    1  A    between atoms: C2_2  and  O1_4 
REMARK    2  A    between atoms: O1_4  and  C4_5 
REMARK    3  A    between atoms: C4_5  and  C5_7 
REMARK    4  A    between atoms: C5_7  and  C6_8 
REMARK    5  A    between atoms: C6_8  and  O3_10 
REMARK    6  A    between atoms: O3_10  and  C8_11 
REMARK    7  A    between atoms: C12_16  and  N1_17 
REMARK       I    between atoms: N1_17  and  C13_19 
REMARK       I    between atoms: C13_19  and  N2_21 
REMARK    8  A    between atoms: N3_23  and  C14_25 
ROOT
HETATM    1  C8  UNL     1    -102.195 -16.028  49.155  1.00  0.00     0.156 C 
HETATM    2  C9  UNL     1    -102.737 -15.654  50.483  1.00  0.00     0.147 C 
HETATM    3  C10 UNL     1    -102.847 -14.125  50.587  1.00  0.00     0.042 C 
HETATM    4  O4  UNL     1    -102.120 -16.100  51.597  1.00  0.00    -0.374 OA
HETATM    5  C11 UNL     1    -100.926 -16.706  51.409  1.00  0.00     0.176 C 
HETATM    6  C12 UNL     1    -100.024 -16.671  52.632  1.00  0.00     0.141 C 
HETATM    7  C21 UNL     1     -98.661 -16.680  51.973  1.00  0.00     0.196 C 
HETATM    8  O6  UNL     1     -98.844 -16.432  50.630  1.00  0.00    -0.381 OA
HETATM    9  C22 UNL     1    -100.083 -15.849  50.475  1.00  0.00     0.158 C 
HETATM   10  C23 UNL     1    -100.676 -16.020  49.106  1.00  0.00     0.045 C 
HETATM   11  C24 UNL     1    -100.133 -14.917  48.223  1.00  0.00     0.015 C 
ENDROOT
BRANCH   6  12
HETATM   12  N1  UNL     1    -100.203 -15.398  53.323  1.00  0.00    -0.333 N 
HETATM   13  C13 UNL     1     -99.540 -15.112  54.545  1.00  0.00     0.335 C 
HETATM   14  O5  UNL     1     -98.754 -15.964  55.086  1.00  0.00    -0.246 OA
HETATM   15  N2  UNL     1     -99.724 -13.873  55.204  1.00  0.00    -0.250 N 
HETATM   16  N3  UNL     1     -99.104 -12.817  54.950  1.00  0.00    -0.280 N 
ATOM     17  H2  UNL     1    -100.421 -13.838  55.948  1.00  0.00     0.192 HD
ATOM     18  H3  UNL     1     -99.333 -11.991  55.501  1.00  0.00     0.189 HD
ATOM     19  H1  UNL     1    -100.822 -14.696  52.918  1.00  0.00     0.164 HD
BRANCH  16  20
HETATM   20  C14 UNL     1     -98.102 -12.685  53.949  1.00  0.00     0.147 A 
HETATM   21  N4  UNL     1     -96.763 -12.726  54.074  1.00  0.00    -0.283 N 
HETATM   22  N5  UNL     1     -96.204 -12.558  52.895  1.00  0.00    -0.298 N 
ATOM     23  H4  UNL     1     -96.259 -12.867  54.949  1.00  0.00     0.188 HD
HETATM   24  C15 UNL     1     -97.158 -12.402  51.963  1.00  0.00     0.062 A 
ATOM     25  H5  UNL     1     -95.199 -12.548  52.717  1.00  0.00     0.187 HD
HETATM   26  C16 UNL     1     -97.114 -12.199  50.600  1.00  0.00     0.035 A 
HETATM   27  C20 UNL     1     -98.367 -12.480  52.607  1.00  0.00     0.042 A 
HETATM   28  C17 UNL     1     -98.278 -12.066  49.851  1.00  0.00     0.044 A 
HETATM   29  C18 UNL     1     -99.501 -12.141  50.492  1.00  0.00     0.117 A 
HETATM   30  F1  UNL     1    -100.647 -12.012  49.760  1.00  0.00    -0.206 F 
HETATM   31  C19 UNL     1     -99.506 -12.345  51.850  1.00  0.00     0.060 A 
ENDBRANCH  16  20
ENDBRANCH   6  12
BRANCH   1  32
HETATM   32  O3  UNL     1    -102.600 -17.268  48.691  1.00  0.00    -0.378 OA
BRANCH  32  33
HETATM   33  C6  UNL     1    -103.678 -17.227  47.834  1.00  0.00     0.127 C 
HETATM   34  C7  UNL     1    -103.249 -17.420  46.403  1.00  0.00     0.040 C 
BRANCH  33  35
HETATM   35  C5  UNL     1    -104.812 -18.127  48.211  1.00  0.00     0.142 C 
BRANCH  35  36
HETATM   36  C4  UNL     1    -105.880 -17.264  48.810  1.00  0.00     0.261 C 
HETATM   37  O2  UNL     1    -107.068 -17.669  48.966  1.00  0.00    -0.265 OA
BRANCH  36  38
HETATM   38  O1  UNL     1    -105.626 -15.962  49.233  1.00  0.00    -0.317 OA
BRANCH  38  39
HETATM   39  C2  UNL     1    -106.184 -14.824  48.590  1.00  0.00     0.123 C 
HETATM   40  C1  UNL     1    -105.163 -14.127  47.718  1.00  0.00     0.040 C 
HETATM   41  C3  UNL     1    -106.745 -13.891  49.641  1.00  0.00     0.040 C 
ENDBRANCH  38  39
ENDBRANCH  36  38
ENDBRANCH  35  36
ENDBRANCH  33  35
ENDBRANCH  32  33
ENDBRANCH   1  32
TORSDOF 8
ENDMDL
MODEL 5
REMARK VINA RESULT: -7.588084062      1.890      3.450
REMARK  8 active torsions:
REMARK  status: ('A' for Active; 'I' for Inactive)
REMARK    1  A    between atoms: C2_2  and  O1_4 
REMARK    2  A    between atoms: O1_4  and  C4_5 
REMARK    3  A    between atoms: C4_5  and  C5_7 
REMARK    4  A    between atoms: C5_7  and  C6_8 
REMARK    5  A    between atoms: C6_8  and  O3_10 
REMARK    6  A    between atoms: O3_10  and  C8_11 
REMARK    7  A    between atoms: C12_16  and  N1_17 
REMARK       I    between atoms: N1_17  and  C13_19 
REMARK       I    between atoms: C13_19  and  N2_21 
REMARK    8  A    between atoms: N3_23  and  C14_25 
ROOT
HETATM    1  C8  UNL     1    -102.204 -15.114  49.961  1.00  0.00     0.156 C 
HETATM    2  C9  UNL     1    -102.272 -13.813  50.670  1.00  0.00     0.147 C 
HETATM    3  C10 UNL     1    -101.521 -12.743  49.864  1.00  0.00     0.042 C 
HETATM    4  O4  UNL     1    -101.851 -13.737  51.949  1.00  0.00    -0.374 OA
HETATM    5  C11 UNL     1    -101.214 -14.829  52.429  1.00  0.00     0.176 C 
HETATM    6  C12 UNL     1    -100.281 -14.531  53.591  1.00  0.00     0.141 C 
HETATM    7  C21 UNL     1     -99.244 -15.618  53.401  1.00  0.00     0.196 C 
HETATM    8  O6  UNL     1     -99.443 -16.173  52.156  1.00  0.00    -0.381 OA
HETATM    9  C22 UNL     1    -100.176 -15.278  51.408  1.00  0.00     0.158 C 
HETATM   10  C23 UNL     1    -100.946 -15.904  50.282  1.00  0.00     0.045 C 
HETATM   11  C24 UNL     1    -100.017 -16.017  49.092  1.00  0.00     0.015 C 
ENDROOT
BRANCH   6  12
HETATM   12  N1  UNL     1     -99.647 -13.234  53.377  1.00  0.00    -0.333 N 
HETATM   13  C13 UNL     1     -98.778 -12.659  54.341  1.00  0.00     0.335 C 
HETATM   14  O5  UNL     1     -98.516 -13.262  55.437  1.00  0.00    -0.246 OA
HETATM   15  N2  UNL     1     -98.172 -11.400  54.118  1.00  0.00    -0.250 N 
HETATM   16  N3  UNL     1     -97.119 -11.206  53.472  1.00  0.00    -0.280 N 
ATOM     17  H2  UNL     1     -98.632 -10.582  54.519  1.00  0.00     0.192 HD
ATOM     18  H3  UNL     1     -96.788 -10.245  53.386  1.00  0.00     0.189 HD
ATOM     19  H1  UNL     1     -99.835 -12.727  52.512  1.00  0.00     0.164 HD
BRANCH  16  20
HETATM   20  C14 UNL     1     -96.350 -12.227  52.847  1.00  0.00     0.147 A 
HETATM   21  N4  UNL     1     -95.276 -12.889  53.313  1.00  0.00    -0.283 N 
HETATM   22  N5  UNL     1     -94.865 -13.755  52.412  1.00  0.00    -0.298 N 
ATOM     23  H4  UNL     1     -94.845 -12.742  54.226  1.00  0.00     0.188 HD
HETATM   24  C15 UNL     1     -95.658 -13.687  51.330  1.00  0.00     0.062 A 
ATOM     25  H5  UNL     1     -94.067 -14.382  52.519  1.00  0.00     0.187 HD
HETATM   26  C16 UNL     1     -95.665 -14.365  50.129  1.00  0.00     0.035 A 
HETATM   27  C20 UNL     1     -96.605 -12.727  51.583  1.00  0.00     0.042 A 
HETATM   28  C17 UNL     1     -96.620 -14.096  49.154  1.00  0.00     0.044 A 
HETATM   29  C18 UNL     1     -97.577 -13.129  49.400  1.00  0.00     0.117 A 
HETATM   30  F1  UNL     1     -98.516 -12.862  48.445  1.00  0.00    -0.206 F 
HETATM   31  C19 UNL     1     -97.538 -12.475  50.606  1.00  0.00     0.060 A 
ENDBRANCH  16  20
ENDBRANCH   6  12
BRANCH   1  32
HETATM   32  O3  UNL     1    -103.274 -15.960  50.197  1.00  0.00    -0.378 OA
BRANCH  32  33
HETATM   33  C6  UNL     1    -103.989 -16.296  49.068  1.00  0.00     0.127 C 
HETATM   34  C7  UNL     1    -105.430 -16.588  49.398  1.00  0.00     0.040 C 
BRANCH  33  35
HETATM   35  C5  UNL     1    -103.853 -15.333  47.931  1.00  0.00     0.142 C 
BRANCH  35  36
HETATM   36  C4  UNL     1    -103.435 -16.125  46.730  1.00  0.00     0.261 C 
HETATM   37  O2  UNL     1    -104.225 -16.908  46.128  1.00  0.00    -0.265 OA
BRANCH  36  38
HETATM   38  O1  UNL     1    -102.148 -16.045  46.204  1.00  0.00    -0.317 OA
BRANCH  38  39
HETATM   39  C2  UNL     1    -101.591 -14.830  45.721  1.00  0.00     0.123 C 
HETATM   40  C1  UNL     1    -102.197 -14.434  44.394  1.00  0.00     0.040 C 
HETATM   41  C3  UNL     1    -100.089 -14.985  45.621  1.00  0.00     0.040 C 
ENDBRANCH  38  39
ENDBRANCH  36  38
ENDBRANCH  35  36
ENDBRANCH  33  35
ENDBRANCH  32  33
ENDBRANCH   1  32
TORSDOF 8
ENDMDL
