MODEL 1
REMARK VINA RESULT: -6.154943464      0.000      0.000
REMARK  2 active torsions:
REMARK  status: ('A' for Active; 'I' for Inactive)
REMARK    1  A    between atoms: N3_4  and  N4_6 
REMARK       I    between atoms: N4_6  and  C2_7 
REMARK       I    between atoms: C2_7  and  N5_9 
REMARK    2  A    between atoms: N5_9  and  C3_11 
ROOT
HETATM    1  N4  UNL     1     -13.236 -33.106  96.025  1.00  0.00    -0.262 NA
HETATM    2  C2  UNL     1     -14.331 -33.827  95.574  1.00  0.00     0.430 C 
HETATM    3  O1  UNL     1     -15.406 -33.420  95.088  1.00  0.00    -0.227 OA
HETATM    4  N5  UNL     1     -14.225 -35.279  95.680  1.00  0.00    -0.125 N 
ATOM      5  H5  UNL     1     -13.887 -35.701  96.546  1.00  0.00     0.190 HD
ENDROOT
BRANCH   4   6
HETATM    6  C3  UNL     1     -14.550 -36.017  94.706  1.00  0.00     0.718 A 
HETATM    7  N6  UNL     1     -15.847 -36.060  94.270  1.00  0.00    -0.115 N 
HETATM    8  N7  UNL     1     -15.864 -36.897  93.265  1.00  0.00    -0.213 N 
ATOM      9  H6  UNL     1     -16.640 -35.544  94.653  1.00  0.00     0.207 HD
HETATM   10  N8  UNL     1     -14.661 -37.378  93.048  1.00  0.00    -0.213 N 
ATOM     11  H7  UNL     1     -16.694 -37.142  92.725  1.00  0.00     0.210 HD
HETATM   12  N9  UNL     1     -13.853 -36.838  93.931  1.00  0.00    -0.115 N 
ATOM     13  H8  UNL     1     -14.401 -38.049  92.325  1.00  0.00     0.210 HD
ATOM     14  H9  UNL     1     -12.852 -37.020  94.009  1.00  0.00     0.207 HD
ENDBRANCH   4   6
BRANCH   1  15
HETATM   15  N3  UNL     1     -12.256 -32.461  96.429  1.00  0.00    -0.204 N 
HETATM   16  C1  UNL     1     -11.871 -31.471  97.132  1.00  0.00     0.226 C 
HETATM   17  N1  UNL     1     -12.879 -30.708  97.771  1.00  0.00    -0.065 NA
HETATM   18  N2  UNL     1     -10.487 -31.158  97.267  1.00  0.00    -0.065 NA
ATOM     19  H3  UNL     1     -11.421 -32.902  96.041  1.00  0.00     0.204 HD
ENDBRANCH   1  15
TORSDOF 2
ENDMDL
MODEL 2
REMARK VINA RESULT: -6.107938056      1.937      5.852
REMARK  2 active torsions:
REMARK  status: ('A' for Active; 'I' for Inactive)
REMARK    1  A    between atoms: N3_4  and  N4_6 
REMARK       I    between atoms: N4_6  and  C2_7 
REMARK       I    between atoms: C2_7  and  N5_9 
REMARK    2  A    between atoms: N5_9  and  C3_11 
ROOT
HETATM    1  N4  UNL     1     -13.963 -34.880  94.704  1.00  0.00    -0.262 NA
HETATM    2  C2  UNL     1     -13.694 -33.636  95.254  1.00  0.00     0.430 C 
HETATM    3  O1  UNL     1     -12.996 -32.702  94.806  1.00  0.00    -0.227 OA
HETATM    4  N5  UNL     1     -14.311 -33.364  96.549  1.00  0.00    -0.125 N 
ATOM      5  H5  UNL     1     -14.268 -34.067  97.288  1.00  0.00     0.190 HD
ENDROOT
BRANCH   4   6
HETATM    6  C3  UNL     1     -14.898 -32.264  96.761  1.00  0.00     0.718 A 
HETATM    7  N6  UNL     1     -14.188 -31.094  96.791  1.00  0.00    -0.115 N 
HETATM    8  N7  UNL     1     -15.060 -30.147  97.024  1.00  0.00    -0.213 N 
ATOM      9  H6  UNL     1     -13.182 -30.983  96.659  1.00  0.00     0.207 HD
HETATM   10  N8  UNL     1     -16.267 -30.653  97.141  1.00  0.00    -0.213 N 
ATOM     11  H7  UNL     1     -14.835 -29.155  97.103  1.00  0.00     0.210 HD
HETATM   12  N9  UNL     1     -16.168 -31.953  96.979  1.00  0.00    -0.115 N 
ATOM     13  H8  UNL     1     -17.124 -30.132  97.324  1.00  0.00     0.210 HD
ATOM     14  H9  UNL     1     -16.943 -32.615  97.014  1.00  0.00     0.207 HD
ENDBRANCH   4   6
BRANCH   1  15
HETATM   15  N3  UNL     1     -14.204 -35.992  94.213  1.00  0.00    -0.204 N 
HETATM   16  C1  UNL     1     -15.112 -36.769  93.771  1.00  0.00     0.226 C 
HETATM   17  N1  UNL     1     -16.441 -36.279  93.795  1.00  0.00    -0.065 NA
HETATM   18  N2  UNL     1     -14.794 -38.066  93.273  1.00  0.00    -0.065 NA
ATOM     19  H3  UNL     1     -13.315 -36.486  94.128  1.00  0.00     0.204 HD
ENDBRANCH   1  15
TORSDOF 2
ENDMDL
MODEL 3
REMARK VINA RESULT: -6.020296542      1.883      5.782
REMARK  2 active torsions:
REMARK  status: ('A' for Active; 'I' for Inactive)
REMARK    1  A    between atoms: N3_4  and  N4_6 
REMARK       I    between atoms: N4_6  and  C2_7 
REMARK       I    between atoms: C2_7  and  N5_9 
REMARK    2  A    between atoms: N5_9  and  C3_11 
ROOT
HETATM    1  N4  UNL     1     -13.787 -34.781  94.718  1.00  0.00    -0.262 NA
HETATM    2  C2  UNL     1     -13.424 -33.562  95.268  1.00  0.00     0.430 C 
HETATM    3  O1  UNL     1     -12.667 -32.678  94.814  1.00  0.00    -0.227 OA
HETATM    4  N5  UNL     1     -14.003 -33.253  96.572  1.00  0.00    -0.125 N 
ATOM      5  H5  UNL     1     -13.999 -33.960  97.308  1.00  0.00     0.190 HD
ENDROOT
BRANCH   4   6
HETATM    6  C3  UNL     1     -14.508 -32.115  96.795  1.00  0.00     0.718 A 
HETATM    7  N6  UNL     1     -15.810 -32.002  97.202  1.00  0.00    -0.115 N 
HETATM    8  N7  UNL     1     -16.033 -30.722  97.350  1.00  0.00    -0.213 N 
ATOM      9  H6  UNL     1     -16.473 -32.762  97.358  1.00  0.00     0.207 HD
HETATM   10  N8  UNL     1     -14.954 -30.031  97.060  1.00  0.00    -0.213 N 
ATOM     11  H7  UNL     1     -16.921 -30.316  97.648  1.00  0.00     0.210 HD
HETATM   12  N9  UNL     1     -14.016 -30.886  96.720  1.00  0.00    -0.115 N 
ATOM     13  H8  UNL     1     -14.860 -29.016  97.093  1.00  0.00     0.210 HD
ATOM     14  H9  UNL     1     -13.065 -30.643  96.444  1.00  0.00     0.207 HD
ENDBRANCH   4   6
BRANCH   1  15
HETATM   15  N3  UNL     1     -14.112 -35.872  94.226  1.00  0.00    -0.204 N 
HETATM   16  C1  UNL     1     -15.084 -36.605  93.851  1.00  0.00     0.226 C 
HETATM   17  N1  UNL     1     -16.387 -36.070  94.006  1.00  0.00    -0.065 NA
HETATM   18  N2  UNL     1     -14.860 -37.899  93.299  1.00  0.00    -0.065 NA
ATOM     19  H3  UNL     1     -13.253 -36.395  94.051  1.00  0.00     0.204 HD
ENDBRANCH   1  15
TORSDOF 2
ENDMDL
MODEL 4
REMARK VINA RESULT: -5.864981408      1.318      1.872
REMARK  2 active torsions:
REMARK  status: ('A' for Active; 'I' for Inactive)
REMARK    1  A    between atoms: N3_4  and  N4_6 
REMARK       I    between atoms: N4_6  and  C2_7 
REMARK       I    between atoms: C2_7  and  N5_9 
REMARK    2  A    between atoms: N5_9  and  C3_11 
ROOT
HETATM    1  N4  UNL     1     -14.068 -34.065  96.594  1.00  0.00    -0.262 NA
HETATM    2  C2  UNL     1     -14.708 -35.245  96.248  1.00  0.00     0.430 C 
HETATM    3  O1  UNL     1     -15.717 -35.780  96.752  1.00  0.00    -0.227 OA
HETATM    4  N5  UNL     1     -14.124 -35.983  95.132  1.00  0.00    -0.125 N 
ATOM      5  H5  UNL     1     -13.115 -36.133  95.096  1.00  0.00     0.190 HD
ENDROOT
BRANCH   4   6
HETATM    6  C3  UNL     1     -14.861 -36.438  94.210  1.00  0.00     0.718 A 
HETATM    7  N6  UNL     1     -14.435 -37.481  93.432  1.00  0.00    -0.115 N 
HETATM    8  N7  UNL     1     -15.403 -37.720  92.585  1.00  0.00    -0.213 N 
ATOM      9  H6  UNL     1     -13.543 -37.972  93.499  1.00  0.00     0.207 HD
HETATM   10  N8  UNL     1     -16.403 -36.891  92.785  1.00  0.00    -0.213 N 
ATOM     11  H7  UNL     1     -15.383 -38.446  91.869  1.00  0.00     0.210 HD
HETATM   12  N9  UNL     1     -16.071 -36.105  93.783  1.00  0.00    -0.115 N 
ATOM     13  H8  UNL     1     -17.277 -36.864  92.261  1.00  0.00     0.210 HD
ATOM     14  H9  UNL     1     -16.651 -35.358  94.168  1.00  0.00     0.207 HD
ENDBRANCH   4   6
BRANCH   1  15
HETATM   15  N3  UNL     1     -13.495 -33.010  96.904  1.00  0.00    -0.204 N 
HETATM   16  C1  UNL     1     -12.744 -32.066  96.495  1.00  0.00     0.226 C 
HETATM   17  N1  UNL     1     -12.314 -32.129  95.146  1.00  0.00    -0.065 NA
HETATM   18  N2  UNL     1     -12.363 -31.000  97.360  1.00  0.00    -0.065 NA
ATOM     19  H3  UNL     1     -13.714 -32.821  97.883  1.00  0.00     0.204 HD
ENDBRANCH   1  15
TORSDOF 2
ENDMDL
MODEL 5
REMARK VINA RESULT: -5.846189842      1.789      6.133
REMARK  2 active torsions:
REMARK  status: ('A' for Active; 'I' for Inactive)
REMARK    1  A    between atoms: N3_4  and  N4_6 
REMARK       I    between atoms: N4_6  and  C2_7 
REMARK       I    between atoms: C2_7  and  N5_9 
REMARK    2  A    between atoms: N5_9  and  C3_11 
ROOT
HETATM    1  N4  UNL     1     -15.330 -35.150  95.414  1.00  0.00    -0.262 NA
HETATM    2  C2  UNL     1     -14.816 -34.325  96.403  1.00  0.00     0.430 C 
HETATM    3  O1  UNL     1     -13.805 -34.476  97.118  1.00  0.00    -0.227 OA
HETATM    4  N5  UNL     1     -15.561 -33.096  96.657  1.00  0.00    -0.125 N 
ATOM      5  H5  UNL     1     -16.577 -33.128  96.751  1.00  0.00     0.190 HD
ENDROOT
BRANCH   4   6
HETATM    6  C3  UNL     1     -14.955 -31.991  96.763  1.00  0.00     0.718 A 
HETATM    7  N6  UNL     1     -13.761 -31.790  96.123  1.00  0.00    -0.115 N 
HETATM    8  N7  UNL     1     -13.393 -30.570  96.418  1.00  0.00    -0.213 N 
ATOM      9  H6  UNL     1     -13.261 -32.458  95.535  1.00  0.00     0.207 HD
HETATM   10  N8  UNL     1     -14.279 -30.000  97.201  1.00  0.00    -0.213 N 
ATOM     11  H7  UNL     1     -12.537 -30.125  96.087  1.00  0.00     0.210 HD
HETATM   12  N9  UNL     1     -15.240 -30.870  97.413  1.00  0.00    -0.115 N 
ATOM     13  H8  UNL     1     -14.231 -29.052  97.577  1.00  0.00     0.210 HD
ATOM     14  H9  UNL     1     -16.070 -30.711  97.984  1.00  0.00     0.207 HD
ENDBRANCH   4   6
BRANCH   1  15
HETATM   15  N3  UNL     1     -15.789 -35.888  94.529  1.00  0.00    -0.204 N 
HETATM   16  C1  UNL     1     -15.551 -36.874  93.759  1.00  0.00     0.226 C 
HETATM   17  N1  UNL     1     -14.266 -37.464  93.851  1.00  0.00    -0.065 NA
HETATM   18  N2  UNL     1     -16.541 -37.357  92.854  1.00  0.00    -0.065 NA
ATOM     19  H3  UNL     1     -16.744 -35.581  94.343  1.00  0.00     0.204 HD
ENDBRANCH   1  15
TORSDOF 2
ENDMDL
