MODEL 1
REMARK VINA RESULT: -5.850743176      0.000      0.000
REMARK  0 active torsions:
REMARK  status: ('A' for Active; 'I' for Inactive)
REMARK       I    between atoms: N5_13  and  C3_14 
ROOT
HETATM    1  N1  UNL     1     -12.195 -32.608  95.380  1.00  0.00    -0.379 N 
ATOM      2  H11 UNL     1     -12.404 -33.329  94.689  1.00  0.00     0.158 HD
ATOM      3  H12 UNL     1     -11.253 -32.219  95.347  1.00  0.00     0.158 HD
HETATM    4  C1  UNL     1     -13.061 -32.207  96.245  1.00  0.00     0.197 C 
HETATM    5  C2  UNL     1     -12.762 -31.176  97.233  1.00  0.00     0.306 C 
HETATM    6  O1  UNL     1     -11.628 -30.656  97.252  1.00  0.00    -0.262 OA
HETATM    7  N2  UNL     1     -13.813 -30.840  98.118  1.00  0.00    -0.247 N 
ATOM      8  H2  UNL     1     -13.609 -30.411  99.021  1.00  0.00     0.192 HD
HETATM    9  N3  UNL     1     -15.106 -31.094  97.750  1.00  0.00    -0.225 N 
ATOM     10  H3  UNL     1     -15.849 -30.417  97.919  1.00  0.00     0.210 HD
HETATM   11  N4  UNL     1     -15.358 -32.285  97.149  1.00  0.00    -0.216 N 
ATOM     12  H4  UNL     1     -16.219 -32.806  97.320  1.00  0.00     0.210 HD
HETATM   13  N5  UNL     1     -14.374 -32.749  96.290  1.00  0.00    -0.170 N 
HETATM   14  C3  UNL     1     -14.671 -33.824  95.399  1.00  0.00     0.357 C 
HETATM   15  N6  UNL     1     -13.709 -34.350  94.491  1.00  0.00    -0.038 NA
HETATM   16  O2  UNL     1     -15.813 -34.350  95.387  1.00  0.00    -0.248 OA
ENDROOT
TORSDOF 0
ENDMDL
MODEL 2
REMARK VINA RESULT: -5.552675398      1.672      2.403
REMARK  0 active torsions:
REMARK  status: ('A' for Active; 'I' for Inactive)
REMARK       I    between atoms: N5_13  and  C3_14 
ROOT
HETATM    1  N1  UNL     1     -14.406 -33.494  97.704  1.00  0.00    -0.379 N 
ATOM      2  H11 UNL     1     -14.815 -34.396  97.460  1.00  0.00     0.158 HD
ATOM      3  H12 UNL     1     -14.526 -33.197  98.672  1.00  0.00     0.158 HD
HETATM    4  C1  UNL     1     -13.776 -32.765  96.848  1.00  0.00     0.197 C 
HETATM    5  C2  UNL     1     -13.192 -31.475  97.198  1.00  0.00     0.306 C 
HETATM    6  O1  UNL     1     -13.300 -31.048  98.366  1.00  0.00    -0.262 OA
HETATM    7  N2  UNL     1     -12.530 -30.788  96.152  1.00  0.00    -0.247 N 
ATOM      8  H2  UNL     1     -12.404 -29.777  96.199  1.00  0.00     0.192 HD
HETATM    9  N3  UNL     1     -12.062 -31.496  95.079  1.00  0.00    -0.225 N 
ATOM     10  H3  UNL     1     -11.144 -31.304  94.677  1.00  0.00     0.210 HD
HETATM   11  N4  UNL     1     -12.867 -32.464  94.572  1.00  0.00    -0.216 N 
ATOM     12  H4  UNL     1     -12.922 -32.653  93.571  1.00  0.00     0.210 HD
HETATM   13  N5  UNL     1     -13.609 -33.179  95.499  1.00  0.00    -0.170 N 
HETATM   14  C3  UNL     1     -14.248 -34.391  95.101  1.00  0.00     0.357 C 
HETATM   15  N6  UNL     1     -15.025 -35.175  96.000  1.00  0.00    -0.038 NA
HETATM   16  O2  UNL     1     -14.142 -34.815  93.922  1.00  0.00    -0.248 OA
ENDROOT
TORSDOF 0
ENDMDL
MODEL 3
REMARK VINA RESULT: -5.437246053      1.438      2.908
REMARK  0 active torsions:
REMARK  status: ('A' for Active; 'I' for Inactive)
REMARK       I    between atoms: N5_13  and  C3_14 
ROOT
HETATM    1  N1  UNL     1     -13.683 -31.054  98.369  1.00  0.00    -0.379 N 
ATOM      2  H11 UNL     1     -14.669 -31.030  98.628  1.00  0.00     0.158 HD
ATOM      3  H12 UNL     1     -13.026 -30.749  99.087  1.00  0.00     0.158 HD
HETATM    4  C1  UNL     1     -13.281 -31.444  97.209  1.00  0.00     0.197 C 
HETATM    5  C2  UNL     1     -11.870 -31.478  96.840  1.00  0.00     0.306 C 
HETATM    6  O1  UNL     1     -11.010 -31.118  97.669  1.00  0.00    -0.262 OA
HETATM    7  N2  UNL     1     -11.581 -31.930  95.530  1.00  0.00    -0.247 N 
ATOM      8  H2  UNL     1     -10.705 -31.670  95.077  1.00  0.00     0.192 HD
HETATM    9  N3  UNL     1     -12.489 -32.719  94.879  1.00  0.00    -0.225 N 
ATOM     10  H3  UNL     1     -12.194 -33.533  94.339  1.00  0.00     0.210 HD
HETATM   11  N4  UNL     1     -13.798 -32.375  94.981  1.00  0.00    -0.216 N 
ATOM     12  H4  UNL     1     -14.449 -32.482  94.202  1.00  0.00     0.210 HD
HETATM   13  N5  UNL     1     -14.196 -31.870  96.209  1.00  0.00    -0.170 N 
HETATM   14  C3  UNL     1     -15.588 -31.762  96.505  1.00  0.00     0.357 C 
HETATM   15  N6  UNL     1     -16.067 -31.252  97.744  1.00  0.00    -0.038 NA
HETATM   16  O2  UNL     1     -16.453 -32.120  95.664  1.00  0.00    -0.248 OA
ENDROOT
TORSDOF 0
ENDMDL
MODEL 4
REMARK VINA RESULT: -5.357885038      2.032      2.965
REMARK  0 active torsions:
REMARK  status: ('A' for Active; 'I' for Inactive)
REMARK       I    between atoms: N5_13  and  C3_14 
ROOT
HETATM    1  N1  UNL     1     -15.488 -33.611  96.000  1.00  0.00    -0.379 N 
ATOM      2  H11 UNL     1     -14.894 -34.285  95.517  1.00  0.00     0.158 HD
ATOM      3  H12 UNL     1     -16.416 -33.941  96.264  1.00  0.00     0.158 HD
HETATM    4  C1  UNL     1     -15.098 -32.412  96.266  1.00  0.00     0.197 C 
HETATM    5  C2  UNL     1     -15.947 -31.448  96.958  1.00  0.00     0.306 C 
HETATM    6  O1  UNL     1     -17.096 -31.783  97.310  1.00  0.00    -0.262 OA
HETATM    7  N2  UNL     1     -15.382 -30.169  97.180  1.00  0.00    -0.247 N 
ATOM      8  H2  UNL     1     -15.984 -29.359  97.329  1.00  0.00     0.192 HD
HETATM    9  N3  UNL     1     -14.021 -30.032  97.193  1.00  0.00    -0.225 N 
ATOM     10  H3  UNL     1     -13.553 -29.453  97.889  1.00  0.00     0.210 HD
HETATM   11  N4  UNL     1     -13.319 -30.699  96.241  1.00  0.00    -0.216 N 
ATOM     12  H4  UNL     1     -12.487 -30.302  95.805  1.00  0.00     0.210 HD
HETATM   13  N5  UNL     1     -13.805 -31.951  95.899  1.00  0.00    -0.170 N 
HETATM   14  C3  UNL     1     -12.984 -32.838  95.140  1.00  0.00     0.357 C 
HETATM   15  N6  UNL     1     -13.418 -34.137  94.754  1.00  0.00    -0.038 NA
HETATM   16  O2  UNL     1     -11.828 -32.494  94.781  1.00  0.00    -0.248 OA
ENDROOT
TORSDOF 0
ENDMDL
MODEL 5
REMARK VINA RESULT: -5.224572266      1.446      3.296
REMARK  0 active torsions:
REMARK  status: ('A' for Active; 'I' for Inactive)
REMARK       I    between atoms: N5_13  and  C3_14 
ROOT
HETATM    1  N1  UNL     1     -13.916 -32.443  94.900  1.00  0.00    -0.379 N 
ATOM      2  H11 UNL     1     -12.970 -32.537  94.530  1.00  0.00     0.158 HD
ATOM      3  H12 UNL     1     -14.667 -32.768  94.292  1.00  0.00     0.158 HD
HETATM    4  C1  UNL     1     -14.157 -31.945  96.063  1.00  0.00     0.197 C 
HETATM    5  C2  UNL     1     -15.510 -31.810  96.592  1.00  0.00     0.306 C 
HETATM    6  O1  UNL     1     -16.480 -32.187  95.902  1.00  0.00    -0.262 OA
HETATM    7  N2  UNL     1     -15.619 -31.245  97.885  1.00  0.00    -0.247 N 
ATOM      8  H2  UNL     1     -16.490 -30.805  98.183  1.00  0.00     0.192 HD
HETATM    9  N3  UNL     1     -14.545 -31.295  98.730  1.00  0.00    -0.225 N 
ATOM     10  H3  UNL     1     -14.657 -31.524  99.718  1.00  0.00     0.210 HD
HETATM   11  N4  UNL     1     -13.323 -31.029  98.200  1.00  0.00    -0.216 N 
ATOM     12  H4  UNL     1     -12.608 -30.520  98.719  1.00  0.00     0.210 HD
HETATM   13  N5  UNL     1     -13.110 -31.492  96.911  1.00  0.00    -0.170 N 
HETATM   14  C3  UNL     1     -11.783 -31.524  96.388  1.00  0.00     0.357 C 
HETATM   15  N6  UNL     1     -11.492 -31.986  95.074  1.00  0.00    -0.038 NA
HETATM   16  O2  UNL     1     -10.809 -31.137  97.084  1.00  0.00    -0.248 OA
ENDROOT
TORSDOF 0
ENDMDL
