MODEL 1
REMARK VINA RESULT: -7.632407793      0.000      0.000
REMARK  11 active torsions:
REMARK  status: ('A' for Active; 'I' for Inactive)
REMARK    1  A    between atoms: N1_2  and  C3_4 
REMARK    2  A    between atoms: C5_6  and  N2_7 
REMARK    3  A    between atoms: N2_7  and  C6_9 
REMARK    4  A    between atoms: C8_15  and  N5_16 
REMARK    5  A    between atoms: N5_16  and  C9_18 
REMARK    6  A    between atoms: C9_18  and  C10_19 
REMARK    7  A    between atoms: C10_19  and  N6_20 
REMARK    8  A    between atoms: C12_27  and  C13_28 
REMARK       I    between atoms: C13_28  and  N8_30 
REMARK    9  A    between atoms: N8_30  and  C14_32 
REMARK   10  A    between atoms: C16_36  and  C17_37 
REMARK   11  A    between atoms: C18_38  and  C19_39 
ROOT
HETATM    1  C3  UNL     1      12.672  54.066  90.408  1.00  0.00     0.032 A 
HETATM    2  C4  UNL     1      12.657  54.239  91.765  1.00  0.00     0.059 A 
HETATM    3  C5  UNL     1      11.506  53.850  92.480  1.00  0.00     0.052 A 
HETATM    4  C11 UNL     1      10.433  53.309  91.791  1.00  0.00     0.047 A 
HETATM    5  C12 UNL     1      10.445  53.133  90.416  1.00  0.00     0.036 A 
HETATM    6  C24 UNL     1      11.587  53.525  89.760  1.00  0.00     0.046 A 
ENDROOT
BRANCH   3   7
HETATM    7  N2  UNL     1      11.534  54.045  93.881  1.00  0.00    -0.191 N 
ATOM      8  H2  UNL     1      11.873  53.271  94.451  1.00  0.00     0.184 HD
BRANCH   7   9
HETATM    9  C6  UNL     1      11.174  55.104  94.494  1.00  0.00     0.698 A 
HETATM   10  N3  UNL     1      11.965  56.121  94.863  1.00  0.00    -0.187 N 
HETATM   11  C7  UNL     1      11.540  57.217  95.509  1.00  0.00     0.215 A 
ATOM     12  H3  UNL     1      12.957  56.057  94.638  1.00  0.00     0.185 HD
HETATM   13  N4  UNL     1      10.221  57.315  95.815  1.00  0.00    -0.187 N 
HETATM   14  C8  UNL     1       9.377  56.320  95.467  1.00  0.00     0.693 A 
ATOM     15  H4  UNL     1       9.868  58.137  96.305  1.00  0.00     0.185 HD
HETATM   16  N7  UNL     1       9.864  55.249  94.823  1.00  0.00    -0.022 N 
ATOM     17  H7  UNL     1       9.217  54.505  94.567  1.00  0.00     0.203 HD
BRANCH  14  18
HETATM   18  N5  UNL     1       8.103  56.392  95.760  1.00  0.00    -0.224 N 
ATOM     19  H5  UNL     1       7.554  55.543  95.900  1.00  0.00     0.177 HD
BRANCH  18  20
HETATM   20  C9  UNL     1       7.484  57.697  95.882  1.00  0.00     0.165 C 
BRANCH  20  21
HETATM   21  C10 UNL     1       6.235  57.778  95.000  1.00  0.00     0.249 C 
BRANCH  21  22
HETATM   22  N6  UNL     1       6.052  59.187  94.689  1.00  0.00    -0.078 N 
ATOM     23  H63 UNL     1       5.425  59.668  95.333  1.00  0.00     0.274 HD
ATOM     24  H62 UNL     1       6.879  59.755  94.876  1.00  0.00     0.274 HD
ATOM     25  H61 UNL     1       5.744  59.224  93.718  1.00  0.00     0.274 HD
ENDBRANCH  21  22
ENDBRANCH  20  21
ENDBRANCH  18  20
ENDBRANCH  14  18
ENDBRANCH   7   9
ENDBRANCH   3   7
BRANCH   1  26
HETATM   26  N1  UNL     1      13.822  54.447  89.689  1.00  0.00    -0.389 N 
HETATM   27  C1  UNL     1      13.883  54.246  88.272  1.00  0.00     0.149 C 
HETATM   28  C2  UNL     1      14.932  55.038  90.382  1.00  0.00     0.149 C 
ENDBRANCH   1  26
BRANCH   5  29
HETATM   29  C13 UNL     1       9.298  52.579  89.713  1.00  0.00     0.258 C 
HETATM   30  O1  UNL     1       8.966  51.396  89.986  1.00  0.00    -0.267 OA
HETATM   31  N8  UNL     1       8.571  53.343  88.744  1.00  0.00    -0.288 N 
ATOM     32  H8  UNL     1       7.910  54.075  89.004  1.00  0.00     0.172 HD
BRANCH  31  33
HETATM   33  C14 UNL     1       8.825  53.027  87.486  1.00  0.00     0.231 A 
HETATM   34  N9  UNL     1       7.934  52.722  86.521  1.00  0.00    -0.329 N 
HETATM   35  C15 UNL     1       8.612  52.462  85.397  1.00  0.00     0.129 A 
ATOM     36  H9  UNL     1       6.920  52.693  86.629  1.00  0.00     0.168 HD
HETATM   37  C16 UNL     1       9.935  52.620  85.710  1.00  0.00     0.094 A 
HETATM   38  O2  UNL     1      10.018  52.955  86.958  1.00  0.00    -0.278 OA
BRANCH  37  39
HETATM   39  C17 UNL     1      11.049  52.433  84.766  1.00  0.00     0.040 C 
HETATM   40  C18 UNL     1      12.280  52.375  85.225  1.00  0.00     0.015 C 
BRANCH  40  41
HETATM   41  C19 UNL     1      13.400  52.193  84.331  1.00  0.00    -0.021 A 
HETATM   42  C20 UNL     1      14.430  53.024  84.442  1.00  0.00     0.014 A 
HETATM   43  C21 UNL     1      15.564  52.885  83.578  1.00  0.00     0.018 A 
HETATM   44  C22 UNL     1      15.544  51.899  82.671  1.00  0.00     0.087 A 
HETATM   45  N10 UNL     1      14.438  51.021  82.566  1.00  0.00    -0.374 N 
HETATM   46  C23 UNL     1      13.389  51.121  83.337  1.00  0.00     0.099 A 
ATOM     47  H10 UNL     1      14.461  50.283  81.862  1.00  0.00     0.164 HD
ENDBRANCH  40  41
ENDBRANCH  37  39
ENDBRANCH  31  33
ENDBRANCH   5  29
TORSDOF 11
ENDMDL
MODEL 2
REMARK VINA RESULT: -7.303474476      1.707      2.042
REMARK  11 active torsions:
REMARK  status: ('A' for Active; 'I' for Inactive)
REMARK    1  A    between atoms: N1_2  and  C3_4 
REMARK    2  A    between atoms: C5_6  and  N2_7 
REMARK    3  A    between atoms: N2_7  and  C6_9 
REMARK    4  A    between atoms: C8_15  and  N5_16 
REMARK    5  A    between atoms: N5_16  and  C9_18 
REMARK    6  A    between atoms: C9_18  and  C10_19 
REMARK    7  A    between atoms: C10_19  and  N6_20 
REMARK    8  A    between atoms: C12_27  and  C13_28 
REMARK       I    between atoms: C13_28  and  N8_30 
REMARK    9  A    between atoms: N8_30  and  C14_32 
REMARK   10  A    between atoms: C16_36  and  C17_37 
REMARK   11  A    between atoms: C18_38  and  C19_39 
ROOT
HETATM    1  C3  UNL     1      12.968  54.339  90.525  1.00  0.00     0.032 A 
HETATM    2  C4  UNL     1      13.168  54.352  91.878  1.00  0.00     0.059 A 
HETATM    3  C5  UNL     1      12.135  53.883  92.716  1.00  0.00     0.052 A 
HETATM    4  C11 UNL     1      10.957  53.428  92.146  1.00  0.00     0.047 A 
HETATM    5  C12 UNL     1      10.752  53.413  90.775  1.00  0.00     0.036 A 
HETATM    6  C24 UNL     1      11.785  53.878  89.998  1.00  0.00     0.046 A 
ENDROOT
BRANCH   3   7
HETATM    7  N2  UNL     1      12.384  53.915  94.108  1.00  0.00    -0.191 N 
ATOM      8  H2  UNL     1      12.846  53.101  94.515  1.00  0.00     0.184 HD
BRANCH   7   9
HETATM    9  C6  UNL     1      12.085  54.868  94.899  1.00  0.00     0.698 A 
HETATM   10  N3  UNL     1      11.828  56.139  94.558  1.00  0.00    -0.187 N 
HETATM   11  C7  UNL     1      11.516  57.110  95.428  1.00  0.00     0.215 A 
ATOM     12  H3  UNL     1      11.873  56.384  93.569  1.00  0.00     0.185 HD
HETATM   13  N4  UNL     1      11.451  56.798  96.748  1.00  0.00    -0.187 N 
HETATM   14  C8  UNL     1      11.700  55.533  97.150  1.00  0.00     0.693 A 
ATOM     15  H4  UNL     1      11.216  57.516  97.433  1.00  0.00     0.185 HD
HETATM   16  N7  UNL     1      12.008  54.607  96.230  1.00  0.00    -0.022 N 
ATOM     17  H7  UNL     1      12.194  53.656  96.547  1.00  0.00     0.203 HD
BRANCH  14  18
HETATM   18  N5  UNL     1      11.652  55.214  98.419  1.00  0.00    -0.224 N 
ATOM     19  H5  UNL     1      12.426  54.718  98.859  1.00  0.00     0.177 HD
BRANCH  18  20
HETATM   20  C9  UNL     1      10.478  55.577  99.188  1.00  0.00     0.165 C 
BRANCH  20  21
HETATM   21  C10 UNL     1       9.312  54.644  98.851  1.00  0.00     0.249 C 
BRANCH  21  22
HETATM   22  N6  UNL     1       8.288  55.481  98.247  1.00  0.00    -0.078 N 
ATOM     23  H63 UNL     1       7.482  55.639  98.851  1.00  0.00     0.274 HD
ATOM     24  H62 UNL     1       8.564  56.459  98.154  1.00  0.00     0.274 HD
ATOM     25  H61 UNL     1       8.050  55.040  97.359  1.00  0.00     0.274 HD
ENDBRANCH  21  22
ENDBRANCH  20  21
ENDBRANCH  18  20
ENDBRANCH  14  18
ENDBRANCH   7   9
ENDBRANCH   3   7
BRANCH   1  26
HETATM   26  N1  UNL     1      13.999  54.800  89.683  1.00  0.00    -0.389 N 
HETATM   27  C1  UNL     1      15.007  55.678  90.195  1.00  0.00     0.149 C 
HETATM   28  C2  UNL     1      14.035  54.384  88.309  1.00  0.00     0.149 C 
ENDBRANCH   1  26
BRANCH   5  29
HETATM   29  C13 UNL     1       9.499  52.946  90.202  1.00  0.00     0.258 C 
HETATM   30  O1  UNL     1       9.050  51.843  90.608  1.00  0.00    -0.267 OA
HETATM   31  N8  UNL     1       8.799  53.706  89.210  1.00  0.00    -0.288 N 
ATOM     32  H8  UNL     1       8.250  54.534  89.438  1.00  0.00     0.172 HD
BRANCH  31  33
HETATM   33  C14 UNL     1       8.920  53.249  87.976  1.00  0.00     0.231 A 
HETATM   34  N9  UNL     1       7.931  52.888  87.133  1.00  0.00    -0.329 N 
HETATM   35  C15 UNL     1       8.490  52.483  85.987  1.00  0.00     0.129 A 
ATOM     36  H9  UNL     1       6.932  52.918  87.334  1.00  0.00     0.168 HD
HETATM   37  C16 UNL     1       9.842  52.610  86.160  1.00  0.00     0.094 A 
HETATM   38  O2  UNL     1      10.055  53.068  87.353  1.00  0.00    -0.278 OA
BRANCH  37  39
HETATM   39  C17 UNL     1      10.854  52.274  85.146  1.00  0.00     0.040 C 
HETATM   40  C18 UNL     1      12.123  52.495  85.404  1.00  0.00     0.015 C 
BRANCH  40  41
HETATM   41  C19 UNL     1      13.147  52.180  84.434  1.00  0.00    -0.021 A 
HETATM   42  C20 UNL     1      14.262  52.900  84.445  1.00  0.00     0.014 A 
HETATM   43  C21 UNL     1      15.305  52.627  83.503  1.00  0.00     0.018 A 
HETATM   44  C22 UNL     1      15.114  51.631  82.626  1.00  0.00     0.087 A 
HETATM   45  N10 UNL     1      13.918  50.873  82.628  1.00  0.00    -0.374 N 
HETATM   46  C23 UNL     1      12.948  51.097  83.472  1.00  0.00     0.099 A 
ATOM     47  H10 UNL     1      13.811  50.124  81.944  1.00  0.00     0.164 HD
ENDBRANCH  40  41
ENDBRANCH  37  39
ENDBRANCH  31  33
ENDBRANCH   5  29
TORSDOF 11
ENDMDL
MODEL 3
REMARK VINA RESULT: -7.198247371      3.220      4.884
REMARK  11 active torsions:
REMARK  status: ('A' for Active; 'I' for Inactive)
REMARK    1  A    between atoms: N1_2  and  C3_4 
REMARK    2  A    between atoms: C5_6  and  N2_7 
REMARK    3  A    between atoms: N2_7  and  C6_9 
REMARK    4  A    between atoms: C8_15  and  N5_16 
REMARK    5  A    between atoms: N5_16  and  C9_18 
REMARK    6  A    between atoms: C9_18  and  C10_19 
REMARK    7  A    between atoms: C10_19  and  N6_20 
REMARK    8  A    between atoms: C12_27  and  C13_28 
REMARK       I    between atoms: C13_28  and  N8_30 
REMARK    9  A    between atoms: N8_30  and  C14_32 
REMARK   10  A    between atoms: C16_36  and  C17_37 
REMARK   11  A    between atoms: C18_38  and  C19_39 
ROOT
HETATM    1  C3  UNL     1      13.029  48.378  90.044  1.00  0.00     0.032 A 
HETATM    2  C4  UNL     1      13.399  49.012  91.198  1.00  0.00     0.059 A 
HETATM    3  C5  UNL     1      12.644  50.122  91.629  1.00  0.00     0.052 A 
HETATM    4  C11 UNL     1      11.558  50.534  90.875  1.00  0.00     0.047 A 
HETATM    5  C12 UNL     1      11.180  49.894  89.704  1.00  0.00     0.036 A 
HETATM    6  C24 UNL     1      11.943  48.817  89.323  1.00  0.00     0.046 A 
ENDROOT
BRANCH   3   7
HETATM    7  N2  UNL     1      13.062  50.746  92.827  1.00  0.00    -0.191 N 
ATOM      8  H2  UNL     1      13.323  50.136  93.602  1.00  0.00     0.184 HD
BRANCH   7   9
HETATM    9  C6  UNL     1      13.141  52.003  93.026  1.00  0.00     0.698 A 
HETATM   10  N3  UNL     1      12.660  52.677  94.081  1.00  0.00    -0.187 N 
HETATM   11  C7  UNL     1      12.768  54.003  94.247  1.00  0.00     0.215 A 
ATOM     12  H3  UNL     1      12.179  52.145  94.805  1.00  0.00     0.185 HD
HETATM   13  N4  UNL     1      13.407  54.724  93.290  1.00  0.00    -0.187 N 
HETATM   14  C8  UNL     1      13.912  54.098  92.205  1.00  0.00     0.693 A 
ATOM     15  H4  UNL     1      13.505  55.734  93.389  1.00  0.00     0.185 HD
HETATM   16  N7  UNL     1      13.770  52.768  92.097  1.00  0.00    -0.022 N 
ATOM     17  H7  UNL     1      14.156  52.308  91.273  1.00  0.00     0.203 HD
BRANCH  14  18
HETATM   18  N5  UNL     1      14.524  54.776  91.267  1.00  0.00    -0.224 N 
ATOM     19  H5  UNL     1      15.538  54.882  91.282  1.00  0.00     0.177 HD
BRANCH  18  20
HETATM   20  C9  UNL     1      13.736  55.373  90.207  1.00  0.00     0.165 C 
BRANCH  20  21
HETATM   21  C10 UNL     1      14.064  54.714  88.865  1.00  0.00     0.249 C 
BRANCH  21  22
HETATM   22  N6  UNL     1      13.085  53.653  88.687  1.00  0.00    -0.078 N 
ATOM     23  H63 UNL     1      13.503  52.740  88.511  1.00  0.00     0.274 HD
ATOM     24  H62 UNL     1      12.597  53.402  89.547  1.00  0.00     0.274 HD
ATOM     25  H61 UNL     1      12.462  53.966  87.943  1.00  0.00     0.274 HD
ENDBRANCH  21  22
ENDBRANCH  20  21
ENDBRANCH  18  20
ENDBRANCH  14  18
ENDBRANCH   7   9
ENDBRANCH   3   7
BRANCH   1  26
HETATM   26  N1  UNL     1      13.776  47.265  89.612  1.00  0.00    -0.389 N 
HETATM   27  C1  UNL     1      14.494  47.318  88.374  1.00  0.00     0.149 C 
HETATM   28  C2  UNL     1      13.815  46.077  90.418  1.00  0.00     0.149 C 
ENDBRANCH   1  26
BRANCH   5  29
HETATM   29  C13 UNL     1      10.045  50.356  88.920  1.00  0.00     0.258 C 
HETATM   30  O1  UNL     1       9.234  49.488  88.504  1.00  0.00    -0.267 OA
HETATM   31  N8  UNL     1       9.852  51.746  88.626  1.00  0.00    -0.288 N 
ATOM     32  H8  UNL     1       9.497  52.409  89.315  1.00  0.00     0.172 HD
BRANCH  31  33
HETATM   33  C14 UNL     1      10.171  52.099  87.394  1.00  0.00     0.231 A 
HETATM   34  N9  UNL     1       9.363  52.645  86.462  1.00  0.00    -0.329 N 
HETATM   35  C15 UNL     1      10.085  52.846  85.353  1.00  0.00     0.129 A 
ATOM     36  H9  UNL     1       8.374  52.864  86.581  1.00  0.00     0.168 HD
HETATM   37  C16 UNL     1      11.349  52.409  85.642  1.00  0.00     0.094 A 
HETATM   38  O2  UNL     1      11.358  51.974  86.862  1.00  0.00    -0.278 OA
BRANCH  37  39
HETATM   39  C17 UNL     1      12.483  52.440  84.704  1.00  0.00     0.040 C 
HETATM   40  C18 UNL     1      12.797  51.353  84.036  1.00  0.00     0.015 C 
BRANCH  40  41
HETATM   41  C19 UNL     1      13.904  51.344  83.107  1.00  0.00    -0.021 A 
HETATM   42  C20 UNL     1      14.975  52.071  83.402  1.00  0.00     0.014 A 
HETATM   43  C21 UNL     1      16.097  52.094  82.512  1.00  0.00     0.018 A 
HETATM   44  C22 UNL     1      16.024  51.365  81.390  1.00  0.00     0.087 A 
HETATM   45  N10 UNL     1      14.874  50.595  81.091  1.00  0.00    -0.374 N 
HETATM   46  C23 UNL     1      13.834  50.552  81.879  1.00  0.00     0.099 A 
ATOM     47  H10 UNL     1      14.857  50.054  80.226  1.00  0.00     0.164 HD
ENDBRANCH  40  41
ENDBRANCH  37  39
ENDBRANCH  31  33
ENDBRANCH   5  29
TORSDOF 11
ENDMDL
MODEL 4
REMARK VINA RESULT: -7.131835197      4.494      6.909
REMARK  11 active torsions:
REMARK  status: ('A' for Active; 'I' for Inactive)
REMARK    1  A    between atoms: N1_2  and  C3_4 
REMARK    2  A    between atoms: C5_6  and  N2_7 
REMARK    3  A    between atoms: N2_7  and  C6_9 
REMARK    4  A    between atoms: C8_15  and  N5_16 
REMARK    5  A    between atoms: N5_16  and  C9_18 
REMARK    6  A    between atoms: C9_18  and  C10_19 
REMARK    7  A    between atoms: C10_19  and  N6_20 
REMARK    8  A    between atoms: C12_27  and  C13_28 
REMARK       I    between atoms: C13_28  and  N8_30 
REMARK    9  A    between atoms: N8_30  and  C14_32 
REMARK   10  A    between atoms: C16_36  and  C17_37 
REMARK   11  A    between atoms: C18_38  and  C19_39 
ROOT
HETATM    1  C3  UNL     1      11.952  55.265  95.366  1.00  0.00     0.032 A 
HETATM    2  C4  UNL     1      12.220  54.180  96.154  1.00  0.00     0.059 A 
HETATM    3  C5  UNL     1      12.964  53.116  95.605  1.00  0.00     0.052 A 
HETATM    4  C11 UNL     1      13.397  53.201  94.292  1.00  0.00     0.047 A 
HETATM    5  C12 UNL     1      13.127  54.300  93.490  1.00  0.00     0.036 A 
HETATM    6  C24 UNL     1      12.400  55.313  94.067  1.00  0.00     0.046 A 
ENDROOT
BRANCH   3   7
HETATM    7  N2  UNL     1      13.218  52.015  96.455  1.00  0.00    -0.191 N 
ATOM      8  H2  UNL     1      12.498  51.779  97.138  1.00  0.00     0.184 HD
BRANCH   7   9
HETATM    9  C6  UNL     1      14.267  51.290  96.446  1.00  0.00     0.698 A 
HETATM   10  N3  UNL     1      14.400  50.084  95.876  1.00  0.00    -0.187 N 
HETATM   11  C7  UNL     1      15.527  49.357  95.892  1.00  0.00     0.215 A 
ATOM     12  H3  UNL     1      13.588  49.692  95.399  1.00  0.00     0.185 HD
HETATM   13  N4  UNL     1      16.615  49.867  96.524  1.00  0.00    -0.187 N 
HETATM   14  C8  UNL     1      16.540  51.078  97.115  1.00  0.00     0.693 A 
ATOM     15  H4  UNL     1      17.486  49.337  96.552  1.00  0.00     0.185 HD
HETATM   16  N7  UNL     1      15.383  51.755  97.065  1.00  0.00    -0.022 N 
ATOM     17  H7  UNL     1      15.340  52.669  97.516  1.00  0.00     0.203 HD
BRANCH  14  18
HETATM   18  N5  UNL     1      17.576  51.583  97.737  1.00  0.00    -0.224 N 
ATOM     19  H5  UNL     1      18.063  52.395  97.357  1.00  0.00     0.177 HD
BRANCH  18  20
HETATM   20  C9  UNL     1      18.018  50.970  98.974  1.00  0.00     0.165 C 
BRANCH  20  21
HETATM   21  C10 UNL     1      19.054  51.859  99.667  1.00  0.00     0.249 C 
BRANCH  21  22
HETATM   22  N6  UNL     1      18.684  51.886 101.073  1.00  0.00    -0.078 N 
ATOM     23  H63 UNL     1      17.684  51.765 101.233  1.00  0.00     0.274 HD
ATOM     24  H62 UNL     1      18.993  51.064 101.591  1.00  0.00     0.274 HD
ATOM     25  H61 UNL     1      19.052  52.762 101.444  1.00  0.00     0.274 HD
ENDBRANCH  21  22
ENDBRANCH  20  21
ENDBRANCH  18  20
ENDBRANCH  14  18
ENDBRANCH   7   9
ENDBRANCH   3   7
BRANCH   1  26
HETATM   26  N1  UNL     1      11.215  56.334  95.911  1.00  0.00    -0.389 N 
HETATM   27  C1  UNL     1      10.138  56.076  96.819  1.00  0.00     0.149 C 
HETATM   28  C2  UNL     1      11.547  57.685  95.553  1.00  0.00     0.149 C 
ENDBRANCH   1  26
BRANCH   5  29
HETATM   29  C13 UNL     1      13.578  54.358  92.108  1.00  0.00     0.258 C 
HETATM   30  O1  UNL     1      13.976  55.471  91.674  1.00  0.00    -0.267 OA
HETATM   31  N8  UNL     1      13.570  53.199  91.267  1.00  0.00    -0.288 N 
ATOM     32  H8  UNL     1      14.270  52.461  91.341  1.00  0.00     0.172 HD
BRANCH  31  33
HETATM   33  C14 UNL     1      12.585  53.161  90.387  1.00  0.00     0.231 A 
HETATM   34  N9  UNL     1      11.329  53.628  90.540  1.00  0.00    -0.329 N 
HETATM   35  C15 UNL     1      10.656  53.387  89.409  1.00  0.00     0.129 A 
ATOM     36  H9  UNL     1      10.957  54.085  91.372  1.00  0.00     0.168 HD
HETATM   37  C16 UNL     1      11.539  52.763  88.570  1.00  0.00     0.094 A 
HETATM   38  O2  UNL     1      12.672  52.648  89.188  1.00  0.00    -0.278 OA
BRANCH  37  39
HETATM   39  C17 UNL     1      11.224  52.310  87.205  1.00  0.00     0.040 C 
HETATM   40  C18 UNL     1      12.083  52.536  86.237  1.00  0.00     0.015 C 
BRANCH  40  41
HETATM   41  C19 UNL     1      11.811  52.109  84.884  1.00  0.00    -0.021 A 
HETATM   42  C20 UNL     1      12.719  51.359  84.271  1.00  0.00     0.014 A 
HETATM   43  C21 UNL     1      12.495  50.911  82.928  1.00  0.00     0.018 A 
HETATM   44  C22 UNL     1      11.352  51.272  82.329  1.00  0.00     0.087 A 
HETATM   45  N10 UNL     1      10.394  52.072  82.998  1.00  0.00    -0.374 N 
HETATM   46  C23 UNL     1      10.568  52.497  84.220  1.00  0.00     0.099 A 
ATOM     47  H10 UNL     1       9.537  52.326  82.507  1.00  0.00     0.164 HD
ENDBRANCH  40  41
ENDBRANCH  37  39
ENDBRANCH  31  33
ENDBRANCH   5  29
TORSDOF 11
ENDMDL
MODEL 5
REMARK VINA RESULT: -7.125047377      2.306      3.022
REMARK  11 active torsions:
REMARK  status: ('A' for Active; 'I' for Inactive)
REMARK    1  A    between atoms: N1_2  and  C3_4 
REMARK    2  A    between atoms: C5_6  and  N2_7 
REMARK    3  A    between atoms: N2_7  and  C6_9 
REMARK    4  A    between atoms: C8_15  and  N5_16 
REMARK    5  A    between atoms: N5_16  and  C9_18 
REMARK    6  A    between atoms: C9_18  and  C10_19 
REMARK    7  A    between atoms: C10_19  and  N6_20 
REMARK    8  A    between atoms: C12_27  and  C13_28 
REMARK       I    between atoms: C13_28  and  N8_30 
REMARK    9  A    between atoms: N8_30  and  C14_32 
REMARK   10  A    between atoms: C16_36  and  C17_37 
REMARK   11  A    between atoms: C18_38  and  C19_39 
ROOT
HETATM    1  C3  UNL     1      13.024  51.286  92.456  1.00  0.00     0.032 A 
HETATM    2  C4  UNL     1      13.274  52.352  93.275  1.00  0.00     0.059 A 
HETATM    3  C5  UNL     1      12.642  53.581  92.992  1.00  0.00     0.052 A 
HETATM    4  C11 UNL     1      11.794  53.669  91.900  1.00  0.00     0.047 A 
HETATM    5  C12 UNL     1      11.539  52.589  91.068  1.00  0.00     0.036 A 
HETATM    6  C24 UNL     1      12.175  51.412  91.382  1.00  0.00     0.046 A 
ENDROOT
BRANCH   3   7
HETATM    7  N2  UNL     1      12.928  54.657  93.864  1.00  0.00    -0.191 N 
ATOM      8  H2  UNL     1      13.912  54.866  94.035  1.00  0.00     0.184 HD
BRANCH   7   9
HETATM    9  C6  UNL     1      12.067  55.388  94.455  1.00  0.00     0.698 A 
HETATM   10  N3  UNL     1      12.273  56.611  94.965  1.00  0.00    -0.187 N 
HETATM   11  C7  UNL     1      11.334  57.344  95.580  1.00  0.00     0.215 A 
ATOM     12  H3  UNL     1      13.208  57.010  94.880  1.00  0.00     0.185 HD
HETATM   13  N4  UNL     1      10.086  56.825  95.700  1.00  0.00    -0.187 N 
HETATM   14  C8  UNL     1       9.820  55.598  95.205  1.00  0.00     0.693 A 
ATOM     15  H4  UNL     1       9.351  57.360  96.162  1.00  0.00     0.185 HD
HETATM   16  N7  UNL     1      10.803  54.914  94.601  1.00  0.00    -0.022 N 
ATOM     17  H7  UNL     1      10.589  53.988  94.232  1.00  0.00     0.203 HD
BRANCH  14  18
HETATM   18  N5  UNL     1       8.624  55.076  95.318  1.00  0.00    -0.224 N 
ATOM     19  H5  UNL     1       7.847  55.633  95.673  1.00  0.00     0.177 HD
BRANCH  18  20
HETATM   20  C9  UNL     1       8.424  53.693  94.931  1.00  0.00     0.165 C 
BRANCH  20  21
HETATM   21  C10 UNL     1       7.422  53.603  93.777  1.00  0.00     0.249 C 
BRANCH  21  22
HETATM   22  N6  UNL     1       8.214  53.594  92.557  1.00  0.00    -0.078 N 
ATOM     23  H63 UNL     1       8.293  54.511  92.117  1.00  0.00     0.274 HD
ATOM     24  H62 UNL     1       9.211  53.450  92.720  1.00  0.00     0.274 HD
ATOM     25  H61 UNL     1       7.794  52.888  91.953  1.00  0.00     0.274 HD
ENDBRANCH  21  22
ENDBRANCH  20  21
ENDBRANCH  18  20
ENDBRANCH  14  18
ENDBRANCH   7   9
ENDBRANCH   3   7
BRANCH   1  26
HETATM   26  N1  UNL     1      13.647  50.055  92.738  1.00  0.00    -0.389 N 
HETATM   27  C1  UNL     1      14.524  49.933  93.863  1.00  0.00     0.149 C 
HETATM   28  C2  UNL     1      13.399  48.920  91.892  1.00  0.00     0.149 C 
ENDBRANCH   1  26
BRANCH   5  29
HETATM   29  C13 UNL     1      10.657  52.711  89.917  1.00  0.00     0.258 C 
HETATM   30  O1  UNL     1       9.530  52.156  89.988  1.00  0.00    -0.267 OA
HETATM   31  N8  UNL     1      11.052  53.431  88.743  1.00  0.00    -0.288 N 
ATOM     32  H8  UNL     1      11.058  54.450  88.699  1.00  0.00     0.172 HD
BRANCH  31  33
HETATM   33  C14 UNL     1      11.408  52.672  87.722  1.00  0.00     0.231 A 
HETATM   34  N9  UNL     1      11.134  51.364  87.537  1.00  0.00    -0.329 N 
HETATM   35  C15 UNL     1      11.681  50.986  86.376  1.00  0.00     0.129 A 
ATOM     36  H9  UNL     1      10.604  50.767  88.172  1.00  0.00     0.168 HD
HETATM   37  C16 UNL     1      12.290  52.100  85.865  1.00  0.00     0.094 A 
HETATM   38  O2  UNL     1      12.104  53.078  86.694  1.00  0.00    -0.278 OA
BRANCH  37  39
HETATM   39  C17 UNL     1      13.024  52.146  84.590  1.00  0.00     0.040 C 
HETATM   40  C18 UNL     1      13.399  51.022  84.021  1.00  0.00     0.015 C 
BRANCH  40  41
HETATM   41  C19 UNL     1      14.121  51.026  82.770  1.00  0.00    -0.021 A 
HETATM   42  C20 UNL     1      15.271  51.686  82.714  1.00  0.00     0.014 A 
HETATM   43  C21 UNL     1      16.024  51.720  81.495  1.00  0.00     0.018 A 
HETATM   44  C22 UNL     1      15.529  51.067  80.434  1.00  0.00     0.087 A 
HETATM   45  N10 UNL     1      14.301  50.368  80.512  1.00  0.00    -0.374 N 
HETATM   46  C23 UNL     1      13.591  50.318  81.606  1.00  0.00     0.099 A 
ATOM     47  H10 UNL     1      13.958  49.884  79.681  1.00  0.00     0.164 HD
ENDBRANCH  40  41
ENDBRANCH  37  39
ENDBRANCH  31  33
ENDBRANCH   5  29
TORSDOF 11
ENDMDL
