MODEL 1
REMARK VINA RESULT: -7.541627164      0.000      0.000
REMARK  12 active torsions:
REMARK  status: ('A' for Active; 'I' for Inactive)
REMARK    1  A    between atoms: N1_2  and  C2_4 
REMARK    2  A    between atoms: C3_7  and  C4_8 
REMARK    3  A    between atoms: C8_12  and  C9_13 
REMARK    4  A    between atoms: C9_13  and  C10_14 
REMARK    5  A    between atoms: C10_14  and  C11_15 
REMARK    6  A    between atoms: C11_15  and  O1_16 
REMARK    7  A    between atoms: C14_20  and  N3_21 
REMARK    8  A    between atoms: N3_21  and  C15_23 
REMARK    9  A    between atoms: C15_23  and  C16_24 
REMARK   10  A    between atoms: C16_24  and  C17_25 
REMARK   11  A    between atoms: C17_25  and  C18_26 
REMARK   12  A    between atoms: C18_26  and  N4_27 
ROOT
HETATM    1  C2  UNL     1      11.204  52.403  85.605  1.00  0.00     0.679 A 
HETATM    2  N2  UNL     1      11.946  51.952  84.562  1.00  0.00    -0.191 N 
ATOM      3  H2  UNL     1      11.493  51.350  83.874  1.00  0.00     0.184 HD
HETATM    4  C3  UNL     1      13.240  52.251  84.383  1.00  0.00     0.063 A 
HETATM    5  C13 UNL     1      13.841  53.062  85.312  1.00  0.00     0.079 A 
HETATM    6  C14 UNL     1      13.095  53.540  86.398  1.00  0.00     0.119 A 
HETATM    7  N5  UNL     1      11.806  53.195  86.507  1.00  0.00    -0.177 N 
ATOM      8  H5  UNL     1      11.266  53.545  87.297  1.00  0.00     0.185 HD
ENDROOT
BRANCH   6   9
HETATM    9  N3  UNL     1      13.697  54.291  87.240  1.00  0.00    -0.376 N 
ATOM     10  H3  UNL     1      14.228  55.075  86.863  1.00  0.00     0.161 HD
BRANCH   9  11
HETATM   11  C15 UNL     1      13.695  54.136  88.660  1.00  0.00     0.121 C 
BRANCH  11  12
HETATM   12  C16 UNL     1      14.146  55.432  89.343  1.00  0.00     0.021 C 
BRANCH  12  13
HETATM   13  C17 UNL     1      13.948  55.336  90.840  1.00  0.00     0.021 C 
BRANCH  13  14
HETATM   14  C18 UNL     1      14.442  54.048  91.428  1.00  0.00     0.117 C 
BRANCH  14  15
HETATM   15  N4  UNL     1      13.716  53.670  92.580  1.00  0.00    -0.408 N 
HETATM   16  C19 UNL     1      12.873  52.511  92.369  1.00  0.00     0.143 C 
HETATM   17  C20 UNL     1      11.465  52.816  92.020  1.00  0.00     0.187 C 
HETATM   18  O2  UNL     1      10.615  52.647  93.099  1.00  0.00    -0.387 OA
HETATM   19  C21 UNL     1       9.339  53.134  92.882  1.00  0.00     0.193 C 
HETATM   20  C22 UNL     1       8.695  53.744  94.078  1.00  0.00     0.193 C 
HETATM   21  O3  UNL     1       9.089  53.264  95.284  1.00  0.00    -0.387 OA
HETATM   22  C23 UNL     1      10.328  53.559  95.746  1.00  0.00     0.193 C 
HETATM   23  C24 UNL     1      10.894  54.888  95.380  1.00  0.00     0.193 C 
HETATM   24  O4  UNL     1      12.245  54.964  95.612  1.00  0.00    -0.387 OA
HETATM   25  C25 UNL     1      13.047  54.216  94.806  1.00  0.00     0.187 C 
HETATM   26  C26 UNL     1      13.119  54.680  93.367  1.00  0.00     0.143 C 
ENDBRANCH  14  15
ENDBRANCH  13  14
ENDBRANCH  12  13
ENDBRANCH  11  12
ENDBRANCH   9  11
ENDBRANCH   6   9
BRANCH   4  27
HETATM   27  C4  UNL     1      14.014  51.754  83.253  1.00  0.00    -0.007 A 
HETATM   28  C5  UNL     1      15.319  52.186  83.082  1.00  0.00     0.014 A 
HETATM   29  C6  UNL     1      16.079  51.719  81.996  1.00  0.00     0.002 A 
HETATM   30  C7  UNL     1      15.547  50.833  81.090  1.00  0.00     0.020 A 
HETATM   31  C8  UNL     1      14.254  50.391  81.239  1.00  0.00     0.018 A 
HETATM   32  C12 UNL     1      13.530  50.871  82.323  1.00  0.00     0.034 A 
BRANCH  31  33
HETATM   33  C9  UNL     1      13.675  49.463  80.306  1.00  0.00    -0.065 C 
BRANCH  33  34
HETATM   34  C10 UNL     1      13.195  48.672  79.537  1.00  0.00    -0.075 C 
BRANCH  34  35
HETATM   35  C11 UNL     1      12.593  47.689  78.613  1.00  0.00     0.258 C 
BRANCH  35  36
HETATM   36  O1  UNL     1      13.553  47.392  77.643  1.00  0.00    -0.389 OA
ATOM     37  H1  UNL     1      13.199  46.698  77.101  1.00  0.00     0.210 HD
ENDBRANCH  35  36
ENDBRANCH  34  35
ENDBRANCH  33  34
ENDBRANCH  31  33
ENDBRANCH   4  27
BRANCH   1  38
HETATM   38  N1  UNL     1       9.960  52.068  85.707  1.00  0.00    -0.230 N 
HETATM   39  C1  UNL     1       9.002  52.808  86.477  1.00  0.00     0.165 C 
ATOM     40  H1  UNL     1       9.642  51.233  85.215  1.00  0.00     0.177 HD
ENDBRANCH   1  38
TORSDOF 12
ENDMDL
MODEL 2
REMARK VINA RESULT: -7.320786385      1.624      2.059
REMARK  12 active torsions:
REMARK  status: ('A' for Active; 'I' for Inactive)
REMARK    1  A    between atoms: N1_2  and  C2_4 
REMARK    2  A    between atoms: C3_7  and  C4_8 
REMARK    3  A    between atoms: C8_12  and  C9_13 
REMARK    4  A    between atoms: C9_13  and  C10_14 
REMARK    5  A    between atoms: C10_14  and  C11_15 
REMARK    6  A    between atoms: C11_15  and  O1_16 
REMARK    7  A    between atoms: C14_20  and  N3_21 
REMARK    8  A    between atoms: N3_21  and  C15_23 
REMARK    9  A    between atoms: C15_23  and  C16_24 
REMARK   10  A    between atoms: C16_24  and  C17_25 
REMARK   11  A    between atoms: C17_25  and  C18_26 
REMARK   12  A    between atoms: C18_26  and  N4_27 
ROOT
HETATM    1  C2  UNL     1      10.482  52.798  86.793  1.00  0.00     0.679 A 
HETATM    2  N2  UNL     1      11.297  52.545  85.738  1.00  0.00    -0.191 N 
ATOM      3  H2  UNL     1      10.869  52.237  84.864  1.00  0.00     0.184 HD
HETATM    4  C3  UNL     1      12.630  52.675  85.777  1.00  0.00     0.063 A 
HETATM    5  C13 UNL     1      13.195  53.090  86.956  1.00  0.00     0.079 A 
HETATM    6  C14 UNL     1      12.374  53.357  88.060  1.00  0.00     0.119 A 
HETATM    7  N5  UNL     1      11.050  53.202  87.941  1.00  0.00    -0.177 N 
ATOM      8  H5  UNL     1      10.454  53.398  88.746  1.00  0.00     0.185 HD
ENDROOT
BRANCH   6   9
HETATM    9  N3  UNL     1      12.944  53.740  89.139  1.00  0.00    -0.376 N 
ATOM     10  H3  UNL     1      12.567  53.378  90.015  1.00  0.00     0.161 HD
BRANCH   9  11
HETATM   11  C15 UNL     1      14.061  54.626  89.234  1.00  0.00     0.121 C 
BRANCH  11  12
HETATM   12  C16 UNL     1      14.550  54.720  90.683  1.00  0.00     0.021 C 
BRANCH  12  13
HETATM   13  C17 UNL     1      13.383  54.621  91.641  1.00  0.00     0.021 C 
BRANCH  13  14
HETATM   14  C18 UNL     1      13.682  53.810  92.866  1.00  0.00     0.117 C 
BRANCH  14  15
HETATM   15  N4  UNL     1      13.173  54.407  94.043  1.00  0.00    -0.408 N 
HETATM   16  C19 UNL     1      13.188  53.517  95.186  1.00  0.00     0.143 C 
HETATM   17  C20 UNL     1      11.918  52.793  95.433  1.00  0.00     0.187 C 
HETATM   18  O2  UNL     1      11.197  53.351  96.475  1.00  0.00    -0.387 OA
HETATM   19  C21 UNL     1       9.913  52.853  96.590  1.00  0.00     0.193 C 
HETATM   20  C22 UNL     1       8.893  53.852  97.016  1.00  0.00     0.193 C 
HETATM   21  O3  UNL     1       9.342  54.877  97.782  1.00  0.00    -0.387 OA
HETATM   22  C23 UNL     1      10.115  55.839  97.222  1.00  0.00     0.193 C 
HETATM   23  C24 UNL     1       9.849  56.184  95.797  1.00  0.00     0.193 C 
HETATM   24  O4  UNL     1      10.867  56.915  95.236  1.00  0.00    -0.387 OA
HETATM   25  C25 UNL     1      12.045  56.265  95.032  1.00  0.00     0.187 C 
HETATM   26  C26 UNL     1      12.012  55.205  93.950  1.00  0.00     0.143 C 
ENDBRANCH  14  15
ENDBRANCH  13  14
ENDBRANCH  12  13
ENDBRANCH  11  12
ENDBRANCH   9  11
ENDBRANCH   6   9
BRANCH   4  27
HETATM   27  C4  UNL     1      13.482  52.398  84.629  1.00  0.00    -0.007 A 
HETATM   28  C5  UNL     1      14.678  53.083  84.489  1.00  0.00     0.014 A 
HETATM   29  C6  UNL     1      15.510  52.830  83.386  1.00  0.00     0.002 A 
HETATM   30  C7  UNL     1      15.158  51.906  82.432  1.00  0.00     0.020 A 
HETATM   31  C8  UNL     1      13.976  51.215  82.548  1.00  0.00     0.018 A 
HETATM   32  C12 UNL     1      13.176  51.488  83.650  1.00  0.00     0.034 A 
BRANCH  31  33
HETATM   33  C9  UNL     1      13.585  50.242  81.564  1.00  0.00    -0.065 C 
BRANCH  33  34
HETATM   34  C10 UNL     1      13.241  49.428  80.748  1.00  0.00    -0.075 C 
BRANCH  34  35
HETATM   35  C11 UNL     1      12.836  48.412  79.755  1.00  0.00     0.258 C 
BRANCH  35  36
HETATM   36  O1  UNL     1      13.861  48.326  78.810  1.00  0.00    -0.389 OA
ATOM     37  H1  UNL     1      13.455  48.339  77.952  1.00  0.00     0.210 HD
ENDBRANCH  35  36
ENDBRANCH  34  35
ENDBRANCH  33  34
ENDBRANCH  31  33
ENDBRANCH   4  27
BRANCH   1  38
HETATM   38  N1  UNL     1       9.203  52.647  86.675  1.00  0.00    -0.230 N 
HETATM   39  C1  UNL     1       8.280  52.853  87.753  1.00  0.00     0.165 C 
ATOM     40  H1  UNL     1       8.832  52.367  85.768  1.00  0.00     0.177 HD
ENDBRANCH   1  38
TORSDOF 12
ENDMDL
MODEL 3
REMARK VINA RESULT: -7.286468533      1.439      2.026
REMARK  12 active torsions:
REMARK  status: ('A' for Active; 'I' for Inactive)
REMARK    1  A    between atoms: N1_2  and  C2_4 
REMARK    2  A    between atoms: C3_7  and  C4_8 
REMARK    3  A    between atoms: C8_12  and  C9_13 
REMARK    4  A    between atoms: C9_13  and  C10_14 
REMARK    5  A    between atoms: C10_14  and  C11_15 
REMARK    6  A    between atoms: C11_15  and  O1_16 
REMARK    7  A    between atoms: C14_20  and  N3_21 
REMARK    8  A    between atoms: N3_21  and  C15_23 
REMARK    9  A    between atoms: C15_23  and  C16_24 
REMARK   10  A    between atoms: C16_24  and  C17_25 
REMARK   11  A    between atoms: C17_25  and  C18_26 
REMARK   12  A    between atoms: C18_26  and  N4_27 
ROOT
HETATM    1  C2  UNL     1      11.263  52.421  85.866  1.00  0.00     0.679 A 
HETATM    2  N2  UNL     1      11.976  51.992  84.794  1.00  0.00    -0.191 N 
ATOM      3  H2  UNL     1      11.510  51.386  84.118  1.00  0.00     0.184 HD
HETATM    4  C3  UNL     1      13.256  52.318  84.572  1.00  0.00     0.063 A 
HETATM    5  C13 UNL     1      13.873  53.135  85.485  1.00  0.00     0.079 A 
HETATM    6  C14 UNL     1      13.158  53.591  86.600  1.00  0.00     0.119 A 
HETATM    7  N5  UNL     1      11.880  53.220  86.752  1.00  0.00    -0.177 N 
ATOM      8  H5  UNL     1      11.361  53.553  87.564  1.00  0.00     0.185 HD
ENDROOT
BRANCH   6   9
HETATM    9  N3  UNL     1      13.774  54.348  87.426  1.00  0.00    -0.376 N 
ATOM     10  H3  UNL     1      14.532  54.919  87.053  1.00  0.00     0.161 HD
BRANCH   9  11
HETATM   11  C15 UNL     1      13.501  54.470  88.823  1.00  0.00     0.121 C 
BRANCH  11  12
HETATM   12  C16 UNL     1      14.795  54.727  89.603  1.00  0.00     0.021 C 
BRANCH  12  13
HETATM   13  C17 UNL     1      14.525  54.720  91.091  1.00  0.00     0.021 C 
BRANCH  13  14
HETATM   14  C18 UNL     1      13.065  54.720  91.434  1.00  0.00     0.117 C 
BRANCH  14  15
HETATM   15  N4  UNL     1      12.727  53.691  92.343  1.00  0.00    -0.408 N 
HETATM   16  C19 UNL     1      11.444  53.896  92.984  1.00  0.00     0.143 C 
HETATM   17  C20 UNL     1      11.504  54.556  94.310  1.00  0.00     0.187 C 
HETATM   18  O2  UNL     1      11.345  53.652  95.346  1.00  0.00    -0.387 OA
HETATM   19  C21 UNL     1      11.619  54.185  96.593  1.00  0.00     0.193 C 
HETATM   20  C22 UNL     1      12.269  53.240  97.544  1.00  0.00     0.193 C 
HETATM   21  O3  UNL     1      11.994  51.924  97.365  1.00  0.00    -0.387 OA
HETATM   22  C23 UNL     1      12.513  51.274  96.296  1.00  0.00     0.193 C 
HETATM   23  C24 UNL     1      13.856  51.709  95.819  1.00  0.00     0.193 C 
HETATM   24  O4  UNL     1      14.148  51.228  94.567  1.00  0.00    -0.387 OA
HETATM   25  C25 UNL     1      13.431  51.743  93.531  1.00  0.00     0.187 C 
HETATM   26  C26 UNL     1      13.728  53.192  93.205  1.00  0.00     0.143 C 
ENDBRANCH  14  15
ENDBRANCH  13  14
ENDBRANCH  12  13
ENDBRANCH  11  12
ENDBRANCH   9  11
ENDBRANCH   6   9
BRANCH   4  27
HETATM   27  C4  UNL     1      13.999  51.845  83.412  1.00  0.00    -0.007 A 
HETATM   28  C5  UNL     1      15.294  52.293  83.205  1.00  0.00     0.014 A 
HETATM   29  C6  UNL     1      16.024  51.848  82.090  1.00  0.00     0.002 A 
HETATM   30  C7  UNL     1      15.472  50.968  81.190  1.00  0.00     0.020 A 
HETATM   31  C8  UNL     1      14.190  50.511  81.373  1.00  0.00     0.018 A 
HETATM   32  C12 UNL     1      13.495  50.969  82.485  1.00  0.00     0.034 A 
BRANCH  31  33
HETATM   33  C9  UNL     1      13.591  49.589  80.446  1.00  0.00    -0.065 C 
BRANCH  33  34
HETATM   34  C10 UNL     1      13.108  48.810  79.667  1.00  0.00    -0.075 C 
BRANCH  34  35
HETATM   35  C11 UNL     1      12.539  47.844  78.705  1.00  0.00     0.258 C 
BRANCH  35  36
HETATM   36  O1  UNL     1      13.537  47.553  77.773  1.00  0.00    -0.389 OA
ATOM     37  H1  UNL     1      13.549  46.610  77.659  1.00  0.00     0.210 HD
ENDBRANCH  35  36
ENDBRANCH  34  35
ENDBRANCH  33  34
ENDBRANCH  31  33
ENDBRANCH   4  27
BRANCH   1  38
HETATM   38  N1  UNL     1      10.029  52.061  86.010  1.00  0.00    -0.230 N 
HETATM   39  C1  UNL     1       9.056  52.837  86.722  1.00  0.00     0.165 C 
ATOM     40  H1  UNL     1       9.733  51.178  85.595  1.00  0.00     0.177 HD
ENDBRANCH   1  38
TORSDOF 12
ENDMDL
MODEL 4
REMARK VINA RESULT: -7.218677088      1.420      3.319
REMARK  12 active torsions:
REMARK  status: ('A' for Active; 'I' for Inactive)
REMARK    1  A    between atoms: N1_2  and  C2_4 
REMARK    2  A    between atoms: C3_7  and  C4_8 
REMARK    3  A    between atoms: C8_12  and  C9_13 
REMARK    4  A    between atoms: C9_13  and  C10_14 
REMARK    5  A    between atoms: C10_14  and  C11_15 
REMARK    6  A    between atoms: C11_15  and  O1_16 
REMARK    7  A    between atoms: C14_20  and  N3_21 
REMARK    8  A    between atoms: N3_21  and  C15_23 
REMARK    9  A    between atoms: C15_23  and  C16_24 
REMARK   10  A    between atoms: C16_24  and  C17_25 
REMARK   11  A    between atoms: C17_25  and  C18_26 
REMARK   12  A    between atoms: C18_26  and  N4_27 
ROOT
HETATM    1  C2  UNL     1      13.223  53.579  86.283  1.00  0.00     0.679 A 
HETATM    2  N2  UNL     1      13.860  53.109  85.181  1.00  0.00    -0.191 N 
ATOM      3  H2  UNL     1      14.778  53.493  84.956  1.00  0.00     0.184 HD
HETATM    4  C3  UNL     1      13.353  52.170  84.371  1.00  0.00     0.063 A 
HETATM    5  C13 UNL     1      12.118  51.658  84.683  1.00  0.00     0.079 A 
HETATM    6  C14 UNL     1      11.441  52.128  85.816  1.00  0.00     0.119 A 
HETATM    7  N5  UNL     1      12.015  53.069  86.575  1.00  0.00    -0.177 N 
ATOM      8  H5  UNL     1      11.521  53.409  87.400  1.00  0.00     0.185 HD
ENDROOT
BRANCH   6   9
HETATM    9  N3  UNL     1      10.293  51.624  86.067  1.00  0.00    -0.376 N 
ATOM     10  H3  UNL     1       9.758  51.275  85.272  1.00  0.00     0.161 HD
BRANCH   9  11
HETATM   11  C15 UNL     1       9.688  51.504  87.356  1.00  0.00     0.121 C 
BRANCH  11  12
HETATM   12  C16 UNL     1       8.823  52.732  87.659  1.00  0.00     0.021 C 
BRANCH  12  13
HETATM   13  C17 UNL     1       9.228  53.349  88.979  1.00  0.00     0.021 C 
BRANCH  13  14
HETATM   14  C18 UNL     1       8.824  52.534  90.171  1.00  0.00     0.117 C 
BRANCH  14  15
HETATM   15  N4  UNL     1       9.893  52.335  91.074  1.00  0.00    -0.408 N 
HETATM   16  C19 UNL     1       9.473  52.316  92.460  1.00  0.00     0.143 C 
HETATM   17  C20 UNL     1       9.588  53.614  93.168  1.00  0.00     0.187 C 
HETATM   18  O2  UNL     1      10.695  53.655  93.998  1.00  0.00    -0.387 OA
HETATM   19  C21 UNL     1      10.966  54.915  94.499  1.00  0.00     0.193 C 
HETATM   20  C22 UNL     1      12.415  55.230  94.642  1.00  0.00     0.193 C 
HETATM   21  O3  UNL     1      13.240  54.175  94.855  1.00  0.00    -0.387 OA
HETATM   22  C23 UNL     1      13.484  53.304  93.846  1.00  0.00     0.193 C 
HETATM   23  C24 UNL     1      13.506  53.854  92.461  1.00  0.00     0.193 C 
HETATM   24  O4  UNL     1      13.437  52.870  91.506  1.00  0.00    -0.387 OA
HETATM   25  C25 UNL     1      12.255  52.204  91.399  1.00  0.00     0.187 C 
HETATM   26  C26 UNL     1      11.106  53.023  90.850  1.00  0.00     0.143 C 
ENDBRANCH  14  15
ENDBRANCH  13  14
ENDBRANCH  12  13
ENDBRANCH  11  12
ENDBRANCH   9  11
ENDBRANCH   6   9
BRANCH   4  27
HETATM   27  C4  UNL     1      14.058  51.682  83.193  1.00  0.00    -0.007 A 
HETATM   28  C5  UNL     1      15.352  52.112  82.950  1.00  0.00     0.014 A 
HETATM   29  C6  UNL     1      16.046  51.653  81.817  1.00  0.00     0.002 A 
HETATM   30  C7  UNL     1      15.459  50.777  80.937  1.00  0.00     0.020 A 
HETATM   31  C8  UNL     1      14.176  50.336  81.157  1.00  0.00     0.018 A 
HETATM   32  C12 UNL     1      13.518  50.809  82.285  1.00  0.00     0.034 A 
BRANCH  31  33
HETATM   33  C9  UNL     1      13.541  49.419  80.250  1.00  0.00    -0.065 C 
BRANCH  33  34
HETATM   34  C10 UNL     1      13.011  48.637  79.506  1.00  0.00    -0.075 C 
BRANCH  34  35
HETATM   35  C11 UNL     1      12.381  47.661  78.593  1.00  0.00     0.258 C 
BRANCH  35  36
HETATM   36  O1  UNL     1      13.307  47.381  77.585  1.00  0.00    -0.389 OA
ATOM     37  H1  UNL     1      14.127  47.162  78.010  1.00  0.00     0.210 HD
ENDBRANCH  35  36
ENDBRANCH  34  35
ENDBRANCH  33  34
ENDBRANCH  31  33
ENDBRANCH   4  27
BRANCH   1  38
HETATM   38  N1  UNL     1      13.780  54.488  87.015  1.00  0.00    -0.230 N 
HETATM   39  C1  UNL     1      13.869  54.409  88.444  1.00  0.00     0.165 C 
ATOM     40  H1  UNL     1      14.177  55.305  86.551  1.00  0.00     0.177 HD
ENDBRANCH   1  38
TORSDOF 12
ENDMDL
MODEL 5
REMARK VINA RESULT: -7.203868159      1.887      2.907
REMARK  12 active torsions:
REMARK  status: ('A' for Active; 'I' for Inactive)
REMARK    1  A    between atoms: N1_2  and  C2_4 
REMARK    2  A    between atoms: C3_7  and  C4_8 
REMARK    3  A    between atoms: C8_12  and  C9_13 
REMARK    4  A    between atoms: C9_13  and  C10_14 
REMARK    5  A    between atoms: C10_14  and  C11_15 
REMARK    6  A    between atoms: C11_15  and  O1_16 
REMARK    7  A    between atoms: C14_20  and  N3_21 
REMARK    8  A    between atoms: N3_21  and  C15_23 
REMARK    9  A    between atoms: C15_23  and  C16_24 
REMARK   10  A    between atoms: C16_24  and  C17_25 
REMARK   11  A    between atoms: C17_25  and  C18_26 
REMARK   12  A    between atoms: C18_26  and  N4_27 
ROOT
HETATM    1  C2  UNL     1      11.065  52.457  85.833  1.00  0.00     0.679 A 
HETATM    2  N2  UNL     1      11.813  52.043  84.778  1.00  0.00    -0.191 N 
ATOM      3  H2  UNL     1      11.355  51.497  84.049  1.00  0.00     0.184 HD
HETATM    4  C3  UNL     1      13.119  52.312  84.640  1.00  0.00     0.063 A 
HETATM    5  C13 UNL     1      13.725  53.049  85.626  1.00  0.00     0.079 A 
HETATM    6  C14 UNL     1      12.973  53.487  86.724  1.00  0.00     0.119 A 
HETATM    7  N5  UNL     1      11.673  53.177  86.790  1.00  0.00    -0.177 N 
ATOM      8  H5  UNL     1      11.127  53.497  87.590  1.00  0.00     0.185 HD
ENDROOT
BRANCH   6   9
HETATM    9  N3  UNL     1      13.581  54.169  87.619  1.00  0.00    -0.376 N 
ATOM     10  H3  UNL     1      14.285  54.832  87.296  1.00  0.00     0.161 HD
BRANCH   9  11
HETATM   11  C15 UNL     1      13.365  54.092  89.029  1.00  0.00     0.121 C 
BRANCH  11  12
HETATM   12  C16 UNL     1      14.213  55.138  89.761  1.00  0.00     0.021 C 
BRANCH  12  13
HETATM   13  C17 UNL     1      14.456  54.713  91.192  1.00  0.00     0.021 C 
BRANCH  13  14
HETATM   14  C18 UNL     1      13.222  54.744  92.043  1.00  0.00     0.117 C 
BRANCH  14  15
HETATM   15  N4  UNL     1      12.925  53.482  92.606  1.00  0.00    -0.408 N 
HETATM   16  C19 UNL     1      12.368  53.569  93.940  1.00  0.00     0.143 C 
HETATM   17  C20 UNL     1      13.351  53.429  95.041  1.00  0.00     0.187 C 
HETATM   18  O2  UNL     1      13.308  52.171  95.618  1.00  0.00    -0.387 OA
HETATM   19  C21 UNL     1      14.354  51.924  96.488  1.00  0.00     0.193 C 
HETATM   20  C22 UNL     1      14.855  50.521  96.476  1.00  0.00     0.193 C 
HETATM   21  O3  UNL     1      13.953  49.565  96.139  1.00  0.00    -0.387 OA
HETATM   22  C23 UNL     1      13.529  49.471  94.856  1.00  0.00     0.193 C 
HETATM   23  C24 UNL     1      14.507  49.823  93.787  1.00  0.00     0.193 C 
HETATM   24  O4  UNL     1      13.905  50.008  92.567  1.00  0.00    -0.387 OA
HETATM   25  C25 UNL     1      13.114  51.108  92.436  1.00  0.00     0.187 C 
HETATM   26  C26 UNL     1      13.852  52.430  92.438  1.00  0.00     0.143 C 
ENDBRANCH  14  15
ENDBRANCH  13  14
ENDBRANCH  12  13
ENDBRANCH  11  12
ENDBRANCH   9  11
ENDBRANCH   6   9
BRANCH   4  27
HETATM   27  C4  UNL     1      13.899  51.857  83.498  1.00  0.00    -0.007 A 
HETATM   28  C5  UNL     1      15.191  52.328  83.327  1.00  0.00     0.014 A 
HETATM   29  C6  UNL     1      15.957  51.902  82.229  1.00  0.00     0.002 A 
HETATM   30  C7  UNL     1      15.444  51.017  81.311  1.00  0.00     0.020 A 
HETATM   31  C8  UNL     1      14.165  50.537  81.459  1.00  0.00     0.018 A 
HETATM   32  C12 UNL     1      13.435  50.978  82.555  1.00  0.00     0.034 A 
BRANCH  31  33
HETATM   33  C9  UNL     1      13.607  49.610  80.512  1.00  0.00    -0.065 C 
BRANCH  33  34
HETATM   34  C10 UNL     1      13.157  48.831  79.713  1.00  0.00    -0.075 C 
BRANCH  34  35
HETATM   35  C11 UNL     1      12.583  47.874  78.745  1.00  0.00     0.258 C 
BRANCH  35  36
HETATM   36  O1  UNL     1      13.600  47.528  77.852  1.00  0.00    -0.389 OA
ATOM     37  H1  UNL     1      13.288  46.791  77.342  1.00  0.00     0.210 HD
ENDBRANCH  35  36
ENDBRANCH  34  35
ENDBRANCH  33  34
ENDBRANCH  31  33
ENDBRANCH   4  27
BRANCH   1  38
HETATM   38  N1  UNL     1       9.809  52.155  85.893  1.00  0.00    -0.230 N 
HETATM   39  C1  UNL     1       8.886  52.788  86.790  1.00  0.00     0.165 C 
ATOM     40  H1  UNL     1       9.456  51.429  85.270  1.00  0.00     0.177 HD
ENDBRANCH   1  38
TORSDOF 12
ENDMDL
