MODEL 1
REMARK VINA RESULT: -8.524341712      0.000      0.000
REMARK  8 active torsions:
REMARK  status: ('A' for Active; 'I' for Inactive)
REMARK    1  A    between atoms: C7_10  and  C8_11 
REMARK    2  A    between atoms: C9_12  and  C10_13 
REMARK    3  A    between atoms: C12_17  and  N3_18 
REMARK    4  A    between atoms: N3_18  and  S1_20 
REMARK    5  A    between atoms: C14_26  and  N5_27 
REMARK    6  A    between atoms: N5_27  and  C15_28 
REMARK    7  A    between atoms: C15_28  and  C16_29 
REMARK    8  A    between atoms: C21_34  and  N6_35 
ROOT
HETATM    1  C10 UNL     1       9.145  52.451  88.145  1.00  0.00     0.039 A 
HETATM    2  C11 UNL     1       7.778  52.747  88.052  1.00  0.00     0.122 A 
HETATM    3  N2  UNL     1       7.230  53.863  88.549  1.00  0.00    -0.200 N 
ATOM      4  H2  UNL     1       6.227  54.016  88.448  1.00  0.00     0.183 HD
HETATM    5  C12 UNL     1       7.970  54.776  89.170  1.00  0.00     0.694 A 
HETATM    6  N4  UNL     1       9.283  54.520  89.268  1.00  0.00    -0.163 N 
ATOM      7  H4  UNL     1       9.858  55.218  89.739  1.00  0.00     0.187 HD
HETATM    8  C14 UNL     1       9.937  53.377  88.781  1.00  0.00     0.204 A 
ENDROOT
BRANCH   1   9
HETATM    9  C9  UNL     1       9.762  51.213  87.756  1.00  0.00     0.021 C 
HETATM   10  C8  UNL     1      10.145  50.747  86.473  1.00  0.00     0.049 C 
BRANCH  10  11
HETATM   11  C7  UNL     1      11.301  51.349  85.781  1.00  0.00     0.106 A 
HETATM   12  N1  UNL     1      12.039  52.399  86.132  1.00  0.00    -0.341 N 
HETATM   13  C6  UNL     1      13.072  52.534  85.221  1.00  0.00     0.061 A 
ATOM     14  H1  UNL     1      11.873  53.003  86.937  1.00  0.00     0.167 HD
HETATM   15  C5  UNL     1      14.124  53.394  85.072  1.00  0.00     0.033 A 
HETATM   16  C22 UNL     1      12.914  51.497  84.311  1.00  0.00     0.068 A 
HETATM   17  C4  UNL     1      15.004  53.202  84.009  1.00  0.00     0.027 A 
HETATM   18  C3  UNL     1      14.826  52.179  83.135  1.00  0.00     0.042 A 
HETATM   19  C2  UNL     1      13.781  51.297  83.262  1.00  0.00    -0.011 A 
HETATM   20 CL1  UNL     1      15.923  51.984  81.789  1.00  0.00    -0.084 Cl
HETATM   21  C1  UNL     1      13.618  50.189  82.301  1.00  0.00     0.052 C 
HETATM   22  N7  UNL     1      11.845  50.794  84.651  1.00  0.00    -0.340 N 
ATOM     23  H7  UNL     1      11.486  49.978  84.156  1.00  0.00     0.167 HD
ENDBRANCH  10  11
ENDBRANCH   1   9
BRANCH   8  24
HETATM   24  N5  UNL     1      11.090  53.339  89.145  1.00  0.00    -0.398 NA
BRANCH  24  25
HETATM   25  C15 UNL     1      12.311  53.382  89.645  1.00  0.00     0.198 C 
BRANCH  25  26
HETATM   26  C16 UNL     1      12.634  53.484  91.075  1.00  0.00     0.026 A 
HETATM   27  C17 UNL     1      11.930  52.872  92.089  1.00  0.00     0.016 A 
HETATM   28  C18 UNL     1      12.062  53.258  93.430  1.00  0.00     0.001 A 
HETATM   29  C19 UNL     1      12.918  54.277  93.787  1.00  0.00     0.002 A 
HETATM   30  C20 UNL     1      13.632  54.898  92.783  1.00  0.00     0.037 A 
HETATM   31  C21 UNL     1      13.512  54.524  91.456  1.00  0.00     0.115 A 
BRANCH  31  32
HETATM   32  N6  UNL     1      14.390  55.059  90.502  1.00  0.00    -0.115 N 
HETATM   33  O3  UNL     1      14.150  56.298  90.215  1.00  0.00    -0.532 OA
HETATM   34  O4  UNL     1      15.425  54.527  89.850  1.00  0.00    -0.532 OA
ENDBRANCH  31  32
ENDBRANCH  25  26
ENDBRANCH  24  25
ENDBRANCH   8  24
BRANCH   5  35
HETATM   35  N3  UNL     1       7.477  55.728  89.825  1.00  0.00    -0.117 N 
ATOM     36  H3  UNL     1       8.048  56.080  90.594  1.00  0.00     0.197 HD
BRANCH  35  37
HETATM   37  S1  UNL     1       5.993  56.502  89.599  1.00  0.00     0.240 S 
HETATM   38  C13 UNL     1       6.190  58.097  88.782  1.00  0.00     0.186 C 
HETATM   39  O1  UNL     1       5.424  56.887  91.000  1.00  0.00    -0.206 OA
HETATM   40  O2  UNL     1       4.936  55.763  88.882  1.00  0.00    -0.206 OA
ENDBRANCH  35  37
ENDBRANCH   5  35
TORSDOF 8
ENDMDL
MODEL 2
REMARK VINA RESULT: -8.454118553      3.925      5.405
REMARK  8 active torsions:
REMARK  status: ('A' for Active; 'I' for Inactive)
REMARK    1  A    between atoms: C7_10  and  C8_11 
REMARK    2  A    between atoms: C9_12  and  C10_13 
REMARK    3  A    between atoms: C12_17  and  N3_18 
REMARK    4  A    between atoms: N3_18  and  S1_20 
REMARK    5  A    between atoms: C14_26  and  N5_27 
REMARK    6  A    between atoms: N5_27  and  C15_28 
REMARK    7  A    between atoms: C15_28  and  C16_29 
REMARK    8  A    between atoms: C21_34  and  N6_35 
ROOT
HETATM    1  C10 UNL     1      11.708  51.135  87.096  1.00  0.00     0.039 A 
HETATM    2  C11 UNL     1      11.719  49.828  86.591  1.00  0.00     0.122 A 
HETATM    3  N2  UNL     1      11.973  48.750  87.342  1.00  0.00    -0.200 N 
ATOM      4  H2  UNL     1      11.968  47.825  86.911  1.00  0.00     0.183 HD
HETATM    5  C12 UNL     1      12.233  48.862  88.641  1.00  0.00     0.694 A 
HETATM    6  N4  UNL     1      12.223  50.102  89.151  1.00  0.00    -0.163 N 
ATOM      7  H4  UNL     1      12.416  50.195  90.148  1.00  0.00     0.187 HD
HETATM    8  C14 UNL     1      11.971  51.284  88.436  1.00  0.00     0.204 A 
ENDROOT
BRANCH   1   9
HETATM    9  C9  UNL     1      11.580  52.334  86.313  1.00  0.00     0.021 C 
HETATM   10  C8  UNL     1      12.579  53.168  85.751  1.00  0.00     0.049 C 
BRANCH  10  11
HETATM   11  C7  UNL     1      13.372  52.698  84.598  1.00  0.00     0.106 A 
HETATM   12  N1  UNL     1      14.657  52.906  84.321  1.00  0.00    -0.341 N 
HETATM   13  C6  UNL     1      14.980  52.192  83.180  1.00  0.00     0.061 A 
ATOM     14  H1  UNL     1      15.296  53.492  84.858  1.00  0.00     0.167 HD
HETATM   15  C5  UNL     1      16.117  52.010  82.444  1.00  0.00     0.033 A 
HETATM   16  C22 UNL     1      13.817  51.539  82.798  1.00  0.00     0.068 A 
HETATM   17  C4  UNL     1      16.070  51.174  81.330  1.00  0.00     0.027 A 
HETATM   18  C3  UNL     1      14.919  50.546  80.980  1.00  0.00     0.042 A 
HETATM   19  C2  UNL     1      13.763  50.706  81.704  1.00  0.00    -0.011 A 
HETATM   20 CL1  UNL     1      14.878  49.532  79.558  1.00  0.00    -0.084 Cl
HETATM   21  C1  UNL     1      12.528  50.004  81.304  1.00  0.00     0.052 C 
HETATM   22  N7  UNL     1      12.854  51.853  83.651  1.00  0.00    -0.340 N 
ATOM     23  H7  UNL     1      11.890  51.522  83.611  1.00  0.00     0.167 HD
ENDBRANCH  10  11
ENDBRANCH   1   9
BRANCH   8  24
HETATM   24  N5  UNL     1      12.179  52.264  89.115  1.00  0.00    -0.398 NA
BRANCH  24  25
HETATM   25  C15 UNL     1      12.362  53.408  89.747  1.00  0.00     0.198 C 
BRANCH  25  26
HETATM   26  C16 UNL     1      12.672  53.543  91.177  1.00  0.00     0.026 A 
HETATM   27  C17 UNL     1      11.958  52.957  92.198  1.00  0.00     0.016 A 
HETATM   28  C18 UNL     1      12.078  53.375  93.531  1.00  0.00     0.001 A 
HETATM   29  C19 UNL     1      12.934  54.400  93.871  1.00  0.00     0.002 A 
HETATM   30  C20 UNL     1      13.658  54.995  92.860  1.00  0.00     0.037 A 
HETATM   31  C21 UNL     1      13.550  54.590  91.541  1.00  0.00     0.115 A 
BRANCH  31  32
HETATM   32  N6  UNL     1      14.438  55.100  90.583  1.00  0.00    -0.115 N 
HETATM   33  O3  UNL     1      14.224  56.343  90.290  1.00  0.00    -0.532 OA
HETATM   34  O4  UNL     1      15.459  54.542  89.932  1.00  0.00    -0.532 OA
ENDBRANCH  31  32
ENDBRANCH  25  26
ENDBRANCH  24  25
ENDBRANCH   8  24
BRANCH   5  35
HETATM   35  N3  UNL     1      12.674  47.913  89.337  1.00  0.00    -0.117 N 
ATOM     36  H3  UNL     1      12.096  47.072  89.359  1.00  0.00     0.197 HD
BRANCH  35  37
HETATM   37  S1  UNL     1      14.100  47.846  90.241  1.00  0.00     0.240 S 
HETATM   38  C13 UNL     1      14.087  46.473  91.409  1.00  0.00     0.186 C 
HETATM   39  O1  UNL     1      14.151  49.102  91.166  1.00  0.00    -0.206 OA
HETATM   40  O2  UNL     1      15.377  47.790  89.503  1.00  0.00    -0.206 OA
ENDBRANCH  35  37
ENDBRANCH   5  35
TORSDOF 8
ENDMDL
MODEL 3
REMARK VINA RESULT: -8.450238740      1.597      1.986
REMARK  8 active torsions:
REMARK  status: ('A' for Active; 'I' for Inactive)
REMARK    1  A    between atoms: C7_10  and  C8_11 
REMARK    2  A    between atoms: C9_12  and  C10_13 
REMARK    3  A    between atoms: C12_17  and  N3_18 
REMARK    4  A    between atoms: N3_18  and  S1_20 
REMARK    5  A    between atoms: C14_26  and  N5_27 
REMARK    6  A    between atoms: N5_27  and  C15_28 
REMARK    7  A    between atoms: C15_28  and  C16_29 
REMARK    8  A    between atoms: C21_34  and  N6_35 
ROOT
HETATM    1  C10 UNL     1       8.544  52.334  87.519  1.00  0.00     0.039 A 
HETATM    2  C11 UNL     1       7.214  52.778  87.510  1.00  0.00     0.122 A 
HETATM    3  N2  UNL     1       6.782  53.824  88.224  1.00  0.00    -0.200 N 
ATOM      4  H2  UNL     1       5.800  54.094  88.174  1.00  0.00     0.183 HD
HETATM    5  C12 UNL     1       7.611  54.519  88.997  1.00  0.00     0.694 A 
HETATM    6  N4  UNL     1       8.890  54.119  89.020  1.00  0.00    -0.163 N 
ATOM      7  H4  UNL     1       9.533  54.650  89.607  1.00  0.00     0.187 HD
HETATM    8  C14 UNL     1       9.425  53.033  88.308  1.00  0.00     0.204 A 
ENDROOT
BRANCH   1   9
HETATM    9  C9  UNL     1       9.032  51.139  86.885  1.00  0.00     0.021 C 
HETATM   10  C8  UNL     1       9.511  50.936  85.567  1.00  0.00     0.049 C 
BRANCH  10  11
HETATM   11  C7  UNL     1      10.818  51.488  85.159  1.00  0.00     0.106 A 
HETATM   12  N1  UNL     1      11.521  52.476  85.705  1.00  0.00    -0.341 N 
HETATM   13  C6  UNL     1      12.729  52.577  85.036  1.00  0.00     0.061 A 
ATOM     14  H1  UNL     1      11.222  53.062  86.485  1.00  0.00     0.167 HD
HETATM   15  C5  UNL     1      13.833  53.374  85.150  1.00  0.00     0.033 A 
HETATM   16  C22 UNL     1      12.709  51.585  84.066  1.00  0.00     0.068 A 
HETATM   17  C4  UNL     1      14.905  53.165  84.285  1.00  0.00     0.027 A 
HETATM   18  C3  UNL     1      14.860  52.185  83.346  1.00  0.00     0.042 A 
HETATM   19  C2  UNL     1      13.766  51.367  83.211  1.00  0.00    -0.011 A 
HETATM   20 CL1  UNL     1      16.203  51.969  82.250  1.00  0.00    -0.084 Cl
HETATM   21  C1  UNL     1      13.748  50.306  82.186  1.00  0.00     0.052 C 
HETATM   22  N7  UNL     1      11.556  50.939  84.142  1.00  0.00    -0.340 N 
ATOM     23  H7  UNL     1      11.265  50.165  83.545  1.00  0.00     0.167 HD
ENDBRANCH  10  11
ENDBRANCH   1   9
BRANCH   8  24
HETATM   24  N5  UNL     1      10.568  52.809  88.636  1.00  0.00    -0.398 NA
BRANCH  24  25
HETATM   25  C15 UNL     1      11.779  52.608  89.122  1.00  0.00     0.198 C 
BRANCH  25  26
HETATM   26  C16 UNL     1      12.639  53.648  89.703  1.00  0.00     0.026 A 
HETATM   27  C17 UNL     1      13.691  54.257  89.054  1.00  0.00     0.016 A 
HETATM   28  C18 UNL     1      14.675  54.982  89.741  1.00  0.00     0.001 A 
HETATM   29  C19 UNL     1      14.619  55.118  91.111  1.00  0.00     0.002 A 
HETATM   30  C20 UNL     1      13.570  54.517  91.775  1.00  0.00     0.037 A 
HETATM   31  C21 UNL     1      12.592  53.800  91.108  1.00  0.00     0.115 A 
BRANCH  31  32
HETATM   32  N6  UNL     1      11.454  53.366  91.803  1.00  0.00    -0.115 N 
HETATM   33  O3  UNL     1      11.657  52.304  92.514  1.00  0.00    -0.532 OA
HETATM   34  O4  UNL     1      10.213  53.852  91.868  1.00  0.00    -0.532 OA
ENDBRANCH  31  32
ENDBRANCH  25  26
ENDBRANCH  24  25
ENDBRANCH   8  24
BRANCH   5  35
HETATM   35  N3  UNL     1       7.217  55.370  89.834  1.00  0.00    -0.117 N 
ATOM     36  H3  UNL     1       7.491  55.200  90.802  1.00  0.00     0.197 HD
BRANCH  35  37
HETATM   37  S1  UNL     1       6.292  56.758  89.566  1.00  0.00     0.240 S 
HETATM   38  C13 UNL     1       7.327  58.194  89.224  1.00  0.00     0.186 C 
HETATM   39  O1  UNL     1       5.583  57.139  90.903  1.00  0.00    -0.206 OA
HETATM   40  O2  UNL     1       5.254  56.698  88.518  1.00  0.00    -0.206 OA
ENDBRANCH  35  37
ENDBRANCH   5  35
TORSDOF 8
ENDMDL
MODEL 4
REMARK VINA RESULT: -8.291343827      4.816      8.596
REMARK  8 active torsions:
REMARK  status: ('A' for Active; 'I' for Inactive)
REMARK    1  A    between atoms: C7_10  and  C8_11 
REMARK    2  A    between atoms: C9_12  and  C10_13 
REMARK    3  A    between atoms: C12_17  and  N3_18 
REMARK    4  A    between atoms: N3_18  and  S1_20 
REMARK    5  A    between atoms: C14_26  and  N5_27 
REMARK    6  A    between atoms: N5_27  and  C15_28 
REMARK    7  A    between atoms: C15_28  and  C16_29 
REMARK    8  A    between atoms: C21_34  and  N6_35 
ROOT
HETATM    1  C10 UNL     1      11.203  52.222  84.538  1.00  0.00     0.039 A 
HETATM    2  C11 UNL     1      10.093  52.996  84.904  1.00  0.00     0.122 A 
HETATM    3  N2  UNL     1       8.873  52.831  84.378  1.00  0.00    -0.200 N 
ATOM      4  H2  UNL     1       8.108  53.430  84.688  1.00  0.00     0.183 HD
HETATM    5  C12 UNL     1       8.640  51.900  83.459  1.00  0.00     0.694 A 
HETATM    6  N4  UNL     1       9.684  51.142  83.093  1.00  0.00    -0.163 N 
ATOM      7  H4  UNL     1       9.512  50.422  82.392  1.00  0.00     0.187 HD
HETATM    8  C14 UNL     1      10.994  51.250  83.590  1.00  0.00     0.204 A 
ENDROOT
BRANCH   1   9
HETATM    9  C9  UNL     1      12.557  52.446  84.964  1.00  0.00     0.021 C 
HETATM   10  C8  UNL     1      13.103  53.481  85.763  1.00  0.00     0.049 C 
BRANCH  10  11
HETATM   11  C7  UNL     1      12.815  53.532  87.210  1.00  0.00     0.106 A 
HETATM   12  N1  UNL     1      11.854  52.921  87.898  1.00  0.00    -0.341 N 
HETATM   13  C6  UNL     1      12.036  53.195  89.243  1.00  0.00     0.061 A 
ATOM     14  H1  UNL     1      11.108  52.348  87.503  1.00  0.00     0.167 HD
HETATM   15  C5  UNL     1      11.391  52.846  90.396  1.00  0.00     0.033 A 
HETATM   16  C22 UNL     1      13.167  53.996  89.318  1.00  0.00     0.068 A 
HETATM   17  C4  UNL     1      11.891  53.307  91.612  1.00  0.00     0.027 A 
HETATM   18  C3  UNL     1      13.001  54.088  91.656  1.00  0.00     0.042 A 
HETATM   19  C2  UNL     1      13.671  54.452  90.514  1.00  0.00    -0.011 A 
HETATM   20 CL1  UNL     1      13.584  54.684  93.191  1.00  0.00    -0.084 Cl
HETATM   21  C1  UNL     1      14.879  55.295  90.594  1.00  0.00     0.052 C 
HETATM   22  N7  UNL     1      13.625  54.199  88.092  1.00  0.00    -0.340 N 
ATOM     23  H7  UNL     1      14.443  54.757  87.846  1.00  0.00     0.167 HD
ENDBRANCH  10  11
ENDBRANCH   1   9
BRANCH   8  24
HETATM   24  N5  UNL     1      11.760  50.545  82.973  1.00  0.00    -0.398 NA
BRANCH  24  25
HETATM   25  C15 UNL     1      12.694  49.818  82.389  1.00  0.00     0.198 C 
BRANCH  25  26
HETATM   26  C16 UNL     1      13.993  50.325  81.928  1.00  0.00     0.026 A 
HETATM   27  C17 UNL     1      14.870  51.062  82.693  1.00  0.00     0.016 A 
HETATM   28  C18 UNL     1      15.920  51.799  82.127  1.00  0.00     0.001 A 
HETATM   29  C19 UNL     1      16.118  51.806  80.763  1.00  0.00     0.002 A 
HETATM   30  C20 UNL     1      15.250  51.071  79.984  1.00  0.00     0.037 A 
HETATM   31  C21 UNL     1      14.210  50.338  80.531  1.00  0.00     0.115 A 
BRANCH  31  32
HETATM   32  N6  UNL     1      13.473  49.466  79.718  1.00  0.00    -0.115 N 
HETATM   33  O3  UNL     1      14.210  48.719  78.960  1.00  0.00    -0.532 OA
HETATM   34  O4  UNL     1      12.161  49.264  79.592  1.00  0.00    -0.532 OA
ENDBRANCH  31  32
ENDBRANCH  25  26
ENDBRANCH  24  25
ENDBRANCH   8  24
BRANCH   5  35
HETATM   35  N3  UNL     1       7.575  51.843  82.794  1.00  0.00    -0.117 N 
ATOM     36  H3  UNL     1       7.158  50.917  82.702  1.00  0.00     0.197 HD
BRANCH  35  37
HETATM   37  S1  UNL     1       6.744  53.101  82.032  1.00  0.00     0.240 S 
HETATM   38  C13 UNL     1       6.714  52.893  80.241  1.00  0.00     0.186 C 
HETATM   39  O1  UNL     1       7.562  54.415  82.226  1.00  0.00    -0.206 OA
HETATM   40  O2  UNL     1       5.361  53.374  82.471  1.00  0.00    -0.206 OA
ENDBRANCH  35  37
ENDBRANCH   5  35
TORSDOF 8
ENDMDL
MODEL 5
REMARK VINA RESULT: -8.238291148      3.791      5.278
REMARK  8 active torsions:
REMARK  status: ('A' for Active; 'I' for Inactive)
REMARK    1  A    between atoms: C7_10  and  C8_11 
REMARK    2  A    between atoms: C9_12  and  C10_13 
REMARK    3  A    between atoms: C12_17  and  N3_18 
REMARK    4  A    between atoms: N3_18  and  S1_20 
REMARK    5  A    between atoms: C14_26  and  N5_27 
REMARK    6  A    between atoms: N5_27  and  C15_28 
REMARK    7  A    between atoms: C15_28  and  C16_29 
REMARK    8  A    between atoms: C21_34  and  N6_35 
ROOT
HETATM    1  C10 UNL     1      11.651  51.348  87.208  1.00  0.00     0.039 A 
HETATM    2  C11 UNL     1      11.676  49.985  86.885  1.00  0.00     0.122 A 
HETATM    3  N2  UNL     1      11.776  49.012  87.799  1.00  0.00    -0.200 N 
ATOM      4  H2  UNL     1      11.790  48.038  87.496  1.00  0.00     0.183 HD
HETATM    5  C12 UNL     1      11.856  49.292  89.096  1.00  0.00     0.694 A 
HETATM    6  N4  UNL     1      11.830  50.589  89.434  1.00  0.00    -0.163 N 
ATOM      7  H4  UNL     1      11.886  50.811  90.427  1.00  0.00     0.187 HD
HETATM    8  C14 UNL     1      11.732  51.670  88.542  1.00  0.00     0.204 A 
ENDROOT
BRANCH   1   9
HETATM    9  C9  UNL     1      11.686  52.433  86.266  1.00  0.00     0.021 C 
HETATM   10  C8  UNL     1      12.687  52.799  85.332  1.00  0.00     0.049 C 
BRANCH  10  11
HETATM   11  C7  UNL     1      12.920  51.970  84.133  1.00  0.00     0.106 A 
HETATM   12  N1  UNL     1      12.102  51.109  83.533  1.00  0.00    -0.341 N 
HETATM   13  C6  UNL     1      12.723  50.637  82.390  1.00  0.00     0.061 A 
ATOM     14  H1  UNL     1      11.173  50.842  83.859  1.00  0.00     0.167 HD
HETATM   15  C5  UNL     1      12.382  49.767  81.393  1.00  0.00     0.033 A 
HETATM   16  C22 UNL     1      13.956  51.273  82.338  1.00  0.00     0.068 A 
HETATM   17  C4  UNL     1      13.284  49.545  80.355  1.00  0.00     0.027 A 
HETATM   18  C3  UNL     1      14.483  50.183  80.328  1.00  0.00     0.042 A 
HETATM   19  C2  UNL     1      14.851  51.065  81.313  1.00  0.00    -0.011 A 
HETATM   20 CL1  UNL     1      15.611  49.859  79.034  1.00  0.00    -0.084 Cl
HETATM   21  C1  UNL     1      16.157  51.750  81.253  1.00  0.00     0.052 C 
HETATM   22  N7  UNL     1      14.069  52.067  83.391  1.00  0.00    -0.340 N 
ATOM     23  H7  UNL     1      14.874  52.653  83.613  1.00  0.00     0.167 HD
ENDBRANCH  10  11
ENDBRANCH   1   9
BRANCH   8  24
HETATM   24  N5  UNL     1      11.885  52.727  89.110  1.00  0.00    -0.398 NA
BRANCH  24  25
HETATM   25  C15 UNL     1      12.051  53.808  89.849  1.00  0.00     0.198 C 
BRANCH  25  26
HETATM   26  C16 UNL     1      12.452  53.811  91.263  1.00  0.00     0.026 A 
HETATM   27  C17 UNL     1      11.716  53.267  92.293  1.00  0.00     0.016 A 
HETATM   28  C18 UNL     1      11.964  53.582  93.637  1.00  0.00     0.001 A 
HETATM   29  C19 UNL     1      12.972  54.457  93.979  1.00  0.00     0.002 A 
HETATM   30  C20 UNL     1      13.719  55.007  92.958  1.00  0.00     0.037 A 
HETATM   31  C21 UNL     1      13.486  54.703  91.629  1.00  0.00     0.115 A 
BRANCH  31  32
HETATM   32  N6  UNL     1      14.385  55.144  90.647  1.00  0.00    -0.115 N 
HETATM   33  O3  UNL     1      14.228  56.387  90.323  1.00  0.00    -0.532 OA
HETATM   34  O4  UNL     1      15.370  54.519  90.000  1.00  0.00    -0.532 OA
ENDBRANCH  31  32
ENDBRANCH  25  26
ENDBRANCH  24  25
ENDBRANCH   8  24
BRANCH   5  35
HETATM   35  N3  UNL     1      12.155  48.435  89.966  1.00  0.00    -0.117 N 
ATOM     36  H3  UNL     1      11.455  47.712  90.135  1.00  0.00     0.197 HD
BRANCH  35  37
HETATM   37  S1  UNL     1      13.564  48.323  90.890  1.00  0.00     0.240 S 
HETATM   38  C13 UNL     1      13.301  47.363  92.394  1.00  0.00     0.186 C 
HETATM   39  O1  UNL     1      13.908  49.746  91.430  1.00  0.00    -0.206 OA
HETATM   40  O2  UNL     1      14.776  47.795  90.233  1.00  0.00    -0.206 OA
ENDBRANCH  35  37
ENDBRANCH   5  35
TORSDOF 8
ENDMDL
