MODEL 1
REMARK VINA RESULT: -7.833497395      0.000      0.000
REMARK  9 active torsions:
REMARK  status: ('A' for Active; 'I' for Inactive)
REMARK    1  A    between atoms: C2_2  and  N1_3 
REMARK    2  A    between atoms: C2_2  and  C10_12 
REMARK    3  A    between atoms: N1_3  and  C3_5 
REMARK       I    between atoms: C10_12  and  N2_14 
REMARK    4  A    between atoms: N2_14  and  C11_16 
REMARK    5  A    between atoms: C14_19  and  C15_20 
REMARK    6  A    between atoms: C15_20  and  O2_21 
REMARK    7  A    between atoms: C15_20  and  N3_23 
REMARK    8  A    between atoms: N3_23  and  C16_25 
REMARK    9  A    between atoms: C16_25  and  C17_26 
ROOT
HETATM    1  C11 UNL     1      11.464  52.785  91.229  1.00  0.00     0.177 C 
HETATM    2  C12 UNL     1      12.201  51.728  90.408  1.00  0.00     0.037 C 
HETATM    3  C13 UNL     1      11.584  51.761  88.989  1.00  0.00     0.036 C 
HETATM    4  C14 UNL     1      12.089  53.015  88.353  1.00  0.00     0.159 C 
HETATM    5  N4  UNL     1      11.962  54.199  89.207  1.00  0.00    -0.347 N 
ATOM      6  H4  UNL     1      12.382  55.101  88.983  1.00  0.00     0.163 HD
HETATM    7  C28 UNL     1      11.180  53.958  90.399  1.00  0.00     0.241 C 
HETATM    8  O7  UNL     1      10.287  54.771  90.669  1.00  0.00    -0.271 OA
ENDROOT
BRANCH   4   9
HETATM    9  C15 UNL     1      11.680  53.247  87.005  1.00  0.00     0.134 C 
BRANCH   9  10
HETATM   10  O2  UNL     1      11.997  54.409  86.477  1.00  0.00    -0.348 OA
ATOM     11  H2  UNL     1      12.009  54.462  85.529  1.00  0.00     0.219 HD
ENDBRANCH   9  10
BRANCH   9  12
HETATM   12  N3  UNL     1      10.937  52.354  86.141  1.00  0.00    -0.372 N 
ATOM     13  H3  UNL     1      10.079  51.896  86.447  1.00  0.00     0.161 HD
BRANCH  12  14
HETATM   14  C16 UNL     1      11.498  52.144  84.787  1.00  0.00     0.126 C 
BRANCH  14  15
HETATM   15  C17 UNL     1      12.819  51.467  85.073  1.00  0.00     0.007 C 
HETATM   16  C18 UNL     1      13.909  51.675  84.076  1.00  0.00     0.032 C 
HETATM   17  C19 UNL     1      14.766  52.877  84.418  1.00  0.00     0.168 C 
HETATM   18  O3  UNL     1      15.918  52.834  83.645  1.00  0.00    -0.389 OA
HETATM   19  C20 UNL     1      15.541  52.432  82.394  1.00  0.00     0.193 C 
HETATM   20  C21 UNL     1      16.463  52.838  81.256  1.00  0.00     0.193 C 
HETATM   21  O4  UNL     1      15.797  52.268  80.127  1.00  0.00    -0.387 OA
HETATM   22  C22 UNL     1      15.918  50.913  80.100  1.00  0.00     0.193 C 
HETATM   23  C23 UNL     1      14.712  50.084  80.211  1.00  0.00     0.193 C 
HETATM   24  O5  UNL     1      13.508  50.675  80.443  1.00  0.00    -0.387 OA
HETATM   25  C24 UNL     1      12.474  49.793  80.342  1.00  0.00     0.193 C 
HETATM   26  C25 UNL     1      12.017  49.154  81.627  1.00  0.00     0.193 C 
HETATM   27  O6  UNL     1      11.826  50.068  82.619  1.00  0.00    -0.389 OA
HETATM   28  C26 UNL     1      11.545  49.628  83.868  1.00  0.00     0.168 C 
HETATM   29  C27 UNL     1      12.543  49.939  84.955  1.00  0.00     0.032 C 
ENDBRANCH  14  15
ENDBRANCH  12  14
ENDBRANCH   9  12
ENDBRANCH   4   9
BRANCH   1  30
HETATM   30  N2  UNL     1      12.269  53.210  92.346  1.00  0.00    -0.343 N 
HETATM   31  C10 UNL     1      11.762  53.468  93.645  1.00  0.00     0.264 C 
HETATM   32  O1  UNL     1      10.549  53.290  93.850  1.00  0.00    -0.266 OA
ATOM     33  H2  UNL     1      13.270  53.333  92.193  1.00  0.00     0.163 HD
BRANCH  31  34
HETATM   34  C2  UNL     1      12.695  53.944  94.675  1.00  0.00     0.073 C 
HETATM   35  C1  UNL     1      14.066  53.264  94.505  1.00  0.00     0.074 C 
BRANCH  34  36
HETATM   36  N1  UNL     1      12.774  55.269  95.023  1.00  0.00    -0.362 N 
ATOM     37  H1  UNL     1      13.478  55.825  94.537  1.00  0.00     0.165 HD
BRANCH  36  38
HETATM   38  C3  UNL     1      12.006  55.933  95.955  1.00  0.00    -0.013 C 
HETATM   39  C4  UNL     1      11.060  55.167  96.834  1.00  0.00     0.052 C 
HETATM   40  C5  UNL     1      10.140  56.119  97.572  1.00  0.00     0.006 C 
HETATM   41  C6  UNL     1       9.548  57.170  96.692  1.00  0.00     0.000 C 
HETATM   42  C7  UNL     1      10.308  58.457  96.721  1.00  0.00     0.000 C 
HETATM   43  C8  UNL     1      11.716  58.425  96.305  1.00  0.00     0.006 C 
HETATM   44  C9  UNL     1      12.490  57.160  96.664  1.00  0.00     0.052 C 
ENDBRANCH  36  38
ENDBRANCH  34  36
ENDBRANCH  31  34
ENDBRANCH   1  30
TORSDOF 9
ENDMDL
MODEL 2
REMARK VINA RESULT: -7.674525957      2.741     13.199
REMARK  9 active torsions:
REMARK  status: ('A' for Active; 'I' for Inactive)
REMARK    1  A    between atoms: C2_2  and  N1_3 
REMARK    2  A    between atoms: C2_2  and  C10_12 
REMARK    3  A    between atoms: N1_3  and  C3_5 
REMARK       I    between atoms: C10_12  and  N2_14 
REMARK    4  A    between atoms: N2_14  and  C11_16 
REMARK    5  A    between atoms: C14_19  and  C15_20 
REMARK    6  A    between atoms: C15_20  and  O2_21 
REMARK    7  A    between atoms: C15_20  and  N3_23 
REMARK    8  A    between atoms: N3_23  and  C16_25 
REMARK    9  A    between atoms: C16_25  and  C17_26 
ROOT
HETATM    1  C11 UNL     1      12.072  52.508  89.038  1.00  0.00     0.177 C 
HETATM    2  C12 UNL     1      10.680  52.051  89.473  1.00  0.00     0.037 C 
HETATM    3  C13 UNL     1      10.588  52.298  90.997  1.00  0.00     0.036 C 
HETATM    4  C14 UNL     1      10.465  53.778  91.164  1.00  0.00     0.159 C 
HETATM    5  N4  UNL     1      11.440  54.542  90.381  1.00  0.00    -0.347 N 
ATOM      6  H4  UNL     1      11.404  55.555  90.273  1.00  0.00     0.163 HD
HETATM    7  C28 UNL     1      12.459  53.710  89.779  1.00  0.00     0.241 C 
HETATM    8  O7  UNL     1      13.638  54.061  89.920  1.00  0.00    -0.271 OA
ENDROOT
BRANCH   4   9
HETATM    9  C15 UNL     1      10.324  54.252  92.503  1.00  0.00     0.134 C 
BRANCH   9  10
HETATM   10  O2  UNL     1       9.134  54.680  92.863  1.00  0.00    -0.348 OA
ATOM     11  H2  UNL     1       8.812  54.396  93.711  1.00  0.00     0.219 HD
ENDBRANCH   9  10
BRANCH   9  12
HETATM   12  N3  UNL     1      11.349  54.334  93.524  1.00  0.00    -0.372 N 
ATOM     13  H3  UNL     1      12.259  53.888  93.413  1.00  0.00     0.161 HD
BRANCH  12  14
HETATM   14  C16 UNL     1      10.994  55.102  94.739  1.00  0.00     0.126 C 
BRANCH  14  15
HETATM   15  C17 UNL     1      12.345  55.500  95.290  1.00  0.00     0.007 C 
HETATM   16  C18 UNL     1      12.844  54.729  96.464  1.00  0.00     0.032 C 
HETATM   17  C19 UNL     1      13.677  53.534  96.043  1.00  0.00     0.168 C 
HETATM   18  O3  UNL     1      14.350  53.050  97.156  1.00  0.00    -0.389 OA
HETATM   19  C20 UNL     1      13.476  53.104  98.204  1.00  0.00     0.193 C 
HETATM   20  C21 UNL     1      13.748  52.146  99.351  1.00  0.00     0.193 C 
HETATM   21  O4  UNL     1      12.683  52.462 100.251  1.00  0.00    -0.387 OA
HETATM   22  C22 UNL     1      12.873  53.665 100.856  1.00  0.00     0.193 C 
HETATM   23  C23 UNL     1      11.911  54.748 100.617  1.00  0.00     0.193 C 
HETATM   24  O5  UNL     1      10.907  54.567  99.716  1.00  0.00    -0.387 OA
HETATM   25  C24 UNL     1      10.005  55.589  99.741  1.00  0.00     0.193 C 
HETATM   26  C25 UNL     1      10.228  56.698  98.747  1.00  0.00     0.193 C 
HETATM   27  O6  UNL     1      10.445  56.227  97.487  1.00  0.00    -0.389 OA
HETATM   28  C26 UNL     1      10.795  57.100  96.514  1.00  0.00     0.168 C 
HETATM   29  C27 UNL     1      12.153  56.928  95.882  1.00  0.00     0.032 C 
ENDBRANCH  14  15
ENDBRANCH  12  14
ENDBRANCH   9  12
ENDBRANCH   4   9
BRANCH   1  30
HETATM   30  N2  UNL     1      12.086  52.822  87.632  1.00  0.00    -0.343 N 
HETATM   31  C10 UNL     1      12.290  51.870  86.602  1.00  0.00     0.264 C 
HETATM   32  O1  UNL     1      12.437  50.678  86.922  1.00  0.00    -0.266 OA
ATOM     33  H2  UNL     1      11.939  53.794  87.360  1.00  0.00     0.163 HD
BRANCH  31  34
HETATM   34  C2  UNL     1      12.328  52.345  85.212  1.00  0.00     0.073 C 
HETATM   35  C1  UNL     1      10.998  53.030  84.848  1.00  0.00     0.074 C 
BRANCH  34  36
HETATM   36  N1  UNL     1      13.434  52.970  84.692  1.00  0.00    -0.362 N 
ATOM     37  H1  UNL     1      13.621  53.915  85.029  1.00  0.00     0.165 HD
BRANCH  36  38
HETATM   38  C3  UNL     1      14.319  52.463  83.767  1.00  0.00    -0.013 C 
HETATM   39  C4  UNL     1      15.778  52.808  83.852  1.00  0.00     0.052 C 
HETATM   40  C5  UNL     1      16.497  52.368  82.592  1.00  0.00     0.006 C 
HETATM   41  C6  UNL     1      15.781  52.752  81.339  1.00  0.00     0.000 C 
HETATM   42  C7  UNL     1      14.920  51.658  80.795  1.00  0.00     0.000 C 
HETATM   43  C8  UNL     1      13.843  51.148  81.654  1.00  0.00     0.006 C 
HETATM   44  C9  UNL     1      14.143  51.110  83.149  1.00  0.00     0.052 C 
ENDBRANCH  36  38
ENDBRANCH  34  36
ENDBRANCH  31  34
ENDBRANCH   1  30
TORSDOF 9
ENDMDL
MODEL 3
REMARK VINA RESULT: -7.658437642      2.348     12.124
REMARK  9 active torsions:
REMARK  status: ('A' for Active; 'I' for Inactive)
REMARK    1  A    between atoms: C2_2  and  N1_3 
REMARK    2  A    between atoms: C2_2  and  C10_12 
REMARK    3  A    between atoms: N1_3  and  C3_5 
REMARK       I    between atoms: C10_12  and  N2_14 
REMARK    4  A    between atoms: N2_14  and  C11_16 
REMARK    5  A    between atoms: C14_19  and  C15_20 
REMARK    6  A    between atoms: C15_20  and  O2_21 
REMARK    7  A    between atoms: C15_20  and  N3_23 
REMARK    8  A    between atoms: N3_23  and  C16_25 
REMARK    9  A    between atoms: C16_25  and  C17_26 
ROOT
HETATM    1  C11 UNL     1      12.568  53.796  87.287  1.00  0.00     0.177 C 
HETATM    2  C12 UNL     1      13.917  54.494  87.116  1.00  0.00     0.037 C 
HETATM    3  C13 UNL     1      14.008  55.560  88.233  1.00  0.00     0.036 C 
HETATM    4  C14 UNL     1      14.239  54.804  89.501  1.00  0.00     0.159 C 
HETATM    5  N4  UNL     1      13.333  53.668  89.682  1.00  0.00    -0.347 N 
ATOM      6  H4  UNL     1      13.445  52.971  90.418  1.00  0.00     0.163 HD
HETATM    7  C28 UNL     1      12.262  53.636  88.710  1.00  0.00     0.241 C 
HETATM    8  O7  UNL     1      11.111  53.472  89.135  1.00  0.00    -0.271 OA
ENDROOT
BRANCH   4   9
HETATM    9  C15 UNL     1      14.398  55.590  90.683  1.00  0.00     0.134 C 
BRANCH   9  10
HETATM   10  O2  UNL     1      14.461  56.895  90.528  1.00  0.00    -0.348 OA
ATOM     11  H2  UNL     1      14.298  57.429  91.296  1.00  0.00     0.219 HD
ENDBRANCH   9  10
BRANCH   9  12
HETATM   12  N3  UNL     1      14.515  55.121  92.048  1.00  0.00    -0.372 N 
ATOM     13  H3  UNL     1      15.302  54.551  92.358  1.00  0.00     0.161 HD
BRANCH  12  14
HETATM   14  C16 UNL     1      13.424  55.517  92.966  1.00  0.00     0.126 C 
BRANCH  14  15
HETATM   15  C17 UNL     1      13.000  54.198  93.572  1.00  0.00     0.007 C 
HETATM   16  C18 UNL     1      11.534  53.968  93.721  1.00  0.00     0.032 C 
HETATM   17  C19 UNL     1      10.944  53.282  92.504  1.00  0.00     0.168 C 
HETATM   18  O3  UNL     1       9.672  52.829  92.825  1.00  0.00    -0.389 OA
HETATM   19  C20 UNL     1       9.081  53.805  93.576  1.00  0.00     0.193 C 
HETATM   20  C21 UNL     1       7.562  53.822  93.572  1.00  0.00     0.193 C 
HETATM   21  O4  UNL     1       7.283  54.928  94.435  1.00  0.00    -0.387 OA
HETATM   22  C22 UNL     1       7.545  54.632  95.737  1.00  0.00     0.193 C 
HETATM   23  C23 UNL     1       8.588  55.382  96.447  1.00  0.00     0.193 C 
HETATM   24  O5  UNL     1       9.346  56.286  95.768  1.00  0.00    -0.387 OA
HETATM   25  C24 UNL     1      10.140  57.018  96.599  1.00  0.00     0.193 C 
HETATM   26  C25 UNL     1      11.544  56.510  96.797  1.00  0.00     0.193 C 
HETATM   27  O6  UNL     1      12.158  56.217  95.617  1.00  0.00    -0.389 OA
HETATM   28  C26 UNL     1      13.374  55.623  95.643  1.00  0.00     0.168 C 
HETATM   29  C27 UNL     1      13.485  54.240  95.052  1.00  0.00     0.032 C 
ENDBRANCH  14  15
ENDBRANCH  12  14
ENDBRANCH   9  12
ENDBRANCH   4   9
BRANCH   1  30
HETATM   30  N2  UNL     1      12.594  52.488  86.683  1.00  0.00    -0.343 N 
HETATM   31  C10 UNL     1      11.847  52.122  85.535  1.00  0.00     0.264 C 
HETATM   32  O1  UNL     1      11.144  52.989  84.989  1.00  0.00    -0.266 OA
ATOM     33  H2  UNL     1      13.190  51.778  87.110  1.00  0.00     0.163 HD
BRANCH  31  34
HETATM   34  C2  UNL     1      11.936  50.735  85.060  1.00  0.00     0.073 C 
HETATM   35  C1  UNL     1      10.548  50.231  84.626  1.00  0.00     0.074 C 
BRANCH  34  36
HETATM   36  N1  UNL     1      12.958  50.314  84.244  1.00  0.00    -0.362 N 
ATOM     37  H1  UNL     1      13.296  49.363  84.394  1.00  0.00     0.165 HD
BRANCH  36  38
HETATM   38  C3  UNL     1      13.577  51.035  83.246  1.00  0.00    -0.013 C 
HETATM   39  C4  UNL     1      12.911  51.197  81.911  1.00  0.00     0.052 C 
HETATM   40  C5  UNL     1      13.883  51.781  80.905  1.00  0.00     0.006 C 
HETATM   41  C6  UNL     1      15.219  51.115  80.921  1.00  0.00     0.000 C 
HETATM   42  C7  UNL     1      16.224  51.833  81.765  1.00  0.00     0.000 C 
HETATM   43  C8  UNL     1      15.917  52.004  83.190  1.00  0.00     0.006 C 
HETATM   44  C9  UNL     1      14.447  52.219  83.536  1.00  0.00     0.052 C 
ENDBRANCH  36  38
ENDBRANCH  34  36
ENDBRANCH  31  34
ENDBRANCH   1  30
TORSDOF 9
ENDMDL
MODEL 4
REMARK VINA RESULT: -7.441391948      2.894      3.746
REMARK  9 active torsions:
REMARK  status: ('A' for Active; 'I' for Inactive)
REMARK    1  A    between atoms: C2_2  and  N1_3 
REMARK    2  A    between atoms: C2_2  and  C10_12 
REMARK    3  A    between atoms: N1_3  and  C3_5 
REMARK       I    between atoms: C10_12  and  N2_14 
REMARK    4  A    between atoms: N2_14  and  C11_16 
REMARK    5  A    between atoms: C14_19  and  C15_20 
REMARK    6  A    between atoms: C15_20  and  O2_21 
REMARK    7  A    between atoms: C15_20  and  N3_23 
REMARK    8  A    between atoms: N3_23  and  C16_25 
REMARK    9  A    between atoms: C16_25  and  C17_26 
ROOT
HETATM    1  C11 UNL     1      11.604  53.437  91.482  1.00  0.00     0.177 C 
HETATM    2  C12 UNL     1      10.148  53.168  91.106  1.00  0.00     0.037 C 
HETATM    3  C13 UNL     1       9.886  53.922  89.781  1.00  0.00     0.036 C 
HETATM    4  C14 UNL     1      10.600  53.146  88.721  1.00  0.00     0.159 C 
HETATM    5  N4  UNL     1      11.978  52.797  89.076  1.00  0.00    -0.347 N 
ATOM      6  H4  UNL     1      12.553  52.156  88.530  1.00  0.00     0.163 HD
HETATM    7  C28 UNL     1      12.438  53.456  90.278  1.00  0.00     0.241 C 
HETATM    8  O7  UNL     1      13.540  54.017  90.234  1.00  0.00    -0.271 OA
ENDROOT
BRANCH   4   9
HETATM    9  C15 UNL     1      10.469  53.635  87.386  1.00  0.00     0.134 C 
BRANCH   9  10
HETATM   10  O2  UNL     1       9.252  53.709  86.895  1.00  0.00    -0.348 OA
ATOM     11  H2  UNL     1       8.704  54.422  87.203  1.00  0.00     0.219 HD
ENDBRANCH   9  10
BRANCH   9  12
HETATM   12  N3  UNL     1      11.527  54.051  86.490  1.00  0.00    -0.372 N 
ATOM     13  H3  UNL     1      12.157  54.821  86.717  1.00  0.00     0.161 HD
BRANCH  12  14
HETATM   14  C16 UNL     1      11.640  53.294  85.223  1.00  0.00     0.126 C 
BRANCH  14  15
HETATM   15  C17 UNL     1      12.798  52.360  85.491  1.00  0.00     0.007 C 
HETATM   16  C18 UNL     1      13.853  52.280  84.440  1.00  0.00     0.032 C 
HETATM   17  C19 UNL     1      14.965  53.282  84.678  1.00  0.00     0.168 C 
HETATM   18  O3  UNL     1      16.038  52.954  83.861  1.00  0.00    -0.389 OA
HETATM   19  C20 UNL     1      15.519  52.585  82.652  1.00  0.00     0.193 C 
HETATM   20  C21 UNL     1      16.445  52.727  81.456  1.00  0.00     0.193 C 
HETATM   21  O4  UNL     1      15.613  52.263  80.390  1.00  0.00    -0.387 OA
HETATM   22  C22 UNL     1      15.439  50.914  80.435  1.00  0.00     0.193 C 
HETATM   23  C23 UNL     1      14.090  50.373  80.643  1.00  0.00     0.193 C 
HETATM   24  O5  UNL     1      13.056  51.222  80.890  1.00  0.00    -0.387 OA
HETATM   25  C24 UNL     1      11.853  50.581  80.883  1.00  0.00     0.193 C 
HETATM   26  C25 UNL     1      11.337  50.117  82.220  1.00  0.00     0.193 C 
HETATM   27  O6  UNL     1      11.399  51.097  83.165  1.00  0.00    -0.389 OA
HETATM   28  C26 UNL     1      11.097  50.787  84.448  1.00  0.00     0.168 C 
HETATM   29  C27 UNL     1      12.194  50.925  85.473  1.00  0.00     0.032 C 
ENDBRANCH  14  15
ENDBRANCH  12  14
ENDBRANCH   9  12
ENDBRANCH   4   9
BRANCH   1  30
HETATM   30  N2  UNL     1      12.101  52.405  92.356  1.00  0.00    -0.343 N 
HETATM   31  C10 UNL     1      13.032  52.622  93.403  1.00  0.00     0.264 C 
HETATM   32  O1  UNL     1      13.430  53.782  93.605  1.00  0.00    -0.266 OA
ATOM     33  H2  UNL     1      11.759  51.454  92.213  1.00  0.00     0.163 HD
BRANCH  31  34
HETATM   34  C2  UNL     1      13.486  51.463  94.183  1.00  0.00     0.073 C 
HETATM   35  C1  UNL     1      12.929  50.162  93.576  1.00  0.00     0.074 C 
BRANCH  34  36
HETATM   36  N1  UNL     1      14.779  51.356  94.632  1.00  0.00    -0.362 N 
ATOM     37  H1  UNL     1      15.503  51.277  93.916  1.00  0.00     0.165 HD
BRANCH  36  38
HETATM   38  C3  UNL     1      15.208  51.344  95.941  1.00  0.00    -0.013 C 
HETATM   39  C4  UNL     1      14.542  52.223  96.960  1.00  0.00     0.052 C 
HETATM   40  C5  UNL     1      15.347  52.244  98.244  1.00  0.00     0.006 C 
HETATM   41  C6  UNL     1      16.809  52.452  98.020  1.00  0.00     0.000 C 
HETATM   42  C7  UNL     1      17.585  51.174  97.981  1.00  0.00     0.000 C 
HETATM   43  C8  UNL     1      17.225  50.191  96.952  1.00  0.00     0.006 C 
HETATM   44  C9  UNL     1      15.743  50.108  96.596  1.00  0.00     0.052 C 
ENDBRANCH  36  38
ENDBRANCH  34  36
ENDBRANCH  31  34
ENDBRANCH   1  30
TORSDOF 9
ENDMDL
MODEL 5
REMARK VINA RESULT: -7.440873303      3.272     12.136
REMARK  9 active torsions:
REMARK  status: ('A' for Active; 'I' for Inactive)
REMARK    1  A    between atoms: C2_2  and  N1_3 
REMARK    2  A    between atoms: C2_2  and  C10_12 
REMARK    3  A    between atoms: N1_3  and  C3_5 
REMARK       I    between atoms: C10_12  and  N2_14 
REMARK    4  A    between atoms: N2_14  and  C11_16 
REMARK    5  A    between atoms: C14_19  and  C15_20 
REMARK    6  A    between atoms: C15_20  and  O2_21 
REMARK    7  A    between atoms: C15_20  and  N3_23 
REMARK    8  A    between atoms: N3_23  and  C16_25 
REMARK    9  A    between atoms: C16_25  and  C17_26 
ROOT
HETATM    1  C11 UNL     1      10.894  53.453  89.665  1.00  0.00     0.177 C 
HETATM    2  C12 UNL     1      10.529  54.783  90.324  1.00  0.00     0.037 C 
HETATM    3  C13 UNL     1      11.211  54.792  91.712  1.00  0.00     0.036 C 
HETATM    4  C14 UNL     1      12.668  54.996  91.450  1.00  0.00     0.159 C 
HETATM    5  N4  UNL     1      13.206  54.123  90.404  1.00  0.00    -0.347 N 
ATOM      6  H4  UNL     1      14.139  54.229  90.008  1.00  0.00     0.163 HD
HETATM    7  C28 UNL     1      12.277  53.094  89.991  1.00  0.00     0.241 C 
HETATM    8  O7  UNL     1      12.701  51.934  89.929  1.00  0.00    -0.271 OA
ENDROOT
BRANCH   4   9
HETATM    9  C15 UNL     1      13.510  55.080  92.600  1.00  0.00     0.134 C 
BRANCH   9  10
HETATM   10  O2  UNL     1      14.608  55.794  92.486  1.00  0.00    -0.348 OA
ATOM     11  H2  UNL     1      14.783  56.429  93.170  1.00  0.00     0.219 HD
ENDBRANCH   9  10
BRANCH   9  12
HETATM   12  N3  UNL     1      13.308  54.454  93.890  1.00  0.00    -0.372 N 
ATOM     13  H3  UNL     1      13.568  53.484  94.067  1.00  0.00     0.161 HD
BRANCH  12  14
HETATM   14  C16 UNL     1      12.700  55.307  94.937  1.00  0.00     0.126 C 
BRANCH  14  15
HETATM   15  C17 UNL     1      11.964  54.307  95.799  1.00  0.00     0.007 C 
HETATM   16  C18 UNL     1      10.486  54.223  95.615  1.00  0.00     0.032 C 
HETATM   17  C19 UNL     1      10.104  53.190  94.573  1.00  0.00     0.168 C 
HETATM   18  O3  UNL     1       8.741  52.948  94.669  1.00  0.00    -0.389 OA
HETATM   19  C20 UNL     1       8.137  54.156  94.879  1.00  0.00     0.193 C 
HETATM   20  C21 UNL     1       6.678  54.254  94.463  1.00  0.00     0.193 C 
HETATM   21  O4  UNL     1       6.368  55.604  94.817  1.00  0.00    -0.387 OA
HETATM   22  C22 UNL     1       6.274  55.765  96.164  1.00  0.00     0.193 C 
HETATM   23  C23 UNL     1       7.219  56.656  96.847  1.00  0.00     0.193 C 
HETATM   24  O5  UNL     1       8.235  57.225  96.143  1.00  0.00    -0.387 OA
HETATM   25  C24 UNL     1       8.910  58.156  96.875  1.00  0.00     0.193 C 
HETATM   26  C25 UNL     1      10.142  57.672  97.594  1.00  0.00     0.193 C 
HETATM   27  O6  UNL     1      10.966  56.953  96.781  1.00  0.00    -0.389 OA
HETATM   28  C26 UNL     1      12.045  56.340  97.321  1.00  0.00     0.168 C 
HETATM   29  C27 UNL     1      12.091  54.834  97.259  1.00  0.00     0.032 C 
ENDBRANCH  14  15
ENDBRANCH  12  14
ENDBRANCH   9  12
ENDBRANCH   4   9
BRANCH   1  30
HETATM   30  N2  UNL     1      10.780  53.548  88.233  1.00  0.00    -0.343 N 
HETATM   31  C10 UNL     1      10.376  52.483  87.389  1.00  0.00     0.264 C 
HETATM   32  O1  UNL     1      10.069  51.399  87.916  1.00  0.00    -0.266 OA
ATOM     33  H2  UNL     1      11.004  54.443  87.796  1.00  0.00     0.163 HD
BRANCH  31  34
HETATM   34  C2  UNL     1      10.352  52.713  85.939  1.00  0.00     0.073 C 
HETATM   35  C1  UNL     1       8.923  53.051  85.476  1.00  0.00     0.074 C 
BRANCH  34  36
HETATM   36  N1  UNL     1      11.327  53.446  85.308  1.00  0.00    -0.362 N 
ATOM     37  H1  UNL     1      11.020  54.296  84.835  1.00  0.00     0.165 HD
BRANCH  36  38
HETATM   38  C3  UNL     1      12.673  53.160  85.243  1.00  0.00    -0.013 C 
HETATM   39  C4  UNL     1      13.671  54.090  85.870  1.00  0.00     0.052 C 
HETATM   40  C5  UNL     1      15.077  53.720  85.441  1.00  0.00     0.006 C 
HETATM   41  C6  UNL     1      15.202  53.480  83.973  1.00  0.00     0.000 C 
HETATM   42  C7  UNL     1      15.098  52.035  83.603  1.00  0.00     0.000 C 
HETATM   43  C8  UNL     1      13.859  51.330  83.954  1.00  0.00     0.006 C 
HETATM   44  C9  UNL     1      13.195  51.756  85.260  1.00  0.00     0.052 C 
ENDBRANCH  36  38
ENDBRANCH  34  36
ENDBRANCH  31  34
ENDBRANCH   1  30
TORSDOF 9
ENDMDL
