MODEL 1
REMARK VINA RESULT: -6.416131088      0.000      0.000
REMARK  7 active torsions:
REMARK  status: ('A' for Active; 'I' for Inactive)
REMARK    1  A    between atoms: C4_8  and  C5_9 
REMARK    2  A    between atoms: C5_9  and  C6_10 
REMARK    3  A    between atoms: C6_10  and  C7_11 
REMARK    4  A    between atoms: C7_11  and  C8_12 
REMARK    5  A    between atoms: C13_19  and  C14_20 
REMARK    6  A    between atoms: C14_20  and  C15_21 
REMARK    7  A    between atoms: C15_21  and  N4_22 
ROOT
HETATM    1  C8  UNL     1      10.297   2.244  47.096  1.00  0.00     0.015 A 
HETATM    2  N3  UNL     1       9.093   2.898  47.106  1.00  0.00    -0.363 N 
ATOM      3  H3  UNL     1       9.035   3.798  47.582  1.00  0.00     0.165 HD
HETATM    4  C9  UNL     1       7.990   2.414  46.523  1.00  0.00     0.005 A 
HETATM    5  C10 UNL     1       6.693   3.148  46.546  1.00  0.00     0.068 C 
HETATM    6  C11 UNL     1       8.017   1.203  45.869  1.00  0.00     0.025 A 
HETATM    7  C12 UNL     1       9.198   0.508  45.830  1.00  0.00     0.011 A 
HETATM    8  C13 UNL     1      10.334   1.050  46.452  1.00  0.00    -0.034 A 
ENDROOT
BRANCH   1   9
HETATM    9  C7  UNL     1      11.449   2.798  47.808  1.00  0.00     0.058 C 
BRANCH   9  10
HETATM   10  C6  UNL     1      12.132   3.922  47.081  1.00  0.00     0.010 C 
BRANCH  10  11
HETATM   11  C5  UNL     1      13.586   3.960  47.456  1.00  0.00     0.030 C 
BRANCH  11  12
HETATM   12  C4  UNL     1      14.094   2.645  47.852  1.00  0.00     0.008 C 
HETATM   13  C3  UNL     1      14.660   1.802  46.984  1.00  0.00     0.096 A 
HETATM   14  N2  UNL     1      14.847   2.010  45.674  1.00  0.00    -0.297 N 
HETATM   15  C16 UNL     1      15.154   0.568  47.274  1.00  0.00     0.226 A 
HETATM   16  N1  UNL     1      15.441   0.946  45.131  1.00  0.00    -0.297 N 
ATOM     17  H2  UNL     1      14.576   2.853  45.169  1.00  0.00     0.187 HD
HETATM   18  C2  UNL     1      15.642   0.038  46.100  1.00  0.00     0.091 A 
ATOM     19  H1  UNL     1      15.698   0.840  44.150  1.00  0.00     0.187 HD
HETATM   20  C1  UNL     1      16.203  -1.143  45.967  1.00  0.00     0.049 C 
HETATM   21  O1  UNL     1      15.166   0.005  48.403  1.00  0.00    -0.283 OA
ENDBRANCH  11  12
ENDBRANCH  10  11
ENDBRANCH   9  10
ENDBRANCH   1   9
BRANCH   8  22
HETATM   22  C14 UNL     1      11.588   0.287  46.302  1.00  0.00     0.068 C 
BRANCH  22  23
HETATM   23  C15 UNL     1      11.467  -0.867  45.323  1.00  0.00     0.234 C 
BRANCH  23  24
HETATM   24  N4  UNL     1      12.489  -0.776  44.311  1.00  0.00    -0.079 N 
ATOM     25  H43 UNL     1      12.967   0.124  44.334  1.00  0.00     0.274 HD
ATOM     26  H42 UNL     1      13.287  -1.377  44.522  1.00  0.00     0.274 HD
ATOM     27  H41 UNL     1      12.097  -0.976  43.390  1.00  0.00     0.274 HD
ENDBRANCH  23  24
ENDBRANCH  22  23
ENDBRANCH   8  22
TORSDOF 7
ENDMDL
MODEL 2
REMARK VINA RESULT: -6.394864714      3.612      5.117
REMARK  7 active torsions:
REMARK  status: ('A' for Active; 'I' for Inactive)
REMARK    1  A    between atoms: C4_8  and  C5_9 
REMARK    2  A    between atoms: C5_9  and  C6_10 
REMARK    3  A    between atoms: C6_10  and  C7_11 
REMARK    4  A    between atoms: C7_11  and  C8_12 
REMARK    5  A    between atoms: C13_19  and  C14_20 
REMARK    6  A    between atoms: C14_20  and  C15_21 
REMARK    7  A    between atoms: C15_21  and  N4_22 
ROOT
HETATM    1  C8  UNL     1       5.498  -0.203  46.639  1.00  0.00     0.015 A 
HETATM    2  N3  UNL     1       4.538   0.463  45.925  1.00  0.00    -0.363 N 
ATOM      3  H3  UNL     1       4.526   1.482  45.962  1.00  0.00     0.165 HD
HETATM    4  C9  UNL     1       3.614  -0.157  45.181  1.00  0.00     0.005 A 
HETATM    5  C10 UNL     1       2.581   0.592  44.411  1.00  0.00     0.068 C 
HETATM    6  C11 UNL     1       3.586  -1.531  45.100  1.00  0.00     0.025 A 
HETATM    7  C12 UNL     1       4.526  -2.245  45.796  1.00  0.00     0.011 A 
HETATM    8  C13 UNL     1       5.481  -1.558  46.563  1.00  0.00    -0.034 A 
ENDROOT
BRANCH   1   9
HETATM    9  C7  UNL     1       6.440   0.532  47.484  1.00  0.00     0.058 C 
BRANCH   9  10
HETATM   10  C6  UNL     1       7.323   1.483  46.726  1.00  0.00     0.010 C 
BRANCH  10  11
HETATM   11  C5  UNL     1       8.269   0.709  45.852  1.00  0.00     0.030 C 
BRANCH  11  12
HETATM   12  C4  UNL     1       9.629   0.679  46.392  1.00  0.00     0.008 C 
HETATM   13  C3  UNL     1      10.614  -0.021  45.822  1.00  0.00     0.096 A 
HETATM   14  N2  UNL     1      10.524  -0.773  44.718  1.00  0.00    -0.297 N 
HETATM   15  C16 UNL     1      11.898  -0.100  46.263  1.00  0.00     0.226 A 
HETATM   16  N1  UNL     1      11.710  -1.323  44.451  1.00  0.00    -0.297 N 
ATOM     17  H2  UNL     1       9.677  -0.906  44.165  1.00  0.00     0.187 HD
HETATM   18  C2  UNL     1      12.578  -0.922  45.392  1.00  0.00     0.091 A 
ATOM     19  H1  UNL     1      11.920  -1.941  43.667  1.00  0.00     0.187 HD
HETATM   20  C1  UNL     1      13.850  -1.246  45.479  1.00  0.00     0.049 C 
HETATM   21  O1  UNL     1      12.385   0.470  47.278  1.00  0.00    -0.283 OA
ENDBRANCH  11  12
ENDBRANCH  10  11
ENDBRANCH   9  10
ENDBRANCH   1   9
BRANCH   8  22
HETATM   22  C14 UNL     1       6.509  -2.387  47.221  1.00  0.00     0.068 C 
BRANCH  22  23
HETATM   23  C15 UNL     1       6.410  -3.857  46.856  1.00  0.00     0.234 C 
BRANCH  23  24
HETATM   24  N4  UNL     1       7.629  -4.544  47.202  1.00  0.00    -0.079 N 
ATOM     25  H43 UNL     1       7.928  -5.180  46.464  1.00  0.00     0.274 HD
ATOM     26  H42 UNL     1       8.433  -3.916  47.197  1.00  0.00     0.274 HD
ATOM     27  H41 UNL     1       7.526  -5.022  48.097  1.00  0.00     0.274 HD
ENDBRANCH  23  24
ENDBRANCH  22  23
ENDBRANCH   8  22
TORSDOF 7
ENDMDL
MODEL 3
REMARK VINA RESULT: -6.322513326      2.829      6.458
REMARK  7 active torsions:
REMARK  status: ('A' for Active; 'I' for Inactive)
REMARK    1  A    between atoms: C4_8  and  C5_9 
REMARK    2  A    between atoms: C5_9  and  C6_10 
REMARK    3  A    between atoms: C6_10  and  C7_11 
REMARK    4  A    between atoms: C7_11  and  C8_12 
REMARK    5  A    between atoms: C13_19  and  C14_20 
REMARK    6  A    between atoms: C14_20  and  C15_21 
REMARK    7  A    between atoms: C15_21  and  N4_22 
ROOT
HETATM    1  C8  UNL     1      13.330   0.435  46.479  1.00  0.00     0.015 A 
HETATM    2  N3  UNL     1      13.811   1.102  47.574  1.00  0.00    -0.363 N 
ATOM      3  H3  UNL     1      13.211   1.796  48.020  1.00  0.00     0.165 HD
HETATM    4  C9  UNL     1      15.028   0.889  48.088  1.00  0.00     0.005 A 
HETATM    5  C10 UNL     1      15.526   1.627  49.284  1.00  0.00     0.068 C 
HETATM    6  C11 UNL     1      15.875  -0.036  47.522  1.00  0.00     0.025 A 
HETATM    7  C12 UNL     1      15.442  -0.731  46.423  1.00  0.00     0.011 A 
HETATM    8  C13 UNL     1      14.157  -0.481  45.914  1.00  0.00    -0.034 A 
ENDROOT
BRANCH   1   9
HETATM    9  C7  UNL     1      12.014   0.762  45.928  1.00  0.00     0.058 C 
BRANCH   9  10
HETATM   10  C6  UNL     1      11.652   2.216  46.039  1.00  0.00     0.010 C 
BRANCH  10  11
HETATM   11  C5  UNL     1      10.694   2.413  47.181  1.00  0.00     0.030 C 
BRANCH  11  12
HETATM   12  C4  UNL     1       9.301   2.475  46.736  1.00  0.00     0.008 C 
HETATM   13  C3  UNL     1       8.467   1.437  46.836  1.00  0.00     0.096 A 
HETATM   14  N2  UNL     1       8.754   0.227  47.336  1.00  0.00    -0.297 N 
HETATM   15  C16 UNL     1       7.164   1.416  46.446  1.00  0.00     0.226 A 
HETATM   16  N1  UNL     1       7.673  -0.553  47.271  1.00  0.00    -0.297 N 
ATOM     17  H2  UNL     1       9.660  -0.054  47.709  1.00  0.00     0.187 HD
HETATM   18  C2  UNL     1       6.675   0.159  46.724  1.00  0.00     0.091 A 
ATOM     19  H1  UNL     1       7.615  -1.522  47.583  1.00  0.00     0.187 HD
HETATM   20  C1  UNL     1       5.449  -0.256  46.492  1.00  0.00     0.049 C 
HETATM   21  O1  UNL     1       6.516   2.365  45.925  1.00  0.00    -0.283 OA
ENDBRANCH  11  12
ENDBRANCH  10  11
ENDBRANCH   9  10
ENDBRANCH   1   9
BRANCH   8  22
HETATM   22  C14 UNL     1      13.729  -1.321  44.780  1.00  0.00     0.068 C 
BRANCH  22  23
HETATM   23  C15 UNL     1      13.619  -2.792  45.138  1.00  0.00     0.234 C 
BRANCH  23  24
HETATM   24  N4  UNL     1      12.431  -3.032  45.917  1.00  0.00    -0.079 N 
ATOM     25  H43 UNL     1      12.649  -3.210  46.896  1.00  0.00     0.274 HD
ATOM     26  H42 UNL     1      11.877  -2.184  46.036  1.00  0.00     0.274 HD
ATOM     27  H41 UNL     1      11.883  -3.789  45.506  1.00  0.00     0.274 HD
ENDBRANCH  23  24
ENDBRANCH  22  23
ENDBRANCH   8  22
TORSDOF 7
ENDMDL
MODEL 4
REMARK VINA RESULT: -6.321322203      2.366      5.772
REMARK  7 active torsions:
REMARK  status: ('A' for Active; 'I' for Inactive)
REMARK    1  A    between atoms: C4_8  and  C5_9 
REMARK    2  A    between atoms: C5_9  and  C6_10 
REMARK    3  A    between atoms: C6_10  and  C7_11 
REMARK    4  A    between atoms: C7_11  and  C8_12 
REMARK    5  A    between atoms: C13_19  and  C14_20 
REMARK    6  A    between atoms: C14_20  and  C15_21 
REMARK    7  A    between atoms: C15_21  and  N4_22 
ROOT
HETATM    1  C8  UNL     1      14.275  -0.844  47.208  1.00  0.00     0.015 A 
HETATM    2  N3  UNL     1      13.395  -0.421  48.168  1.00  0.00    -0.363 N 
ATOM      3  H3  UNL     1      12.803  -1.116  48.622  1.00  0.00     0.165 HD
HETATM    4  C9  UNL     1      13.273   0.859  48.539  1.00  0.00     0.005 A 
HETATM    5  C10 UNL     1      12.309   1.293  49.590  1.00  0.00     0.068 C 
HETATM    6  C11 UNL     1      14.048   1.835  47.955  1.00  0.00     0.025 A 
HETATM    7  C12 UNL     1      14.946   1.464  46.988  1.00  0.00     0.011 A 
HETATM    8  C13 UNL     1      15.046   0.110  46.627  1.00  0.00    -0.034 A 
ENDROOT
BRANCH   1   9
HETATM    9  C7  UNL     1      14.314  -2.250  46.802  1.00  0.00     0.058 C 
BRANCH   9  10
HETATM   10  C6  UNL     1      13.092  -2.701  46.052  1.00  0.00     0.010 C 
BRANCH  10  11
HETATM   11  C5  UNL     1      12.611  -1.595  45.155  1.00  0.00     0.030 C 
BRANCH  11  12
HETATM   12  C4  UNL     1      11.217  -1.231  45.417  1.00  0.00     0.008 C 
HETATM   13  C3  UNL     1      10.825   0.033  45.591  1.00  0.00     0.096 A 
HETATM   14  N2  UNL     1      11.603   1.123  45.559  1.00  0.00    -0.297 N 
HETATM   15  C16 UNL     1       9.554   0.450  45.838  1.00  0.00     0.226 A 
HETATM   16  N1  UNL     1      10.862   2.211  45.778  1.00  0.00    -0.297 N 
ATOM     17  H2  UNL     1      12.609   1.122  45.392  1.00  0.00     0.187 HD
HETATM   18  C2  UNL     1       9.590   1.822  45.954  1.00  0.00     0.091 A 
ATOM     19  H1  UNL     1      11.203   3.172  45.807  1.00  0.00     0.187 HD
HETATM   20  C1  UNL     1       8.555   2.599  46.192  1.00  0.00     0.049 C 
HETATM   21  O1  UNL     1       8.527  -0.276  45.943  1.00  0.00    -0.283 OA
ENDBRANCH  11  12
ENDBRANCH  10  11
ENDBRANCH   9  10
ENDBRANCH   1   9
BRANCH   8  22
HETATM   22  C14 UNL     1      16.088  -0.226  45.638  1.00  0.00     0.068 C 
BRANCH  22  23
HETATM   23  C15 UNL     1      16.097   0.709  44.443  1.00  0.00     0.234 C 
BRANCH  23  24
HETATM   24  N4  UNL     1      17.084   0.287  43.482  1.00  0.00    -0.079 N 
ATOM     25  H43 UNL     1      16.871  -0.633  43.099  1.00  0.00     0.274 HD
ATOM     26  H42 UNL     1      17.029   0.828  42.618  1.00  0.00     0.274 HD
ATOM     27  H41 UNL     1      18.018   0.322  43.893  1.00  0.00     0.274 HD
ENDBRANCH  23  24
ENDBRANCH  22  23
ENDBRANCH   8  22
TORSDOF 7
ENDMDL
MODEL 5
REMARK VINA RESULT: -6.226901503      2.760      6.528
REMARK  7 active torsions:
REMARK  status: ('A' for Active; 'I' for Inactive)
REMARK    1  A    between atoms: C4_8  and  C5_9 
REMARK    2  A    between atoms: C5_9  and  C6_10 
REMARK    3  A    between atoms: C6_10  and  C7_11 
REMARK    4  A    between atoms: C7_11  and  C8_12 
REMARK    5  A    between atoms: C13_19  and  C14_20 
REMARK    6  A    between atoms: C14_20  and  C15_21 
REMARK    7  A    between atoms: C15_21  and  N4_22 
ROOT
HETATM    1  C8  UNL     1      14.039   2.405  47.167  1.00  0.00     0.015 A 
HETATM    2  N3  UNL     1      14.382   3.201  48.227  1.00  0.00    -0.363 N 
ATOM      3  H3  UNL     1      14.012   4.151  48.260  1.00  0.00     0.165 HD
HETATM    4  C9  UNL     1      15.179   2.795  49.223  1.00  0.00     0.005 A 
HETATM    5  C10 UNL     1      15.535   3.681  50.368  1.00  0.00     0.068 C 
HETATM    6  C11 UNL     1      15.705   1.523  49.225  1.00  0.00     0.025 A 
HETATM    7  C12 UNL     1      15.392   0.685  48.185  1.00  0.00     0.011 A 
HETATM    8  C13 UNL     1      14.551   1.148  47.161  1.00  0.00    -0.034 A 
ENDROOT
BRANCH   1   9
HETATM    9  C7  UNL     1      13.215   2.932  46.078  1.00  0.00     0.058 C 
BRANCH   9  10
HETATM   10  C6  UNL     1      11.771   3.123  46.445  1.00  0.00     0.010 C 
BRANCH  10  11
HETATM   11  C5  UNL     1      10.999   1.872  46.132  1.00  0.00     0.030 C 
BRANCH  11  12
HETATM   12  C4  UNL     1       9.558   2.115  46.041  1.00  0.00     0.008 C 
HETATM   13  C3  UNL     1       8.651   1.207  46.409  1.00  0.00     0.096 A 
HETATM   14  N2  UNL     1       8.898  -0.016  46.898  1.00  0.00    -0.297 N 
HETATM   15  C16 UNL     1       7.300   1.356  46.354  1.00  0.00     0.226 A 
HETATM   16  N1  UNL     1       7.745  -0.640  47.151  1.00  0.00    -0.297 N 
ATOM     17  H2  UNL     1       9.825  -0.410  47.053  1.00  0.00     0.187 HD
HETATM   18  C2  UNL     1       6.741   0.188  46.823  1.00  0.00     0.091 A 
ATOM     19  H1  UNL     1       7.645  -1.582  47.528  1.00  0.00     0.187 HD
HETATM   20  C1  UNL     1       5.453  -0.058  46.927  1.00  0.00     0.049 C 
HETATM   21  O1  UNL     1       6.668   2.371  45.950  1.00  0.00    -0.283 OA
ENDBRANCH  11  12
ENDBRANCH  10  11
ENDBRANCH   9  10
ENDBRANCH   1   9
BRANCH   8  22
HETATM   22  C14 UNL     1      14.194   0.168  46.117  1.00  0.00     0.068 C 
BRANCH  22  23
HETATM   23  C15 UNL     1      15.405  -0.457  45.450  1.00  0.00     0.234 C 
BRANCH  23  24
HETATM   24  N4  UNL     1      15.781   0.299  44.282  1.00  0.00    -0.079 N 
ATOM     25  H43 UNL     1      16.095   1.238  44.523  1.00  0.00     0.274 HD
ATOM     26  H42 UNL     1      16.645  -0.049  43.866  1.00  0.00     0.274 HD
ATOM     27  H41 UNL     1      15.015   0.316  43.607  1.00  0.00     0.274 HD
ENDBRANCH  23  24
ENDBRANCH  22  23
ENDBRANCH   8  22
TORSDOF 7
ENDMDL
