MODEL 1
REMARK VINA RESULT: -7.275792195      0.000      0.000
REMARK  5 active torsions:
REMARK  status: ('A' for Active; 'I' for Inactive)
REMARK    1  A    between atoms: C2_2  and  N1_3 
REMARK    2  A    between atoms: N1_3  and  C3_5 
REMARK    3  A    between atoms: N3_9  and  C5_11 
REMARK    4  A    between atoms: C5_11  and  C6_12 
REMARK    5  A    between atoms: N5_24  and  C14_25 
ROOT
HETATM    1  C3  UNL     1      -0.819   5.946  11.608  1.00  0.00     0.681 A 
HETATM    2  N2  UNL     1      -1.313   5.528  12.774  1.00  0.00    -0.175 N 
ATOM      3  H2  UNL     1      -0.749   4.907  13.355  1.00  0.00     0.186 HD
HETATM    4  C4  UNL     1      -2.534   5.900  13.209  1.00  0.00     0.147 A 
HETATM    5  N3  UNL     1      -3.001   5.488  14.341  1.00  0.00    -0.373 N 
ATOM      6  H3  UNL     1      -2.408   4.869  14.895  1.00  0.00     0.161 HD
HETATM    7  C12 UNL     1      -3.270   6.731  12.411  1.00  0.00     0.124 A 
HETATM    8  N4  UNL     1      -4.495   7.278  12.544  1.00  0.00    -0.326 N 
ATOM      9  H4  UNL     1      -5.126   7.145  13.335  1.00  0.00     0.168 HD
HETATM   10  C13 UNL     1      -4.746   8.034  11.447  1.00  0.00     0.183 A 
HETATM   11 CL1  UNL     1      -6.248   8.932  11.212  1.00  0.00    -0.044 Cl
HETATM   12  N5  UNL     1      -3.682   7.956  10.638  1.00  0.00    -0.307 N 
HETATM   13  C16 UNL     1      -2.772   7.170  11.203  1.00  0.00     0.156 A 
HETATM   14  N6  UNL     1      -1.542   6.763  10.823  1.00  0.00    -0.174 N 
ATOM     15  H6  UNL     1      -1.158   7.078   9.933  1.00  0.00     0.186 HD
ENDROOT
BRANCH   5  16
HETATM   16  C5  UNL     1      -4.283   5.829  14.884  1.00  0.00     0.126 C 
BRANCH  16  17
HETATM   17  C6  UNL     1      -4.692   4.654  15.787  1.00  0.00     0.005 C 
HETATM   18  C7  UNL     1      -6.169   4.468  15.599  1.00  0.00     0.008 C 
HETATM   19  C8  UNL     1      -6.806   3.555  16.585  1.00  0.00     0.027 C 
HETATM   20  C9  UNL     1      -5.870   2.997  17.609  1.00  0.00     0.167 C 
HETATM   21  O1  UNL     1      -4.968   2.091  17.128  1.00  0.00    -0.391 OA
HETATM   22  C10 UNL     1      -4.745   2.153  15.774  1.00  0.00     0.168 C 
HETATM   23  C11 UNL     1      -4.003   3.387  15.345  1.00  0.00     0.032 C 
ENDBRANCH  16  17
ENDBRANCH   5  16
BRANCH   1  24
HETATM   24  N1  UNL     1       0.355   5.598  11.174  1.00  0.00    -0.226 N 
ATOM     25  H1  UNL     1       1.141   5.643  11.824  1.00  0.00     0.177 HD
BRANCH  24  26
HETATM   26  C2  UNL     1       0.610   5.153   9.834  1.00  0.00     0.133 C 
HETATM   27  C1  UNL     1       2.034   5.528   9.470  1.00  0.00     0.027 C 
ENDBRANCH  24  26
ENDBRANCH   1  24
BRANCH  12  28
HETATM   28  C14 UNL     1      -3.541   8.616   9.362  1.00  0.00     0.129 C 
HETATM   29  C15 UNL     1      -4.237   7.823   8.264  1.00  0.00     0.027 C 
ENDBRANCH  12  28
TORSDOF 5
ENDMDL
MODEL 2
REMARK VINA RESULT: -7.240175962      2.715      3.952
REMARK  5 active torsions:
REMARK  status: ('A' for Active; 'I' for Inactive)
REMARK    1  A    between atoms: C2_2  and  N1_3 
REMARK    2  A    between atoms: N1_3  and  C3_5 
REMARK    3  A    between atoms: N3_9  and  C5_11 
REMARK    4  A    between atoms: C5_11  and  C6_12 
REMARK    5  A    between atoms: N5_24  and  C14_25 
ROOT
HETATM    1  C3  UNL     1      -1.938   8.679  13.612  1.00  0.00     0.681 A 
HETATM    2  N2  UNL     1      -2.839   7.951  14.273  1.00  0.00    -0.175 N 
ATOM      3  H2  UNL     1      -3.380   8.391  15.018  1.00  0.00     0.186 HD
HETATM    4  C4  UNL     1      -3.057   6.651  13.988  1.00  0.00     0.147 A 
HETATM    5  N3  UNL     1      -3.934   5.957  14.636  1.00  0.00    -0.373 N 
ATOM      6  H3  UNL     1      -4.455   6.431  15.373  1.00  0.00     0.161 HD
HETATM    7  C12 UNL     1      -2.318   6.084  12.987  1.00  0.00     0.124 A 
HETATM    8  N4  UNL     1      -2.289   4.841  12.464  1.00  0.00    -0.326 N 
ATOM      9  H4  UNL     1      -2.866   4.055  12.761  1.00  0.00     0.168 HD
HETATM   10  C13 UNL     1      -1.359   4.818  11.477  1.00  0.00     0.183 A 
HETATM   11 CL1  UNL     1      -0.996   3.375  10.524  1.00  0.00    -0.044 Cl
HETATM   12  N5  UNL     1      -0.817   6.037  11.389  1.00  0.00    -0.307 N 
HETATM   13  C16 UNL     1      -1.384   6.824  12.296  1.00  0.00     0.156 A 
HETATM   14  N6  UNL     1      -1.212   8.122  12.628  1.00  0.00    -0.174 N 
ATOM     15  H6  UNL     1      -0.525   8.685  12.127  1.00  0.00     0.186 HD
ENDROOT
BRANCH   5  16
HETATM   16  C5  UNL     1      -4.233   4.574  14.405  1.00  0.00     0.126 C 
BRANCH  16  17
HETATM   17  C6  UNL     1      -4.771   4.024  15.736  1.00  0.00     0.005 C 
HETATM   18  C7  UNL     1      -6.245   4.306  15.747  1.00  0.00     0.008 C 
HETATM   19  C8  UNL     1      -6.903   4.092  17.063  1.00  0.00     0.027 C 
HETATM   20  C9  UNL     1      -5.981   3.656  18.156  1.00  0.00     0.167 C 
HETATM   21  O1  UNL     1      -5.495   2.385  18.024  1.00  0.00    -0.391 OA
HETATM   22  C10 UNL     1      -5.545   1.872  16.750  1.00  0.00     0.168 C 
HETATM   23  C11 UNL     1      -4.581   2.529  15.802  1.00  0.00     0.032 C 
ENDBRANCH  16  17
ENDBRANCH   5  16
BRANCH   1  24
HETATM   24  N1  UNL     1      -1.716   9.932  13.873  1.00  0.00    -0.226 N 
ATOM     25  H1  UNL     1      -1.789  10.603  13.108  1.00  0.00     0.177 HD
BRANCH  24  26
HETATM   26  C2  UNL     1      -1.373  10.426  15.176  1.00  0.00     0.133 C 
HETATM   27  C1  UNL     1      -0.324  11.510  15.015  1.00  0.00     0.027 C 
ENDBRANCH  24  26
ENDBRANCH   1  24
BRANCH  12  28
HETATM   28  C14 UNL     1       0.215   6.438  10.461  1.00  0.00     0.129 C 
HETATM   29  C15 UNL     1       1.573   5.906  10.901  1.00  0.00     0.027 C 
ENDBRANCH  12  28
TORSDOF 5
ENDMDL
MODEL 3
REMARK VINA RESULT: -7.194493520      4.055      7.154
REMARK  5 active torsions:
REMARK  status: ('A' for Active; 'I' for Inactive)
REMARK    1  A    between atoms: C2_2  and  N1_3 
REMARK    2  A    between atoms: N1_3  and  C3_5 
REMARK    3  A    between atoms: N3_9  and  C5_11 
REMARK    4  A    between atoms: C5_11  and  C6_12 
REMARK    5  A    between atoms: N5_24  and  C14_25 
ROOT
HETATM    1  C3  UNL     1      -5.536   4.904  14.838  1.00  0.00     0.681 A 
HETATM    2  N2  UNL     1      -4.873   6.051  14.691  1.00  0.00    -0.175 N 
ATOM      3  H2  UNL     1      -5.172   6.867  15.225  1.00  0.00     0.186 HD
HETATM    4  C4  UNL     1      -3.819   6.167  13.857  1.00  0.00     0.147 A 
HETATM    5  N3  UNL     1      -3.185   7.285  13.724  1.00  0.00    -0.373 N 
ATOM      6  H3  UNL     1      -3.513   8.078  14.274  1.00  0.00     0.161 HD
HETATM    7  C12 UNL     1      -3.439   5.059  13.150  1.00  0.00     0.124 A 
HETATM    8  N4  UNL     1      -2.455   4.839  12.256  1.00  0.00    -0.326 N 
ATOM      9  H4  UNL     1      -1.775   5.528  11.934  1.00  0.00     0.168 HD
HETATM   10  C13 UNL     1      -2.524   3.545  11.858  1.00  0.00     0.183 A 
HETATM   11 CL1  UNL     1      -1.412   2.833  10.684  1.00  0.00    -0.044 Cl
HETATM   12  N5  UNL     1      -3.544   2.967  12.501  1.00  0.00    -0.307 N 
HETATM   13  C16 UNL     1      -4.116   3.867  13.293  1.00  0.00     0.156 A 
HETATM   14  N6  UNL     1      -5.163   3.815  14.145  1.00  0.00    -0.174 N 
ATOM     15  H6  UNL     1      -5.675   2.941  14.263  1.00  0.00     0.186 HD
ENDROOT
BRANCH   5  16
HETATM   16  C5  UNL     1      -2.058   7.502  12.864  1.00  0.00     0.126 C 
BRANCH  16  17
HETATM   17  C6  UNL     1      -1.699   8.991  12.998  1.00  0.00     0.005 C 
HETATM   18  C7  UNL     1      -1.797   9.322  14.458  1.00  0.00     0.008 C 
HETATM   19  C8  UNL     1      -1.749  10.776  14.766  1.00  0.00     0.027 C 
HETATM   20  C9  UNL     1      -1.635  11.660  13.566  1.00  0.00     0.167 C 
HETATM   21  O1  UNL     1      -0.429  11.604  12.925  1.00  0.00    -0.391 OA
HETATM   22  C10 UNL     1       0.309  10.472  13.172  1.00  0.00     0.168 C 
HETATM   23  C11 UNL     1      -0.276   9.230  12.561  1.00  0.00     0.032 C 
ENDBRANCH  16  17
ENDBRANCH   5  16
BRANCH   1  24
HETATM   24  N1  UNL     1      -6.552   4.775  15.637  1.00  0.00    -0.226 N 
ATOM     25  H1  UNL     1      -7.455   5.138  15.329  1.00  0.00     0.177 HD
BRANCH  24  26
HETATM   26  C2  UNL     1      -6.478   4.150  16.927  1.00  0.00     0.133 C 
HETATM   27  C1  UNL     1      -7.259   2.851  16.874  1.00  0.00     0.027 C 
ENDBRANCH  24  26
ENDBRANCH   1  24
BRANCH  12  28
HETATM   28  C14 UNL     1      -3.960   1.591  12.362  1.00  0.00     0.129 C 
HETATM   29  C15 UNL     1      -4.490   1.326  10.959  1.00  0.00     0.027 C 
ENDBRANCH  12  28
TORSDOF 5
ENDMDL
MODEL 4
REMARK VINA RESULT: -7.184324939      3.731      6.801
REMARK  5 active torsions:
REMARK  status: ('A' for Active; 'I' for Inactive)
REMARK    1  A    between atoms: C2_2  and  N1_3 
REMARK    2  A    between atoms: N1_3  and  C3_5 
REMARK    3  A    between atoms: N3_9  and  C5_11 
REMARK    4  A    between atoms: C5_11  and  C6_12 
REMARK    5  A    between atoms: N5_24  and  C14_25 
ROOT
HETATM    1  C3  UNL     1      -3.332   2.811  11.716  1.00  0.00     0.681 A 
HETATM    2  N2  UNL     1      -3.378   3.771  10.793  1.00  0.00    -0.175 N 
ATOM      3  H2  UNL     1      -3.063   3.562   9.845  1.00  0.00     0.186 HD
HETATM    4  C4  UNL     1      -3.827   5.012  11.072  1.00  0.00     0.147 A 
HETATM    5  N3  UNL     1      -3.866   5.934  10.167  1.00  0.00    -0.373 N 
ATOM      6  H3  UNL     1      -3.544   5.686   9.232  1.00  0.00     0.161 HD
HETATM    7  C12 UNL     1      -4.242   5.269  12.349  1.00  0.00     0.124 A 
HETATM    8  N4  UNL     1      -4.734   6.373  12.946  1.00  0.00    -0.326 N 
ATOM      9  H4  UNL     1      -4.889   7.276  12.497  1.00  0.00     0.168 HD
HETATM   10  C13 UNL     1      -4.989   6.077  14.245  1.00  0.00     0.183 A 
HETATM   11 CL1  UNL     1      -5.646   7.247  15.393  1.00  0.00    -0.044 Cl
HETATM   12  N5  UNL     1      -4.656   4.798  14.451  1.00  0.00    -0.307 N 
HETATM   13  C16 UNL     1      -4.200   4.285  13.314  1.00  0.00     0.156 A 
HETATM   14  N6  UNL     1      -3.740   3.062  12.972  1.00  0.00    -0.174 N 
ATOM     15  H6  UNL     1      -3.703   2.322  13.673  1.00  0.00     0.186 HD
ENDROOT
BRANCH   5  16
HETATM   16  C5  UNL     1      -4.326   7.277  10.370  1.00  0.00     0.126 C 
BRANCH  16  17
HETATM   17  C6  UNL     1      -5.378   7.538   9.280  1.00  0.00     0.005 C 
HETATM   18  C7  UNL     1      -6.178   8.724   9.737  1.00  0.00     0.008 C 
HETATM   19  C8  UNL     1      -7.416   8.972   8.952  1.00  0.00     0.027 C 
HETATM   20  C9  UNL     1      -7.666   7.985   7.858  1.00  0.00     0.167 C 
HETATM   21  O1  UNL     1      -6.802   8.067   6.802  1.00  0.00    -0.391 OA
HETATM   22  C10 UNL     1      -5.609   8.694   7.074  1.00  0.00     0.168 C 
HETATM   23  C11 UNL     1      -4.709   7.901   7.979  1.00  0.00     0.032 C 
ENDBRANCH  16  17
ENDBRANCH   5  16
BRANCH   1  24
HETATM   24  N1  UNL     1      -2.903   1.611  11.465  1.00  0.00    -0.226 N 
ATOM     25  H1  UNL     1      -1.926   1.497  11.192  1.00  0.00     0.177 HD
BRANCH  24  26
HETATM   26  C2  UNL     1      -3.723   0.437  11.549  1.00  0.00     0.133 C 
HETATM   27  C1  UNL     1      -2.867  -0.769  11.212  1.00  0.00     0.027 C 
ENDBRANCH  24  26
ENDBRANCH   1  24
BRANCH  12  28
HETATM   28  C14 UNL     1      -4.772   4.086  15.702  1.00  0.00     0.129 C 
HETATM   29  C15 UNL     1      -6.235   3.891  16.078  1.00  0.00     0.027 C 
ENDBRANCH  12  28
TORSDOF 5
ENDMDL
MODEL 5
REMARK VINA RESULT: -7.183630446      3.808      6.804
REMARK  5 active torsions:
REMARK  status: ('A' for Active; 'I' for Inactive)
REMARK    1  A    between atoms: C2_2  and  N1_3 
REMARK    2  A    between atoms: N1_3  and  C3_5 
REMARK    3  A    between atoms: N3_9  and  C5_11 
REMARK    4  A    between atoms: C5_11  and  C6_12 
REMARK    5  A    between atoms: N5_24  and  C14_25 
ROOT
HETATM    1  C3  UNL     1      -3.648   2.901  12.326  1.00  0.00     0.681 A 
HETATM    2  N2  UNL     1      -3.631   4.105  11.755  1.00  0.00    -0.175 N 
ATOM      3  H2  UNL     1      -3.173   4.217  10.850  1.00  0.00     0.186 HD
HETATM    4  C4  UNL     1      -4.200   5.181  12.336  1.00  0.00     0.147 A 
HETATM    5  N3  UNL     1      -4.176   6.344  11.771  1.00  0.00    -0.373 N 
ATOM      6  H3  UNL     1      -3.710   6.416  10.867  1.00  0.00     0.161 HD
HETATM    7  C12 UNL     1      -4.805   5.007  13.550  1.00  0.00     0.124 A 
HETATM    8  N4  UNL     1      -5.451   5.851  14.379  1.00  0.00    -0.326 N 
ATOM      9  H4  UNL     1      -5.603   6.846  14.218  1.00  0.00     0.168 HD
HETATM   10  C13 UNL     1      -5.862   5.149  15.464  1.00  0.00     0.183 A 
HETATM   11 CL1  UNL     1      -6.753   5.875  16.806  1.00  0.00    -0.044 Cl
HETATM   12  N5  UNL     1      -5.474   3.878  15.308  1.00  0.00    -0.307 N 
HETATM   13  C16 UNL     1      -4.830   3.767  14.151  1.00  0.00     0.156 A 
HETATM   14  N6  UNL     1      -4.243   2.728  13.518  1.00  0.00    -0.174 N 
ATOM     15  H6  UNL     1      -4.253   1.804  13.949  1.00  0.00     0.186 HD
ENDROOT
BRANCH   5  16
HETATM   16  C5  UNL     1      -4.752   7.541  12.312  1.00  0.00     0.126 C 
BRANCH  16  17
HETATM   17  C6  UNL     1      -5.196   8.384  11.106  1.00  0.00     0.005 C 
HETATM   18  C7  UNL     1      -6.523   8.983  11.472  1.00  0.00     0.008 C 
HETATM   19  C8  UNL     1      -7.247   9.616  10.339  1.00  0.00     0.027 C 
HETATM   20  C9  UNL     1      -6.542   9.528   9.024  1.00  0.00     0.167 C 
HETATM   21  O1  UNL     1      -5.413  10.293   8.925  1.00  0.00    -0.391 OA
HETATM   22  C10 UNL     1      -4.852  10.659  10.125  1.00  0.00     0.168 C 
HETATM   23  C11 UNL     1      -4.225   9.513  10.867  1.00  0.00     0.032 C 
ENDBRANCH  16  17
ENDBRANCH   5  16
BRANCH   1  24
HETATM   24  N1  UNL     1      -3.106   1.854  11.780  1.00  0.00    -0.226 N 
ATOM     25  H1  UNL     1      -2.096   1.856  11.635  1.00  0.00     0.177 HD
BRANCH  24  26
HETATM   26  C2  UNL     1      -3.846   0.696  11.369  1.00  0.00     0.133 C 
HETATM   27  C1  UNL     1      -2.884  -0.472  11.259  1.00  0.00     0.027 C 
ENDBRANCH  24  26
ENDBRANCH   1  24
BRANCH  12  28
HETATM   28  C14 UNL     1      -5.714   2.801  16.239  1.00  0.00     0.129 C 
HETATM   29  C15 UNL     1      -7.164   2.802  16.704  1.00  0.00     0.027 C 
ENDBRANCH  12  28
TORSDOF 5
ENDMDL
