MODEL 1
REMARK VINA RESULT: -6.600937422      0.000      0.000
REMARK  7 active torsions:
REMARK  status: ('A' for Active; 'I' for Inactive)
REMARK    1  A    between atoms: C2_2  and  C3_3 
REMARK    2  A    between atoms: C3_3  and  N1_4 
REMARK    3  A    between atoms: C7_14  and  C8_15 
REMARK    4  A    between atoms: C8_15  and  N4_16 
REMARK    5  A    between atoms: C12_20  and  C13_21 
REMARK    6  A    between atoms: C13_21  and  C14_22 
REMARK    7  A    between atoms: C14_22  and  C15_23 
ROOT
HETATM    1  N1  UNL     1      -4.339   4.094  13.840  1.00  0.00    -0.308 N 
HETATM    2  C4  UNL     1      -4.285   2.762  14.005  1.00  0.00     0.182 A 
HETATM    3  S1  UNL     1      -4.299   2.144  15.535  1.00  0.00    -0.040 SA
HETATM    4  N2  UNL     1      -4.221   1.899  12.985  1.00  0.00    -0.298 N 
ATOM      5  H2  UNL     1      -4.181   0.894  13.154  1.00  0.00     0.171 HD
HETATM    6  C5  UNL     1      -4.210   2.384  11.737  1.00  0.00     0.278 A 
HETATM    7  O1  UNL     1      -4.150   1.608  10.753  1.00  0.00    -0.265 OA
HETATM    8  C6  UNL     1      -4.265   3.766  11.541  1.00  0.00     0.147 A 
HETATM    9  N3  UNL     1      -4.269   4.528  10.433  1.00  0.00    -0.334 N 
ATOM     10  H3  UNL     1      -4.228   4.166   9.480  1.00  0.00     0.168 HD
HETATM   11  C7  UNL     1      -4.334   5.824  10.750  1.00  0.00     0.118 A 
HETATM   12  N5  UNL     1      -4.372   5.877  12.113  1.00  0.00    -0.326 N 
ATOM     13  H5  UNL     1      -4.423   6.731  12.668  1.00  0.00     0.169 HD
HETATM   14  C16 UNL     1      -4.330   4.633  12.609  1.00  0.00     0.144 A 
ENDROOT
BRANCH  11  15
HETATM   15  C8  UNL     1      -4.358   7.021   9.840  1.00  0.00     0.109 C 
BRANCH  15  16
HETATM   16  N4  UNL     1      -5.610   7.643   9.946  1.00  0.00    -0.274 NA
HETATM   17  C9  UNL     1      -6.234   8.037   8.701  1.00  0.00     0.096 C 
HETATM   18  C10 UNL     1      -7.282   9.054   9.016  1.00  0.00     0.017 C 
HETATM   19  C11 UNL     1      -7.083   9.391  10.465  1.00  0.00     0.034 C 
HETATM   20  C12 UNL     1      -5.755   8.743  10.847  1.00  0.00     0.142 C 
BRANCH  20  21
HETATM   21  C13 UNL     1      -4.730   9.746  10.606  1.00  0.00    -0.084 C 
BRANCH  21  22
HETATM   22  C14 UNL     1      -3.880  10.582  10.416  1.00  0.00    -0.074 C 
BRANCH  22  23
HETATM   23  C15 UNL     1      -2.845  11.617  10.206  1.00  0.00     0.315 C 
HETATM   24  F1  UNL     1      -3.012  12.668  11.107  1.00  0.00    -0.242 F 
ENDBRANCH  22  23
ENDBRANCH  21  22
ENDBRANCH  20  21
ENDBRANCH  15  16
ENDBRANCH  11  15
BRANCH   1  25
HETATM   25  C3  UNL     1      -4.406   4.925  15.016  1.00  0.00     0.133 C 
BRANCH  25  26
HETATM   26  C2  UNL     1      -5.847   5.359  15.179  1.00  0.00     0.016 C 
HETATM   27  C1  UNL     1      -5.965   6.882  15.093  1.00  0.00     0.006 C 
ENDBRANCH  25  26
ENDBRANCH   1  25
TORSDOF 7
ENDMDL
MODEL 2
REMARK VINA RESULT: -6.586623811      1.027      1.126
REMARK  7 active torsions:
REMARK  status: ('A' for Active; 'I' for Inactive)
REMARK    1  A    between atoms: C2_2  and  C3_3 
REMARK    2  A    between atoms: C3_3  and  N1_4 
REMARK    3  A    between atoms: C7_14  and  C8_15 
REMARK    4  A    between atoms: C8_15  and  N4_16 
REMARK    5  A    between atoms: C12_20  and  C13_21 
REMARK    6  A    between atoms: C13_21  and  C14_22 
REMARK    7  A    between atoms: C14_22  and  C15_23 
ROOT
HETATM    1  N1  UNL     1      -4.392   4.332  13.789  1.00  0.00    -0.308 N 
HETATM    2  C4  UNL     1      -4.169   3.010  13.697  1.00  0.00     0.182 A 
HETATM    3  S1  UNL     1      -4.226   2.093  15.067  1.00  0.00    -0.040 SA
HETATM    4  N2  UNL     1      -3.900   2.391  12.542  1.00  0.00    -0.298 N 
ATOM      5  H2  UNL     1      -3.736   1.385  12.516  1.00  0.00     0.171 HD
HETATM    6  C5  UNL     1      -3.851   3.121  11.421  1.00  0.00     0.278 A 
HETATM    7  O1  UNL     1      -3.602   2.578  10.318  1.00  0.00    -0.265 OA
HETATM    8  C6  UNL     1      -4.079   4.497  11.492  1.00  0.00     0.147 A 
HETATM    9  N3  UNL     1      -4.095   5.466  10.560  1.00  0.00    -0.334 N 
ATOM     10  H3  UNL     1      -3.924   5.317   9.565  1.00  0.00     0.168 HD
HETATM   11  C7  UNL     1      -4.364   6.651  11.113  1.00  0.00     0.118 A 
HETATM   12  N5  UNL     1      -4.524   6.417  12.448  1.00  0.00    -0.326 N 
ATOM     13  H5  UNL     1      -4.740   7.125  13.149  1.00  0.00     0.169 HD
HETATM   14  C16 UNL     1      -4.354   5.111  12.694  1.00  0.00     0.144 A 
ENDROOT
BRANCH  11  15
HETATM   15  C8  UNL     1      -4.476   8.000  10.456  1.00  0.00     0.109 C 
BRANCH  15  16
HETATM   16  N4  UNL     1      -5.813   8.212  10.089  1.00  0.00    -0.274 NA
HETATM   17  C9  UNL     1      -6.113   8.094   8.678  1.00  0.00     0.096 C 
HETATM   18  C10 UNL     1      -7.415   8.783   8.428  1.00  0.00     0.017 C 
HETATM   19  C11 UNL     1      -7.740   9.493   9.709  1.00  0.00     0.034 C 
HETATM   20  C12 UNL     1      -6.472   9.393  10.553  1.00  0.00     0.142 C 
BRANCH  20  21
HETATM   21  C13 UNL     1      -5.685  10.577  10.247  1.00  0.00    -0.084 C 
BRANCH  21  22
HETATM   22  C14 UNL     1      -5.034  11.565  10.002  1.00  0.00    -0.074 C 
BRANCH  22  23
HETATM   23  C15 UNL     1      -4.253  12.787   9.717  1.00  0.00     0.315 C 
HETATM   24  F1  UNL     1      -4.649  13.829  10.554  1.00  0.00    -0.242 F 
ENDBRANCH  22  23
ENDBRANCH  21  22
ENDBRANCH  20  21
ENDBRANCH  15  16
ENDBRANCH  11  15
BRANCH   1  25
HETATM   25  C3  UNL     1      -4.672   4.888  15.089  1.00  0.00     0.133 C 
BRANCH  25  26
HETATM   26  C2  UNL     1      -6.167   5.109  15.171  1.00  0.00     0.016 C 
HETATM   27  C1  UNL     1      -6.709   4.638  16.522  1.00  0.00     0.006 C 
ENDBRANCH  25  26
ENDBRANCH   1  25
TORSDOF 7
ENDMDL
MODEL 3
REMARK VINA RESULT: -6.566171239      1.218      1.590
REMARK  7 active torsions:
REMARK  status: ('A' for Active; 'I' for Inactive)
REMARK    1  A    between atoms: C2_2  and  C3_3 
REMARK    2  A    between atoms: C3_3  and  N1_4 
REMARK    3  A    between atoms: C7_14  and  C8_15 
REMARK    4  A    between atoms: C8_15  and  N4_16 
REMARK    5  A    between atoms: C12_20  and  C13_21 
REMARK    6  A    between atoms: C13_21  and  C14_22 
REMARK    7  A    between atoms: C14_22  and  C15_23 
ROOT
HETATM    1  N1  UNL     1      -4.295   4.314  13.696  1.00  0.00    -0.308 N 
HETATM    2  C4  UNL     1      -4.242   2.975  13.798  1.00  0.00     0.182 A 
HETATM    3  S1  UNL     1      -4.340   2.284  15.293  1.00  0.00    -0.040 SA
HETATM    4  N2  UNL     1      -4.115   2.164  12.742  1.00  0.00    -0.298 N 
ATOM      5  H2  UNL     1      -4.078   1.152  12.864  1.00  0.00     0.171 HD
HETATM    6  C5  UNL     1      -4.035   2.710  11.522  1.00  0.00     0.278 A 
HETATM    7  O1  UNL     1      -3.914   1.983  10.507  1.00  0.00    -0.265 OA
HETATM    8  C6  UNL     1      -4.087   4.099  11.391  1.00  0.00     0.147 A 
HETATM    9  N3  UNL     1      -4.032   4.915  10.324  1.00  0.00    -0.334 N 
ATOM     10  H3  UNL     1      -3.935   4.600   9.358  1.00  0.00     0.168 HD
HETATM   11  C7  UNL     1      -4.123   6.193  10.700  1.00  0.00     0.118 A 
HETATM   12  N5  UNL     1      -4.239   6.179  12.059  1.00  0.00    -0.326 N 
ATOM     13  H5  UNL     1      -4.328   7.005  12.651  1.00  0.00     0.169 HD
HETATM   14  C16 UNL     1      -4.219   4.912  12.495  1.00  0.00     0.144 A 
ENDROOT
BRANCH  11  15
HETATM   15  C8  UNL     1      -4.102   7.434   9.849  1.00  0.00     0.109 C 
BRANCH  15  16
HETATM   16  N4  UNL     1      -5.011   7.271   8.793  1.00  0.00    -0.274 NA
HETATM   17  C9  UNL     1      -4.554   7.697   7.488  1.00  0.00     0.096 C 
HETATM   18  C10 UNL     1      -5.756   7.882   6.620  1.00  0.00     0.017 C 
HETATM   19  C11 UNL     1      -6.933   7.761   7.543  1.00  0.00     0.034 C 
HETATM   20  C12 UNL     1      -6.340   7.775   8.950  1.00  0.00     0.142 C 
BRANCH  20  21
HETATM   21  C13 UNL     1      -6.319   9.167   9.368  1.00  0.00    -0.084 C 
BRANCH  21  22
HETATM   22  C14 UNL     1      -6.295  10.325   9.709  1.00  0.00    -0.074 C 
BRANCH  22  23
HETATM   23  C15 UNL     1      -6.241  11.746  10.114  1.00  0.00     0.315 C 
HETATM   24  F1  UNL     1      -4.921  12.157  10.290  1.00  0.00    -0.242 F 
ENDBRANCH  22  23
ENDBRANCH  21  22
ENDBRANCH  20  21
ENDBRANCH  15  16
ENDBRANCH  11  15
BRANCH   1  25
HETATM   25  C3  UNL     1      -4.435   5.086  14.905  1.00  0.00     0.133 C 
BRANCH  25  26
HETATM   26  C2  UNL     1      -5.889   5.493  15.014  1.00  0.00     0.016 C 
HETATM   27  C1  UNL     1      -6.019   7.016  15.078  1.00  0.00     0.006 C 
ENDBRANCH  25  26
ENDBRANCH   1  25
TORSDOF 7
ENDMDL
MODEL 4
REMARK VINA RESULT: -6.490899063      1.848      2.274
REMARK  7 active torsions:
REMARK  status: ('A' for Active; 'I' for Inactive)
REMARK    1  A    between atoms: C2_2  and  C3_3 
REMARK    2  A    between atoms: C3_3  and  N1_4 
REMARK    3  A    between atoms: C7_14  and  C8_15 
REMARK    4  A    between atoms: C8_15  and  N4_16 
REMARK    5  A    between atoms: C12_20  and  C13_21 
REMARK    6  A    between atoms: C13_21  and  C14_22 
REMARK    7  A    between atoms: C14_22  and  C15_23 
ROOT
HETATM    1  N1  UNL     1      -4.145   4.281  13.449  1.00  0.00    -0.308 N 
HETATM    2  C4  UNL     1      -4.131   2.938  13.485  1.00  0.00     0.182 A 
HETATM    3  S1  UNL     1      -4.389   2.175  14.926  1.00  0.00    -0.040 SA
HETATM    4  N2  UNL     1      -3.917   2.177  12.406  1.00  0.00    -0.298 N 
ATOM      5  H2  UNL     1      -3.914   1.160  12.478  1.00  0.00     0.171 HD
HETATM    6  C5  UNL     1      -3.707   2.781  11.230  1.00  0.00     0.278 A 
HETATM    7  O1  UNL     1      -3.502   2.103  10.194  1.00  0.00    -0.265 OA
HETATM    8  C6  UNL     1      -3.716   4.176  11.167  1.00  0.00     0.147 A 
HETATM    9  N3  UNL     1      -3.539   5.042  10.154  1.00  0.00    -0.334 N 
ATOM     10  H3  UNL     1      -3.354   4.774   9.187  1.00  0.00     0.168 HD
HETATM   11  C7  UNL     1      -3.640   6.302  10.585  1.00  0.00     0.118 A 
HETATM   12  N5  UNL     1      -3.889   6.224  11.924  1.00  0.00    -0.326 N 
ATOM     13  H5  UNL     1      -4.018   7.020  12.547  1.00  0.00     0.169 HD
HETATM   14  C16 UNL     1      -3.939   4.936  12.293  1.00  0.00     0.144 A 
ENDROOT
BRANCH  11  15
HETATM   15  C8  UNL     1      -3.509   7.583   9.807  1.00  0.00     0.109 C 
BRANCH  15  16
HETATM   16  N4  UNL     1      -4.230   7.458   8.610  1.00  0.00    -0.274 NA
HETATM   17  C9  UNL     1      -3.973   8.465   7.604  1.00  0.00     0.096 C 
HETATM   18  C10 UNL     1      -5.113   8.449   6.638  1.00  0.00     0.017 C 
HETATM   19  C11 UNL     1      -6.142   7.547   7.256  1.00  0.00     0.034 C 
HETATM   20  C12 UNL     1      -5.649   7.295   8.679  1.00  0.00     0.142 C 
BRANCH  20  21
HETATM   21  C13 UNL     1      -6.248   8.330   9.505  1.00  0.00    -0.084 C 
BRANCH  21  22
HETATM   22  C14 UNL     1      -6.752   9.183  10.196  1.00  0.00    -0.074 C 
BRANCH  22  23
HETATM   23  C15 UNL     1      -7.354  10.219  11.062  1.00  0.00     0.315 C 
HETATM   24  F1  UNL     1      -8.037   9.634  12.126  1.00  0.00    -0.242 F 
ENDBRANCH  22  23
ENDBRANCH  21  22
ENDBRANCH  20  21
ENDBRANCH  15  16
ENDBRANCH  11  15
BRANCH   1  25
HETATM   25  C3  UNL     1      -4.386   4.995  14.677  1.00  0.00     0.133 C 
BRANCH  25  26
HETATM   26  C2  UNL     1      -5.833   5.440  14.663  1.00  0.00     0.016 C 
HETATM   27  C1  UNL     1      -5.941   6.931  14.987  1.00  0.00     0.006 C 
ENDBRANCH  25  26
ENDBRANCH   1  25
TORSDOF 7
ENDMDL
MODEL 5
REMARK VINA RESULT: -6.334106901      2.160      3.356
REMARK  7 active torsions:
REMARK  status: ('A' for Active; 'I' for Inactive)
REMARK    1  A    between atoms: C2_2  and  C3_3 
REMARK    2  A    between atoms: C3_3  and  N1_4 
REMARK    3  A    between atoms: C7_14  and  C8_15 
REMARK    4  A    between atoms: C8_15  and  N4_16 
REMARK    5  A    between atoms: C12_20  and  C13_21 
REMARK    6  A    between atoms: C13_21  and  C14_22 
REMARK    7  A    between atoms: C14_22  and  C15_23 
ROOT
HETATM    1  N1  UNL     1      -4.285   4.016  12.532  1.00  0.00    -0.308 N 
HETATM    2  C4  UNL     1      -4.230   4.001  13.874  1.00  0.00     0.182 A 
HETATM    3  S1  UNL     1      -4.322   2.554  14.661  1.00  0.00    -0.040 SA
HETATM    4  N2  UNL     1      -4.103   5.107  14.615  1.00  0.00    -0.298 N 
ATOM      5  H2  UNL     1      -4.066   5.051  15.633  1.00  0.00     0.171 HD
HETATM    6  C5  UNL     1      -4.025   6.289  13.991  1.00  0.00     0.278 A 
HETATM    7  O1  UNL     1      -3.906   7.350  14.651  1.00  0.00    -0.265 OA
HETATM    8  C6  UNL     1      -4.081   6.330  12.597  1.00  0.00     0.147 A 
HETATM    9  N3  UNL     1      -4.030   7.343  11.714  1.00  0.00    -0.334 N 
ATOM     10  H3  UNL     1      -3.934   8.327  11.964  1.00  0.00     0.168 HD
HETATM   11  C7  UNL     1      -4.122   6.885  10.462  1.00  0.00     0.118 A 
HETATM   12  N5  UNL     1      -4.236   5.529  10.564  1.00  0.00    -0.326 N 
ATOM     13  H5  UNL     1      -4.325   4.884   9.779  1.00  0.00     0.169 HD
HETATM   14  C16 UNL     1      -4.212   5.176  11.857  1.00  0.00     0.144 A 
ENDROOT
BRANCH  11  15
HETATM   15  C8  UNL     1      -4.114   7.654   9.169  1.00  0.00     0.109 C 
BRANCH  15  16
HETATM   16  N4  UNL     1      -5.317   7.410   8.492  1.00  0.00    -0.274 NA
HETATM   17  C9  UNL     1      -5.336   7.746   7.085  1.00  0.00     0.096 C 
HETATM   18  C10 UNL     1      -6.764   7.859   6.660  1.00  0.00     0.017 C 
HETATM   19  C11 UNL     1      -7.561   7.795   7.930  1.00  0.00     0.034 C 
HETATM   20  C12 UNL     1      -6.533   7.913   9.052  1.00  0.00     0.142 C 
BRANCH  20  21
HETATM   21  C13 UNL     1      -6.417   9.331   9.349  1.00  0.00    -0.084 C 
BRANCH  21  22
HETATM   22  C14 UNL     1      -6.312  10.510   9.590  1.00  0.00    -0.074 C 
BRANCH  22  23
HETATM   23  C15 UNL     1      -6.170  11.956   9.861  1.00  0.00     0.315 C 
HETATM   24  F1  UNL     1      -4.897  12.241  10.352  1.00  0.00    -0.242 F 
ENDBRANCH  22  23
ENDBRANCH  21  22
ENDBRANCH  20  21
ENDBRANCH  15  16
ENDBRANCH  11  15
BRANCH   1  25
HETATM   25  C3  UNL     1      -4.423   2.759  11.840  1.00  0.00     0.133 C 
BRANCH  25  26
HETATM   26  C2  UNL     1      -3.060   2.393  11.293  1.00  0.00     0.016 C 
HETATM   27  C1  UNL     1      -3.002   0.907  10.939  1.00  0.00     0.006 C 
ENDBRANCH  25  26
ENDBRANCH   1  25
TORSDOF 7
ENDMDL
