MODEL 1
REMARK VINA RESULT: -5.510409773      0.000      0.000
REMARK  0 active torsions:
REMARK  status: ('A' for Active; 'I' for Inactive)
ROOT
HETATM    1  C1  UNL     1      -3.851   7.330  14.401  1.00  0.00     0.309 C 
HETATM    2  N1  UNL     1      -4.849   6.280  14.292  1.00  0.00     0.085 N 
HETATM    3  C2  UNL     1      -5.825   6.358  15.323  1.00  0.00     0.277 C 
HETATM    4  C3  UNL     1      -6.302   4.933  15.483  1.00  0.00     0.025 C 
HETATM    5  C4  UNL     1      -6.871   4.690  16.837  1.00  0.00     0.012 C 
HETATM    6  C5  UNL     1      -7.436   3.278  16.858  1.00  0.00     0.045 C 
HETATM    7  C6  UNL     1      -6.269   2.367  17.238  1.00  0.00     0.060 C 
HETATM    8  N2  UNL     1      -5.046   3.041  17.305  1.00  0.00    -0.382 N 
ATOM      9  H2  UNL     1      -4.630   3.261  18.210  1.00  0.00     0.164 HD
HETATM   10  C7  UNL     1      -4.397   3.411  16.120  1.00  0.00     0.067 C 
HETATM   11  C8  UNL     1      -5.197   4.060  15.070  1.00  0.00     0.058 C 
HETATM   12  C9  UNL     1      -4.294   4.968  14.253  1.00  0.00     0.282 C 
ENDROOT
TORSDOF 0
ENDMDL
MODEL 2
REMARK VINA RESULT: -5.040021553      1.083      3.961
REMARK  0 active torsions:
REMARK  status: ('A' for Active; 'I' for Inactive)
ROOT
HETATM    1  C1  UNL     1      -7.326   2.785  17.078  1.00  0.00     0.309 C 
HETATM    2  N1  UNL     1      -6.222   3.725  16.977  1.00  0.00     0.085 N 
HETATM    3  C2  UNL     1      -6.631   4.978  16.445  1.00  0.00     0.277 C 
HETATM    4  C3  UNL     1      -5.383   5.522  15.790  1.00  0.00     0.025 C 
HETATM    5  C4  UNL     1      -5.705   6.503  14.718  1.00  0.00     0.012 C 
HETATM    6  C5  UNL     1      -4.393   7.085  14.212  1.00  0.00     0.045 C 
HETATM    7  C6  UNL     1      -3.906   6.129  13.123  1.00  0.00     0.060 C 
HETATM    8  N2  UNL     1      -4.686   4.975  13.016  1.00  0.00    -0.382 N 
ATOM      9  H2  UNL     1      -5.340   4.866  12.241  1.00  0.00     0.164 HD
HETATM   10  C7  UNL     1      -4.563   3.968  13.984  1.00  0.00     0.067 C 
HETATM   11  C8  UNL     1      -4.564   4.369  15.399  1.00  0.00     0.058 C 
HETATM   12  C9  UNL     1      -5.115   3.225  16.233  1.00  0.00     0.282 C 
ENDROOT
TORSDOF 0
ENDMDL
MODEL 3
REMARK VINA RESULT: -4.813164500      3.444      4.794
REMARK  0 active torsions:
REMARK  status: ('A' for Active; 'I' for Inactive)
ROOT
HETATM    1  C1  UNL     1      -3.744   6.122  14.625  1.00  0.00     0.309 C 
HETATM    2  N1  UNL     1      -4.374   5.403  13.531  1.00  0.00     0.085 N 
HETATM    3  C2  UNL     1      -4.582   4.031  13.840  1.00  0.00     0.277 C 
HETATM    4  C3  UNL     1      -4.565   3.348  12.492  1.00  0.00     0.025 C 
HETATM    5  C4  UNL     1      -4.197   1.910  12.607  1.00  0.00     0.012 C 
HETATM    6  C5  UNL     1      -4.333   1.284  11.227  1.00  0.00     0.045 C 
HETATM    7  C6  UNL     1      -2.995   1.521  10.527  1.00  0.00     0.060 C 
HETATM    8  N2  UNL     1      -2.128   2.335  11.262  1.00  0.00    -0.382 N 
ATOM      9  H2  UNL     1      -1.331   1.928  11.751  1.00  0.00     0.164 HD
HETATM   10  C7  UNL     1      -2.365   3.716  11.321  1.00  0.00     0.067 C 
HETATM   11  C8  UNL     1      -3.736   4.168  11.603  1.00  0.00     0.058 C 
HETATM   12  C9  UNL     1      -3.675   5.519  12.296  1.00  0.00     0.282 C 
ENDROOT
TORSDOF 0
ENDMDL
MODEL 4
REMARK VINA RESULT: -4.800036434      2.002      2.577
REMARK  0 active torsions:
REMARK  status: ('A' for Active; 'I' for Inactive)
ROOT
HETATM    1  C1  UNL     1      -2.373   4.736  11.437  1.00  0.00     0.309 C 
HETATM    2  N1  UNL     1      -3.616   4.767  12.188  1.00  0.00     0.085 N 
HETATM    3  C2  UNL     1      -3.443   5.306  13.492  1.00  0.00     0.277 C 
HETATM    4  C3  UNL     1      -4.541   4.659  14.304  1.00  0.00     0.025 C 
HETATM    5  C4  UNL     1      -4.209   4.627  15.755  1.00  0.00     0.012 C 
HETATM    6  C5  UNL     1      -5.420   4.081  16.496  1.00  0.00     0.045 C 
HETATM    7  C6  UNL     1      -5.268   2.559  16.478  1.00  0.00     0.060 C 
HETATM    8  N2  UNL     1      -4.196   2.124  15.694  1.00  0.00    -0.382 N 
ATOM      9  H2  UNL     1      -3.339   1.791  16.135  1.00  0.00     0.164 HD
HETATM   10  C7  UNL     1      -4.309   2.150  14.297  1.00  0.00     0.067 C 
HETATM   11  C8  UNL     1      -4.842   3.370  13.671  1.00  0.00     0.058 C 
HETATM   12  C9  UNL     1      -4.262   3.500  12.273  1.00  0.00     0.282 C 
ENDROOT
TORSDOF 0
ENDMDL
MODEL 5
REMARK VINA RESULT: -4.705706260      1.550      2.526
REMARK  0 active torsions:
REMARK  status: ('A' for Active; 'I' for Inactive)
ROOT
HETATM    1  C1  UNL     1      -4.585   4.178  12.137  1.00  0.00     0.309 C 
HETATM    2  N1  UNL     1      -4.154   4.114  13.523  1.00  0.00     0.085 N 
HETATM    3  C2  UNL     1      -4.661   2.966  14.190  1.00  0.00     0.277 C 
HETATM    4  C3  UNL     1      -4.726   3.385  15.640  1.00  0.00     0.025 C 
HETATM    5  C4  UNL     1      -5.725   2.586  16.402  1.00  0.00     0.012 C 
HETATM    6  C5  UNL     1      -5.625   2.990  17.865  1.00  0.00     0.045 C 
HETATM    7  C6  UNL     1      -6.543   4.202  18.027  1.00  0.00     0.060 C 
HETATM    8  N2  UNL     1      -7.065   4.661  16.814  1.00  0.00    -0.382 N 
ATOM      9  H2  UNL     1      -8.038   4.475  16.571  1.00  0.00     0.164 HD
HETATM   10  C7  UNL     1      -6.240   5.377  15.936  1.00  0.00     0.067 C 
HETATM   11  C8  UNL     1      -4.898   4.842  15.660  1.00  0.00     0.058 C 
HETATM   12  C9  UNL     1      -4.468   5.284  14.272  1.00  0.00     0.282 C 
ENDROOT
TORSDOF 0
ENDMDL
