MODEL 1
REMARK VINA RESULT: -6.531513580      0.000      0.000
REMARK  8 active torsions:
REMARK  status: ('A' for Active; 'I' for Inactive)
REMARK    1  A    between atoms: N1_1  and  C1_5 
REMARK    2  A    between atoms: C1_5  and  C2_6 
REMARK    3  A    between atoms: C2_6  and  C3_7 
REMARK    4  A    between atoms: C3_7  and  N2_8 
REMARK    5  A    between atoms: C8_13  and  C9_14 
REMARK    6  A    between atoms: C9_14  and  N3_15 
REMARK    7  A    between atoms: C13_19  and  C14_20 
REMARK    8  A    between atoms: N5_22  and  O1_24 
ROOT
HETATM    1  N2  UNL     1      44.404  -2.673  20.194  1.00  0.00    -0.359 N 
HETATM    2  C4  UNL     1      45.340  -3.351  19.463  1.00  0.00     0.091 A 
HETATM    3  C5  UNL     1      46.226  -4.212  20.053  1.00  0.00     0.017 A 
HETATM    4  C6  UNL     1      46.179  -4.403  21.416  1.00  0.00     0.003 A 
HETATM    5  C7  UNL     1      45.212  -3.693  22.124  1.00  0.00     0.027 A 
HETATM    6  C8  UNL     1      44.311  -2.819  21.529  1.00  0.00     0.029 A 
ENDROOT
BRANCH   6   7
HETATM    7  C9  UNL     1      43.329  -2.182  22.413  1.00  0.00     0.184 C 
BRANCH   7   8
HETATM    8  N3  UNL     1      43.650  -0.922  22.987  1.00  0.00    -0.360 N 
HETATM    9  C10 UNL     1      44.424  -0.907  24.085  1.00  0.00     0.091 A 
HETATM   10  C11 UNL     1      44.745   0.287  24.670  1.00  0.00     0.018 A 
HETATM   11  C12 UNL     1      44.305   1.497  24.180  1.00  0.00     0.017 A 
HETATM   12  C13 UNL     1      43.514   1.489  23.061  1.00  0.00     0.022 A 
HETATM   13  C15 UNL     1      43.217   0.241  22.503  1.00  0.00     0.105 A 
BRANCH  12  14
HETATM   14  C14 UNL     1      42.993   2.717  22.459  1.00  0.00     0.147 C 
HETATM   15  N4  UNL     1      41.683   2.732  21.925  1.00  0.00    -0.080 NA
HETATM   16  N5  UNL     1      43.742   3.754  22.432  1.00  0.00    -0.255 N 
ATOM     17  H5  UNL     1      44.678   3.689  22.831  1.00  0.00     0.195 HD
BRANCH  16  18
HETATM   18  O1  UNL     1      43.343   4.945  21.893  1.00  0.00    -0.288 OA
ATOM     19  H1  UNL     1      43.033   5.029  21.000  1.00  0.00     0.244 HD
ENDBRANCH  16  18
ENDBRANCH  12  14
ENDBRANCH   7   8
ENDBRANCH   6   7
BRANCH   1  20
HETATM   20  C3  UNL     1      43.579  -1.786  19.451  1.00  0.00     0.130 C 
BRANCH  20  21
HETATM   21  C2  UNL     1      44.192  -0.529  18.967  1.00  0.00     0.047 C 
BRANCH  21  22
HETATM   22  C1  UNL     1      43.261   0.373  18.261  1.00  0.00     0.231 C 
BRANCH  22  23
HETATM   23  N1  UNL     1      42.527   1.250  19.130  1.00  0.00    -0.079 N 
ATOM     24  H13 UNL     1      41.530   1.037  19.095  1.00  0.00     0.274 HD
ATOM     25  H12 UNL     1      42.716   1.027  20.107  1.00  0.00     0.274 HD
ATOM     26  H11 UNL     1      42.688   2.240  18.950  1.00  0.00     0.274 HD
ENDBRANCH  22  23
ENDBRANCH  21  22
ENDBRANCH  20  21
ENDBRANCH   1  20
TORSDOF 8
ENDMDL
MODEL 2
REMARK VINA RESULT: -6.522211268      3.833      6.129
REMARK  8 active torsions:
REMARK  status: ('A' for Active; 'I' for Inactive)
REMARK    1  A    between atoms: N1_1  and  C1_5 
REMARK    2  A    between atoms: C1_5  and  C2_6 
REMARK    3  A    between atoms: C2_6  and  C3_7 
REMARK    4  A    between atoms: C3_7  and  N2_8 
REMARK    5  A    between atoms: C8_13  and  C9_14 
REMARK    6  A    between atoms: C9_14  and  N3_15 
REMARK    7  A    between atoms: C13_19  and  C14_20 
REMARK    8  A    between atoms: N5_22  and  O1_24 
ROOT
HETATM    1  N2  UNL     1      43.444   0.373  22.473  1.00  0.00    -0.359 N 
HETATM    2  C4  UNL     1      43.279   1.729  22.537  1.00  0.00     0.091 A 
HETATM    3  C5  UNL     1      43.619   2.442  23.656  1.00  0.00     0.017 A 
HETATM    4  C6  UNL     1      44.141   1.782  24.746  1.00  0.00     0.003 A 
HETATM    5  C7  UNL     1      44.293   0.401  24.640  1.00  0.00     0.027 A 
HETATM    6  C8  UNL     1      43.949  -0.325  23.507  1.00  0.00     0.029 A 
ENDROOT
BRANCH   6   7
HETATM    7  C9  UNL     1      44.211  -1.768  23.545  1.00  0.00     0.184 C 
BRANCH   7   8
HETATM    8  N3  UNL     1      45.561  -2.212  23.533  1.00  0.00    -0.360 N 
HETATM    9  C10 UNL     1      46.282  -2.009  22.418  1.00  0.00     0.091 A 
HETATM   10  C11 UNL     1      47.582  -2.432  22.366  1.00  0.00     0.018 A 
HETATM   11  C12 UNL     1      48.199  -3.069  23.420  1.00  0.00     0.017 A 
HETATM   12  C13 UNL     1      47.469  -3.280  24.561  1.00  0.00     0.022 A 
HETATM   13  C15 UNL     1      46.145  -2.827  24.560  1.00  0.00     0.105 A 
BRANCH  12  14
HETATM   14  C14 UNL     1      48.027  -3.946  25.737  1.00  0.00     0.147 C 
HETATM   15  N4  UNL     1      49.003  -4.958  25.571  1.00  0.00    -0.080 NA
HETATM   16  N5  UNL     1      47.616  -3.595  26.897  1.00  0.00    -0.255 N 
ATOM     17  H5  UNL     1      46.911  -2.861  26.962  1.00  0.00     0.195 HD
BRANCH  16  18
HETATM   18  O1  UNL     1      48.079  -4.159  28.052  1.00  0.00    -0.288 OA
ATOM     19  H1  UNL     1      47.657  -4.033  28.894  1.00  0.00     0.244 HD
ENDBRANCH  16  18
ENDBRANCH  12  14
ENDBRANCH   7   8
ENDBRANCH   6   7
BRANCH   1  20
HETATM   20  C3  UNL     1      43.010  -0.235  21.264  1.00  0.00     0.130 C 
BRANCH  20  21
HETATM   21  C2  UNL     1      43.981  -0.303  20.149  1.00  0.00     0.047 C 
BRANCH  21  22
HETATM   22  C1  UNL     1      43.449   0.143  18.847  1.00  0.00     0.231 C 
BRANCH  22  23
HETATM   23  N1  UNL     1      42.525   1.239  18.939  1.00  0.00    -0.079 N 
ATOM     24  H13 UNL     1      41.849   1.075  19.685  1.00  0.00     0.274 HD
ATOM     25  H12 UNL     1      42.989   2.069  19.307  1.00  0.00     0.274 HD
ATOM     26  H11 UNL     1      42.048   1.453  18.064  1.00  0.00     0.274 HD
ENDBRANCH  22  23
ENDBRANCH  21  22
ENDBRANCH  20  21
ENDBRANCH   1  20
TORSDOF 8
ENDMDL
MODEL 3
REMARK VINA RESULT: -6.485509214      2.265      3.535
REMARK  8 active torsions:
REMARK  status: ('A' for Active; 'I' for Inactive)
REMARK    1  A    between atoms: N1_1  and  C1_5 
REMARK    2  A    between atoms: C1_5  and  C2_6 
REMARK    3  A    between atoms: C2_6  and  C3_7 
REMARK    4  A    between atoms: C3_7  and  N2_8 
REMARK    5  A    between atoms: C8_13  and  C9_14 
REMARK    6  A    between atoms: C9_14  and  N3_15 
REMARK    7  A    between atoms: C13_19  and  C14_20 
REMARK    8  A    between atoms: N5_22  and  O1_24 
ROOT
HETATM    1  N2  UNL     1      46.519  -2.539  22.746  1.00  0.00    -0.359 N 
HETATM    2  C4  UNL     1      47.825  -2.949  22.750  1.00  0.00     0.091 A 
HETATM    3  C5  UNL     1      48.606  -2.847  23.871  1.00  0.00     0.017 A 
HETATM    4  C6  UNL     1      48.068  -2.321  25.025  1.00  0.00     0.003 A 
HETATM    5  C7  UNL     1      46.736  -1.916  24.978  1.00  0.00     0.027 A 
HETATM    6  C8  UNL     1      45.941  -2.018  23.843  1.00  0.00     0.029 A 
ENDROOT
BRANCH   6   7
HETATM    7  C9  UNL     1      44.546  -1.584  23.976  1.00  0.00     0.184 C 
BRANCH   7   8
HETATM    8  N3  UNL     1      44.191  -0.291  23.506  1.00  0.00    -0.360 N 
HETATM    9  C10 UNL     1      44.674   0.775  24.166  1.00  0.00     0.091 A 
HETATM   10  C11 UNL     1      44.344   2.036  23.748  1.00  0.00     0.018 A 
HETATM   11  C12 UNL     1      43.526   2.270  22.665  1.00  0.00     0.017 A 
HETATM   12  C13 UNL     1      43.030   1.186  21.987  1.00  0.00     0.022 A 
HETATM   13  C15 UNL     1      43.398  -0.079  22.457  1.00  0.00     0.105 A 
BRANCH  12  14
HETATM   14  C14 UNL     1      42.153   1.323  20.824  1.00  0.00     0.147 C 
HETATM   15  N4  UNL     1      40.768   1.547  21.015  1.00  0.00    -0.080 NA
HETATM   16  N5  UNL     1      42.664   1.237  19.655  1.00  0.00    -0.255 N 
ATOM     17  H5  UNL     1      43.668   1.075  19.573  1.00  0.00     0.195 HD
BRANCH  16  18
HETATM   18  O1  UNL     1      41.926   1.352  18.510  1.00  0.00    -0.288 OA
ATOM     19  H1  UNL     1      41.139   0.846  18.350  1.00  0.00     0.244 HD
ENDBRANCH  16  18
ENDBRANCH  12  14
ENDBRANCH   7   8
ENDBRANCH   6   7
BRANCH   1  20
HETATM   20  C3  UNL     1      45.846  -2.670  21.502  1.00  0.00     0.130 C 
BRANCH  20  21
HETATM   21  C2  UNL     1      45.518  -4.039  21.044  1.00  0.00     0.047 C 
BRANCH  21  22
HETATM   22  C1  UNL     1      44.404  -4.676  21.772  1.00  0.00     0.231 C 
BRANCH  22  23
HETATM   23  N1  UNL     1      43.210  -3.880  21.823  1.00  0.00    -0.079 N 
ATOM     24  H13 UNL     1      43.016  -3.587  22.780  1.00  0.00     0.274 HD
ATOM     25  H12 UNL     1      43.367  -2.969  21.393  1.00  0.00     0.274 HD
ATOM     26  H11 UNL     1      42.393  -4.333  21.414  1.00  0.00     0.274 HD
ENDBRANCH  22  23
ENDBRANCH  21  22
ENDBRANCH  20  21
ENDBRANCH   1  20
TORSDOF 8
ENDMDL
MODEL 4
REMARK VINA RESULT: -6.470498704      2.614      4.379
REMARK  8 active torsions:
REMARK  status: ('A' for Active; 'I' for Inactive)
REMARK    1  A    between atoms: N1_1  and  C1_5 
REMARK    2  A    between atoms: C1_5  and  C2_6 
REMARK    3  A    between atoms: C2_6  and  C3_7 
REMARK    4  A    between atoms: C3_7  and  N2_8 
REMARK    5  A    between atoms: C8_13  and  C9_14 
REMARK    6  A    between atoms: C9_14  and  N3_15 
REMARK    7  A    between atoms: C13_19  and  C14_20 
REMARK    8  A    between atoms: N5_22  and  O1_24 
ROOT
HETATM    1  N2  UNL     1      46.511  -2.916  23.388  1.00  0.00    -0.359 N 
HETATM    2  C4  UNL     1      47.750  -3.239  22.905  1.00  0.00     0.091 A 
HETATM    3  C5  UNL     1      48.148  -2.872  21.648  1.00  0.00     0.017 A 
HETATM    4  C6  UNL     1      47.285  -2.159  20.845  1.00  0.00     0.003 A 
HETATM    5  C7  UNL     1      46.034  -1.850  21.375  1.00  0.00     0.027 A 
HETATM    6  C8  UNL     1      45.626  -2.221  22.650  1.00  0.00     0.029 A 
ENDROOT
BRANCH   6   7
HETATM    7  C9  UNL     1      44.291  -1.780  23.069  1.00  0.00     0.184 C 
BRANCH   7   8
HETATM    8  N3  UNL     1      44.143  -0.465  23.587  1.00  0.00    -0.360 N 
HETATM    9  C10 UNL     1      44.523  -0.241  24.856  1.00  0.00     0.091 A 
HETATM   10  C11 UNL     1      44.385   1.010  25.393  1.00  0.00     0.018 A 
HETATM   11  C12 UNL     1      43.866   2.070  24.684  1.00  0.00     0.017 A 
HETATM   12  C13 UNL     1      43.476   1.848  23.388  1.00  0.00     0.022 A 
HETATM   13  C15 UNL     1      43.639   0.551  22.890  1.00  0.00     0.105 A 
BRANCH  12  14
HETATM   14  C14 UNL     1      42.913   2.904  22.547  1.00  0.00     0.147 C 
HETATM   15  N4  UNL     1      41.661   2.703  21.917  1.00  0.00    -0.080 NA
HETATM   16  N5  UNL     1      43.571   3.991  22.402  1.00  0.00    -0.255 N 
ATOM     17  H5  UNL     1      44.468   4.085  22.877  1.00  0.00     0.195 HD
BRANCH  16  18
HETATM   18  O1  UNL     1      43.125   5.033  21.637  1.00  0.00    -0.288 OA
ATOM     19  H1  UNL     1      42.300   5.014  21.169  1.00  0.00     0.244 HD
ENDBRANCH  16  18
ENDBRANCH  12  14
ENDBRANCH   7   8
ENDBRANCH   6   7
BRANCH   1  20
HETATM   20  C3  UNL     1      46.224  -3.398  24.694  1.00  0.00     0.130 C 
BRANCH  20  21
HETATM   21  C2  UNL     1      47.184  -3.065  25.770  1.00  0.00     0.047 C 
BRANCH  21  22
HETATM   22  C1  UNL     1      47.815  -4.235  26.411  1.00  0.00     0.231 C 
BRANCH  22  23
HETATM   23  N1  UNL     1      48.030  -4.081  27.822  1.00  0.00    -0.079 N 
ATOM     24  H13 UNL     1      48.589  -4.853  28.185  1.00  0.00     0.274 HD
ATOM     25  H12 UNL     1      48.668  -3.307  28.005  1.00  0.00     0.274 HD
ATOM     26  H11 UNL     1      47.172  -3.974  28.363  1.00  0.00     0.274 HD
ENDBRANCH  22  23
ENDBRANCH  21  22
ENDBRANCH  20  21
ENDBRANCH   1  20
TORSDOF 8
ENDMDL
MODEL 5
REMARK VINA RESULT: -6.421705717      2.437      5.325
REMARK  8 active torsions:
REMARK  status: ('A' for Active; 'I' for Inactive)
REMARK    1  A    between atoms: N1_1  and  C1_5 
REMARK    2  A    between atoms: C1_5  and  C2_6 
REMARK    3  A    between atoms: C2_6  and  C3_7 
REMARK    4  A    between atoms: C3_7  and  N2_8 
REMARK    5  A    between atoms: C8_13  and  C9_14 
REMARK    6  A    between atoms: C9_14  and  N3_15 
REMARK    7  A    between atoms: C13_19  and  C14_20 
REMARK    8  A    between atoms: N5_22  and  O1_24 
ROOT
HETATM    1  N2  UNL     1      43.056   0.844  23.347  1.00  0.00    -0.359 N 
HETATM    2  C4  UNL     1      41.837   0.897  23.967  1.00  0.00     0.091 A 
HETATM    3  C5  UNL     1      41.207  -0.235  24.411  1.00  0.00     0.017 A 
HETATM    4  C6  UNL     1      41.811  -1.460  24.231  1.00  0.00     0.003 A 
HETATM    5  C7  UNL     1      43.051  -1.471  23.595  1.00  0.00     0.027 A 
HETATM    6  C8  UNL     1      43.693  -0.324  23.144  1.00  0.00     0.029 A 
ENDROOT
BRANCH   6   7
HETATM    7  C9  UNL     1      45.014  -0.506  22.532  1.00  0.00     0.184 C 
BRANCH   7   8
HETATM    8  N3  UNL     1      45.141  -1.426  21.457  1.00  0.00    -0.360 N 
HETATM    9  C10 UNL     1      45.994  -2.454  21.603  1.00  0.00     0.091 A 
HETATM   10  C11 UNL     1      46.151  -3.354  20.584  1.00  0.00     0.018 A 
HETATM   11  C12 UNL     1      45.465  -3.256  19.394  1.00  0.00     0.017 A 
HETATM   12  C13 UNL     1      44.594  -2.209  19.238  1.00  0.00     0.022 A 
HETATM   13  C15 UNL     1      44.472  -1.319  20.311  1.00  0.00     0.105 A 
BRANCH  12  14
HETATM   14  C14 UNL     1      43.817  -2.012  18.014  1.00  0.00     0.147 C 
HETATM   15  N4  UNL     1      43.905  -2.962  16.969  1.00  0.00    -0.080 NA
HETATM   16  N5  UNL     1      43.070  -0.977  17.920  1.00  0.00    -0.255 N 
ATOM     17  H5  UNL     1      43.042  -0.324  18.702  1.00  0.00     0.195 HD
BRANCH  16  18
HETATM   18  O1  UNL     1      42.308  -0.709  16.817  1.00  0.00    -0.288 OA
ATOM     19  H1  UNL     1      42.536  -1.008  15.946  1.00  0.00     0.244 HD
ENDBRANCH  16  18
ENDBRANCH  12  14
ENDBRANCH   7   8
ENDBRANCH   6   7
BRANCH   1  20
HETATM   20  C3  UNL     1      43.568   2.094  22.907  1.00  0.00     0.130 C 
BRANCH  20  21
HETATM   21  C2  UNL     1      42.891   2.743  21.762  1.00  0.00     0.047 C 
BRANCH  21  22
HETATM   22  C1  UNL     1      42.638   1.850  20.615  1.00  0.00     0.231 C 
BRANCH  22  23
HETATM   23  N1  UNL     1      41.279   1.394  20.520  1.00  0.00    -0.079 N 
ATOM     24  H13 UNL     1      41.022   0.859  21.349  1.00  0.00     0.274 HD
ATOM     25  H12 UNL     1      40.631   2.176  20.611  1.00  0.00     0.274 HD
ATOM     26  H11 UNL     1      41.080   0.861  19.674  1.00  0.00     0.274 HD
ENDBRANCH  22  23
ENDBRANCH  21  22
ENDBRANCH  20  21
ENDBRANCH   1  20
TORSDOF 8
ENDMDL
