MODEL 1
REMARK VINA RESULT: -6.750599368      0.000      0.000
REMARK  6 active torsions:
REMARK  status: ('A' for Active; 'I' for Inactive)
REMARK    1  A    between atoms: N1_1  and  C1_4 
REMARK    2  A    between atoms: N2_6  and  C3_7 
REMARK    3  A    between atoms: C3_7  and  C4_8 
REMARK    4  A    between atoms: C4_8  and  C5_9 
REMARK    5  A    between atoms: C5_9  and  N3_10 
REMARK    6  A    between atoms: C8_13  and  C9_14 
ROOT
HETATM    1  N3  UNL     1      43.981  -1.623  19.621  1.00  0.00    -0.366 N 
HETATM    2  C6  UNL     1      43.925  -0.289  19.568  1.00  0.00     0.091 A 
HETATM    3  C7  UNL     1      43.545   0.492  20.622  1.00  0.00     0.029 A 
HETATM    4  C8  UNL     1      43.196  -0.097  21.811  1.00  0.00    -0.021 A 
HETATM    5  C12 UNL     1      43.245  -1.471  21.894  1.00  0.00     0.029 A 
HETATM    6  C13 UNL     1      43.636  -2.209  20.798  1.00  0.00     0.091 A 
ENDROOT
BRANCH   1   7
HETATM    7  C5  UNL     1      44.387  -2.399  18.475  1.00  0.00     0.129 C 
BRANCH   7   8
HETATM    8  C4  UNL     1      43.854  -1.774  17.210  1.00  0.00     0.040 C 
BRANCH   8   9
HETATM    9  C3  UNL     1      44.797  -1.864  16.055  1.00  0.00     0.129 C 
BRANCH   9  10
HETATM   10  N2  UNL     1      45.716  -0.731  16.145  1.00  0.00    -0.361 N 
HETATM   11  C2  UNL     1      45.270   0.532  16.007  1.00  0.00     0.138 A 
HETATM   12  C1  UNL     1      46.155   1.583  16.094  1.00  0.00     0.114 A 
HETATM   13  N6  UNL     1      47.473   1.374  16.316  1.00  0.00    -0.350 N 
HETATM   14  C15 UNL     1      47.929   0.115  16.454  1.00  0.00     0.107 A 
ATOM     15  H6  UNL     1      48.116   2.163  16.377  1.00  0.00     0.166 HD
HETATM   16  C14 UNL     1      47.027  -0.922  16.364  1.00  0.00     0.107 A 
BRANCH  12  17
HETATM   17  N1  UNL     1      45.749   2.787  15.966  1.00  0.00    -0.384 N 
ATOM     18  H12 UNL     1      45.153   3.012  15.169  1.00  0.00     0.157 HD
ATOM     19  H11 UNL     1      46.016   3.499  16.645  1.00  0.00     0.157 HD
ENDBRANCH  12  17
ENDBRANCH   9  10
ENDBRANCH   8   9
ENDBRANCH   7   8
ENDBRANCH   1   7
BRANCH   4  20
HETATM   20  C9  UNL     1      42.788   0.731  22.934  1.00  0.00     0.008 A 
HETATM   21  C10 UNL     1      42.867   2.110  22.952  1.00  0.00     0.120 A 
HETATM   22  N4  UNL     1      42.402   2.516  24.156  1.00  0.00    -0.311 N 
HETATM   23  N5  UNL     1      42.043   1.504  24.888  1.00  0.00    -0.311 N 
ATOM     24  H4  UNL     1      42.342   3.491  24.451  1.00  0.00     0.186 HD
HETATM   25  C11 UNL     1      42.267   0.394  24.167  1.00  0.00     0.120 A 
ATOM     26  H5  UNL     1      41.662   1.545  25.834  1.00  0.00     0.186 HD
ENDBRANCH   4  20
TORSDOF 6
ENDMDL
MODEL 2
REMARK VINA RESULT: -6.725392872      3.604      4.886
REMARK  6 active torsions:
REMARK  status: ('A' for Active; 'I' for Inactive)
REMARK    1  A    between atoms: N1_1  and  C1_4 
REMARK    2  A    between atoms: N2_6  and  C3_7 
REMARK    3  A    between atoms: C3_7  and  C4_8 
REMARK    4  A    between atoms: C4_8  and  C5_9 
REMARK    5  A    between atoms: C5_9  and  N3_10 
REMARK    6  A    between atoms: C8_13  and  C9_14 
ROOT
HETATM    1  N3  UNL     1      46.926  -1.907  22.674  1.00  0.00    -0.366 N 
HETATM    2  C6  UNL     1      46.473  -0.880  21.948  1.00  0.00     0.091 A 
HETATM    3  C7  UNL     1      45.500  -0.023  22.379  1.00  0.00     0.029 A 
HETATM    4  C8  UNL     1      44.940  -0.202  23.617  1.00  0.00    -0.021 A 
HETATM    5  C12 UNL     1      45.389  -1.252  24.387  1.00  0.00     0.029 A 
HETATM    6  C13 UNL     1      46.373  -2.086  23.902  1.00  0.00     0.091 A 
ENDROOT
BRANCH   1   7
HETATM    7  C5  UNL     1      47.954  -2.783  22.167  1.00  0.00     0.129 C 
BRANCH   7   8
HETATM    8  C4  UNL     1      47.560  -3.316  20.812  1.00  0.00     0.040 C 
BRANCH   8   9
HETATM    9  C3  UNL     1      46.431  -4.293  20.858  1.00  0.00     0.129 C 
BRANCH   9  10
HETATM   10  N2  UNL     1      45.187  -3.539  20.723  1.00  0.00    -0.361 N 
HETATM   11  C2  UNL     1      44.213  -3.644  21.647  1.00  0.00     0.138 A 
HETATM   12  C1  UNL     1      43.049  -2.924  21.497  1.00  0.00     0.114 A 
HETATM   13  N6  UNL     1      42.860  -2.109  20.434  1.00  0.00    -0.350 N 
HETATM   14  C15 UNL     1      43.828  -1.997  19.505  1.00  0.00     0.107 A 
ATOM     15  H6  UNL     1      41.991  -1.583  20.338  1.00  0.00     0.166 HD
HETATM   16  C14 UNL     1      44.984  -2.726  19.674  1.00  0.00     0.107 A 
BRANCH  12  17
HETATM   17  N1  UNL     1      42.115  -3.011  22.363  1.00  0.00    -0.384 N 
ATOM     18  H12 UNL     1      42.248  -3.642  23.154  1.00  0.00     0.157 HD
ATOM     19  H11 UNL     1      41.261  -2.463  22.262  1.00  0.00     0.157 HD
ENDBRANCH  12  17
ENDBRANCH   9  10
ENDBRANCH   8   9
ENDBRANCH   7   8
ENDBRANCH   1   7
BRANCH   4  20
HETATM   20  C9  UNL     1      43.903   0.706  24.078  1.00  0.00     0.008 A 
HETATM   21  C10 UNL     1      42.595   0.334  24.318  1.00  0.00     0.120 A 
HETATM   22  N4  UNL     1      41.938   1.443  24.728  1.00  0.00    -0.311 N 
HETATM   23  N5  UNL     1      42.728   2.474  24.762  1.00  0.00    -0.311 N 
ATOM     24  H4  UNL     1      40.949   1.467  24.978  1.00  0.00     0.186 HD
HETATM   25  C11 UNL     1      43.941   2.056  24.369  1.00  0.00     0.120 A 
ATOM     26  H5  UNL     1      42.474   3.424  25.035  1.00  0.00     0.186 HD
ENDBRANCH   4  20
TORSDOF 6
ENDMDL
MODEL 3
REMARK VINA RESULT: -6.579107390      2.533      3.375
REMARK  6 active torsions:
REMARK  status: ('A' for Active; 'I' for Inactive)
REMARK    1  A    between atoms: N1_1  and  C1_4 
REMARK    2  A    between atoms: N2_6  and  C3_7 
REMARK    3  A    between atoms: C3_7  and  C4_8 
REMARK    4  A    between atoms: C4_8  and  C5_9 
REMARK    5  A    between atoms: C5_9  and  N3_10 
REMARK    6  A    between atoms: C8_13  and  C9_14 
ROOT
HETATM    1  N3  UNL     1      44.887  -3.467  22.087  1.00  0.00    -0.366 N 
HETATM    2  C6  UNL     1      43.605  -3.352  21.729  1.00  0.00     0.091 A 
HETATM    3  C7  UNL     1      42.723  -2.509  22.343  1.00  0.00     0.029 A 
HETATM    4  C8  UNL     1      43.148  -1.727  23.386  1.00  0.00    -0.021 A 
HETATM    5  C12 UNL     1      44.466  -1.825  23.776  1.00  0.00     0.029 A 
HETATM    6  C13 UNL     1      45.311  -2.693  23.120  1.00  0.00     0.091 A 
ENDROOT
BRANCH   1   7
HETATM    7  C5  UNL     1      45.774  -4.377  21.404  1.00  0.00     0.129 C 
BRANCH   7   8
HETATM    8  C4  UNL     1      45.817  -4.054  19.931  1.00  0.00     0.040 C 
BRANCH   8   9
HETATM    9  C3  UNL     1      46.302  -2.673  19.636  1.00  0.00     0.129 C 
BRANCH   9  10
HETATM   10  N2  UNL     1      45.233  -1.969  18.931  1.00  0.00    -0.361 N 
HETATM   11  C2  UNL     1      44.688  -0.849  19.444  1.00  0.00     0.138 A 
HETATM   12  C1  UNL     1      43.681  -0.205  18.761  1.00  0.00     0.114 A 
HETATM   13  N6  UNL     1      43.221  -0.676  17.579  1.00  0.00    -0.350 N 
HETATM   14  C15 UNL     1      43.759  -1.795  17.058  1.00  0.00     0.107 A 
ATOM     15  H6  UNL     1      42.474  -0.187  17.086  1.00  0.00     0.166 HD
HETATM   16  C14 UNL     1      44.766  -2.423  17.757  1.00  0.00     0.107 A 
BRANCH  12  17
HETATM   17  N1  UNL     1      43.153   0.858  19.232  1.00  0.00    -0.384 N 
ATOM     18  H12 UNL     1      43.486   1.203  20.133  1.00  0.00     0.157 HD
ATOM     19  H11 UNL     1      42.420   1.345  18.718  1.00  0.00     0.157 HD
ENDBRANCH  12  17
ENDBRANCH   9  10
ENDBRANCH   8   9
ENDBRANCH   7   8
ENDBRANCH   1   7
BRANCH   4  20
HETATM   20  C9  UNL     1      42.213  -0.830  24.045  1.00  0.00     0.008 A 
HETATM   21  C10 UNL     1      42.462   0.504  24.296  1.00  0.00     0.120 A 
HETATM   22  N4  UNL     1      41.368   1.000  24.919  1.00  0.00    -0.311 N 
HETATM   23  N5  UNL     1      40.460   0.084  25.076  1.00  0.00    -0.311 N 
ATOM     24  H4  UNL     1      41.269   1.968  25.226  1.00  0.00     0.186 HD
HETATM   25  C11 UNL     1      40.947  -1.051  24.551  1.00  0.00     0.120 A 
ATOM     26  H5  UNL     1      39.547   0.204  25.517  1.00  0.00     0.186 HD
ENDBRANCH   4  20
TORSDOF 6
ENDMDL
MODEL 4
REMARK VINA RESULT: -6.572620177      2.693      3.918
REMARK  6 active torsions:
REMARK  status: ('A' for Active; 'I' for Inactive)
REMARK    1  A    between atoms: N1_1  and  C1_4 
REMARK    2  A    between atoms: N2_6  and  C3_7 
REMARK    3  A    between atoms: C3_7  and  C4_8 
REMARK    4  A    between atoms: C4_8  and  C5_9 
REMARK    5  A    between atoms: C5_9  and  N3_10 
REMARK    6  A    between atoms: C8_13  and  C9_14 
ROOT
HETATM    1  N3  UNL     1      44.361  -1.811  23.441  1.00  0.00    -0.366 N 
HETATM    2  C6  UNL     1      45.282  -0.902  23.106  1.00  0.00     0.091 A 
HETATM    3  C7  UNL     1      44.983   0.397  22.804  1.00  0.00     0.029 A 
HETATM    4  C8  UNL     1      43.678   0.818  22.838  1.00  0.00    -0.021 A 
HETATM    5  C12 UNL     1      42.709  -0.099  23.180  1.00  0.00     0.029 A 
HETATM    6  C13 UNL     1      43.068  -1.397  23.475  1.00  0.00     0.091 A 
ENDROOT
BRANCH   1   7
HETATM    7  C5  UNL     1      44.734  -3.171  23.747  1.00  0.00     0.129 C 
BRANCH   7   8
HETATM    8  C4  UNL     1      45.367  -3.820  22.542  1.00  0.00     0.040 C 
BRANCH   8   9
HETATM    9  C3  UNL     1      44.439  -3.960  21.381  1.00  0.00     0.129 C 
BRANCH   9  10
HETATM   10  N2  UNL     1      44.779  -2.919  20.414  1.00  0.00    -0.361 N 
HETATM   11  C2  UNL     1      43.837  -2.077  19.946  1.00  0.00     0.138 A 
HETATM   12  C1  UNL     1      44.183  -1.104  19.035  1.00  0.00     0.114 A 
HETATM   13  N6  UNL     1      45.455  -0.974  18.595  1.00  0.00    -0.350 N 
HETATM   14  C15 UNL     1      46.403  -1.811  19.056  1.00  0.00     0.107 A 
ATOM     15  H6  UNL     1      45.694  -0.249  17.919  1.00  0.00     0.166 HD
HETATM   16  C14 UNL     1      46.037  -2.777  19.968  1.00  0.00     0.107 A 
BRANCH  12  17
HETATM   17  N1  UNL     1      43.303  -0.298  18.581  1.00  0.00    -0.384 N 
ATOM     18  H12 UNL     1      42.401  -0.252  19.055  1.00  0.00     0.157 HD
ATOM     19  H11 UNL     1      43.503   0.283  17.767  1.00  0.00     0.157 HD
ENDBRANCH  12  17
ENDBRANCH   9  10
ENDBRANCH   8   9
ENDBRANCH   7   8
ENDBRANCH   1   7
BRANCH   4  20
HETATM   20  C9  UNL     1      43.356   2.198  22.514  1.00  0.00     0.008 A 
HETATM   21  C10 UNL     1      44.241   3.251  22.637  1.00  0.00     0.120 A 
HETATM   22  N4  UNL     1      43.582   4.367  22.248  1.00  0.00    -0.311 N 
HETATM   23  N5  UNL     1      42.361   4.095  21.895  1.00  0.00    -0.311 N 
ATOM     24  H4  UNL     1      43.991   5.301  22.234  1.00  0.00     0.186 HD
HETATM   25  C11 UNL     1      42.191   2.772  22.047  1.00  0.00     0.120 A 
ATOM     26  H5  UNL     1      41.663   4.762  21.565  1.00  0.00     0.186 HD
ENDBRANCH   4  20
TORSDOF 6
ENDMDL
MODEL 5
REMARK VINA RESULT: -6.428979107      1.341      2.079
REMARK  6 active torsions:
REMARK  status: ('A' for Active; 'I' for Inactive)
REMARK    1  A    between atoms: N1_1  and  C1_4 
REMARK    2  A    between atoms: N2_6  and  C3_7 
REMARK    3  A    between atoms: C3_7  and  C4_8 
REMARK    4  A    between atoms: C4_8  and  C5_9 
REMARK    5  A    between atoms: C5_9  and  N3_10 
REMARK    6  A    between atoms: C8_13  and  C9_14 
ROOT
HETATM    1  N3  UNL     1      44.558  -0.990  19.090  1.00  0.00    -0.366 N 
HETATM    2  C6  UNL     1      44.931  -1.062  20.372  1.00  0.00     0.091 A 
HETATM    3  C7  UNL     1      44.429  -0.250  21.349  1.00  0.00     0.029 A 
HETATM    4  C8  UNL     1      43.492   0.697  21.028  1.00  0.00    -0.021 A 
HETATM    5  C12 UNL     1      43.089   0.793  19.714  1.00  0.00     0.029 A 
HETATM    6  C13 UNL     1      43.630  -0.052  18.769  1.00  0.00     0.091 A 
ENDROOT
BRANCH   1   7
HETATM    7  C5  UNL     1      45.125  -1.871  18.098  1.00  0.00     0.129 C 
BRANCH   7   8
HETATM    8  C4  UNL     1      44.758  -1.399  16.714  1.00  0.00     0.040 C 
BRANCH   8   9
HETATM    9  C3  UNL     1      45.930  -0.955  15.902  1.00  0.00     0.129 C 
BRANCH   9  10
HETATM   10  N2  UNL     1      45.583   0.323  15.285  1.00  0.00    -0.361 N 
HETATM   11  C2  UNL     1      45.713   1.477  15.966  1.00  0.00     0.138 A 
HETATM   12  C1  UNL     1      45.378   2.668  15.362  1.00  0.00     0.114 A 
HETATM   13  N6  UNL     1      44.916   2.706  14.091  1.00  0.00    -0.350 N 
HETATM   14  C15 UNL     1      44.782   1.557  13.402  1.00  0.00     0.107 A 
ATOM     15  H6  UNL     1      44.672   3.596  13.659  1.00  0.00     0.166 HD
HETATM   16  C14 UNL     1      45.123   0.377  14.024  1.00  0.00     0.107 A 
BRANCH  12  17
HETATM   17  N1  UNL     1      45.495   3.772  15.993  1.00  0.00    -0.384 N 
ATOM     18  H12 UNL     1      45.710   3.737  16.990  1.00  0.00     0.157 HD
ATOM     19  H11 UNL     1      45.378   4.661  15.509  1.00  0.00     0.157 HD
ENDBRANCH  12  17
ENDBRANCH   9  10
ENDBRANCH   8   9
ENDBRANCH   7   8
ENDBRANCH   1   7
BRANCH   4  20
HETATM   20  C9  UNL     1      42.958   1.565  22.065  1.00  0.00     0.008 A 
HETATM   21  C10 UNL     1      42.267   2.735  21.818  1.00  0.00     0.120 A 
HETATM   22  N4  UNL     1      41.936   3.259  23.021  1.00  0.00    -0.311 N 
HETATM   23  N5  UNL     1      42.366   2.512  23.995  1.00  0.00    -0.311 N 
ATOM     24  H4  UNL     1      41.417   4.128  23.148  1.00  0.00     0.186 HD
HETATM   25  C11 UNL     1      42.997   1.465  23.441  1.00  0.00     0.120 A 
ATOM     26  H5  UNL     1      42.246   2.689  24.993  1.00  0.00     0.186 HD
ENDBRANCH   4  20
TORSDOF 6
ENDMDL
