MODEL 1
REMARK VINA RESULT: -5.715634562      0.000      0.000
REMARK  4 active torsions:
REMARK  status: ('A' for Active; 'I' for Inactive)
REMARK    1  A    between atoms: S1_3  and  C2_4 
REMARK    2  A    between atoms: C2_4  and  C3_5 
REMARK    3  A    between atoms: N2_6  and  N3_8 
REMARK       I    between atoms: N3_8  and  C4_10 
REMARK       I    between atoms: C4_10  and  N4_12 
REMARK    4  A    between atoms: N4_12  and  N5_14 
ROOT
HETATM    1  N1  UNL     1      -7.524   5.956   7.727  1.00  0.00    -0.184 NA
HETATM    2  C1  UNL     1      -6.752   6.553   8.374  1.00  0.00     0.133 C 
HETATM    3  S1  UNL     1      -5.621   7.463   9.357  1.00  0.00    -0.046 SA
ENDROOT
BRANCH   3   4
HETATM    4  C2  UNL     1      -5.354   6.695  10.967  1.00  0.00     0.136 C 
BRANCH   4   5
HETATM    5  C3  UNL     1      -6.504   7.001  11.845  1.00  0.00     0.091 C 
HETATM    6  N2  UNL     1      -7.033   6.205  12.696  1.00  0.00    -0.311 N 
ATOM      7  H2  UNL     1      -7.824   6.554  13.236  1.00  0.00     0.185 HD
BRANCH   6   8
HETATM    8  N3  UNL     1      -6.616   4.906  12.941  1.00  0.00    -0.251 N 
HETATM    9  C4  UNL     1      -6.226   4.505  14.270  1.00  0.00     0.349 C 
HETATM   10  O1  UNL     1      -6.270   5.342  15.187  1.00  0.00    -0.244 OA
HETATM   11  N4  UNL     1      -5.807   3.150  14.436  1.00  0.00    -0.270 N 
ATOM     12  H4  UNL     1      -5.802   2.516  13.637  1.00  0.00     0.185 HD
ATOM     13  H3  UNL     1      -6.586   4.230  12.178  1.00  0.00     0.191 HD
BRANCH  11  14
HETATM   14  N5  UNL     1      -5.408   2.700  15.680  1.00  0.00    -0.223 NA
HETATM   15  C5  UNL     1      -6.368   1.951  16.419  1.00  0.00     0.140 C 
HETATM   16  C6  UNL     1      -5.711   0.920  17.326  1.00  0.00     0.183 C 
HETATM   17  O2  UNL     1      -4.963   0.006  16.608  1.00  0.00    -0.389 OA
HETATM   18  C7  UNL     1      -4.571   0.489  15.362  1.00  0.00     0.183 C 
HETATM   19  C8  UNL     1      -4.183   1.936  15.545  1.00  0.00     0.140 C 
ENDBRANCH  11  14
ENDBRANCH   6   8
ENDBRANCH   4   5
ENDBRANCH   3   4
TORSDOF 4
ENDMDL
MODEL 2
REMARK VINA RESULT: -5.697352578      3.832      6.464
REMARK  4 active torsions:
REMARK  status: ('A' for Active; 'I' for Inactive)
REMARK    1  A    between atoms: S1_3  and  C2_4 
REMARK    2  A    between atoms: C2_4  and  C3_5 
REMARK    3  A    between atoms: N2_6  and  N3_8 
REMARK       I    between atoms: N3_8  and  C4_10 
REMARK       I    between atoms: C4_10  and  N4_12 
REMARK    4  A    between atoms: N4_12  and  N5_14 
ROOT
HETATM    1  N1  UNL     1      -6.332   4.109  14.045  1.00  0.00    -0.184 NA
HETATM    2  C1  UNL     1      -6.486   3.676  15.121  1.00  0.00     0.133 C 
HETATM    3  S1  UNL     1      -6.749   3.030  16.730  1.00  0.00    -0.046 SA
ENDROOT
BRANCH   3   4
HETATM    4  C2  UNL     1      -7.031   1.249  16.706  1.00  0.00     0.136 C 
BRANCH   4   5
HETATM    5  C3  UNL     1      -5.821   0.561  17.207  1.00  0.00     0.091 C 
HETATM    6  N2  UNL     1      -4.820   0.192  16.501  1.00  0.00    -0.311 N 
ATOM      7  H2  UNL     1      -4.051  -0.272  16.984  1.00  0.00     0.185 HD
BRANCH   6   8
HETATM    8  N3  UNL     1      -4.698   0.371  15.132  1.00  0.00    -0.251 N 
HETATM    9  C4  UNL     1      -3.787   1.357  14.605  1.00  0.00     0.349 C 
HETATM   10  O1  UNL     1      -3.117   2.040  15.397  1.00  0.00    -0.244 OA
HETATM   11  N4  UNL     1      -3.725   1.479  13.184  1.00  0.00    -0.270 N 
ATOM     12  H4  UNL     1      -4.301   0.880  12.594  1.00  0.00     0.185 HD
ATOM     13  H3  UNL     1      -5.255  -0.198  14.494  1.00  0.00     0.191 HD
BRANCH  11  14
HETATM   14  N5  UNL     1      -2.882   2.412  12.610  1.00  0.00    -0.223 NA
HETATM   15  C5  UNL     1      -2.117   1.970  11.493  1.00  0.00     0.140 C 
HETATM   16  C6  UNL     1      -1.835   3.100  10.513  1.00  0.00     0.183 C 
HETATM   17  O2  UNL     1      -2.999   3.642  10.003  1.00  0.00    -0.389 OA
HETATM   18  C7  UNL     1      -4.103   3.415  10.823  1.00  0.00     0.183 C 
HETATM   19  C8  UNL     1      -3.645   3.592  12.250  1.00  0.00     0.140 C 
ENDBRANCH  11  14
ENDBRANCH   6   8
ENDBRANCH   4   5
ENDBRANCH   3   4
TORSDOF 4
ENDMDL
MODEL 3
REMARK VINA RESULT: -5.680700457      3.906      6.318
REMARK  4 active torsions:
REMARK  status: ('A' for Active; 'I' for Inactive)
REMARK    1  A    between atoms: S1_3  and  C2_4 
REMARK    2  A    between atoms: C2_4  and  C3_5 
REMARK    3  A    between atoms: N2_6  and  N3_8 
REMARK       I    between atoms: N3_8  and  C4_10 
REMARK       I    between atoms: C4_10  and  N4_12 
REMARK    4  A    between atoms: N4_12  and  N5_14 
ROOT
HETATM    1  N1  UNL     1      -6.143   3.963  13.989  1.00  0.00    -0.184 NA
HETATM    2  C1  UNL     1      -6.389   3.589  15.070  1.00  0.00     0.133 C 
HETATM    3  S1  UNL     1      -6.790   3.035  16.685  1.00  0.00    -0.046 SA
ENDROOT
BRANCH   3   4
HETATM    4  C2  UNL     1      -7.253   1.292  16.707  1.00  0.00     0.136 C 
BRANCH   4   5
HETATM    5  C3  UNL     1      -6.192   0.518  17.387  1.00  0.00     0.091 C 
HETATM    6  N2  UNL     1      -4.943   0.554  17.112  1.00  0.00    -0.311 N 
ATOM      7  H2  UNL     1      -4.323  -0.035  17.668  1.00  0.00     0.185 HD
BRANCH   6   8
HETATM    8  N3  UNL     1      -4.364   1.328  16.119  1.00  0.00    -0.251 N 
HETATM    9  C4  UNL     1      -4.207   0.804  14.785  1.00  0.00     0.349 C 
HETATM   10  O1  UNL     1      -4.598  -0.350  14.543  1.00  0.00    -0.244 OA
HETATM   11  N4  UNL     1      -3.599   1.667  13.823  1.00  0.00    -0.270 N 
ATOM     12  H4  UNL     1      -3.308   2.607  14.091  1.00  0.00     0.185 HD
ATOM     13  H3  UNL     1      -4.048   2.275  16.333  1.00  0.00     0.191 HD
BRANCH  11  14
HETATM   14  N5  UNL     1      -3.406   1.226  12.528  1.00  0.00    -0.223 NA
HETATM   15  C5  UNL     1      -4.551   0.699  11.863  1.00  0.00     0.140 C 
HETATM   16  C6  UNL     1      -4.494   0.934  10.360  1.00  0.00     0.183 C 
HETATM   17  O2  UNL     1      -4.442   2.280  10.050  1.00  0.00    -0.389 OA
HETATM   18  C7  UNL     1      -3.960   3.056  11.102  1.00  0.00     0.183 C 
HETATM   19  C8  UNL     1      -2.823   2.293  11.738  1.00  0.00     0.140 C 
ENDBRANCH  11  14
ENDBRANCH   6   8
ENDBRANCH   4   5
ENDBRANCH   3   4
TORSDOF 4
ENDMDL
MODEL 4
REMARK VINA RESULT: -5.677051744      2.019      2.390
REMARK  4 active torsions:
REMARK  status: ('A' for Active; 'I' for Inactive)
REMARK    1  A    between atoms: S1_3  and  C2_4 
REMARK    2  A    between atoms: C2_4  and  C3_5 
REMARK    3  A    between atoms: N2_6  and  N3_8 
REMARK       I    between atoms: N3_8  and  C4_10 
REMARK       I    between atoms: C4_10  and  N4_12 
REMARK    4  A    between atoms: N4_12  and  N5_14 
ROOT
HETATM    1  N1  UNL     1      -4.534   3.407   9.963  1.00  0.00    -0.184 NA
HETATM    2  C1  UNL     1      -3.954   4.328  10.394  1.00  0.00     0.133 C 
HETATM    3  S1  UNL     1      -3.099   5.728  11.015  1.00  0.00    -0.046 SA
ENDROOT
BRANCH   3   4
HETATM    4  C2  UNL     1      -4.081   6.637  12.226  1.00  0.00     0.136 C 
BRANCH   4   5
HETATM    5  C3  UNL     1      -5.500   6.615  11.811  1.00  0.00     0.091 C 
HETATM    6  N2  UNL     1      -6.473   6.129  12.485  1.00  0.00    -0.311 N 
ATOM      7  H2  UNL     1      -7.404   6.186  12.073  1.00  0.00     0.185 HD
BRANCH   6   8
HETATM    8  N3  UNL     1      -6.362   5.532  13.731  1.00  0.00    -0.251 N 
HETATM    9  C4  UNL     1      -6.311   4.096  13.849  1.00  0.00     0.349 C 
HETATM   10  O1  UNL     1      -6.367   3.406  12.817  1.00  0.00    -0.244 OA
HETATM   11  N4  UNL     1      -6.199   3.563  15.169  1.00  0.00    -0.270 N 
ATOM     12  H4  UNL     1      -6.152   4.190  15.971  1.00  0.00     0.185 HD
ATOM     13  H3  UNL     1      -6.317   6.112  14.569  1.00  0.00     0.191 HD
BRANCH  11  14
HETATM   14  N5  UNL     1      -6.157   2.195  15.357  1.00  0.00    -0.223 NA
HETATM   15  C5  UNL     1      -4.862   1.604  15.409  1.00  0.00     0.140 C 
HETATM   16  C6  UNL     1      -4.832   0.372  16.303  1.00  0.00     0.183 C 
HETATM   17  O2  UNL     1      -5.180   0.675  17.606  1.00  0.00    -0.389 OA
HETATM   18  C7  UNL     1      -5.933   1.843  17.706  1.00  0.00     0.183 C 
HETATM   19  C8  UNL     1      -6.905   1.849  16.551  1.00  0.00     0.140 C 
ENDBRANCH  11  14
ENDBRANCH   6   8
ENDBRANCH   4   5
ENDBRANCH   3   4
TORSDOF 4
ENDMDL
MODEL 5
REMARK VINA RESULT: -5.598099267      4.288      6.464
REMARK  4 active torsions:
REMARK  status: ('A' for Active; 'I' for Inactive)
REMARK    1  A    between atoms: S1_3  and  C2_4 
REMARK    2  A    between atoms: C2_4  and  C3_5 
REMARK    3  A    between atoms: N2_6  and  N3_8 
REMARK       I    between atoms: N3_8  and  C4_10 
REMARK       I    between atoms: C4_10  and  N4_12 
REMARK    4  A    between atoms: N4_12  and  N5_14 
ROOT
HETATM    1  N1  UNL     1      -4.407  -0.418  15.083  1.00  0.00    -0.184 NA
HETATM    2  C1  UNL     1      -4.908   0.183  15.954  1.00  0.00     0.133 C 
HETATM    3  S1  UNL     1      -5.642   1.111  17.248  1.00  0.00    -0.046 SA
ENDROOT
BRANCH   3   4
HETATM    4  C2  UNL     1      -7.146   1.950  16.711  1.00  0.00     0.136 C 
BRANCH   4   5
HETATM    5  C3  UNL     1      -6.861   3.391  16.541  1.00  0.00     0.091 C 
HETATM    6  N2  UNL     1      -6.356   3.940  15.501  1.00  0.00    -0.311 N 
ATOM      7  H2  UNL     1      -6.217   4.950  15.525  1.00  0.00     0.185 HD
BRANCH   6   8
HETATM    8  N3  UNL     1      -5.985   3.271  14.344  1.00  0.00    -0.251 N 
HETATM    9  C4  UNL     1      -4.595   3.003  14.072  1.00  0.00     0.349 C 
HETATM   10  O1  UNL     1      -3.739   3.380  14.890  1.00  0.00    -0.244 OA
HETATM   11  N4  UNL     1      -4.300   2.313  12.858  1.00  0.00    -0.270 N 
ATOM     12  H4  UNL     1      -5.056   2.027  12.235  1.00  0.00     0.185 HD
ATOM     13  H3  UNL     1      -6.700   2.968  13.683  1.00  0.00     0.191 HD
BRANCH  11  14
HETATM   14  N5  UNL     1      -2.988   2.033  12.527  1.00  0.00    -0.223 NA
HETATM   15  C5  UNL     1      -2.783   0.980  11.590  1.00  0.00     0.140 C 
HETATM   16  C6  UNL     1      -1.535   1.202  10.747  1.00  0.00     0.183 C 
HETATM   17  O2  UNL     1      -1.609   2.373  10.016  1.00  0.00    -0.389 OA
HETATM   18  C7  UNL     1      -2.504   3.292  10.559  1.00  0.00     0.183 C 
HETATM   19  C8  UNL     1      -2.341   3.244  12.059  1.00  0.00     0.140 C 
ENDBRANCH  11  14
ENDBRANCH   6   8
ENDBRANCH   4   5
ENDBRANCH   3   4
TORSDOF 4
ENDMDL
