MODEL 1
REMARK VINA RESULT: -7.889350332      0.000      0.000
REMARK  5 active torsions:
REMARK  status: ('A' for Active; 'I' for Inactive)
REMARK    1  A    between atoms: C3_4  and  C4_5 
REMARK    2  A    between atoms: C4_5  and  C5_6 
REMARK    3  A    between atoms: C7_11  and  C8_12 
REMARK    4  A    between atoms: C14_21  and  O1_22 
REMARK    5  A    between atoms: O1_22  and  C15_23 
ROOT
HETATM    1  F1  UNL     1      90.138  95.813 -46.792  1.00  0.00    -0.203 F 
HETATM    2  C1  UNL     1      90.725  94.893 -45.951  1.00  0.00     0.150 A 
HETATM    3  C2  UNL     1      90.726  93.564 -46.269  1.00  0.00     0.053 A 
HETATM    4  C3  UNL     1      91.318  92.608 -45.424  1.00  0.00    -0.046 A 
HETATM    5  C7  UNL     1      91.914  92.967 -44.246  1.00  0.00    -0.045 A 
HETATM    6  C13 UNL     1      91.894  94.311 -43.966  1.00  0.00     0.048 A 
HETATM    7  C14 UNL     1      91.316  95.301 -44.781  1.00  0.00     0.108 A 
ENDROOT
BRANCH   7   8
HETATM    8  O1  UNL     1      91.376  96.536 -44.385  1.00  0.00    -0.341 OA
BRANCH   8   9
HETATM    9  C15 UNL     1      91.385  97.773 -44.026  1.00  0.00     0.155 C 
HETATM   10  C16 UNL     1      91.725  98.848 -45.025  1.00  0.00     0.201 C 
HETATM   11  O2  UNL     1      90.548  99.508 -45.334  1.00  0.00    -0.377 OA
HETATM   12  C17 UNL     1      89.778  99.498 -44.176  1.00  0.00     0.067 C 
HETATM   13  C18 UNL     1      88.328  99.600 -44.592  1.00  0.00     0.064 C 
HETATM   14  C21 UNL     1      90.149 100.700 -43.337  1.00  0.00     0.064 C 
HETATM   15  C22 UNL     1      90.005  98.196 -43.501  1.00  0.00     0.073 C 
HETATM   16  C19 UNL     1      87.441 100.083 -43.470  1.00  0.00     0.170 C 
HETATM   17  O3  UNL     1      88.099 100.060 -42.244  1.00  0.00    -0.391 OA
HETATM   18  C20 UNL     1      89.095 101.064 -42.344  1.00  0.00     0.170 C 
ENDBRANCH   8   9
ENDBRANCH   7   8
BRANCH   5  19
HETATM   19  C8  UNL     1      92.505  91.982 -43.304  1.00  0.00     0.022 C 
HETATM   20  C9  UNL     1      92.397  92.563 -41.897  1.00  0.00     0.037 C 
HETATM   21  C10 UNL     1      93.678  93.043 -41.330  1.00  0.00     0.233 C 
HETATM   22  N2  UNL     1      94.674  91.993 -41.196  1.00  0.00    -0.075 N 
HETATM   23  C11 UNL     1      94.454  91.006 -42.224  1.00  0.00     0.233 C 
ATOM     24  H22 UNL     1      95.626  92.357 -41.204  1.00  0.00     0.277 HD
ATOM     25  H21 UNL     1      94.685  91.585 -40.262  1.00  0.00     0.277 HD
HETATM   26  C12 UNL     1      93.997  91.771 -43.482  1.00  0.00     0.037 C 
ENDBRANCH   5  19
BRANCH   4  27
HETATM   27  C4  UNL     1      91.391  91.223 -45.958  1.00  0.00     0.074 C 
BRANCH  27  28
HETATM   28  C5  UNL     1      90.664  91.091 -47.268  1.00  0.00     0.215 A 
HETATM   29  C6  UNL     1      91.204  90.515 -48.478  1.00  0.00     0.266 A 
HETATM   30  N1  UNL     1      90.258  89.754 -47.606  1.00  0.00    -0.067 N 
ATOM     31  H12 UNL     1      90.268  88.849 -47.137  1.00  0.00     0.277 HD
ATOM     32  H11 UNL     1      89.368  89.275 -47.742  1.00  0.00     0.277 HD
ENDBRANCH  27  28
ENDBRANCH   4  27
TORSDOF 5
ENDMDL
MODEL 2
REMARK VINA RESULT: -7.762755116      1.449      2.034
REMARK  5 active torsions:
REMARK  status: ('A' for Active; 'I' for Inactive)
REMARK    1  A    between atoms: C3_4  and  C4_5 
REMARK    2  A    between atoms: C4_5  and  C5_6 
REMARK    3  A    between atoms: C7_11  and  C8_12 
REMARK    4  A    between atoms: C14_21  and  O1_22 
REMARK    5  A    between atoms: O1_22  and  C15_23 
ROOT
HETATM    1  F1  UNL     1      90.028  95.480 -46.850  1.00  0.00    -0.203 F 
HETATM    2  C1  UNL     1      90.691  94.633 -45.988  1.00  0.00     0.150 A 
HETATM    3  C2  UNL     1      90.949  93.340 -46.348  1.00  0.00     0.053 A 
HETATM    4  C3  UNL     1      91.623  92.459 -45.482  1.00  0.00    -0.046 A 
HETATM    5  C7  UNL     1      92.042  92.857 -44.242  1.00  0.00    -0.045 A 
HETATM    6  C13 UNL     1      91.765  94.163 -43.922  1.00  0.00     0.048 A 
HETATM    7  C14 UNL     1      91.097  95.079 -44.755  1.00  0.00     0.108 A 
ENDROOT
BRANCH   7   8
HETATM    8  O1  UNL     1      90.908  96.286 -44.315  1.00  0.00    -0.341 OA
BRANCH   8   9
HETATM    9  C15 UNL     1      90.660  97.477 -43.892  1.00  0.00     0.155 C 
HETATM   10  C16 UNL     1      91.339  97.997 -42.653  1.00  0.00     0.201 C 
HETATM   11  O2  UNL     1      92.285  98.921 -43.059  1.00  0.00    -0.377 OA
HETATM   12  C17 UNL     1      91.763  99.545 -44.187  1.00  0.00     0.067 C 
HETATM   13  C18 UNL     1      92.928 100.048 -45.010  1.00  0.00     0.064 C 
HETATM   14  C21 UNL     1      90.914 100.715 -43.745  1.00  0.00     0.064 C 
HETATM   15  C22 UNL     1      91.023  98.518 -44.962  1.00  0.00     0.073 C 
HETATM   16  C19 UNL     1      92.523 101.139 -45.974  1.00  0.00     0.170 C 
HETATM   17  O3  UNL     1      91.139 101.241 -46.086  1.00  0.00    -0.391 OA
HETATM   18  C20 UNL     1      90.704 101.724 -44.826  1.00  0.00     0.170 C 
ENDBRANCH   8   9
ENDBRANCH   7   8
BRANCH   5  19
HETATM   19  C8  UNL     1      92.711  91.942 -43.281  1.00  0.00     0.022 C 
HETATM   20  C9  UNL     1      92.481  92.495 -41.877  1.00  0.00     0.037 C 
HETATM   21  C10 UNL     1      93.673  93.121 -41.260  1.00  0.00     0.233 C 
HETATM   22  N2  UNL     1      94.781  92.196 -41.092  1.00  0.00    -0.075 N 
HETATM   23  C11 UNL     1      94.720  91.198 -42.130  1.00  0.00     0.233 C 
ATOM     24  H22 UNL     1      95.683  92.672 -41.062  1.00  0.00     0.277 HD
ATOM     25  H21 UNL     1      94.806  91.785 -40.159  1.00  0.00     0.277 HD
HETATM   26  C12 UNL     1      94.223  91.913 -43.402  1.00  0.00     0.037 C 
ENDBRANCH   5  19
BRANCH   4  27
HETATM   27  C4  UNL     1      91.981  91.134 -46.051  1.00  0.00     0.074 C 
BRANCH  27  28
HETATM   28  C5  UNL     1      91.363  90.924 -47.406  1.00  0.00     0.215 A 
HETATM   29  C6  UNL     1      91.768  89.930 -48.373  1.00  0.00     0.266 A 
HETATM   30  N1  UNL     1      90.550  89.744 -47.527  1.00  0.00    -0.067 N 
ATOM     31  H12 UNL     1      90.210  89.025 -46.889  1.00  0.00     0.277 HD
ATOM     32  H11 UNL     1      89.564  89.553 -47.703  1.00  0.00     0.277 HD
ENDBRANCH  27  28
ENDBRANCH   4  27
TORSDOF 5
ENDMDL
MODEL 3
REMARK VINA RESULT: -7.620122864      1.374      2.019
REMARK  5 active torsions:
REMARK  status: ('A' for Active; 'I' for Inactive)
REMARK    1  A    between atoms: C3_4  and  C4_5 
REMARK    2  A    between atoms: C4_5  and  C5_6 
REMARK    3  A    between atoms: C7_11  and  C8_12 
REMARK    4  A    between atoms: C14_21  and  O1_22 
REMARK    5  A    between atoms: O1_22  and  C15_23 
ROOT
HETATM    1  F1  UNL     1      89.538  95.259 -47.930  1.00  0.00    -0.203 F 
HETATM    2  C1  UNL     1      90.136  94.624 -46.862  1.00  0.00     0.150 A 
HETATM    3  C2  UNL     1      90.412  93.287 -46.917  1.00  0.00     0.053 A 
HETATM    4  C3  UNL     1      91.021  92.620 -45.838  1.00  0.00    -0.046 A 
HETATM    5  C7  UNL     1      91.358  93.280 -44.688  1.00  0.00    -0.045 A 
HETATM    6  C13 UNL     1      91.066  94.622 -44.676  1.00  0.00     0.048 A 
HETATM    7  C14 UNL     1      90.461  95.329 -45.730  1.00  0.00     0.108 A 
ENDROOT
BRANCH   7   8
HETATM    8  O1  UNL     1      90.248  96.601 -45.575  1.00  0.00    -0.341 OA
BRANCH   8   9
HETATM    9  C15 UNL     1      90.001  97.861 -45.472  1.00  0.00     0.155 C 
HETATM   10  C16 UNL     1      88.741  98.332 -44.797  1.00  0.00     0.201 C 
HETATM   11  O2  UNL     1      89.102  98.854 -43.567  1.00  0.00    -0.377 OA
HETATM   12  C17 UNL     1      90.357  99.428 -43.740  1.00  0.00     0.067 C 
HETATM   13  C18 UNL     1      91.049  99.424 -42.396  1.00  0.00     0.064 C 
HETATM   14  C21 UNL     1      90.177 100.853 -44.211  1.00  0.00     0.064 C 
HETATM   15  C22 UNL     1      91.114  98.568 -44.684  1.00  0.00     0.073 C 
HETATM   16  C19 UNL     1      92.177 100.427 -42.326  1.00  0.00     0.170 C 
HETATM   17  O3  UNL     1      92.503 100.925 -43.584  1.00  0.00    -0.391 OA
HETATM   18  C20 UNL     1      91.382 101.702 -43.972  1.00  0.00     0.170 C 
ENDBRANCH   8   9
ENDBRANCH   7   8
BRANCH   5  19
HETATM   19  C8  UNL     1      91.956  92.601 -43.509  1.00  0.00     0.022 C 
HETATM   20  C9  UNL     1      91.354  93.230 -42.256  1.00  0.00     0.037 C 
HETATM   21  C10 UNL     1      92.274  94.123 -41.514  1.00  0.00     0.233 C 
HETATM   22  N2  UNL     1      93.460  93.441 -41.025  1.00  0.00    -0.075 N 
HETATM   23  C11 UNL     1      93.779  92.357 -41.919  1.00  0.00     0.233 C 
ATOM     24  H22 UNL     1      94.246  94.078 -40.889  1.00  0.00     0.277 HD
ATOM     25  H21 UNL     1      93.359  93.131 -40.058  1.00  0.00     0.277 HD
HETATM   26  C12 UNL     1      93.444  92.843 -43.343  1.00  0.00     0.037 C 
ENDBRANCH   5  19
BRANCH   4  27
HETATM   27  C4  UNL     1      91.410  91.207 -46.082  1.00  0.00     0.074 C 
BRANCH  27  28
HETATM   28  C5  UNL     1      91.180  90.805 -47.513  1.00  0.00     0.215 A 
HETATM   29  C6  UNL     1      91.717  89.627 -48.155  1.00  0.00     0.266 A 
HETATM   30  N1  UNL     1      90.296  89.684 -47.695  1.00  0.00    -0.067 N 
ATOM     31  H12 UNL     1      89.704  89.118 -47.089  1.00  0.00     0.277 HD
ATOM     32  H11 UNL     1      89.384  89.539 -48.128  1.00  0.00     0.277 HD
ENDBRANCH  27  28
ENDBRANCH   4  27
TORSDOF 5
ENDMDL
MODEL 4
REMARK VINA RESULT: -7.322830707      1.934      4.427
REMARK  5 active torsions:
REMARK  status: ('A' for Active; 'I' for Inactive)
REMARK    1  A    between atoms: C3_4  and  C4_5 
REMARK    2  A    between atoms: C4_5  and  C5_6 
REMARK    3  A    between atoms: C7_11  and  C8_12 
REMARK    4  A    between atoms: C14_21  and  O1_22 
REMARK    5  A    between atoms: O1_22  and  C15_23 
ROOT
HETATM    1  F1  UNL     1      91.717  95.996 -40.942  1.00  0.00    -0.203 F 
HETATM    2  C1  UNL     1      91.789  95.140 -42.020  1.00  0.00     0.150 A 
HETATM    3  C2  UNL     1      92.197  93.847 -41.853  1.00  0.00     0.053 A 
HETATM    4  C3  UNL     1      92.279  92.958 -42.940  1.00  0.00    -0.046 A 
HETATM    5  C7  UNL     1      91.961  93.352 -44.211  1.00  0.00    -0.045 A 
HETATM    6  C13 UNL     1      91.554  94.657 -44.334  1.00  0.00     0.048 A 
HETATM    7  C14 UNL     1      91.455  95.579 -43.277  1.00  0.00     0.108 A 
ENDROOT
BRANCH   7   8
HETATM    8  O1  UNL     1      91.051  96.784 -43.547  1.00  0.00    -0.341 OA
BRANCH   8   9
HETATM    9  C15 UNL     1      90.701  97.986 -43.850  1.00  0.00     0.155 C 
HETATM   10  C16 UNL     1      89.446  98.578 -43.267  1.00  0.00     0.201 C 
HETATM   11  O2  UNL     1      89.832  99.508 -42.317  1.00  0.00    -0.377 OA
HETATM   12  C17 UNL     1      91.019 100.067 -42.777  1.00  0.00     0.067 C 
HETATM   13  C18 UNL     1      91.787 100.562 -41.572  1.00  0.00     0.064 C 
HETATM   14  C21 UNL     1      90.688 101.232 -43.680  1.00  0.00     0.064 C 
HETATM   15  C22 UNL     1      91.792  98.987 -43.441  1.00  0.00     0.073 C 
HETATM   16  C19 UNL     1      92.824 101.598 -41.937  1.00  0.00     0.170 C 
HETATM   17  O3  UNL     1      93.031 101.659 -43.312  1.00  0.00    -0.391 OA
HETATM   18  C20 UNL     1      91.826 102.186 -43.842  1.00  0.00     0.170 C 
ENDBRANCH   8   9
ENDBRANCH   7   8
BRANCH   5  19
HETATM   19  C8  UNL     1      92.084  92.457 -45.391  1.00  0.00     0.022 C 
HETATM   20  C9  UNL     1      91.657  93.252 -46.622  1.00  0.00     0.037 C 
HETATM   21  C10 UNL     1      90.333  92.875 -47.168  1.00  0.00     0.233 C 
HETATM   22  N2  UNL     1      90.268  91.492 -47.608  1.00  0.00    -0.075 N 
HETATM   23  C11 UNL     1      91.173  90.704 -46.810  1.00  0.00     0.233 C 
ATOM     24  H22 UNL     1      89.317  91.124 -47.595  1.00  0.00     0.277 HD
ATOM     25  H21 UNL     1      90.446  91.394 -48.608  1.00  0.00     0.277 HD
HETATM   26  C12 UNL     1      91.123  91.283 -45.382  1.00  0.00     0.037 C 
ENDBRANCH   5  19
BRANCH   4  27
HETATM   27  C4  UNL     1      92.582  91.542 -42.603  1.00  0.00     0.074 C 
BRANCH  27  28
HETATM   28  C5  UNL     1      94.062  91.275 -42.599  1.00  0.00     0.215 A 
HETATM   29  C6  UNL     1      94.989  91.676 -41.565  1.00  0.00     0.266 A 
HETATM   30  N1  UNL     1      94.496  90.269 -41.666  1.00  0.00    -0.067 N 
ATOM     31  H12 UNL     1      94.035  89.612 -41.038  1.00  0.00     0.277 HD
ATOM     32  H11 UNL     1      94.929  89.348 -41.737  1.00  0.00     0.277 HD
ENDBRANCH  27  28
ENDBRANCH   4  27
TORSDOF 5
ENDMDL
MODEL 5
REMARK VINA RESULT: -7.311525975      1.208      1.322
REMARK  5 active torsions:
REMARK  status: ('A' for Active; 'I' for Inactive)
REMARK    1  A    between atoms: C3_4  and  C4_5 
REMARK    2  A    between atoms: C4_5  and  C5_6 
REMARK    3  A    between atoms: C7_11  and  C8_12 
REMARK    4  A    between atoms: C14_21  and  O1_22 
REMARK    5  A    between atoms: O1_22  and  C15_23 
ROOT
HETATM    1  F1  UNL     1      89.724  95.710 -47.510  1.00  0.00    -0.203 F 
HETATM    2  C1  UNL     1      90.301  95.000 -46.479  1.00  0.00     0.150 A 
HETATM    3  C2  UNL     1      90.525  93.657 -46.602  1.00  0.00     0.053 A 
HETATM    4  C3  UNL     1      91.112  92.914 -45.562  1.00  0.00    -0.046 A 
HETATM    5  C7  UNL     1      91.478  93.502 -44.382  1.00  0.00    -0.045 A 
HETATM    6  C13 UNL     1      91.238  94.851 -44.301  1.00  0.00     0.048 A 
HETATM    7  C14 UNL     1      90.657  95.634 -45.315  1.00  0.00     0.108 A 
ENDROOT
BRANCH   7   8
HETATM    8  O1  UNL     1      90.494  96.904 -45.095  1.00  0.00    -0.341 OA
BRANCH   8   9
HETATM    9  C15 UNL     1      90.286  98.162 -44.918  1.00  0.00     0.155 C 
HETATM   10  C16 UNL     1      90.454  99.125 -46.063  1.00  0.00     0.201 C 
HETATM   11  O2  UNL     1      89.187  99.523 -46.455  1.00  0.00    -0.377 OA
HETATM   12  C17 UNL     1      88.411  99.547 -45.301  1.00  0.00     0.067 C 
HETATM   13  C18 UNL     1      86.972  99.338 -45.716  1.00  0.00     0.064 C 
HETATM   14  C21 UNL     1      88.556 100.902 -44.647  1.00  0.00     0.064 C 
HETATM   15  C22 UNL     1      88.845  98.412 -44.448  1.00  0.00     0.073 C 
HETATM   16  C19 UNL     1      85.996  99.818 -44.668  1.00  0.00     0.170 C 
HETATM   17  O3  UNL     1      86.628 100.083 -43.457  1.00  0.00    -0.391 OA
HETATM   18  C20 UNL     1      87.440 101.218 -43.708  1.00  0.00     0.170 C 
ENDBRANCH   8   9
ENDBRANCH   7   8
BRANCH   5  19
HETATM   19  C8  UNL     1      92.053  92.741 -43.242  1.00  0.00     0.022 C 
HETATM   20  C9  UNL     1      91.641  93.450 -41.956  1.00  0.00     0.037 C 
HETATM   21  C10 UNL     1      92.731  94.198 -41.289  1.00  0.00     0.233 C 
HETATM   22  N2  UNL     1      93.838  93.351 -40.879  1.00  0.00    -0.075 N 
HETATM   23  C11 UNL     1      93.931  92.232 -41.783  1.00  0.00     0.233 C 
ATOM     24  H22 UNL     1      94.715  93.866 -40.805  1.00  0.00     0.277 HD
ATOM     25  H21 UNL     1      93.762  93.058 -39.905  1.00  0.00     0.277 HD
HETATM   26  C12 UNL     1      93.569  92.764 -43.184  1.00  0.00     0.037 C 
ENDBRANCH   5  19
BRANCH   4  27
HETATM   27  C4  UNL     1      91.445  91.501 -45.879  1.00  0.00     0.074 C 
BRANCH  27  28
HETATM   28  C5  UNL     1      91.049  91.137 -47.283  1.00  0.00     0.215 A 
HETATM   29  C6  UNL     1      91.655  90.101 -48.090  1.00  0.00     0.266 A 
HETATM   30  N1  UNL     1      90.340  89.892 -47.412  1.00  0.00    -0.067 N 
ATOM     31  H12 UNL     1      89.955  89.204 -46.766  1.00  0.00     0.277 HD
ATOM     32  H11 UNL     1      89.404  89.614 -47.707  1.00  0.00     0.277 HD
ENDBRANCH  27  28
ENDBRANCH   4  27
TORSDOF 5
ENDMDL
