MODEL 1
REMARK VINA RESULT: -7.060438953      0.000      0.000
REMARK  4 active torsions:
REMARK  status: ('A' for Active; 'I' for Inactive)
REMARK    1  A    between atoms: C2_3  and  C3_4 
REMARK    2  A    between atoms: C3_4  and  N2_5 
REMARK    3  A    between atoms: N2_5  and  C4_7 
REMARK       I    between atoms: N5_13  and  C6_15 
REMARK    4  A    between atoms: N8_21  and  O1_22 
ROOT
HETATM    1  N1  UNL     1      14.686  62.452  21.764  1.00  0.00    -0.197 NA
HETATM    2  C1  UNL     1      13.865  63.002  22.366  1.00  0.00     0.060 C 
HETATM    3  C2  UNL     1      12.826  63.723  23.125  1.00  0.00     0.144 C 
ENDROOT
BRANCH   3   4
HETATM    4  C3  UNL     1      13.546  64.735  23.992  1.00  0.00     0.152 C 
BRANCH   4   5
HETATM    5  N2  UNL     1      14.822  64.993  23.398  1.00  0.00    -0.222 N 
ATOM      6  H2  UNL     1      15.449  64.202  23.248  1.00  0.00     0.177 HD
BRANCH   5   7
HETATM    7  C4  UNL     1      15.228  66.167  23.042  1.00  0.00     0.718 A 
HETATM    8  N3  UNL     1      14.767  67.308  23.589  1.00  0.00    -0.129 N 
HETATM    9  N4  UNL     1      15.199  68.512  23.209  1.00  0.00    -0.270 N 
ATOM     10  H3  UNL     1      14.060  67.250  24.323  1.00  0.00     0.205 HD
HETATM   11  C5  UNL     1      16.129  68.664  22.249  1.00  0.00     0.141 A 
ATOM     12  H4  UNL     1      14.813  69.342  23.660  1.00  0.00     0.189 HD
HETATM   13  N5  UNL     1      16.572  69.811  21.854  1.00  0.00    -0.315 N 
HETATM   14  C7  UNL     1      16.613  67.504  21.679  1.00  0.00     0.192 A 
HETATM   15  C6  UNL     1      16.154  71.042  22.360  1.00  0.00     0.187 C 
ATOM     16  H5  UNL     1      17.279  69.817  21.119  1.00  0.00     0.170 HD
HETATM   17  N6  UNL     1      16.927  71.710  23.139  1.00  0.00    -0.373 N 
HETATM   18  N7  UNL     1      14.869  71.571  22.018  1.00  0.00    -0.064 NA
ATOM     19  H62 UNL     1      17.843  71.334  23.383  1.00  0.00     0.158 HD
ATOM     20  H61 UNL     1      16.622  72.610  23.508  1.00  0.00     0.158 HD
HETATM   21  N8  UNL     1      16.160  66.300  22.080  1.00  0.00    -0.059 N 
BRANCH  21  22
HETATM   22  O1  UNL     1      16.641  65.141  21.512  1.00  0.00    -0.270 OA
ATOM     23  H1  UNL     1      17.549  64.920  21.688  1.00  0.00     0.245 HD
ENDBRANCH  21  22
ENDBRANCH   5   7
ENDBRANCH   4   5
ENDBRANCH   3   4
TORSDOF 4
ENDMDL
MODEL 2
REMARK VINA RESULT: -6.943125744      1.239      1.266
REMARK  4 active torsions:
REMARK  status: ('A' for Active; 'I' for Inactive)
REMARK    1  A    between atoms: C2_3  and  C3_4 
REMARK    2  A    between atoms: C3_4  and  N2_5 
REMARK    3  A    between atoms: N2_5  and  C4_7 
REMARK       I    between atoms: N5_13  and  C6_15 
REMARK    4  A    between atoms: N8_21  and  O1_22 
ROOT
HETATM    1  N1  UNL     1      14.322  62.091  21.771  1.00  0.00    -0.197 NA
HETATM    2  C1  UNL     1      13.342  62.569  22.158  1.00  0.00     0.060 C 
HETATM    3  C2  UNL     1      12.100  63.198  22.644  1.00  0.00     0.144 C 
ENDROOT
BRANCH   3   4
HETATM    4  C3  UNL     1      12.512  64.235  23.668  1.00  0.00     0.152 C 
BRANCH   4   5
HETATM    5  N2  UNL     1      13.931  64.393  23.587  1.00  0.00    -0.222 N 
ATOM      6  H2  UNL     1      14.506  63.551  23.573  1.00  0.00     0.177 HD
BRANCH   5   7
HETATM    7  C4  UNL     1      14.528  65.538  23.529  1.00  0.00     0.718 A 
HETATM    8  N3  UNL     1      14.053  66.651  24.122  1.00  0.00    -0.129 N 
HETATM    9  N4  UNL     1      14.683  67.825  24.052  1.00  0.00    -0.270 N 
ATOM     10  H3  UNL     1      13.178  66.594  24.643  1.00  0.00     0.205 HD
HETATM   11  C5  UNL     1      15.841  67.974  23.383  1.00  0.00     0.141 A 
ATOM     12  H4  UNL     1      14.276  68.634  24.521  1.00  0.00     0.189 HD
HETATM   13  N5  UNL     1      16.480  69.091  23.293  1.00  0.00    -0.315 N 
HETATM   14  C7  UNL     1      16.342  66.842  22.771  1.00  0.00     0.192 A 
HETATM   15  C6  UNL     1      16.067  70.293  23.870  1.00  0.00     0.187 C 
ATOM     16  H5  UNL     1      17.350  69.097  22.762  1.00  0.00     0.170 HD
HETATM   17  N6  UNL     1      16.672  70.746  24.909  1.00  0.00    -0.373 N 
HETATM   18  N7  UNL     1      14.972  71.028  23.315  1.00  0.00    -0.064 NA
ATOM     19  H62 UNL     1      17.452  70.222  25.305  1.00  0.00     0.158 HD
ATOM     20  H61 UNL     1      16.370  71.624  25.330  1.00  0.00     0.158 HD
HETATM   21  N8  UNL     1      15.685  65.668  22.855  1.00  0.00    -0.059 N 
BRANCH  21  22
HETATM   22  O1  UNL     1      16.183  64.537  22.246  1.00  0.00    -0.270 OA
ATOM     23  H1  UNL     1      16.855  64.663  21.587  1.00  0.00     0.245 HD
ENDBRANCH  21  22
ENDBRANCH   5   7
ENDBRANCH   4   5
ENDBRANCH   3   4
TORSDOF 4
ENDMDL
MODEL 3
REMARK VINA RESULT: -6.815426057      1.216      1.290
REMARK  4 active torsions:
REMARK  status: ('A' for Active; 'I' for Inactive)
REMARK    1  A    between atoms: C2_3  and  C3_4 
REMARK    2  A    between atoms: C3_4  and  N2_5 
REMARK    3  A    between atoms: N2_5  and  C4_7 
REMARK       I    between atoms: N5_13  and  C6_15 
REMARK    4  A    between atoms: N8_21  and  O1_22 
ROOT
HETATM    1  N1  UNL     1      12.415  61.631  21.463  1.00  0.00    -0.197 NA
HETATM    2  C1  UNL     1      13.443  62.036  21.807  1.00  0.00     0.060 C 
HETATM    3  C2  UNL     1      14.743  62.558  22.266  1.00  0.00     0.144 C 
ENDROOT
BRANCH   3   4
HETATM    4  C3  UNL     1      14.527  64.016  22.614  1.00  0.00     0.152 C 
BRANCH   4   5
HETATM    5  N2  UNL     1      15.793  64.677  22.542  1.00  0.00    -0.222 N 
ATOM      6  H2  UNL     1      16.634  64.101  22.525  1.00  0.00     0.177 HD
BRANCH   5   7
HETATM    7  C4  UNL     1      15.936  65.961  22.496  1.00  0.00     0.718 A 
HETATM    8  N3  UNL     1      15.525  66.787  23.477  1.00  0.00    -0.129 N 
HETATM    9  N4  UNL     1      15.681  68.111  23.413  1.00  0.00    -0.270 N 
ATOM     10  H3  UNL     1      15.077  66.386  24.301  1.00  0.00     0.205 HD
HETATM   11  C5  UNL     1      16.263  68.709  22.358  1.00  0.00     0.141 A 
ATOM     12  H4  UNL     1      15.350  68.687  24.187  1.00  0.00     0.189 HD
HETATM   13  N5  UNL     1      16.432  69.985  22.259  1.00  0.00    -0.315 N 
HETATM   14  C7  UNL     1      16.691  67.876  21.343  1.00  0.00     0.192 A 
HETATM   15  C6  UNL     1      16.040  70.916  23.221  1.00  0.00     0.187 C 
ATOM     16  H5  UNL     1      16.886  70.338  21.416  1.00  0.00     0.170 HD
HETATM   17  N6  UNL     1      16.924  71.484  23.961  1.00  0.00    -0.373 N 
HETATM   18  N7  UNL     1      14.659  71.248  23.392  1.00  0.00    -0.064 NA
ATOM     19  H62 UNL     1      17.908  71.248  23.839  1.00  0.00     0.158 HD
ATOM     20  H61 UNL     1      16.637  72.165  24.663  1.00  0.00     0.158 HD
HETATM   21  N8  UNL     1      16.520  66.542  21.432  1.00  0.00    -0.059 N 
BRANCH  21  22
HETATM   22  O1  UNL     1      16.947  65.708  20.421  1.00  0.00    -0.270 OA
ATOM     23  H1  UNL     1      17.778  65.918  20.012  1.00  0.00     0.245 HD
ENDBRANCH  21  22
ENDBRANCH   5   7
ENDBRANCH   4   5
ENDBRANCH   3   4
TORSDOF 4
ENDMDL
MODEL 4
REMARK VINA RESULT: -6.761382643      2.695      6.617
REMARK  4 active torsions:
REMARK  status: ('A' for Active; 'I' for Inactive)
REMARK    1  A    between atoms: C2_3  and  C3_4 
REMARK    2  A    between atoms: C3_4  and  N2_5 
REMARK    3  A    between atoms: N2_5  and  C4_7 
REMARK       I    between atoms: N5_13  and  C6_15 
REMARK    4  A    between atoms: N8_21  and  O1_22 
ROOT
HETATM    1  N1  UNL     1      16.640  70.839  25.813  1.00  0.00    -0.197 NA
HETATM    2  C1  UNL     1      16.818  69.708  25.979  1.00  0.00     0.060 C 
HETATM    3  C2  UNL     1      17.065  68.268  26.178  1.00  0.00     0.144 C 
ENDROOT
BRANCH   3   4
HETATM    4  C3  UNL     1      17.189  67.654  24.800  1.00  0.00     0.152 C 
BRANCH   4   5
HETATM    5  N2  UNL     1      15.930  67.804  24.137  1.00  0.00    -0.222 N 
ATOM      6  H2  UNL     1      15.710  68.712  23.728  1.00  0.00     0.177 HD
BRANCH   5   7
HETATM    7  C4  UNL     1      15.055  66.859  24.027  1.00  0.00     0.718 A 
HETATM    8  N3  UNL     1      15.333  65.651  23.499  1.00  0.00    -0.129 N 
HETATM    9  N4  UNL     1      14.417  64.686  23.393  1.00  0.00    -0.270 N 
ATOM     10  H3  UNL     1      16.280  65.466  23.167  1.00  0.00     0.205 HD
HETATM   11  C5  UNL     1      13.149  64.859  23.810  1.00  0.00     0.141 A 
ATOM     12  H4  UNL     1      14.685  63.791  22.984  1.00  0.00     0.189 HD
HETATM   13  N5  UNL     1      12.236  63.952  23.724  1.00  0.00    -0.315 N 
HETATM   14  C7  UNL     1      12.848  66.092  24.354  1.00  0.00     0.192 A 
HETATM   15  C6  UNL     1      12.429  62.676  23.194  1.00  0.00     0.187 C 
ATOM     16  H5  UNL     1      11.305  64.184  24.070  1.00  0.00     0.170 HD
HETATM   17  N6  UNL     1      12.490  61.659  23.977  1.00  0.00    -0.373 N 
HETATM   18  N7  UNL     1      12.559  62.487  21.782  1.00  0.00    -0.064 NA
ATOM     19  H62 UNL     1      12.397  61.793  24.983  1.00  0.00     0.158 HD
ATOM     20  H61 UNL     1      12.631  60.727  23.589  1.00  0.00     0.158 HD
HETATM   21  N8  UNL     1      13.792  67.049  24.449  1.00  0.00    -0.059 N 
BRANCH  21  22
HETATM   22  O1  UNL     1      13.495  68.280  24.992  1.00  0.00    -0.270 OA
ATOM     23  H1  UNL     1      12.575  68.492  25.102  1.00  0.00     0.245 HD
ENDBRANCH  21  22
ENDBRANCH   5   7
ENDBRANCH   4   5
ENDBRANCH   3   4
TORSDOF 4
ENDMDL
MODEL 5
REMARK VINA RESULT: -6.737112965      3.125      3.972
REMARK  4 active torsions:
REMARK  status: ('A' for Active; 'I' for Inactive)
REMARK    1  A    between atoms: C2_3  and  C3_4 
REMARK    2  A    between atoms: C3_4  and  N2_5 
REMARK    3  A    between atoms: N2_5  and  C4_7 
REMARK       I    between atoms: N5_13  and  C6_15 
REMARK    4  A    between atoms: N8_21  and  O1_22 
ROOT
HETATM    1  N1  UNL     1      12.053  62.803  22.155  1.00  0.00    -0.197 NA
HETATM    2  C1  UNL     1      11.318  63.609  22.541  1.00  0.00     0.060 C 
HETATM    3  C2  UNL     1      10.400  64.650  23.038  1.00  0.00     0.144 C 
ENDROOT
BRANCH   3   4
HETATM    4  C3  UNL     1      10.787  64.918  24.478  1.00  0.00     0.152 C 
BRANCH   4   5
HETATM    5  N2  UNL     1      11.218  66.279  24.570  1.00  0.00    -0.222 N 
ATOM      6  H2  UNL     1      10.509  66.996  24.725  1.00  0.00     0.177 HD
BRANCH   5   7
HETATM    7  C4  UNL     1      12.450  66.655  24.468  1.00  0.00     0.718 A 
HETATM    8  N3  UNL     1      13.478  65.795  24.332  1.00  0.00    -0.129 N 
HETATM    9  N4  UNL     1      14.745  66.201  24.228  1.00  0.00    -0.270 N 
ATOM     10  H3  UNL     1      13.280  64.794  24.308  1.00  0.00     0.205 HD
HETATM   11  C5  UNL     1      15.079  67.504  24.252  1.00  0.00     0.141 A 
ATOM     12  H4  UNL     1      15.482  65.503  24.127  1.00  0.00     0.189 HD
HETATM   13  N5  UNL     1      16.291  67.936  24.154  1.00  0.00    -0.315 N 
HETATM   14  C7  UNL     1      14.037  68.399  24.390  1.00  0.00     0.192 A 
HETATM   15  C6  UNL     1      17.417  67.123  24.012  1.00  0.00     0.187 C 
ATOM     16  H5  UNL     1      16.437  68.945  24.183  1.00  0.00     0.170 HD
HETATM   17  N6  UNL     1      18.012  67.047  22.876  1.00  0.00    -0.373 N 
HETATM   18  N7  UNL     1      17.916  66.372  25.122  1.00  0.00    -0.064 NA
ATOM     19  H62 UNL     1      17.656  67.583  22.085  1.00  0.00     0.158 HD
ATOM     20  H61 UNL     1      18.834  66.454  22.772  1.00  0.00     0.158 HD
HETATM   21  N8  UNL     1      12.766  67.963  24.494  1.00  0.00    -0.059 N 
BRANCH  21  22
HETATM   22  O1  UNL     1      11.724  68.854  24.631  1.00  0.00    -0.270 OA
ATOM     23  H1  UNL     1      11.927  69.698  25.018  1.00  0.00     0.245 HD
ENDBRANCH  21  22
ENDBRANCH   5   7
ENDBRANCH   4   5
ENDBRANCH   3   4
TORSDOF 4
ENDMDL
