MODEL 1
REMARK VINA RESULT: -5.400969431      0.000      0.000
REMARK  6 active torsions:
REMARK  status: ('A' for Active; 'I' for Inactive)
REMARK    1  A    between atoms: O1_2  and  C2_3 
REMARK    2  A    between atoms: C9_12  and  O4_13 
REMARK    3  A    between atoms: C10_15  and  C11_16 
REMARK    4  A    between atoms: C11_16  and  C12_17 
REMARK    5  A    between atoms: C20_26  and  C21_27 
REMARK    6  A    between atoms: C21_27  and  N1_28 
ROOT
HETATM    1  C2  UNL     1       9.429 -10.830   7.463  1.00  0.00     0.131 C 
HETATM    2  C3  UNL     1       9.100 -12.073   6.576  1.00  0.00     0.067 C 
HETATM    3  C4  UNL     1       9.059 -11.645   5.191  1.00  0.00     0.159 C 
HETATM    4  O2  UNL     1       8.741 -12.593   4.228  1.00  0.00    -0.348 OA
HETATM    5  C5  UNL     1       8.000 -11.883   3.262  1.00  0.00     0.158 C 
HETATM    6  C6  UNL     1       6.634 -12.555   3.198  1.00  0.00     0.078 C 
HETATM    7  C7  UNL     1       8.619 -11.893   1.911  1.00  0.00     0.078 C 
HETATM    8  O3  UNL     1       7.800 -10.573   3.779  1.00  0.00    -0.345 OA
HETATM    9  C8  UNL     1       7.728 -10.873   5.090  1.00  0.00     0.183 C 
HETATM   10  C9  UNL     1       7.660  -9.926   6.165  1.00  0.00     0.157 C 
HETATM   11  C10 UNL     1       9.043  -9.557   6.807  1.00  0.00     0.059 C 
ENDROOT
BRANCH  11  12
HETATM   12  C11 UNL     1       8.879  -8.284   7.422  1.00  0.00    -0.002 C 
HETATM   13  C15 UNL     1       7.806  -7.474   6.794  1.00  0.00    -0.008 C 
HETATM   14  C16 UNL     1       8.200  -6.283   6.416  1.00  0.00    -0.025 C 
HETATM   15  C17 UNL     1       8.448  -4.904   5.921  1.00  0.00     0.149 C 
HETATM   16  C19 UNL     1       9.634  -6.079   6.856  1.00  0.00     0.160 C 
HETATM   17  C18 UNL     1       7.856  -4.548   4.593  1.00  0.00     0.044 C 
HETATM   18  O5  UNL     1       9.819  -5.273   5.702  1.00  0.00    -0.372 OA
HETATM   19  C20 UNL     1      10.111  -7.447   6.871  1.00  0.00     0.060 C 
BRANCH  12  20
HETATM   20  C12 UNL     1       8.850  -7.923   8.840  1.00  0.00    -0.001 A 
HETATM   21  C13 UNL     1       7.657  -7.888   9.713  1.00  0.00     0.006 A 
HETATM   22  C14 UNL     1       8.867  -8.703  10.062  1.00  0.00     0.006 A 
ENDBRANCH  12  20
BRANCH  19  23
HETATM   23  C21 UNL     1      11.335  -7.788   7.623  1.00  0.00     0.280 C 
BRANCH  23  24
HETATM   24  N1  UNL     1      12.467  -8.145   6.779  1.00  0.00     0.080 N 
HETATM   25  C22 UNL     1      13.524  -8.511   7.775  1.00  0.00     0.309 C 
HETATM   26  C23 UNL     1      13.035  -6.909   6.192  1.00  0.00     0.309 C 
ENDBRANCH  23  24
ENDBRANCH  19  23
ENDBRANCH  11  12
BRANCH   1  27
HETATM   27  O1  UNL     1      10.846 -10.988   7.445  1.00  0.00    -0.390 OA
HETATM   28  C1  UNL     1      11.303 -11.386   8.688  1.00  0.00     0.202 C 
ENDBRANCH   1  27
BRANCH  10  29
HETATM   29  O4  UNL     1       6.978 -10.595   7.229  1.00  0.00    -0.392 OA
ATOM     30  H4  UNL     1       6.527  -9.914   7.716  1.00  0.00     0.210 HD
ENDBRANCH  10  29
TORSDOF 6
ENDMDL
MODEL 2
REMARK VINA RESULT: -5.387283834      2.981      4.377
REMARK  6 active torsions:
REMARK  status: ('A' for Active; 'I' for Inactive)
REMARK    1  A    between atoms: O1_2  and  C2_3 
REMARK    2  A    between atoms: C9_12  and  O4_13 
REMARK    3  A    between atoms: C10_15  and  C11_16 
REMARK    4  A    between atoms: C11_16  and  C12_17 
REMARK    5  A    between atoms: C20_26  and  C21_27 
REMARK    6  A    between atoms: C21_27  and  N1_28 
ROOT
HETATM    1  C2  UNL     1       6.510  -9.451   5.758  1.00  0.00     0.131 C 
HETATM    2  C3  UNL     1       7.120 -10.884   5.636  1.00  0.00     0.067 C 
HETATM    3  C4  UNL     1       7.923 -10.936   4.429  1.00  0.00     0.159 C 
HETATM    4  O2  UNL     1       8.530 -12.140   4.104  1.00  0.00    -0.348 OA
HETATM    5  C5  UNL     1       8.495 -12.188   2.697  1.00  0.00     0.158 C 
HETATM    6  C6  UNL     1       7.695 -13.434   2.334  1.00  0.00     0.078 C 
HETATM    7  C7  UNL     1       9.840 -12.265   2.070  1.00  0.00     0.078 C 
HETATM    8  O3  UNL     1       7.737 -11.063   2.267  1.00  0.00    -0.345 OA
HETATM    9  C8  UNL     1       6.876 -10.983   3.298  1.00  0.00     0.183 C 
HETATM   10  C9  UNL     1       5.917  -9.937   3.512  1.00  0.00     0.157 C 
HETATM   11  C10 UNL     1       6.407  -8.773   4.442  1.00  0.00     0.059 C 
ENDROOT
BRANCH  11  12
HETATM   12  C11 UNL     1       5.619  -7.634   4.117  1.00  0.00    -0.002 C 
HETATM   13  C15 UNL     1       5.193  -7.614   2.696  1.00  0.00    -0.008 C 
HETATM   14  C16 UNL     1       5.505  -6.506   2.070  1.00  0.00    -0.025 C 
HETATM   15  C17 UNL     1       5.768  -5.338   1.190  1.00  0.00     0.149 C 
HETATM   16  C19 UNL     1       6.119  -5.539   3.061  1.00  0.00     0.160 C 
HETATM   17  C18 UNL     1       6.251  -5.632  -0.195  1.00  0.00     0.044 C 
HETATM   18  O5  UNL     1       6.917  -5.039   1.999  1.00  0.00    -0.372 OA
HETATM   19  C20 UNL     1       6.686  -6.461   4.023  1.00  0.00     0.060 C 
BRANCH  12  20
HETATM   20  C12 UNL     1       4.518  -7.012   4.855  1.00  0.00    -0.001 A 
HETATM   21  C13 UNL     1       3.085  -7.361   4.752  1.00  0.00     0.006 A 
HETATM   22  C14 UNL     1       3.808  -7.374   6.067  1.00  0.00     0.006 A 
ENDBRANCH  12  20
BRANCH  19  23
HETATM   23  C21 UNL     1       7.038  -5.984   5.375  1.00  0.00     0.280 C 
BRANCH  23  24
HETATM   24  N1  UNL     1       8.205  -5.115   5.411  1.00  0.00     0.080 N 
HETATM   25  C22 UNL     1       9.015  -5.687   6.534  1.00  0.00     0.309 C 
HETATM   26  C23 UNL     1       7.809  -3.803   5.977  1.00  0.00     0.309 C 
ENDBRANCH  23  24
ENDBRANCH  19  23
ENDBRANCH  11  12
BRANCH   1  27
HETATM   27  O1  UNL     1       7.572  -8.888   6.525  1.00  0.00    -0.390 OA
HETATM   28  C1  UNL     1       7.223  -8.831   7.862  1.00  0.00     0.202 C 
ENDBRANCH   1  27
BRANCH  10  29
HETATM   29  O4  UNL     1       4.858 -10.530   4.266  1.00  0.00    -0.392 OA
ATOM     30  H4  UNL     1       4.073 -10.419   3.742  1.00  0.00     0.210 HD
ENDBRANCH  10  29
TORSDOF 6
ENDMDL
MODEL 3
REMARK VINA RESULT: -5.275976342      0.921      1.125
REMARK  6 active torsions:
REMARK  status: ('A' for Active; 'I' for Inactive)
REMARK    1  A    between atoms: O1_2  and  C2_3 
REMARK    2  A    between atoms: C9_12  and  O4_13 
REMARK    3  A    between atoms: C10_15  and  C11_16 
REMARK    4  A    between atoms: C11_16  and  C12_17 
REMARK    5  A    between atoms: C20_26  and  C21_27 
REMARK    6  A    between atoms: C21_27  and  N1_28 
ROOT
HETATM    1  C2  UNL     1       9.777 -11.256   7.309  1.00  0.00     0.131 C 
HETATM    2  C3  UNL     1       9.182 -12.362   6.380  1.00  0.00     0.067 C 
HETATM    3  C4  UNL     1       9.046 -11.810   5.045  1.00  0.00     0.159 C 
HETATM    4  O2  UNL     1       8.494 -12.618   4.061  1.00  0.00    -0.348 OA
HETATM    5  C5  UNL     1       7.756 -11.735   3.248  1.00  0.00     0.158 C 
HETATM    6  C6  UNL     1       6.311 -12.216   3.302  1.00  0.00     0.078 C 
HETATM    7  C7  UNL     1       8.214 -11.703   1.835  1.00  0.00     0.078 C 
HETATM    8  O3  UNL     1       7.799 -10.461   3.882  1.00  0.00    -0.345 OA
HETATM    9  C8  UNL     1       7.832 -10.866   5.165  1.00  0.00     0.183 C 
HETATM   10  C9  UNL     1       8.017 -10.018   6.308  1.00  0.00     0.157 C 
HETATM   11  C10 UNL     1       9.501  -9.890   6.801  1.00  0.00     0.059 C 
ENDROOT
BRANCH  11  12
HETATM   12  C11 UNL     1       9.585  -8.667   7.524  1.00  0.00    -0.002 C 
HETATM   13  C15 UNL     1       8.680  -7.619   6.990  1.00  0.00    -0.008 C 
HETATM   14  C16 UNL     1       9.291  -6.495   6.704  1.00  0.00    -0.025 C 
HETATM   15  C17 UNL     1       9.791  -5.150   6.320  1.00  0.00     0.149 C 
HETATM   16  C19 UNL     1      10.741  -6.603   7.126  1.00  0.00     0.160 C 
HETATM   17  C18 UNL     1       9.268  -4.576   5.041  1.00  0.00     0.044 C 
HETATM   18  O5  UNL     1      11.066  -5.750   6.040  1.00  0.00    -0.372 OA
HETATM   19  C20 UNL     1      10.950  -8.032   7.016  1.00  0.00     0.060 C 
BRANCH  12  20
HETATM   20  C12 UNL     1       9.635  -8.431   8.967  1.00  0.00    -0.001 A 
HETATM   21  C13 UNL     1       8.480  -8.183   9.856  1.00  0.00     0.006 A 
HETATM   22  C14 UNL     1       9.454  -9.293  10.119  1.00  0.00     0.006 A 
ENDBRANCH  12  20
BRANCH  19  23
HETATM   23  C21 UNL     1      12.092  -8.661   7.708  1.00  0.00     0.280 C 
BRANCH  23  24
HETATM   24  N1  UNL     1      13.016  -7.709   8.309  1.00  0.00     0.080 N 
HETATM   25  C22 UNL     1      14.278  -7.932   7.533  1.00  0.00     0.309 C 
HETATM   26  C23 UNL     1      13.408  -8.203   9.650  1.00  0.00     0.309 C 
ENDBRANCH  23  24
ENDBRANCH  19  23
ENDBRANCH  11  12
BRANCH   1  27
HETATM   27  O1  UNL     1      11.147 -11.594   7.106  1.00  0.00    -0.390 OA
HETATM   28  C1  UNL     1      11.599 -12.413   8.125  1.00  0.00     0.202 C 
ENDBRANCH   1  27
BRANCH  10  29
HETATM   29  O4  UNL     1       7.371 -10.686   7.395  1.00  0.00    -0.392 OA
ATOM     30  H4  UNL     1       7.977 -10.635   8.126  1.00  0.00     0.210 HD
ENDBRANCH  10  29
TORSDOF 6
ENDMDL
MODEL 4
REMARK VINA RESULT: -5.139558838      2.203      6.013
REMARK  6 active torsions:
REMARK  status: ('A' for Active; 'I' for Inactive)
REMARK    1  A    between atoms: O1_2  and  C2_3 
REMARK    2  A    between atoms: C9_12  and  O4_13 
REMARK    3  A    between atoms: C10_15  and  C11_16 
REMARK    4  A    between atoms: C11_16  and  C12_17 
REMARK    5  A    between atoms: C20_26  and  C21_27 
REMARK    6  A    between atoms: C21_27  and  N1_28 
ROOT
HETATM    1  C2  UNL     1      11.040  -7.517   8.625  1.00  0.00     0.131 C 
HETATM    2  C3  UNL     1      11.956  -6.317   8.225  1.00  0.00     0.067 C 
HETATM    3  C4  UNL     1      11.954  -6.207   6.778  1.00  0.00     0.159 C 
HETATM    4  O2  UNL     1      12.743  -5.221   6.201  1.00  0.00    -0.348 OA
HETATM    5  C5  UNL     1      13.206  -5.794   5.000  1.00  0.00     0.158 C 
HETATM    6  C6  UNL     1      14.727  -5.806   5.095  1.00  0.00     0.078 C 
HETATM    7  C7  UNL     1      12.793  -5.046   3.785  1.00  0.00     0.078 C 
HETATM    8  O3  UNL     1      12.775  -7.150   5.000  1.00  0.00    -0.345 OA
HETATM    9  C8  UNL     1      12.833  -7.390   6.323  1.00  0.00     0.183 C 
HETATM   10  C9  UNL     1      12.379  -8.582   6.981  1.00  0.00     0.157 C 
HETATM   11  C10 UNL     1      10.913  -8.514   7.533  1.00  0.00     0.059 C 
ENDROOT
BRANCH  11  12
HETATM   12  C11 UNL     1      10.455  -9.857   7.639  1.00  0.00    -0.002 C 
HETATM   13  C15 UNL     1      11.068 -10.755   6.630  1.00  0.00    -0.008 C 
HETATM   14  C16 UNL     1      10.191 -11.420   5.918  1.00  0.00    -0.025 C 
HETATM   15  C17 UNL     1       9.365 -12.259   5.012  1.00  0.00     0.149 C 
HETATM   16  C19 UNL     1       8.804 -11.126   6.448  1.00  0.00     0.160 C 
HETATM   17  C18 UNL     1       9.785 -12.317   3.577  1.00  0.00     0.044 C 
HETATM   18  O5  UNL     1       8.321 -11.278   5.122  1.00  0.00    -0.372 OA
HETATM   19  C20 UNL     1       9.001  -9.801   7.002  1.00  0.00     0.060 C 
BRANCH  12  20
HETATM   20  C12 UNL     1      10.258 -10.691   8.825  1.00  0.00    -0.001 A 
HETATM   21  C13 UNL     1      11.236 -11.634   9.407  1.00  0.00     0.006 A 
HETATM   22  C14 UNL     1      10.622 -10.532  10.220  1.00  0.00     0.006 A 
ENDBRANCH  12  20
BRANCH  19  23
HETATM   23  C21 UNL     1       8.036  -9.267   7.983  1.00  0.00     0.280 C 
BRANCH  23  24
HETATM   24  N1  UNL     1       6.885  -8.607   7.381  1.00  0.00     0.080 N 
HETATM   25  C22 UNL     1       7.507  -7.741   6.329  1.00  0.00     0.309 C 
HETATM   26  C23 UNL     1       6.368  -7.589   8.327  1.00  0.00     0.309 C 
ENDBRANCH  23  24
ENDBRANCH  19  23
ENDBRANCH  11  12
BRANCH   1  27
HETATM   27  O1  UNL     1       9.836  -6.766   8.755  1.00  0.00    -0.390 OA
HETATM   28  C1  UNL     1       9.537  -6.558  10.089  1.00  0.00     0.202 C 
ENDBRANCH   1  27
BRANCH  10  29
HETATM   29  O4  UNL     1      13.168  -8.694   8.168  1.00  0.00    -0.392 OA
ATOM     30  H4  UNL     1      14.043  -8.922   7.876  1.00  0.00     0.210 HD
ENDBRANCH  10  29
TORSDOF 6
ENDMDL
MODEL 5
REMARK VINA RESULT: -5.031469644      3.109      6.625
REMARK  6 active torsions:
REMARK  status: ('A' for Active; 'I' for Inactive)
REMARK    1  A    between atoms: O1_2  and  C2_3 
REMARK    2  A    between atoms: C9_12  and  O4_13 
REMARK    3  A    between atoms: C10_15  and  C11_16 
REMARK    4  A    between atoms: C11_16  and  C12_17 
REMARK    5  A    between atoms: C20_26  and  C21_27 
REMARK    6  A    between atoms: C21_27  and  N1_28 
ROOT
HETATM    1  C2  UNL     1      12.500  -9.746  10.719  1.00  0.00     0.131 C 
HETATM    2  C3  UNL     1      12.144  -9.435  12.208  1.00  0.00     0.067 C 
HETATM    3  C4  UNL     1      10.766  -9.825  12.437  1.00  0.00     0.159 C 
HETATM    4  O2  UNL     1      10.226  -9.598  13.695  1.00  0.00    -0.348 OA
HETATM    5  C5  UNL     1       8.879  -9.269  13.450  1.00  0.00     0.158 C 
HETATM    6  C6  UNL     1       8.676  -7.865  14.009  1.00  0.00     0.078 C 
HETATM    7  C7  UNL     1       7.913 -10.199  14.089  1.00  0.00     0.078 C 
HETATM    8  O3  UNL     1       8.727  -9.184  12.038  1.00  0.00    -0.345 OA
HETATM    9  C8  UNL     1       9.954  -8.727  11.722  1.00  0.00     0.183 C 
HETATM   10  C9  UNL     1      10.471  -8.560  10.394  1.00  0.00     0.157 C 
HETATM   11  C10 UNL     1      11.298  -9.776   9.850  1.00  0.00     0.059 C 
ENDROOT
BRANCH  11  12
HETATM   12  C11 UNL     1      11.257  -9.695   8.430  1.00  0.00    -0.002 C 
HETATM   13  C15 UNL     1      10.003  -9.084   7.924  1.00  0.00    -0.008 C 
HETATM   14  C16 UNL     1       9.378  -9.823   7.041  1.00  0.00    -0.025 C 
HETATM   15  C17 UNL     1       8.525 -10.505   6.034  1.00  0.00     0.149 C 
HETATM   16  C19 UNL     1      10.221 -11.043   6.738  1.00  0.00     0.160 C 
HETATM   17  C18 UNL     1       7.047 -10.470   6.267  1.00  0.00     0.044 C 
HETATM   18  O5  UNL     1       9.015 -11.762   6.531  1.00  0.00    -0.372 OA
HETATM   19  C20 UNL     1      10.947 -11.187   7.984  1.00  0.00     0.060 C 
BRANCH  12  20
HETATM   20  C12 UNL     1      12.293  -9.281   7.483  1.00  0.00    -0.001 A 
HETATM   21  C13 UNL     1      12.464  -7.932   6.903  1.00  0.00     0.006 A 
HETATM   22  C14 UNL     1      13.574  -8.620   7.642  1.00  0.00     0.006 A 
ENDBRANCH  12  20
BRANCH  19  23
HETATM   23  C21 UNL     1      12.182 -11.996   8.023  1.00  0.00     0.280 C 
BRANCH  23  24
HETATM   24  N1  UNL     1      11.947 -13.427   8.152  1.00  0.00     0.080 N 
HETATM   25  C22 UNL     1      11.074 -13.516   9.365  1.00  0.00     0.309 C 
HETATM   26  C23 UNL     1      13.189 -14.074   8.639  1.00  0.00     0.309 C 
ENDBRANCH  23  24
ENDBRANCH  19  23
ENDBRANCH  11  12
BRANCH   1  27
HETATM   27  O1  UNL     1      12.986 -11.067  10.942  1.00  0.00    -0.390 OA
HETATM   28  C1  UNL     1      14.368 -11.088  10.894  1.00  0.00     0.202 C 
ENDBRANCH   1  27
BRANCH  10  29
HETATM   29  O4  UNL     1      11.447  -7.520  10.486  1.00  0.00    -0.392 OA
ATOM     30  H4  UNL     1      11.969  -7.722  11.254  1.00  0.00     0.210 HD
ENDBRANCH  10  29
TORSDOF 6
ENDMDL
