MODEL 1
REMARK VINA RESULT: -6.691703549      0.000      0.000
REMARK  6 active torsions:
REMARK  status: ('A' for Active; 'I' for Inactive)
REMARK    1  A    between atoms: C3_3  and  C4_4 
REMARK    2  A    between atoms: C4_4  and  C5_5 
REMARK    3  A    between atoms: C5_5  and  N1_7 
REMARK    4  A    between atoms: C5_5  and  C7_11 
REMARK    5  A    between atoms: C7_11  and  N2_12 
REMARK    6  A    between atoms: C7_11  and  C8_16 
ROOT
HETATM    1  C1  UNL     1       9.270 197.223  89.895  1.00  0.00     0.012 C 
HETATM    2  C2  UNL     1       9.796 196.237  89.449  1.00  0.00    -0.117 C 
HETATM    3  C3  UNL     1      10.428 194.999  88.887  1.00  0.00     0.095 C 
ENDROOT
BRANCH   3   4
HETATM    4  C4  UNL     1      11.115 195.412  87.617  1.00  0.00     0.052 C 
BRANCH   4   5
HETATM    5  C5  UNL     1      10.882 194.631  86.406  1.00  0.00     0.151 C 
HETATM    6  C6  UNL     1      10.385 193.245  86.889  1.00  0.00     0.048 C 
BRANCH   5   7
HETATM    7  N1  UNL     1      12.224 194.306  85.844  1.00  0.00    -0.069 N 
ATOM      8  H13 UNL     1      12.875 195.091  85.876  1.00  0.00     0.275 HD
ATOM      9  H12 UNL     1      12.764 193.669  86.431  1.00  0.00     0.275 HD
ATOM     10  H11 UNL     1      12.067 193.950  84.901  1.00  0.00     0.275 HD
ENDBRANCH   5   7
BRANCH   5  11
HETATM   11  C7  UNL     1       9.967 195.078  85.347  1.00  0.00     0.249 C 
BRANCH  11  12
HETATM   12  N2  UNL     1      10.606 195.832  84.266  1.00  0.00    -0.070 N 
ATOM     13  H23 UNL     1      11.619 195.718  84.305  1.00  0.00     0.274 HD
ATOM     14  H22 UNL     1      10.415 195.393  83.366  1.00  0.00     0.274 HD
ATOM     15  H21 UNL     1      10.363 196.822  84.238  1.00  0.00     0.274 HD
ENDBRANCH  11  12
BRANCH  11  16
HETATM   16  C8  UNL     1       8.830 194.239  84.936  1.00  0.00     0.178 A 
HETATM   17  C9  UNL     1       7.434 194.795  85.248  1.00  0.00     0.202 A 
HETATM   18  O1  UNL     1       7.896 194.500  83.989  1.00  0.00    -0.379 OA
ENDBRANCH  11  16
ENDBRANCH   5  11
ENDBRANCH   4   5
ENDBRANCH   3   4
TORSDOF 6
ENDMDL
MODEL 2
REMARK VINA RESULT: -6.549984513      1.205      1.276
REMARK  6 active torsions:
REMARK  status: ('A' for Active; 'I' for Inactive)
REMARK    1  A    between atoms: C3_3  and  C4_4 
REMARK    2  A    between atoms: C4_4  and  C5_5 
REMARK    3  A    between atoms: C5_5  and  N1_7 
REMARK    4  A    between atoms: C5_5  and  C7_11 
REMARK    5  A    between atoms: C7_11  and  N2_12 
REMARK    6  A    between atoms: C7_11  and  C8_16 
ROOT
HETATM    1  C1  UNL     1       9.234 197.079  90.023  1.00  0.00     0.012 C 
HETATM    2  C2  UNL     1       9.734 196.298  89.256  1.00  0.00    -0.117 C 
HETATM    3  C3  UNL     1      10.345 195.304  88.315  1.00  0.00     0.095 C 
ENDROOT
BRANCH   3   4
HETATM    4  C4  UNL     1       9.591 195.425  87.022  1.00  0.00     0.052 C 
BRANCH   4   5
HETATM    5  C5  UNL     1       9.956 194.551  85.911  1.00  0.00     0.151 C 
HETATM    6  C6  UNL     1      10.232 193.163  86.543  1.00  0.00     0.048 C 
BRANCH   5   7
HETATM    7  N1  UNL     1      11.316 194.972  85.468  1.00  0.00    -0.069 N 
ATOM      8  H13 UNL     1      11.599 194.552  84.583  1.00  0.00     0.275 HD
ATOM      9  H12 UNL     1      11.359 195.946  85.167  1.00  0.00     0.275 HD
ATOM     10  H11 UNL     1      11.951 194.759  86.237  1.00  0.00     0.275 HD
ENDBRANCH   5   7
BRANCH   5  11
HETATM   11  C7  UNL     1       9.074 194.338  84.756  1.00  0.00     0.249 C 
BRANCH  11  12
HETATM   12  N2  UNL     1       9.502 195.011  83.528  1.00  0.00    -0.070 N 
ATOM     13  H23 UNL     1       9.847 195.948  83.739  1.00  0.00     0.274 HD
ATOM     14  H22 UNL     1      10.358 194.586  83.170  1.00  0.00     0.274 HD
ATOM     15  H21 UNL     1       8.793 195.052  82.796  1.00  0.00     0.274 HD
ENDBRANCH  11  12
BRANCH  11  16
HETATM   16  C8  UNL     1       8.399 193.045  84.557  1.00  0.00     0.178 A 
HETATM   17  C9  UNL     1       6.873 193.096  84.408  1.00  0.00     0.202 A 
HETATM   18  O1  UNL     1       7.736 192.606  83.460  1.00  0.00    -0.379 OA
ENDBRANCH  11  16
ENDBRANCH   5  11
ENDBRANCH   4   5
ENDBRANCH   3   4
TORSDOF 6
ENDMDL
MODEL 3
REMARK VINA RESULT: -6.287133857      1.814      2.150
REMARK  6 active torsions:
REMARK  status: ('A' for Active; 'I' for Inactive)
REMARK    1  A    between atoms: C3_3  and  C4_4 
REMARK    2  A    between atoms: C4_4  and  C5_5 
REMARK    3  A    between atoms: C5_5  and  N1_7 
REMARK    4  A    between atoms: C5_5  and  C7_11 
REMARK    5  A    between atoms: C7_11  and  N2_12 
REMARK    6  A    between atoms: C7_11  and  C8_16 
ROOT
HETATM    1  C1  UNL     1       9.552 196.388  90.060  1.00  0.00     0.012 C 
HETATM    2  C2  UNL     1       9.901 195.788  89.077  1.00  0.00    -0.117 C 
HETATM    3  C3  UNL     1      10.327 195.018  87.863  1.00  0.00     0.095 C 
ENDROOT
BRANCH   3   4
HETATM    4  C4  UNL     1       9.418 195.449  86.747  1.00  0.00     0.052 C 
BRANCH   4   5
HETATM    5  C5  UNL     1       9.236 194.558  85.605  1.00  0.00     0.151 C 
HETATM    6  C6  UNL     1      10.030 193.271  85.947  1.00  0.00     0.048 C 
BRANCH   5   7
HETATM    7  N1  UNL     1      10.035 195.133  84.486  1.00  0.00    -0.069 N 
ATOM      8  H13 UNL     1       9.480 195.329  83.653  1.00  0.00     0.275 HD
ATOM      9  H12 UNL     1      10.344 196.090  84.660  1.00  0.00     0.275 HD
ATOM     10  H11 UNL     1      10.805 194.486  84.315  1.00  0.00     0.275 HD
ENDBRANCH   5   7
BRANCH   5  11
HETATM   11  C7  UNL     1       7.908 194.141  85.138  1.00  0.00     0.249 C 
BRANCH  11  12
HETATM   12  N2  UNL     1       6.884 195.187  85.196  1.00  0.00    -0.070 N 
ATOM     13  H23 UNL     1       7.317 196.099  85.335  1.00  0.00     0.274 HD
ATOM     14  H22 UNL     1       6.469 195.328  84.275  1.00  0.00     0.274 HD
ATOM     15  H21 UNL     1       6.156 195.030  85.893  1.00  0.00     0.274 HD
ENDBRANCH  11  12
BRANCH  11  16
HETATM   16  C8  UNL     1       7.769 193.192  84.022  1.00  0.00     0.178 A 
HETATM   17  C9  UNL     1       7.106 191.850  84.355  1.00  0.00     0.202 A 
HETATM   18  O1  UNL     1       6.632 192.749  83.434  1.00  0.00    -0.379 OA
ENDBRANCH  11  16
ENDBRANCH   5  11
ENDBRANCH   4   5
ENDBRANCH   3   4
TORSDOF 6
ENDMDL
MODEL 4
REMARK VINA RESULT: -6.273117057      1.700      2.198
REMARK  6 active torsions:
REMARK  status: ('A' for Active; 'I' for Inactive)
REMARK    1  A    between atoms: C3_3  and  C4_4 
REMARK    2  A    between atoms: C4_4  and  C5_5 
REMARK    3  A    between atoms: C5_5  and  N1_7 
REMARK    4  A    between atoms: C5_5  and  C7_11 
REMARK    5  A    between atoms: C7_11  and  N2_12 
REMARK    6  A    between atoms: C7_11  and  C8_16 
ROOT
HETATM    1  C1  UNL     1       9.917 195.675  89.823  1.00  0.00     0.012 C 
HETATM    2  C2  UNL     1      10.391 195.089  88.885  1.00  0.00    -0.117 C 
HETATM    3  C3  UNL     1      10.988 194.339  87.732  1.00  0.00     0.095 C 
ENDROOT
BRANCH   3   4
HETATM    4  C4  UNL     1       9.841 193.930  86.852  1.00  0.00     0.052 C 
BRANCH   4   5
HETATM    5  C5  UNL     1       9.475 194.789  85.730  1.00  0.00     0.151 C 
HETATM    6  C6  UNL     1      10.768 195.555  85.349  1.00  0.00     0.048 C 
BRANCH   5   7
HETATM    7  N1  UNL     1       8.619 195.875  86.286  1.00  0.00    -0.069 N 
ATOM      8  H13 UNL     1       7.630 195.759  86.068  1.00  0.00     0.275 HD
ATOM      9  H12 UNL     1       8.530 195.838  87.302  1.00  0.00     0.275 HD
ATOM     10  H11 UNL     1       9.007 196.755  85.947  1.00  0.00     0.275 HD
ENDBRANCH   5   7
BRANCH   5  11
HETATM   11  C7  UNL     1       8.901 194.257  84.487  1.00  0.00     0.249 C 
BRANCH  11  12
HETATM   12  N2  UNL     1       9.449 194.843  83.262  1.00  0.00    -0.070 N 
ATOM     13  H23 UNL     1      10.385 195.211  83.432  1.00  0.00     0.274 HD
ATOM     14  H22 UNL     1       9.668 194.111  82.586  1.00  0.00     0.274 HD
ATOM     15  H21 UNL     1       8.860 195.558  82.833  1.00  0.00     0.274 HD
ENDBRANCH  11  12
BRANCH  11  16
HETATM   16  C8  UNL     1       8.519 192.839  84.385  1.00  0.00     0.178 A 
HETATM   17  C9  UNL     1       7.040 192.559  84.090  1.00  0.00     0.202 A 
HETATM   18  O1  UNL     1       8.085 192.165  83.293  1.00  0.00    -0.379 OA
ENDBRANCH  11  16
ENDBRANCH   5  11
ENDBRANCH   4   5
ENDBRANCH   3   4
TORSDOF 6
ENDMDL
MODEL 5
REMARK VINA RESULT: -6.023105664      2.311      4.739
REMARK  6 active torsions:
REMARK  status: ('A' for Active; 'I' for Inactive)
REMARK    1  A    between atoms: C3_3  and  C4_4 
REMARK    2  A    between atoms: C4_4  and  C5_5 
REMARK    3  A    between atoms: C5_5  and  N1_7 
REMARK    4  A    between atoms: C5_5  and  C7_11 
REMARK    5  A    between atoms: C7_11  and  N2_12 
REMARK    6  A    between atoms: C7_11  and  C8_16 
ROOT
HETATM    1  C1  UNL     1       6.596 191.495  84.089  1.00  0.00     0.012 C 
HETATM    2  C2  UNL     1       7.060 192.565  84.387  1.00  0.00    -0.117 C 
HETATM    3  C3  UNL     1       7.623 193.898  84.780  1.00  0.00     0.095 C 
ENDROOT
BRANCH   3   4
HETATM    4  C4  UNL     1       9.041 193.650  85.207  1.00  0.00     0.052 C 
BRANCH   4   5
HETATM    5  C5  UNL     1       9.849 194.783  85.648  1.00  0.00     0.151 C 
HETATM    6  C6  UNL     1       8.852 195.790  86.276  1.00  0.00     0.048 C 
BRANCH   5   7
HETATM    7  N1  UNL     1      10.287 195.499  84.417  1.00  0.00    -0.069 N 
ATOM      8  H13 UNL     1      10.973 194.979  83.870  1.00  0.00     0.275 HD
ATOM      9  H12 UNL     1       9.563 195.548  83.699  1.00  0.00     0.275 HD
ATOM     10  H11 UNL     1      10.620 196.416  84.716  1.00  0.00     0.275 HD
ENDBRANCH   5   7
BRANCH   5  11
HETATM   11  C7  UNL     1      10.968 194.631  86.589  1.00  0.00     0.249 C 
BRANCH  11  12
HETATM   12  N2  UNL     1      12.197 194.100  85.996  1.00  0.00    -0.070 N 
ATOM     13  H23 UNL     1      12.213 194.282  84.992  1.00  0.00     0.274 HD
ATOM     14  H22 UNL     1      13.000 194.657  86.287  1.00  0.00     0.274 HD
ATOM     15  H21 UNL     1      12.364 193.111  86.179  1.00  0.00     0.274 HD
ENDBRANCH  11  12
BRANCH  11  16
HETATM   16  C8  UNL     1      11.167 195.600  87.679  1.00  0.00     0.178 A 
HETATM   17  C9  UNL     1      10.700 195.156  89.071  1.00  0.00     0.202 A 
HETATM   18  O1  UNL     1      11.990 195.498  88.750  1.00  0.00    -0.379 OA
ENDBRANCH  11  16
ENDBRANCH   5  11
ENDBRANCH   4   5
ENDBRANCH   3   4
TORSDOF 6
ENDMDL
