MODEL 1
REMARK VINA RESULT: -5.766090235      0.000      0.000
REMARK  1 active torsions:
REMARK  status: ('A' for Active; 'I' for Inactive)
REMARK    1  A    between atoms: N2_8  and  O1_9 
ROOT
HETATM    1  N1  UNL     1      22.029  17.610  -6.450  1.00  0.00    -0.190 NA
HETATM    2  C1  UNL     1      22.945  18.035  -7.020  1.00  0.00     0.120 C 
HETATM    3  C2  UNL     1      24.093  18.551  -7.711  1.00  0.00     0.141 A 
HETATM    4  C3  UNL     1      24.973  19.445  -7.140  1.00  0.00     0.043 A 
HETATM    5  C4  UNL     1      26.075  19.940  -7.803  1.00  0.00     0.004 A 
HETATM    6  C5  UNL     1      26.310  19.526  -9.098  1.00  0.00     0.020 A 
HETATM    7  C6  UNL     1      25.425  18.635  -9.652  1.00  0.00     0.124 A 
HETATM    8  N2  UNL     1      24.363  18.175  -8.975  1.00  0.00    -0.226 N 
ENDROOT
BRANCH   8   9
HETATM    9  O1  UNL     1      23.474  17.278  -9.539  1.00  0.00    -0.282 OA
ATOM     10  H1  UNL     1      23.510  17.201 -10.485  1.00  0.00     0.245 HD
ENDBRANCH   8   9
TORSDOF 1
ENDMDL
MODEL 2
REMARK VINA RESULT: -5.615737385      1.070      1.233
REMARK  1 active torsions:
REMARK  status: ('A' for Active; 'I' for Inactive)
REMARK    1  A    between atoms: N2_8  and  O1_9 
ROOT
HETATM    1  N1  UNL     1      21.749  16.188  -7.701  1.00  0.00    -0.190 NA
HETATM    2  C1  UNL     1      22.692  16.863  -7.735  1.00  0.00     0.120 C 
HETATM    3  C2  UNL     1      23.870  17.683  -7.770  1.00  0.00     0.141 A 
HETATM    4  C3  UNL     1      24.509  18.124  -6.631  1.00  0.00     0.043 A 
HETATM    5  C4  UNL     1      25.640  18.911  -6.663  1.00  0.00     0.004 A 
HETATM    6  C5  UNL     1      26.157  19.276  -7.888  1.00  0.00     0.020 A 
HETATM    7  C6  UNL     1      25.509  18.829  -9.013  1.00  0.00     0.124 A 
HETATM    8  N2  UNL     1      24.410  18.064  -8.942  1.00  0.00    -0.226 N 
ENDROOT
BRANCH   8   9
HETATM    9  O1  UNL     1      23.761  17.617 -10.077  1.00  0.00    -0.282 OA
ATOM     10  H1  UNL     1      24.209  16.938 -10.569  1.00  0.00     0.245 HD
ENDBRANCH   8   9
TORSDOF 1
ENDMDL
MODEL 3
REMARK VINA RESULT: -5.525490523      1.341      1.522
REMARK  1 active torsions:
REMARK  status: ('A' for Active; 'I' for Inactive)
REMARK    1  A    between atoms: N2_8  and  O1_9 
ROOT
HETATM    1  N1  UNL     1      21.518  16.029  -7.674  1.00  0.00    -0.190 NA
HETATM    2  C1  UNL     1      22.447  16.720  -7.742  1.00  0.00     0.120 C 
HETATM    3  C2  UNL     1      23.600  17.574  -7.804  1.00  0.00     0.141 A 
HETATM    4  C3  UNL     1      23.633  18.830  -7.237  1.00  0.00     0.043 A 
HETATM    5  C4  UNL     1      24.740  19.650  -7.297  1.00  0.00     0.004 A 
HETATM    6  C5  UNL     1      25.865  19.196  -7.953  1.00  0.00     0.020 A 
HETATM    7  C6  UNL     1      25.816  17.943  -8.511  1.00  0.00     0.124 A 
HETATM    8  N2  UNL     1      24.721  17.174  -8.433  1.00  0.00    -0.226 N 
ENDROOT
BRANCH   8   9
HETATM    9  O1  UNL     1      24.676  15.913  -8.998  1.00  0.00    -0.282 OA
ATOM     10  H1  UNL     1      23.927  15.735  -9.554  1.00  0.00     0.245 HD
ENDBRANCH   8   9
TORSDOF 1
ENDMDL
MODEL 4
REMARK VINA RESULT: -5.261386406      1.748      2.190
REMARK  1 active torsions:
REMARK  status: ('A' for Active; 'I' for Inactive)
REMARK    1  A    between atoms: N2_8  and  O1_9 
ROOT
HETATM    1  N1  UNL     1      22.412  17.779  -6.415  1.00  0.00    -0.190 NA
HETATM    2  C1  UNL     1      23.233  18.133  -7.154  1.00  0.00     0.120 C 
HETATM    3  C2  UNL     1      24.234  18.577  -8.082  1.00  0.00     0.141 A 
HETATM    4  C3  UNL     1      24.480  17.941  -9.280  1.00  0.00     0.043 A 
HETATM    5  C4  UNL     1      25.441  18.367 -10.172  1.00  0.00     0.004 A 
HETATM    6  C5  UNL     1      26.192  19.479  -9.854  1.00  0.00     0.020 A 
HETATM    7  C6  UNL     1      25.935  20.102  -8.658  1.00  0.00     0.124 A 
HETATM    8  N2  UNL     1      24.991  19.658  -7.816  1.00  0.00    -0.226 N 
ENDROOT
BRANCH   8   9
HETATM    9  O1  UNL     1      24.736  20.289  -6.612  1.00  0.00    -0.282 OA
ATOM     10  H1  UNL     1      25.490  20.672  -6.179  1.00  0.00     0.245 HD
ENDBRANCH   8   9
TORSDOF 1
ENDMDL
MODEL 5
REMARK VINA RESULT: -5.240334101      2.259      3.813
REMARK  1 active torsions:
REMARK  status: ('A' for Active; 'I' for Inactive)
REMARK    1  A    between atoms: N2_8  and  O1_9 
ROOT
HETATM    1  N1  UNL     1      27.499  20.061  -8.431  1.00  0.00    -0.190 NA
HETATM    2  C1  UNL     1      26.546  19.419  -8.277  1.00  0.00     0.120 C 
HETATM    3  C2  UNL     1      25.377  18.611  -8.073  1.00  0.00     0.141 A 
HETATM    4  C3  UNL     1      25.256  17.330  -8.568  1.00  0.00     0.043 A 
HETATM    5  C4  UNL     1      24.134  16.554  -8.373  1.00  0.00     0.004 A 
HETATM    6  C5  UNL     1      23.083  17.079  -7.651  1.00  0.00     0.020 A 
HETATM    7  C6  UNL     1      23.219  18.355  -7.164  1.00  0.00     0.124 A 
HETATM    8  N2  UNL     1      24.326  19.081  -7.374  1.00  0.00    -0.226 N 
ENDROOT
BRANCH   8   9
HETATM    9  O1  UNL     1      24.458  20.366  -6.882  1.00  0.00    -0.282 OA
ATOM     10  H1  UNL     1      24.842  20.439  -6.016  1.00  0.00     0.245 HD
ENDBRANCH   8   9
TORSDOF 1
ENDMDL
