MODEL 1
REMARK VINA RESULT: -5.931080223      0.000      0.000
REMARK  1 active torsions:
REMARK  status: ('A' for Active; 'I' for Inactive)
REMARK    1  A    between atoms: C7_8  and  N2_9 
ROOT
HETATM    1  C1  UNL     1      25.746  19.213  -8.896  1.00  0.00     0.021 C 
HETATM    2  C2  UNL     1      25.179  18.574  -7.631  1.00  0.00     0.004 A 
HETATM    3  C3  UNL     1      26.029  18.851  -6.398  1.00  0.00     0.021 C 
HETATM    4  C4  UNL     1      23.757  18.695  -7.468  1.00  0.00     0.005 A 
HETATM    5  C5  UNL     1      23.537  17.450  -7.658  1.00  0.00     0.051 A 
HETATM    6  C6  UNL     1      22.291  16.670  -7.665  1.00  0.00     0.097 C 
HETATM    7  N1  UNL     1      21.304  16.025  -7.676  1.00  0.00    -0.192 NA
HETATM    8  C7  UNL     1      24.945  17.147  -7.850  1.00  0.00     0.238 A 
ENDROOT
BRANCH   8   9
HETATM    9  N2  UNL     1      25.233  16.635  -9.188  1.00  0.00    -0.069 N 
ATOM     10  H23 UNL     1      24.517  15.960  -9.458  1.00  0.00     0.275 HD
ATOM     11  H22 UNL     1      25.068  17.368  -9.878  1.00  0.00     0.275 HD
ATOM     12  H21 UNL     1      26.157  16.229  -9.332  1.00  0.00     0.275 HD
ENDBRANCH   8   9
TORSDOF 1
ENDMDL
MODEL 2
REMARK VINA RESULT: -5.417227468      2.325      4.026
REMARK  1 active torsions:
REMARK  status: ('A' for Active; 'I' for Inactive)
REMARK    1  A    between atoms: C7_8  and  N2_9 
ROOT
HETATM    1  C1  UNL     1      24.642  16.925  -8.468  1.00  0.00     0.021 C 
HETATM    2  C2  UNL     1      24.386  18.023  -7.440  1.00  0.00     0.004 A 
HETATM    3  C3  UNL     1      22.928  18.099  -7.007  1.00  0.00     0.021 C 
HETATM    4  C4  UNL     1      25.370  18.127  -6.398  1.00  0.00     0.005 A 
HETATM    5  C5  UNL     1      25.828  19.245  -6.816  1.00  0.00     0.051 A 
HETATM    6  C6  UNL     1      26.904  20.109  -6.308  1.00  0.00     0.097 C 
HETATM    7  N1  UNL     1      27.763  20.816  -5.920  1.00  0.00    -0.192 NA
HETATM    8  C7  UNL     1      24.899  19.302  -7.931  1.00  0.00     0.238 A 
ENDROOT
BRANCH   8   9
HETATM    9  N2  UNL     1      25.573  19.281  -9.227  1.00  0.00    -0.069 N 
ATOM     10  H23 UNL     1      26.468  19.766  -9.156  1.00  0.00     0.275 HD
ATOM     11  H22 UNL     1      25.890  18.334  -9.434  1.00  0.00     0.275 HD
ATOM     12  H21 UNL     1      25.048  19.648 -10.021  1.00  0.00     0.275 HD
ENDBRANCH   8   9
TORSDOF 1
ENDMDL
MODEL 3
REMARK VINA RESULT: -5.404882217      1.194      1.305
REMARK  1 active torsions:
REMARK  status: ('A' for Active; 'I' for Inactive)
REMARK    1  A    between atoms: C7_8  and  N2_9 
ROOT
HETATM    1  C1  UNL     1      26.224  19.496  -9.410  1.00  0.00     0.021 C 
HETATM    2  C2  UNL     1      25.885  19.331  -7.932  1.00  0.00     0.004 A 
HETATM    3  C3  UNL     1      27.010  19.788  -7.013  1.00  0.00     0.021 C 
HETATM    4  C4  UNL     1      24.554  19.725  -7.560  1.00  0.00     0.005 A 
HETATM    5  C5  UNL     1      24.167  18.530  -7.323  1.00  0.00     0.051 A 
HETATM    6  C6  UNL     1      22.873  17.997  -6.871  1.00  0.00     0.097 C 
HETATM    7  N1  UNL     1      21.846  17.546  -6.510  1.00  0.00    -0.192 NA
HETATM    8  C7  UNL     1      25.458  17.958  -7.664  1.00  0.00     0.238 A 
ENDROOT
BRANCH   8   9
HETATM    9  N2  UNL     1      25.387  17.059  -8.814  1.00  0.00    -0.069 N 
ATOM     10  H23 UNL     1      25.046  17.570  -9.628  1.00  0.00     0.275 HD
ATOM     11  H22 UNL     1      26.331  16.823  -9.123  1.00  0.00     0.275 HD
ATOM     12  H21 UNL     1      24.843  16.205  -8.693  1.00  0.00     0.275 HD
ENDBRANCH   8   9
TORSDOF 1
ENDMDL
MODEL 4
REMARK VINA RESULT: -4.929719630      2.871      4.359
REMARK  1 active torsions:
REMARK  status: ('A' for Active; 'I' for Inactive)
REMARK    1  A    between atoms: C7_8  and  N2_9 
ROOT
HETATM    1  C1  UNL     1      25.242  18.406  -9.016  1.00  0.00     0.021 C 
HETATM    2  C2  UNL     1      24.854  18.769  -7.586  1.00  0.00     0.004 A 
HETATM    3  C3  UNL     1      23.400  18.444  -7.268  1.00  0.00     0.021 C 
HETATM    4  C4  UNL     1      25.821  18.424  -6.581  1.00  0.00     0.005 A 
HETATM    5  C5  UNL     1      26.130  19.639  -6.331  1.00  0.00     0.051 A 
HETATM    6  C6  UNL     1      27.090  20.224  -5.383  1.00  0.00     0.097 C 
HETATM    7  N1  UNL     1      27.853  20.716  -4.631  1.00  0.00    -0.192 NA
HETATM    8  C7  UNL     1      25.195  20.164  -7.310  1.00  0.00     0.238 A 
ENDROOT
BRANCH   8   9
HETATM    9  N2  UNL     1      25.860  20.899  -8.384  1.00  0.00    -0.069 N 
ATOM     10  H23 UNL     1      26.867  20.745  -8.333  1.00  0.00     0.275 HD
ATOM     11  H22 UNL     1      25.650  20.460  -9.281  1.00  0.00     0.275 HD
ATOM     12  H21 UNL     1      25.669  21.899  -8.439  1.00  0.00     0.275 HD
ENDBRANCH   8   9
TORSDOF 1
ENDMDL
MODEL 5
REMARK VINA RESULT: -4.837873269      1.977      2.604
REMARK  1 active torsions:
REMARK  status: ('A' for Active; 'I' for Inactive)
REMARK    1  A    between atoms: C7_8  and  N2_9 
ROOT
HETATM    1  C1  UNL     1      27.231  19.435  -7.909  1.00  0.00     0.021 C 
HETATM    2  C2  UNL     1      25.940  19.120  -8.658  1.00  0.00     0.004 A 
HETATM    3  C3  UNL     1      26.051  19.367 -10.156  1.00  0.00     0.021 C 
HETATM    4  C4  UNL     1      25.277  17.910  -8.256  1.00  0.00     0.005 A 
HETATM    5  C5  UNL     1      24.291  18.520  -7.718  1.00  0.00     0.051 A 
HETATM    6  C6  UNL     1      23.091  18.018  -7.033  1.00  0.00     0.097 C 
HETATM    7  N1  UNL     1      22.122  17.638  -6.480  1.00  0.00    -0.192 NA
HETATM    8  C7  UNL     1      24.818  19.833  -8.048  1.00  0.00     0.238 A 
ENDROOT
BRANCH   8   9
HETATM    9  N2  UNL     1      25.118  20.633  -6.862  1.00  0.00    -0.069 N 
ATOM     10  H23 UNL     1      26.119  20.825  -6.823  1.00  0.00     0.275 HD
ATOM     11  H22 UNL     1      24.751  21.577  -6.983  1.00  0.00     0.275 HD
ATOM     12  H21 UNL     1      24.806  20.256  -5.967  1.00  0.00     0.275 HD
ENDBRANCH   8   9
TORSDOF 1
ENDMDL
