MODEL 1
REMARK VINA RESULT: -6.084056837      0.000      0.000
REMARK  5 active torsions:
REMARK  status: ('A' for Active; 'I' for Inactive)
REMARK    1  A    between atoms: C2_2  and  C3_3 
REMARK    2  A    between atoms: C3_3  and  N1_4 
REMARK    3  A    between atoms: N1_4  and  C4_7 
REMARK    4  A    between atoms: C7_10  and  C8_11 
REMARK    5  A    between atoms: C8_11  and  N2_12 
ROOT
HETATM    1  C4  UNL     1      56.590 359.264  85.059  1.00  0.00     0.186 C 
HETATM    2  C5  UNL     1      55.290 359.895  85.543  1.00  0.00     0.033 C 
HETATM    3  C6  UNL     1      54.305 359.116  84.692  1.00  0.00     0.008 C 
HETATM    4  C7  UNL     1      54.815 357.720  84.819  1.00  0.00     0.013 C 
HETATM    5  C9  UNL     1      56.264 357.792  85.211  1.00  0.00     0.039 C 
ENDROOT
BRANCH   1   6
HETATM    6  N1  UNL     1      57.716 359.665  85.863  1.00  0.00    -0.068 N 
ATOM      7  H12 UNL     1      57.784 360.675  85.989  1.00  0.00     0.277 HD
ATOM      8  H11 UNL     1      58.613 359.535  85.395  1.00  0.00     0.277 HD
BRANCH   6   9
HETATM    9  C3  UNL     1      57.606 358.930  87.121  1.00  0.00     0.259 C 
BRANCH   9  10
HETATM   10  C2  UNL     1      57.854 359.780  88.286  1.00  0.00    -0.010 C 
HETATM   11  C1  UNL     1      56.859 360.308  88.957  1.00  0.00     0.008 C 
ENDBRANCH   9  10
ENDBRANCH   6   9
ENDBRANCH   1   6
BRANCH   4  12
HETATM   12  C8  UNL     1      54.677 356.909  83.555  1.00  0.00     0.234 C 
BRANCH  12  13
HETATM   13  N2  UNL     1      55.801 357.090  82.659  1.00  0.00    -0.079 N 
ATOM     14  H23 UNL     1      55.806 358.029  82.260  1.00  0.00     0.274 HD
ATOM     15  H22 UNL     1      56.680 357.127  83.174  1.00  0.00     0.274 HD
ATOM     16  H21 UNL     1      55.833 356.380  81.928  1.00  0.00     0.274 HD
ENDBRANCH  12  13
ENDBRANCH   4  12
TORSDOF 5
ENDMDL
MODEL 2
REMARK VINA RESULT: -5.962385672      1.335      4.685
REMARK  5 active torsions:
REMARK  status: ('A' for Active; 'I' for Inactive)
REMARK    1  A    between atoms: C2_2  and  C3_3 
REMARK    2  A    between atoms: C3_3  and  N1_4 
REMARK    3  A    between atoms: N1_4  and  C4_7 
REMARK    4  A    between atoms: C7_10  and  C8_11 
REMARK    5  A    between atoms: C8_11  and  N2_12 
ROOT
HETATM    1  C4  UNL     1      56.811 359.121  85.078  1.00  0.00     0.186 C 
HETATM    2  C5  UNL     1      57.089 357.693  85.532  1.00  0.00     0.033 C 
HETATM    3  C6  UNL     1      57.986 357.983  86.720  1.00  0.00     0.008 C 
HETATM    4  C7  UNL     1      57.261 359.096  87.399  1.00  0.00     0.013 C 
HETATM    5  C9  UNL     1      56.370 359.753  86.382  1.00  0.00     0.039 C 
ENDROOT
BRANCH   1   6
HETATM    6  N1  UNL     1      55.787 359.174  84.066  1.00  0.00    -0.068 N 
ATOM      7  H12 UNL     1      55.956 358.541  83.285  1.00  0.00     0.277 HD
ATOM      8  H11 UNL     1      55.794 360.042  83.529  1.00  0.00     0.277 HD
BRANCH   6   9
HETATM    9  C3  UNL     1      54.519 358.926  84.750  1.00  0.00     0.259 C 
BRANCH   9  10
HETATM   10  C2  UNL     1      53.677 357.970  84.029  1.00  0.00    -0.010 C 
HETATM   11  C1  UNL     1      54.056 356.725  83.872  1.00  0.00     0.008 C 
ENDBRANCH   9  10
ENDBRANCH   6   9
ENDBRANCH   1   6
BRANCH   4  12
HETATM   12  C8  UNL     1      58.173 360.130  88.009  1.00  0.00     0.234 C 
BRANCH  12  13
HETATM   13  N2  UNL     1      59.404 360.287  87.260  1.00  0.00    -0.079 N 
ATOM     14  H23 UNL     1      59.593 361.271  87.065  1.00  0.00     0.274 HD
ATOM     15  H22 UNL     1      60.216 360.078  87.840  1.00  0.00     0.274 HD
ATOM     16  H21 UNL     1      59.411 359.734  86.404  1.00  0.00     0.274 HD
ENDBRANCH  12  13
ENDBRANCH   4  12
TORSDOF 5
ENDMDL
MODEL 3
REMARK VINA RESULT: -5.948022088      1.664      4.778
REMARK  5 active torsions:
REMARK  status: ('A' for Active; 'I' for Inactive)
REMARK    1  A    between atoms: C2_2  and  C3_3 
REMARK    2  A    between atoms: C3_3  and  N1_4 
REMARK    3  A    between atoms: N1_4  and  C4_7 
REMARK    4  A    between atoms: C7_10  and  C8_11 
REMARK    5  A    between atoms: C8_11  and  N2_12 
ROOT
HETATM    1  C4  UNL     1      57.372 359.635  85.699  1.00  0.00     0.186 C 
HETATM    2  C5  UNL     1      58.874 359.502  85.918  1.00  0.00     0.033 C 
HETATM    3  C6  UNL     1      58.981 360.137  87.291  1.00  0.00     0.008 C 
HETATM    4  C7  UNL     1      57.833 359.518  88.015  1.00  0.00     0.013 C 
HETATM    5  C9  UNL     1      56.844 359.042  86.989  1.00  0.00     0.039 C 
ENDROOT
BRANCH   1   6
HETATM    6  N1  UNL     1      56.930 358.908  84.536  1.00  0.00    -0.068 N 
ATOM      7  H12 UNL     1      57.695 358.500  83.998  1.00  0.00     0.277 HD
ATOM      8  H11 UNL     1      56.563 359.509  83.798  1.00  0.00     0.277 HD
BRANCH   6   9
HETATM    9  C3  UNL     1      55.965 357.919  85.012  1.00  0.00     0.259 C 
BRANCH   9  10
HETATM   10  C2  UNL     1      54.667 358.042  84.346  1.00  0.00    -0.010 C 
HETATM   11  C1  UNL     1      53.896 359.080  84.564  1.00  0.00     0.008 C 
ENDBRANCH   9  10
ENDBRANCH   6   9
ENDBRANCH   1   6
BRANCH   4  12
HETATM   12  C8  UNL     1      57.147 360.455  88.976  1.00  0.00     0.234 C 
BRANCH  12  13
HETATM   13  N2  UNL     1      56.471 359.750  90.046  1.00  0.00    -0.079 N 
ATOM     14  H23 UNL     1      57.069 359.027  90.446  1.00  0.00     0.274 HD
ATOM     15  H22 UNL     1      56.361 360.344  90.867  1.00  0.00     0.274 HD
ATOM     16  H21 UNL     1      55.574 359.364  89.749  1.00  0.00     0.274 HD
ENDBRANCH  12  13
ENDBRANCH   4  12
TORSDOF 5
ENDMDL
MODEL 4
REMARK VINA RESULT: -5.665512218      1.319      2.121
REMARK  5 active torsions:
REMARK  status: ('A' for Active; 'I' for Inactive)
REMARK    1  A    between atoms: C2_2  and  C3_3 
REMARK    2  A    between atoms: C3_3  and  N1_4 
REMARK    3  A    between atoms: N1_4  and  C4_7 
REMARK    4  A    between atoms: C7_10  and  C8_11 
REMARK    5  A    between atoms: C8_11  and  N2_12 
ROOT
HETATM    1  C4  UNL     1      56.867 359.199  86.767  1.00  0.00     0.186 C 
HETATM    2  C5  UNL     1      57.531 358.053  86.015  1.00  0.00     0.033 C 
HETATM    3  C6  UNL     1      56.343 357.568  85.205  1.00  0.00     0.008 C 
HETATM    4  C7  UNL     1      55.756 358.847  84.709  1.00  0.00     0.013 C 
HETATM    5  C9  UNL     1      56.214 359.948  85.624  1.00  0.00     0.039 C 
ENDROOT
BRANCH   1   6
HETATM    6  N1  UNL     1      57.827 360.005  87.477  1.00  0.00    -0.068 N 
ATOM      7  H12 UNL     1      57.778 360.996  87.240  1.00  0.00     0.277 HD
ATOM      8  H11 UNL     1      58.789 359.849  87.174  1.00  0.00     0.277 HD
BRANCH   6   9
HETATM    9  C3  UNL     1      57.616 359.739  88.899  1.00  0.00     0.259 C 
BRANCH   9  10
HETATM   10  C2  UNL     1      56.372 360.329  89.397  1.00  0.00    -0.010 C 
HETATM   11  C1  UNL     1      56.278 361.619  89.608  1.00  0.00     0.008 C 
ENDBRANCH   9  10
ENDBRANCH   6   9
ENDBRANCH   1   6
BRANCH   4  12
HETATM   12  C8  UNL     1      54.250 358.838  84.649  1.00  0.00     0.234 C 
BRANCH  12  13
HETATM   13  N2  UNL     1      53.736 357.714  83.893  1.00  0.00    -0.079 N 
ATOM     14  H23 UNL     1      53.376 358.013  82.987  1.00  0.00     0.274 HD
ATOM     15  H22 UNL     1      54.491 357.107  83.576  1.00  0.00     0.274 HD
ATOM     16  H21 UNL     1      53.033 357.186  84.412  1.00  0.00     0.274 HD
ENDBRANCH  12  13
ENDBRANCH   4  12
TORSDOF 5
ENDMDL
MODEL 5
REMARK VINA RESULT: -5.594364844      1.511      4.730
REMARK  5 active torsions:
REMARK  status: ('A' for Active; 'I' for Inactive)
REMARK    1  A    between atoms: C2_2  and  C3_3 
REMARK    2  A    between atoms: C3_3  and  N1_4 
REMARK    3  A    between atoms: N1_4  and  C4_7 
REMARK    4  A    between atoms: C7_10  and  C8_11 
REMARK    5  A    between atoms: C8_11  and  N2_12 
ROOT
HETATM    1  C4  UNL     1      56.351 357.796  85.483  1.00  0.00     0.186 C 
HETATM    2  C5  UNL     1      56.044 359.166  84.891  1.00  0.00     0.033 C 
HETATM    3  C6  UNL     1      56.119 360.003  86.154  1.00  0.00     0.008 C 
HETATM    4  C7  UNL     1      57.355 359.479  86.806  1.00  0.00     0.013 C 
HETATM    5  C9  UNL     1      57.612 358.101  86.265  1.00  0.00     0.039 C 
ENDROOT
BRANCH   1   6
HETATM    6  N1  UNL     1      56.563 356.803  84.461  1.00  0.00    -0.068 N 
ATOM      7  H12 UNL     1      56.624 355.852  84.827  1.00  0.00     0.277 HD
ATOM      8  H11 UNL     1      57.496 356.839  84.049  1.00  0.00     0.277 HD
BRANCH   6   9
HETATM    9  C3  UNL     1      55.490 356.981  83.486  1.00  0.00     0.259 C 
BRANCH   9  10
HETATM   10  C2  UNL     1      54.228 356.388  83.931  1.00  0.00    -0.010 C 
HETATM   11  C1  UNL     1      53.079 356.925  83.602  1.00  0.00     0.008 C 
ENDBRANCH   9  10
ENDBRANCH   6   9
ENDBRANCH   1   6
BRANCH   4  12
HETATM   12  C8  UNL     1      57.266 359.420  88.310  1.00  0.00     0.234 C 
BRANCH  12  13
HETATM   13  N2  UNL     1      56.848 360.682  88.887  1.00  0.00    -0.079 N 
ATOM     14  H23 UNL     1      55.832 360.742  88.944  1.00  0.00     0.274 HD
ATOM     15  H22 UNL     1      57.070 360.722  89.882  1.00  0.00     0.274 HD
ATOM     16  H21 UNL     1      57.238 361.483  88.391  1.00  0.00     0.274 HD
ENDBRANCH  12  13
ENDBRANCH   4  12
TORSDOF 5
ENDMDL
