MODEL 1
REMARK VINA RESULT: -6.877272006      0.000      0.000
REMARK  5 active torsions:
REMARK  status: ('A' for Active; 'I' for Inactive)
REMARK    1  A    between atoms: C2_2  and  C3_3 
REMARK    2  A    between atoms: C3_3  and  C5_5 
REMARK    3  A    between atoms: C7_10  and  C8_11 
REMARK    4  A    between atoms: N4_33  and  S2_34 
REMARK    5  A    between atoms: C23_38  and  C24_39 
REMARK       I    between atoms: C24_39  and  N5_41 
ROOT
HETATM    1  C5  UNL     1       1.622 -12.411  13.756  1.00  0.00     0.043 C 
HETATM    2  N1  UNL     1       0.493 -11.556  14.075  1.00  0.00    -0.327 N 
ATOM      3  H1  UNL     1      -0.369 -11.771  13.575  1.00  0.00     0.168 HD
HETATM    4  C6  UNL     1       0.412 -10.478  14.972  1.00  0.00     0.245 C 
HETATM    5  O1  UNL     1      -0.330 -10.577  16.021  1.00  0.00    -0.271 OA
HETATM    6  C7  UNL     1       1.070  -9.150  14.922  1.00  0.00     0.180 C 
HETATM    7  N2  UNL     1       1.846  -8.872  16.120  1.00  0.00    -0.347 N 
ATOM      8  H2  UNL     1       1.494  -9.179  17.027  1.00  0.00     0.163 HD
HETATM    9  C11 UNL     1       3.086  -8.182  16.050  1.00  0.00     0.223 C 
HETATM   10  O2  UNL     1       3.674  -8.142  17.162  1.00  0.00    -0.273 OA
HETATM   11  C12 UNL     1       3.666  -7.568  14.872  1.00  0.00     0.088 C 
HETATM   12  C13 UNL     1       3.906  -6.080  15.246  1.00  0.00     0.072 C 
HETATM   13  C14 UNL     1       5.211  -5.934  15.996  1.00  0.00     0.027 A 
HETATM   14  N3  UNL     1       5.490  -5.386  17.140  1.00  0.00    -0.320 N 
ATOM     15  H3  UNL     1       4.751  -4.958  17.698  1.00  0.00     0.169 HD
HETATM   16  C15 UNL     1       6.735  -5.388  17.575  1.00  0.00     0.288 A 
HETATM   17  O3  UNL     1       7.217  -4.908  18.660  1.00  0.00    -0.260 OA
HETATM   18  S1  UNL     1       7.574  -6.208  16.304  1.00  0.00    -0.032 SA
HETATM   19  C16 UNL     1       6.222  -6.493  15.286  1.00  0.00     0.011 A 
HETATM   20  C17 UNL     1       5.866  -7.114  13.980  1.00  0.00     0.054 C 
HETATM   21  C18 UNL     1       4.738  -8.146  14.095  1.00  0.00     0.013 C 
HETATM   22  C19 UNL     1       5.170  -9.578  14.160  1.00  0.00    -0.030 C 
HETATM   23  C20 UNL     1       5.188 -10.259  15.476  1.00  0.00     0.016 C 
HETATM   24  C21 UNL     1       6.700  -9.526  13.867  1.00  0.00     0.016 C 
HETATM   25  C22 UNL     1       4.570 -10.415  13.089  1.00  0.00     0.125 C 
HETATM   26  N4  UNL     1       4.011 -11.713  13.244  1.00  0.00    -0.149 NA
HETATM   27  C23 UNL     1       2.639 -11.839  12.814  1.00  0.00     0.118 C 
ENDROOT
BRANCH  27  28
HETATM   28  C24 UNL     1       2.410 -12.293  11.420  1.00  0.00     0.267 C 
HETATM   29  O7  UNL     1       2.051 -13.485  11.289  1.00  0.00    -0.266 OA
HETATM   30  N5  UNL     1       2.545 -11.546  10.234  1.00  0.00    -0.356 N 
HETATM   31  C25 UNL     1       2.270 -12.172   8.924  1.00  0.00     0.152 C 
HETATM   32  C26 UNL     1       2.936 -10.154  10.144  1.00  0.00     0.152 C 
ENDBRANCH  27  28
BRANCH   1  33
HETATM   33  C3  UNL     1       1.977 -13.387  14.794  1.00  0.00     0.033 C 
HETATM   34  C4  UNL     1       1.165 -13.526  16.012  1.00  0.00     0.016 C 
BRANCH  33  35
HETATM   35  C2  UNL     1       1.852 -14.802  14.144  1.00  0.00     0.006 C 
HETATM   36  C1  UNL     1       1.758 -15.854  15.198  1.00  0.00     0.006 C 
ENDBRANCH  33  35
ENDBRANCH   1  33
BRANCH  26  37
HETATM   37  S2  UNL     1       5.009 -12.777  12.337  1.00  0.00     0.190 S 
HETATM   38  O4  UNL     1       6.376 -12.992  12.989  1.00  0.00    -0.582 OA
HETATM   39  O5  UNL     1       4.575 -14.192  12.230  1.00  0.00    -0.582 OA
HETATM   40  O6  UNL     1       5.481 -12.112  10.843  1.00  0.00    -0.582 OA
ENDBRANCH  26  37
BRANCH   6  41
HETATM   41  C8  UNL     1      -0.028  -8.065  14.885  1.00  0.00     0.009 C 
HETATM   42  C9  UNL     1      -0.046  -7.359  16.245  1.00  0.00     0.012 C 
HETATM   43  C10 UNL     1       0.157  -7.082  13.787  1.00  0.00     0.012 C 
ENDBRANCH   6  41
TORSDOF 5
ENDMDL
MODEL 2
REMARK VINA RESULT: -6.654778236      3.871      7.059
REMARK  5 active torsions:
REMARK  status: ('A' for Active; 'I' for Inactive)
REMARK    1  A    between atoms: C2_2  and  C3_3 
REMARK    2  A    between atoms: C3_3  and  C5_5 
REMARK    3  A    between atoms: C7_10  and  C8_11 
REMARK    4  A    between atoms: N4_33  and  S2_34 
REMARK    5  A    between atoms: C23_38  and  C24_39 
REMARK       I    between atoms: C24_39  and  N5_41 
ROOT
HETATM    1  C5  UNL     1      -3.251 -10.395  15.335  1.00  0.00     0.043 C 
HETATM    2  N1  UNL     1      -2.631 -11.465  14.576  1.00  0.00    -0.327 N 
ATOM      3  H1  UNL     1      -3.100 -12.368  14.636  1.00  0.00     0.168 HD
HETATM    4  C6  UNL     1      -1.480 -11.441  13.771  1.00  0.00     0.245 C 
HETATM    5  O1  UNL     1      -1.590 -11.618  12.499  1.00  0.00    -0.271 OA
HETATM    6  C7  UNL     1      -0.061 -11.236  14.149  1.00  0.00     0.180 C 
HETATM    7  N2  UNL     1       0.550 -10.131  13.427  1.00  0.00    -0.347 N 
ATOM      8  H2  UNL     1       0.306  -9.976  12.449  1.00  0.00     0.163 HD
HETATM    9  C11 UNL     1       1.480  -9.264  14.061  1.00  0.00     0.223 C 
HETATM   10  O2  UNL     1       1.807  -8.295  13.325  1.00  0.00    -0.273 OA
HETATM   11  C12 UNL     1       2.032  -9.415  15.392  1.00  0.00     0.088 C 
HETATM   12  C13 UNL     1       3.574  -9.438  15.209  1.00  0.00     0.072 C 
HETATM   13  C14 UNL     1       4.110  -8.027  15.120  1.00  0.00     0.027 A 
HETATM   14  N3  UNL     1       4.864  -7.447  14.236  1.00  0.00    -0.320 N 
ATOM     15  H3  UNL     1       5.194  -7.966  13.422  1.00  0.00     0.169 HD
HETATM   16  C15 UNL     1       5.200  -6.182  14.397  1.00  0.00     0.288 A 
HETATM   17  O3  UNL     1       5.924  -5.432  13.653  1.00  0.00    -0.260 OA
HETATM   18  S1  UNL     1       4.412  -5.772  15.882  1.00  0.00    -0.032 SA
HETATM   19  C16 UNL     1       3.693  -7.301  16.187  1.00  0.00     0.011 A 
HETATM   20  C17 UNL     1       2.829  -7.997  17.180  1.00  0.00     0.054 C 
HETATM   21  C18 UNL     1       1.601  -8.659  16.545  1.00  0.00     0.013 C 
HETATM   22  C19 UNL     1       0.323  -7.882  16.633  1.00  0.00    -0.030 C 
HETATM   23  C20 UNL     1      -0.142  -7.135  15.441  1.00  0.00     0.016 C 
HETATM   24  C21 UNL     1       0.670  -6.690  17.575  1.00  0.00     0.016 C 
HETATM   25  C22 UNL     1      -0.770  -8.634  17.301  1.00  0.00     0.125 C 
HETATM   26  N4  UNL     1      -2.123  -8.716  16.874  1.00  0.00    -0.149 NA
HETATM   27  C23 UNL     1      -2.610 -10.056  16.648  1.00  0.00     0.118 C 
ENDROOT
BRANCH  27  28
HETATM   28  C24 UNL     1      -3.297 -10.723  17.781  1.00  0.00     0.267 C 
HETATM   29  O7  UNL     1      -4.548 -10.671  17.764  1.00  0.00    -0.266 OA
HETATM   30  N5  UNL     1      -2.714 -11.406  18.866  1.00  0.00    -0.356 N 
HETATM   31  C25 UNL     1      -3.566 -12.012  19.909  1.00  0.00     0.152 C 
HETATM   32  C26 UNL     1      -1.296 -11.600  19.087  1.00  0.00     0.152 C 
ENDBRANCH  27  28
BRANCH   1  33
HETATM   33  C3  UNL     1      -3.966  -9.395  14.532  1.00  0.00     0.033 C 
HETATM   34  C4  UNL     1      -3.234  -8.427  13.702  1.00  0.00     0.016 C 
BRANCH  33  35
HETATM   35  C2  UNL     1      -4.801 -10.182  13.471  1.00  0.00     0.006 C 
HETATM   36  C1  UNL     1      -6.187 -10.422  13.971  1.00  0.00     0.006 C 
ENDBRANCH  33  35
ENDBRANCH   1  33
BRANCH  26  37
HETATM   37  S2  UNL     1      -3.059  -7.953  18.095  1.00  0.00     0.190 S 
HETATM   38  O4  UNL     1      -2.852  -6.437  18.125  1.00  0.00    -0.582 OA
HETATM   39  O5  UNL     1      -4.535  -7.985  17.943  1.00  0.00    -0.582 OA
HETATM   40  O6  UNL     1      -2.543  -8.365  19.664  1.00  0.00    -0.582 OA
ENDBRANCH  26  37
BRANCH   6  41
HETATM   41  C8  UNL     1       0.738 -12.490  13.729  1.00  0.00     0.009 C 
HETATM   42  C9  UNL     1       1.710 -12.084  12.616  1.00  0.00     0.012 C 
HETATM   43  C10 UNL     1       1.469 -13.123  14.857  1.00  0.00     0.012 C 
ENDBRANCH   6  41
TORSDOF 5
ENDMDL
MODEL 3
REMARK VINA RESULT: -6.506746915      2.674      5.377
REMARK  5 active torsions:
REMARK  status: ('A' for Active; 'I' for Inactive)
REMARK    1  A    between atoms: C2_2  and  C3_3 
REMARK    2  A    between atoms: C3_3  and  C5_5 
REMARK    3  A    between atoms: C7_10  and  C8_11 
REMARK    4  A    between atoms: N4_33  and  S2_34 
REMARK    5  A    between atoms: C23_38  and  C24_39 
REMARK       I    between atoms: C24_39  and  N5_41 
ROOT
HETATM    1  C5  UNL     1       4.786 -12.058  11.565  1.00  0.00     0.043 C 
HETATM    2  N1  UNL     1       5.989 -11.841  12.347  1.00  0.00    -0.327 N 
ATOM      3  H1  UNL     1       6.684 -12.586  12.291  1.00  0.00     0.168 HD
HETATM    4  C6  UNL     1       6.339 -10.756  13.168  1.00  0.00     0.245 C 
HETATM    5  O1  UNL     1       7.324  -9.996  12.833  1.00  0.00    -0.271 OA
HETATM    6  C7  UNL     1       5.739 -10.300  14.445  1.00  0.00     0.180 C 
HETATM    7  N2  UNL     1       5.311  -8.912  14.389  1.00  0.00    -0.347 N 
ATOM      8  H2  UNL     1       5.875  -8.234  13.877  1.00  0.00     0.163 HD
HETATM    9  C11 UNL     1       4.122  -8.482  15.037  1.00  0.00     0.223 C 
HETATM   10  O2  UNL     1       3.844  -7.281  14.778  1.00  0.00    -0.273 OA
HETATM   11  C12 UNL     1       3.278  -9.276  15.908  1.00  0.00     0.088 C 
HETATM   12  C13 UNL     1       3.198  -8.493  17.246  1.00  0.00     0.072 C 
HETATM   13  C14 UNL     1       2.138  -7.418  17.159  1.00  0.00     0.027 A 
HETATM   14  N3  UNL     1       2.185  -6.141  17.394  1.00  0.00    -0.320 N 
ATOM     15  H3  UNL     1       3.058  -5.706  17.692  1.00  0.00     0.169 HD
HETATM   16  C15 UNL     1       1.096  -5.412  17.245  1.00  0.00     0.288 A 
HETATM   17  O3  UNL     1       0.930  -4.155  17.422  1.00  0.00    -0.260 OA
HETATM   18  S1  UNL     1      -0.073  -6.585  16.744  1.00  0.00    -0.032 SA
HETATM   19  C16 UNL     1       0.958  -7.957  16.765  1.00  0.00     0.011 A 
HETATM   20  C17 UNL     1       0.941  -9.423  16.503  1.00  0.00     0.054 C 
HETATM   21  C18 UNL     1       2.021  -9.867  15.511  1.00  0.00     0.013 C 
HETATM   22  C19 UNL     1       1.569 -10.052  14.095  1.00  0.00    -0.030 C 
HETATM   23  C20 UNL     1       1.868  -8.990  13.105  1.00  0.00     0.016 C 
HETATM   24  C21 UNL     1       0.019  -9.914  14.172  1.00  0.00     0.016 C 
HETATM   25  C22 UNL     1       1.840 -11.415  13.572  1.00  0.00     0.125 C 
HETATM   26  N4  UNL     1       2.373 -11.741  12.295  1.00  0.00    -0.149 NA
HETATM   27  C23 UNL     1       3.581 -12.530  12.323  1.00  0.00     0.118 C 
ENDROOT
BRANCH  27  28
HETATM   28  C24 UNL     1       3.424 -14.003  12.240  1.00  0.00     0.267 C 
HETATM   29  O7  UNL     1       3.859 -14.538  11.195  1.00  0.00    -0.266 OA
HETATM   30  N5  UNL     1       2.850 -14.867  13.194  1.00  0.00    -0.356 N 
HETATM   31  C25 UNL     1       2.782 -16.320  12.935  1.00  0.00     0.152 C 
HETATM   32  C26 UNL     1       2.295 -14.475  14.472  1.00  0.00     0.152 C 
ENDBRANCH  27  28
BRANCH   1  33
HETATM   33  C3  UNL     1       4.677 -11.242  10.350  1.00  0.00     0.033 C 
HETATM   34  C4  UNL     1       4.491  -9.786  10.431  1.00  0.00     0.016 C 
BRANCH  33  35
HETATM   35  C2  UNL     1       6.043 -11.365   9.600  1.00  0.00     0.006 C 
HETATM   36  C1  UNL     1       6.547 -10.015   9.209  1.00  0.00     0.006 C 
ENDBRANCH  33  35
ENDBRANCH   1  33
BRANCH  26  37
HETATM   37  S2  UNL     1       1.136 -12.593  11.462  1.00  0.00     0.190 S 
HETATM   38  O4  UNL     1       0.184 -11.657  10.714  1.00  0.00    -0.582 OA
HETATM   39  O5  UNL     1       1.549 -13.460  10.329  1.00  0.00    -0.582 OA
HETATM   40  O6  UNL     1       0.046 -13.359  12.521  1.00  0.00    -0.582 OA
ENDBRANCH  26  37
BRANCH   6  41
HETATM   41  C8  UNL     1       6.829 -10.349  15.538  1.00  0.00     0.009 C 
HETATM   42  C9  UNL     1       7.370  -8.928  15.735  1.00  0.00     0.012 C 
HETATM   43  C10 UNL     1       6.342 -10.906  16.826  1.00  0.00     0.012 C 
ENDBRANCH   6  41
TORSDOF 5
ENDMDL
MODEL 4
REMARK VINA RESULT: -6.450771376      2.572      5.353
REMARK  5 active torsions:
REMARK  status: ('A' for Active; 'I' for Inactive)
REMARK    1  A    between atoms: C2_2  and  C3_3 
REMARK    2  A    between atoms: C3_3  and  C5_5 
REMARK    3  A    between atoms: C7_10  and  C8_11 
REMARK    4  A    between atoms: N4_33  and  S2_34 
REMARK    5  A    between atoms: C23_38  and  C24_39 
REMARK       I    between atoms: C24_39  and  N5_41 
ROOT
HETATM    1  C5  UNL     1       2.622 -11.535  12.095  1.00  0.00     0.043 C 
HETATM    2  N1  UNL     1       4.010 -11.424  12.506  1.00  0.00    -0.327 N 
ATOM      3  H1  UNL     1       4.582 -12.249  12.327  1.00  0.00     0.168 HD
HETATM    4  C6  UNL     1       4.681 -10.349  13.112  1.00  0.00     0.245 C 
HETATM    5  O1  UNL     1       5.606  -9.730  12.464  1.00  0.00    -0.271 OA
HETATM    6  C7  UNL     1       4.505  -9.760  14.461  1.00  0.00     0.180 C 
HETATM    7  N2  UNL     1       4.221  -8.335  14.409  1.00  0.00    -0.347 N 
ATOM      8  H2  UNL     1       4.688  -7.756  13.710  1.00  0.00     0.163 HD
HETATM    9  C11 UNL     1       3.306  -7.733  15.314  1.00  0.00     0.223 C 
HETATM   10  O2  UNL     1       3.091  -6.522  15.042  1.00  0.00    -0.273 OA
HETATM   11  C12 UNL     1       2.660  -8.375  16.441  1.00  0.00     0.088 C 
HETATM   12  C13 UNL     1       3.031  -7.520  17.683  1.00  0.00     0.072 C 
HETATM   13  C14 UNL     1       2.103  -6.332  17.796  1.00  0.00     0.027 A 
HETATM   14  N3  UNL     1       2.343  -5.060  17.904  1.00  0.00    -0.320 N 
ATOM     15  H3  UNL     1       3.304  -4.718  17.920  1.00  0.00     0.169 HD
HETATM   16  C15 UNL     1       1.335  -4.214  17.993  1.00  0.00     0.288 A 
HETATM   17  O3  UNL     1       1.352  -2.938  18.105  1.00  0.00    -0.260 OA
HETATM   18  S1  UNL     1      -0.040  -5.261  17.922  1.00  0.00    -0.032 SA
HETATM   19  C16 UNL     1       0.811  -6.745  17.778  1.00  0.00     0.011 A 
HETATM   20  C17 UNL     1       0.574  -8.209  17.650  1.00  0.00     0.054 C 
HETATM   21  C18 UNL     1       1.288  -8.830  16.445  1.00  0.00     0.013 C 
HETATM   22  C19 UNL     1       0.448  -9.031  15.222  1.00  0.00    -0.030 C 
HETATM   23  C20 UNL     1       0.569  -8.064  14.105  1.00  0.00     0.016 C 
HETATM   24  C21 UNL     1      -0.999  -8.704  15.700  1.00  0.00     0.016 C 
HETATM   25  C22 UNL     1       0.424 -10.442  14.759  1.00  0.00     0.125 C 
HETATM   26  N4  UNL     1       0.548 -10.894  13.417  1.00  0.00    -0.149 NA
HETATM   27  C23 UNL     1       1.631 -11.820  13.184  1.00  0.00     0.118 C 
ENDROOT
BRANCH  27  28
HETATM   28  C24 UNL     1       1.309 -13.266  13.268  1.00  0.00     0.267 C 
HETATM   29  O7  UNL     1       1.109 -13.841  12.174  1.00  0.00    -0.266 OA
HETATM   30  N5  UNL     1       1.203 -14.064  14.423  1.00  0.00    -0.356 N 
HETATM   31  C25 UNL     1       0.872 -15.499  14.310  1.00  0.00     0.152 C 
HETATM   32  C26 UNL     1       1.401 -13.618  15.787  1.00  0.00     0.152 C 
ENDBRANCH  27  28
BRANCH   1  33
HETATM   33  C3  UNL     1       2.266 -10.775  10.891  1.00  0.00     0.033 C 
HETATM   34  C4  UNL     1       3.296 -10.087  10.099  1.00  0.00     0.016 C 
BRANCH  33  35
HETATM   35  C2  UNL     1       1.682 -11.800   9.866  1.00  0.00     0.006 C 
HETATM   36  C1  UNL     1       2.784 -12.537   9.180  1.00  0.00     0.006 C 
ENDBRANCH  33  35
ENDBRANCH   1  33
BRANCH  26  37
HETATM   37  S2  UNL     1      -0.950 -11.633  13.018  1.00  0.00     0.190 S 
HETATM   38  O4  UNL     1      -2.122 -10.652  13.091  1.00  0.00    -0.582 OA
HETATM   39  O5  UNL     1      -1.127 -12.105  11.622  1.00  0.00    -0.582 OA
HETATM   40  O6  UNL     1      -1.437 -12.782  14.175  1.00  0.00    -0.582 OA
ENDBRANCH  26  37
BRANCH   6  41
HETATM   41  C8  UNL     1       5.843  -9.884  15.222  1.00  0.00     0.009 C 
HETATM   42  C9  UNL     1       6.482  -8.492  15.290  1.00  0.00     0.012 C 
HETATM   43  C10 UNL     1       5.691 -10.457  16.584  1.00  0.00     0.012 C 
ENDBRANCH   6  41
TORSDOF 5
ENDMDL
MODEL 5
REMARK VINA RESULT: -6.373216974      2.645      5.660
REMARK  5 active torsions:
REMARK  status: ('A' for Active; 'I' for Inactive)
REMARK    1  A    between atoms: C2_2  and  C3_3 
REMARK    2  A    between atoms: C3_3  and  C5_5 
REMARK    3  A    between atoms: C7_10  and  C8_11 
REMARK    4  A    between atoms: N4_33  and  S2_34 
REMARK    5  A    between atoms: C23_38  and  C24_39 
REMARK       I    between atoms: C24_39  and  N5_41 
ROOT
HETATM    1  C5  UNL     1       1.813 -12.986  10.458  1.00  0.00     0.043 C 
HETATM    2  N1  UNL     1       3.081 -13.519   9.994  1.00  0.00    -0.327 N 
ATOM      3  H1  UNL     1       3.042 -14.468   9.621  1.00  0.00     0.168 HD
HETATM    4  C6  UNL     1       4.352 -12.922   9.981  1.00  0.00     0.245 C 
HETATM    5  O1  UNL     1       4.914 -12.645   8.855  1.00  0.00    -0.271 OA
HETATM    6  C7  UNL     1       5.227 -12.529  11.112  1.00  0.00     0.180 C 
HETATM    7  N2  UNL     1       5.598 -11.124  11.061  1.00  0.00    -0.347 N 
ATOM      8  H2  UNL     1       5.786 -10.687  10.158  1.00  0.00     0.163 HD
HETATM    9  C11 UNL     1       5.702 -10.347  12.246  1.00  0.00     0.223 C 
HETATM   10  O2  UNL     1       5.908  -9.129  12.003  1.00  0.00    -0.273 OA
HETATM   11  C12 UNL     1       5.597 -10.832  13.608  1.00  0.00     0.088 C 
HETATM   12  C13 UNL     1       6.915 -10.409  14.309  1.00  0.00     0.072 C 
HETATM   13  C14 UNL     1       6.817  -8.978  14.786  1.00  0.00     0.027 A 
HETATM   14  N3  UNL     1       7.586  -7.949  14.589  1.00  0.00    -0.320 N 
ATOM     15  H3  UNL     1       8.426  -8.039  14.018  1.00  0.00     0.169 HD
HETATM   16  C15 UNL     1       7.272  -6.789  15.132  1.00  0.00     0.288 A 
HETATM   17  O3  UNL     1       7.885  -5.667  15.062  1.00  0.00    -0.260 OA
HETATM   18  S1  UNL     1       5.807  -7.155  15.976  1.00  0.00    -0.032 SA
HETATM   19  C16 UNL     1       5.709  -8.815  15.552  1.00  0.00     0.011 A 
HETATM   20  C17 UNL     1       4.849 -10.015  15.755  1.00  0.00     0.054 C 
HETATM   21  C18 UNL     1       4.426 -10.679  14.441  1.00  0.00     0.013 C 
HETATM   22  C19 UNL     1       3.059 -10.326  13.943  1.00  0.00    -0.030 C 
HETATM   23  C20 UNL     1       2.931  -9.334  12.849  1.00  0.00     0.016 C 
HETATM   24  C21 UNL     1       2.429  -9.512  15.113  1.00  0.00     0.016 C 
HETATM   25  C22 UNL     1       2.188 -11.512  13.745  1.00  0.00     0.125 C 
HETATM   26  N4  UNL     1       1.338 -11.762  12.634  1.00  0.00    -0.149 NA
HETATM   27  C23 UNL     1       1.591 -13.003  11.941  1.00  0.00     0.118 C 
ENDROOT
BRANCH  27  28
HETATM   28  C24 UNL     1       0.797 -14.183  12.362  1.00  0.00     0.267 C 
HETATM   29  O7  UNL     1      -0.242 -14.403  11.699  1.00  0.00    -0.266 OA
HETATM   30  N5  UNL     1       1.071 -15.081  13.412  1.00  0.00    -0.356 N 
HETATM   31  C25 UNL     1       0.157 -16.209  13.685  1.00  0.00     0.152 C 
HETATM   32  C26 UNL     1       2.214 -15.029  14.299  1.00  0.00     0.152 C 
ENDBRANCH  27  28
BRANCH   1  33
HETATM   33  C3  UNL     1       1.209 -11.970   9.587  1.00  0.00     0.033 C 
HETATM   34  C4  UNL     1       2.011 -10.864   9.045  1.00  0.00     0.016 C 
BRANCH  33  35
HETATM   35  C2  UNL     1       0.737 -12.708   8.293  1.00  0.00     0.006 C 
HETATM   36  C1  UNL     1      -0.702 -13.088   8.404  1.00  0.00     0.006 C 
ENDBRANCH  33  35
ENDBRANCH   1  33
BRANCH  26  37
HETATM   37  S2  UNL     1      -0.267 -11.750  13.244  1.00  0.00     0.190 S 
HETATM   38  O4  UNL     1      -0.657 -10.392  13.832  1.00  0.00    -0.582 OA
HETATM   39  O5  UNL     1      -1.371 -11.905  12.263  1.00  0.00    -0.582 OA
HETATM   40  O6  UNL     1      -0.451 -12.743  14.613  1.00  0.00    -0.582 OA
ENDBRANCH  26  37
BRANCH   6  41
HETATM   41  C8  UNL     1       6.556 -13.307  10.990  1.00  0.00     0.009 C 
HETATM   42  C9  UNL     1       7.654 -12.314  10.592  1.00  0.00     0.012 C 
HETATM   43  C10 UNL     1       6.928 -14.028  12.233  1.00  0.00     0.012 C 
ENDBRANCH   6  41
TORSDOF 5
ENDMDL
