MODEL 1
REMARK VINA RESULT: -7.875179275      0.000      0.000
REMARK  8 active torsions:
REMARK  status: ('A' for Active; 'I' for Inactive)
REMARK    1  A    between atoms: O1_1  and  C1_3 
REMARK    2  A    between atoms: C1_3  and  C2_5 
REMARK    3  A    between atoms: C2_5  and  S1_6 
REMARK    4  A    between atoms: C2_5  and  C5_16 
REMARK    5  A    between atoms: S1_6  and  C3_7 
REMARK    6  A    between atoms: C3_7  and  C4_8 
REMARK    7  A    between atoms: N6_20  and  C7_21 
REMARK    8  A    between atoms: C12_29  and  C13_30 
ROOT
HETATM    1  C5  UNL     1       2.699  -7.973  15.505  1.00  0.00     0.007 A 
HETATM    2  C6  UNL     1       2.742  -9.131  14.727  1.00  0.00     0.118 A 
HETATM    3  N5  UNL     1       3.940  -9.743  14.876  1.00  0.00    -0.303 N 
ATOM      4  H5  UNL     1       4.224 -10.608  14.415  1.00  0.00     0.186 HD
HETATM    5  N6  UNL     1       4.708  -9.019  15.739  1.00  0.00    -0.239 N 
HETATM    6  C12 UNL     1       3.996  -7.979  16.114  1.00  0.00     0.077 A 
ENDROOT
BRANCH   1   7
HETATM    7  C2  UNL     1       1.524  -7.227  15.762  1.00  0.00     0.144 C 
BRANCH   7   8
HETATM    8  C1  UNL     1       1.165  -5.959  15.108  1.00  0.00     0.322 C 
HETATM    9  F1  UNL     1       0.272  -5.954  14.077  1.00  0.00    -0.218 F 
BRANCH   8  10
HETATM   10  O1  UNL     1       0.695  -5.084  16.082  1.00  0.00    -0.366 OA
ATOM     11  H1  UNL     1       1.331  -5.065  16.787  1.00  0.00     0.213 HD
ENDBRANCH   8  10
ENDBRANCH   7   8
BRANCH   7  12
HETATM   12  S1  UNL     1       0.059  -8.328  15.103  1.00  0.00    -0.146 SA
BRANCH  12  13
HETATM   13  C3  UNL     1      -1.205  -8.431  16.356  1.00  0.00     0.153 C 
BRANCH  13  14
HETATM   14  C4  UNL     1      -1.562  -7.039  16.836  1.00  0.00     0.119 A 
HETATM   15  N1  UNL     1      -2.238  -6.135  16.136  1.00  0.00    -0.270 N 
HETATM   16  N2  UNL     1      -2.344  -5.030  16.872  1.00  0.00    -0.005 NA
ATOM     17  H1  UNL     1      -2.612  -6.266  15.196  1.00  0.00     0.185 HD
HETATM   18  N3  UNL     1      -1.741  -5.211  18.033  1.00  0.00    -0.225 N 
HETATM   19  N4  UNL     1      -1.275  -6.422  18.001  1.00  0.00    -0.274 N 
ATOM     20  H3  UNL     1      -1.659  -4.540  18.797  1.00  0.00     0.205 HD
ATOM     21  H4  UNL     1      -0.756  -6.856  18.765  1.00  0.00     0.189 HD
ENDBRANCH  13  14
ENDBRANCH  12  13
ENDBRANCH   7  12
ENDBRANCH   1   7
BRANCH   6  22
HETATM   22  C13 UNL     1       4.469  -6.807  16.865  1.00  0.00    -0.006 A 
HETATM   23  C14 UNL     1       5.448  -6.002  16.374  1.00  0.00     0.017 A 
HETATM   24  C15 UNL     1       5.786  -4.835  17.024  1.00  0.00     0.043 A 
HETATM   25  C16 UNL     1       5.179  -4.399  18.182  1.00  0.00     0.116 A 
HETATM   26  F3  UNL     1       5.526  -3.240  18.813  1.00  0.00    -0.206 F 
HETATM   27  C17 UNL     1       4.196  -5.231  18.651  1.00  0.00     0.043 A 
HETATM   28  C18 UNL     1       3.830  -6.433  18.015  1.00  0.00     0.017 A 
ENDBRANCH   6  22
BRANCH   5  29
HETATM   29  C7  UNL     1       6.019  -9.419  15.990  1.00  0.00     0.127 A 
HETATM   30  C8  UNL     1       6.940  -9.184  14.960  1.00  0.00     0.053 A 
HETATM   31  C9  UNL     1       8.249  -9.574  15.022  1.00  0.00     0.047 A 
HETATM   32  C10 UNL     1       8.666 -10.229  16.166  1.00  0.00     0.131 A 
HETATM   33  F2  UNL     1       9.943 -10.696  16.348  1.00  0.00    -0.205 F 
HETATM   34  C11 UNL     1       7.744 -10.462  17.193  1.00  0.00     0.132 A 
HETATM   35  N7  UNL     1       6.467 -10.042  17.050  1.00  0.00    -0.348 N 
ATOM     36  H7  UNL     1       5.815 -10.222  17.813  1.00  0.00     0.167 HD
ENDBRANCH   5  29
TORSDOF 8
ENDMDL
MODEL 2
REMARK VINA RESULT: -7.731706651      4.791      8.399
REMARK  8 active torsions:
REMARK  status: ('A' for Active; 'I' for Inactive)
REMARK    1  A    between atoms: O1_1  and  C1_3 
REMARK    2  A    between atoms: C1_3  and  C2_5 
REMARK    3  A    between atoms: C2_5  and  S1_6 
REMARK    4  A    between atoms: C2_5  and  C5_16 
REMARK    5  A    between atoms: S1_6  and  C3_7 
REMARK    6  A    between atoms: C3_7  and  C4_8 
REMARK    7  A    between atoms: N6_20  and  C7_21 
REMARK    8  A    between atoms: C12_29  and  C13_30 
ROOT
HETATM    1  C5  UNL     1       7.256  -7.409  15.232  1.00  0.00     0.007 A 
HETATM    2  C6  UNL     1       8.577  -6.959  15.232  1.00  0.00     0.118 A 
HETATM    3  N5  UNL     1       8.669  -5.797  15.920  1.00  0.00    -0.303 N 
ATOM      4  H5  UNL     1       9.526  -5.264  16.068  1.00  0.00     0.186 HD
HETATM    5  N6  UNL     1       7.435  -5.453  16.385  1.00  0.00    -0.239 N 
HETATM    6  C12 UNL     1       6.597  -6.385  15.989  1.00  0.00     0.077 A 
ENDROOT
BRANCH   1   7
HETATM    7  C2  UNL     1       6.850  -8.697  14.807  1.00  0.00     0.144 C 
BRANCH   7   8
HETATM    8  C1  UNL     1       6.489  -9.060  13.428  1.00  0.00     0.322 C 
HETATM    9  F1  UNL     1       5.519  -9.992  13.202  1.00  0.00    -0.218 F 
BRANCH   8  10
HETATM   10  O1  UNL     1       6.130  -7.899  12.751  1.00  0.00    -0.366 OA
ATOM     11  H1  UNL     1       5.690  -7.327  13.368  1.00  0.00     0.213 HD
ENDBRANCH   8  10
ENDBRANCH   7   8
BRANCH   7  12
HETATM   12  S1  UNL     1       8.424  -9.826  15.010  1.00  0.00    -0.146 SA
BRANCH  12  13
HETATM   13  C3  UNL     1       8.998 -10.323  13.397  1.00  0.00     0.153 C 
BRANCH  13  14
HETATM   14  C4  UNL     1      10.404 -10.875  13.503  1.00  0.00     0.119 A 
HETATM   15  N1  UNL     1      11.402 -10.601  12.671  1.00  0.00    -0.270 N 
HETATM   16  N2  UNL     1      12.477 -11.280  13.069  1.00  0.00    -0.005 NA
ATOM     17  H1  UNL     1      11.353  -9.978  11.865  1.00  0.00     0.185 HD
HETATM   18  N3  UNL     1      12.182 -11.988  14.143  1.00  0.00    -0.225 N 
HETATM   19  N4  UNL     1      10.934 -11.737  14.396  1.00  0.00    -0.274 N 
ATOM     20  H3  UNL     1      12.805 -12.604  14.666  1.00  0.00     0.205 HD
ATOM     21  H4  UNL     1      10.416 -12.143  15.176  1.00  0.00     0.189 HD
ENDBRANCH  13  14
ENDBRANCH  12  13
ENDBRANCH   7  12
ENDBRANCH   1   7
BRANCH   6  22
HETATM   22  C13 UNL     1       5.129  -6.345  16.061  1.00  0.00    -0.006 A 
HETATM   23  C14 UNL     1       4.456  -6.920  17.093  1.00  0.00     0.017 A 
HETATM   24  C15 UNL     1       3.095  -6.758  17.218  1.00  0.00     0.043 A 
HETATM   25  C16 UNL     1       2.326  -6.023  16.341  1.00  0.00     0.116 A 
HETATM   26  F3  UNL     1       0.977  -5.873  16.479  1.00  0.00    -0.206 F 
HETATM   27  C17 UNL     1       3.032  -5.455  15.312  1.00  0.00     0.043 A 
HETATM   28  C18 UNL     1       4.423  -5.605  15.152  1.00  0.00     0.017 A 
ENDBRANCH   6  22
BRANCH   5  29
HETATM   29  C7  UNL     1       7.270  -4.248  17.065  1.00  0.00     0.127 A 
HETATM   30  C8  UNL     1       6.436  -4.288  18.191  1.00  0.00     0.053 A 
HETATM   31  C9  UNL     1       6.121  -3.181  18.929  1.00  0.00     0.047 A 
HETATM   32  C10 UNL     1       6.662  -1.973  18.531  1.00  0.00     0.131 A 
HETATM   33  F2  UNL     1       6.408  -0.784  19.166  1.00  0.00    -0.205 F 
HETATM   34  C11 UNL     1       7.494  -1.937  17.406  1.00  0.00     0.132 A 
HETATM   35  N7  UNL     1       7.755  -3.079  16.733  1.00  0.00    -0.348 N 
ATOM     36  H7  UNL     1       8.365  -3.027  15.918  1.00  0.00     0.167 HD
ENDBRANCH   5  29
TORSDOF 8
ENDMDL
MODEL 3
REMARK VINA RESULT: -7.706707323      3.328      5.571
REMARK  8 active torsions:
REMARK  status: ('A' for Active; 'I' for Inactive)
REMARK    1  A    between atoms: O1_1  and  C1_3 
REMARK    2  A    between atoms: C1_3  and  C2_5 
REMARK    3  A    between atoms: C2_5  and  S1_6 
REMARK    4  A    between atoms: C2_5  and  C5_16 
REMARK    5  A    between atoms: S1_6  and  C3_7 
REMARK    6  A    between atoms: C3_7  and  C4_8 
REMARK    7  A    between atoms: N6_20  and  C7_21 
REMARK    8  A    between atoms: C12_29  and  C13_30 
ROOT
HETATM    1  C5  UNL     1       5.938  -5.547  15.519  1.00  0.00     0.007 A 
HETATM    2  C6  UNL     1       5.241  -4.732  14.626  1.00  0.00     0.118 A 
HETATM    3  N5  UNL     1       4.722  -5.482  13.625  1.00  0.00    -0.303 N 
ATOM      4  H5  UNL     1       4.169  -5.126  12.845  1.00  0.00     0.186 HD
HETATM    5  N6  UNL     1       5.056  -6.788  13.825  1.00  0.00    -0.239 N 
HETATM    6  C12 UNL     1       5.769  -6.842  14.928  1.00  0.00     0.077 A 
ENDROOT
BRANCH   1   7
HETATM    7  C2  UNL     1       6.401  -5.127  16.788  1.00  0.00     0.144 C 
BRANCH   7   8
HETATM    8  C1  UNL     1       7.145  -3.885  17.051  1.00  0.00     0.322 C 
HETATM    9  F1  UNL     1       7.607  -3.620  18.306  1.00  0.00    -0.218 F 
BRANCH   8  10
HETATM   10  O1  UNL     1       8.227  -3.831  16.179  1.00  0.00    -0.366 OA
ATOM     11  H1  UNL     1       8.105  -4.507  15.522  1.00  0.00     0.213 HD
ENDBRANCH   8  10
ENDBRANCH   7   8
BRANCH   7  12
HETATM   12  S1  UNL     1       4.797  -4.738  17.821  1.00  0.00    -0.146 SA
BRANCH  12  13
HETATM   13  C3  UNL     1       3.893  -6.251  18.090  1.00  0.00     0.153 C 
BRANCH  13  14
HETATM   14  C4  UNL     1       2.789  -6.376  17.060  1.00  0.00     0.119 A 
HETATM   15  N1  UNL     1       2.280  -5.373  16.355  1.00  0.00    -0.270 N 
HETATM   16  N2  UNL     1       1.321  -5.858  15.569  1.00  0.00    -0.005 NA
ATOM     17  H1  UNL     1       2.575  -4.397  16.405  1.00  0.00     0.185 HD
HETATM   18  N3  UNL     1       1.204  -7.159  15.763  1.00  0.00    -0.225 N 
HETATM   19  N4  UNL     1       2.092  -7.460  16.661  1.00  0.00    -0.274 N 
ATOM     20  H3  UNL     1       0.553  -7.796  15.304  1.00  0.00     0.205 HD
ATOM     21  H4  UNL     1       2.244  -8.402  17.022  1.00  0.00     0.189 HD
ENDBRANCH  13  14
ENDBRANCH  12  13
ENDBRANCH   7  12
ENDBRANCH   1   7
BRANCH   6  22
HETATM   22  C13 UNL     1       6.531  -7.994  15.434  1.00  0.00    -0.006 A 
HETATM   23  C14 UNL     1       7.879  -8.071  15.281  1.00  0.00     0.017 A 
HETATM   24  C15 UNL     1       8.594  -9.086  15.876  1.00  0.00     0.043 A 
HETATM   25  C16 UNL     1       8.025 -10.072  16.653  1.00  0.00     0.116 A 
HETATM   26  F3  UNL     1       8.748 -11.071  17.236  1.00  0.00    -0.206 F 
HETATM   27  C17 UNL     1       6.665  -9.967  16.790  1.00  0.00     0.043 A 
HETATM   28  C18 UNL     1       5.903  -8.945  16.191  1.00  0.00     0.017 A 
ENDBRANCH   6  22
BRANCH   5  29
HETATM   29  C7  UNL     1       4.692  -7.741  12.877  1.00  0.00     0.127 A 
HETATM   30  C8  UNL     1       3.452  -8.364  13.078  1.00  0.00     0.053 A 
HETATM   31  C9  UNL     1       2.977  -9.364  12.275  1.00  0.00     0.047 A 
HETATM   32  C10 UNL     1       3.772  -9.766  11.218  1.00  0.00     0.131 A 
HETATM   33  F2  UNL     1       3.429 -10.774  10.353  1.00  0.00    -0.205 F 
HETATM   34  C11 UNL     1       5.010  -9.143  11.021  1.00  0.00     0.132 A 
HETATM   35  N7  UNL     1       5.403  -8.161  11.862  1.00  0.00    -0.348 N 
ATOM     36  H7  UNL     1       6.308  -7.721  11.695  1.00  0.00     0.167 HD
ENDBRANCH   5  29
TORSDOF 8
ENDMDL
MODEL 4
REMARK VINA RESULT: -7.649338547      4.511      6.819
REMARK  8 active torsions:
REMARK  status: ('A' for Active; 'I' for Inactive)
REMARK    1  A    between atoms: O1_1  and  C1_3 
REMARK    2  A    between atoms: C1_3  and  C2_5 
REMARK    3  A    between atoms: C2_5  and  S1_6 
REMARK    4  A    between atoms: C2_5  and  C5_16 
REMARK    5  A    between atoms: S1_6  and  C3_7 
REMARK    6  A    between atoms: C3_7  and  C4_8 
REMARK    7  A    between atoms: N6_20  and  C7_21 
REMARK    8  A    between atoms: C12_29  and  C13_30 
ROOT
HETATM    1  C5  UNL     1       6.543  -5.547  15.310  1.00  0.00     0.007 A 
HETATM    2  C6  UNL     1       5.860  -4.669  14.468  1.00  0.00     0.118 A 
HETATM    3  N5  UNL     1       5.076  -5.366  13.612  1.00  0.00    -0.303 N 
ATOM      4  H5  UNL     1       4.476  -4.958  12.894  1.00  0.00     0.186 HD
HETATM    5  N6  UNL     1       5.217  -6.699  13.860  1.00  0.00    -0.239 N 
HETATM    6  C12 UNL     1       6.073  -6.821  14.850  1.00  0.00     0.077 A 
ENDROOT
BRANCH   1   7
HETATM    7  C2  UNL     1       7.261  -5.152  16.464  1.00  0.00     0.144 C 
BRANCH   7   8
HETATM    8  C1  UNL     1       8.726  -5.153  16.592  1.00  0.00     0.322 C 
HETATM    9  F1  UNL     1       9.376  -6.291  16.967  1.00  0.00    -0.218 F 
BRANCH   8  10
HETATM   10  O1  UNL     1       9.271  -4.731  15.383  1.00  0.00    -0.366 OA
ATOM     11  H1  UNL     1       8.654  -4.951  14.695  1.00  0.00     0.213 HD
ENDBRANCH   8  10
ENDBRANCH   7   8
BRANCH   7  12
HETATM   12  S1  UNL     1       6.948  -3.237  16.634  1.00  0.00    -0.146 SA
BRANCH  12  13
HETATM   13  C3  UNL     1       7.320  -2.730  18.302  1.00  0.00     0.153 C 
BRANCH  13  14
HETATM   14  C4  UNL     1       6.033  -2.455  19.051  1.00  0.00     0.119 A 
HETATM   15  N1  UNL     1       5.633  -1.262  19.478  1.00  0.00    -0.270 N 
HETATM   16  N2  UNL     1       4.468  -1.413  20.107  1.00  0.00    -0.005 NA
ATOM     17  H1  UNL     1       6.132  -0.382  19.345  1.00  0.00     0.185 HD
HETATM   18  N3  UNL     1       4.118  -2.686  20.093  1.00  0.00    -0.225 N 
HETATM   19  N4  UNL     1       5.065  -3.303  19.456  1.00  0.00    -0.274 N 
ATOM     20  H3  UNL     1       3.278  -3.098  20.499  1.00  0.00     0.205 HD
ATOM     21  H4  UNL     1       5.076  -4.308  19.281  1.00  0.00     0.189 HD
ENDBRANCH  13  14
ENDBRANCH  12  13
ENDBRANCH   7  12
ENDBRANCH   1   7
BRANCH   6  22
HETATM   22  C13 UNL     1       6.704  -8.061  15.327  1.00  0.00    -0.006 A 
HETATM   23  C14 UNL     1       7.973  -8.391  14.971  1.00  0.00     0.017 A 
HETATM   24  C15 UNL     1       8.596  -9.483  15.531  1.00  0.00     0.043 A 
HETATM   25  C16 UNL     1       8.009 -10.303  16.470  1.00  0.00     0.116 A 
HETATM   26  F3  UNL     1       8.640 -11.383  17.016  1.00  0.00    -0.206 F 
HETATM   27  C17 UNL     1       6.730  -9.945  16.810  1.00  0.00     0.043 A 
HETATM   28  C18 UNL     1       6.062  -8.838  16.252  1.00  0.00     0.017 A 
ENDBRANCH   6  22
BRANCH   5  29
HETATM   29  C7  UNL     1       4.558  -7.620  13.049  1.00  0.00     0.127 A 
HETATM   30  C8  UNL     1       3.301  -8.045  13.500  1.00  0.00     0.053 A 
HETATM   31  C9  UNL     1       2.553  -8.992  12.855  1.00  0.00     0.047 A 
HETATM   32  C10 UNL     1       3.080  -9.544  11.702  1.00  0.00     0.131 A 
HETATM   33  F2  UNL     1       2.449 -10.518  10.974  1.00  0.00    -0.205 F 
HETATM   34  C11 UNL     1       4.336  -9.117  11.255  1.00  0.00     0.132 A 
HETATM   35  N7  UNL     1       5.008  -8.175  11.953  1.00  0.00    -0.348 N 
ATOM     36  H7  UNL     1       5.920  -7.880  11.606  1.00  0.00     0.167 HD
ENDBRANCH   5  29
TORSDOF 8
ENDMDL
MODEL 5
REMARK VINA RESULT: -7.594496994      3.944      5.802
REMARK  8 active torsions:
REMARK  status: ('A' for Active; 'I' for Inactive)
REMARK    1  A    between atoms: O1_1  and  C1_3 
REMARK    2  A    between atoms: C1_3  and  C2_5 
REMARK    3  A    between atoms: C2_5  and  S1_6 
REMARK    4  A    between atoms: C2_5  and  C5_16 
REMARK    5  A    between atoms: S1_6  and  C3_7 
REMARK    6  A    between atoms: C3_7  and  C4_8 
REMARK    7  A    between atoms: N6_20  and  C7_21 
REMARK    8  A    between atoms: C12_29  and  C13_30 
ROOT
HETATM    1  C5  UNL     1       5.602  -5.937  15.290  1.00  0.00     0.007 A 
HETATM    2  C6  UNL     1       4.916  -5.330  14.237  1.00  0.00     0.118 A 
HETATM    3  N5  UNL     1       4.705  -6.228  13.246  1.00  0.00    -0.303 N 
ATOM      4  H5  UNL     1       4.224  -6.036  12.367  1.00  0.00     0.186 HD
HETATM    5  N6  UNL     1       5.236  -7.430  13.610  1.00  0.00    -0.239 N 
HETATM    6  C12 UNL     1       5.767  -7.275  14.802  1.00  0.00     0.077 A 
ENDROOT
BRANCH   1   7
HETATM    7  C2  UNL     1       5.779  -5.356  16.568  1.00  0.00     0.144 C 
BRANCH   7   8
HETATM    8  C1  UNL     1       6.532  -4.122  16.842  1.00  0.00     0.322 C 
HETATM    9  F1  UNL     1       6.932  -3.836  18.114  1.00  0.00    -0.218 F 
BRANCH   8  10
HETATM   10  O1  UNL     1       7.659  -4.109  16.027  1.00  0.00    -0.366 OA
ATOM     11  H1  UNL     1       8.032  -3.235  16.061  1.00  0.00     0.213 HD
ENDBRANCH   8  10
ENDBRANCH   7   8
BRANCH   7  12
HETATM   12  S1  UNL     1       4.008  -4.751  17.109  1.00  0.00    -0.146 SA
BRANCH  12  13
HETATM   13  C3  UNL     1       3.810  -5.014  18.861  1.00  0.00     0.153 C 
BRANCH  13  14
HETATM   14  C4  UNL     1       3.481  -3.702  19.541  1.00  0.00     0.119 A 
HETATM   15  N1  UNL     1       4.345  -2.722  19.779  1.00  0.00    -0.270 N 
HETATM   16  N2  UNL     1       3.701  -1.739  20.406  1.00  0.00    -0.005 NA
ATOM     17  H1  UNL     1       5.334  -2.723  19.525  1.00  0.00     0.185 HD
HETATM   18  N3  UNL     1       2.436  -2.076  20.576  1.00  0.00    -0.225 N 
HETATM   19  N4  UNL     1       2.314  -3.257  20.052  1.00  0.00    -0.274 N 
ATOM     20  H3  UNL     1       1.706  -1.523  21.025  1.00  0.00     0.205 HD
ATOM     21  H4  UNL     1       1.442  -3.785  20.029  1.00  0.00     0.189 HD
ENDBRANCH  13  14
ENDBRANCH  12  13
ENDBRANCH   7  12
ENDBRANCH   1   7
BRANCH   6  22
HETATM   22  C13 UNL     1       6.637  -8.223  15.514  1.00  0.00    -0.006 A 
HETATM   23  C14 UNL     1       6.122  -9.179  16.330  1.00  0.00     0.017 A 
HETATM   24  C15 UNL     1       6.937 -10.141  16.882  1.00  0.00     0.043 A 
HETATM   25  C16 UNL     1       8.295 -10.217  16.659  1.00  0.00     0.116 A 
HETATM   26  F3  UNL     1       9.089 -11.178  17.214  1.00  0.00    -0.206 F 
HETATM   27  C17 UNL     1       8.785  -9.240  15.830  1.00  0.00     0.043 A 
HETATM   28  C18 UNL     1       7.981  -8.238  15.255  1.00  0.00     0.017 A 
ENDBRANCH   6  22
BRANCH   5  29
HETATM   29  C7  UNL     1       5.203  -8.493  12.710  1.00  0.00     0.127 A 
HETATM   30  C8  UNL     1       4.349  -9.553  13.044  1.00  0.00     0.053 A 
HETATM   31  C9  UNL     1       4.248 -10.697  12.302  1.00  0.00     0.047 A 
HETATM   32  C10 UNL     1       5.035 -10.795  11.170  1.00  0.00     0.131 A 
HETATM   33  F2  UNL     1       5.052 -11.895  10.352  1.00  0.00    -0.205 F 
HETATM   34  C11 UNL     1       5.888  -9.735  10.840  1.00  0.00     0.132 A 
HETATM   35  N7  UNL     1       5.925  -8.638  11.629  1.00  0.00    -0.348 N 
ATOM     36  H7  UNL     1       6.553  -7.879  11.365  1.00  0.00     0.167 HD
ENDBRANCH   5  29
TORSDOF 8
ENDMDL
