MODEL 1
REMARK VINA RESULT: -8.122042887      0.000      0.000
REMARK  6 active torsions:
REMARK  status: ('A' for Active; 'I' for Inactive)
REMARK       I    between atoms: N1_3  and  C3_4 
REMARK    1  A    between atoms: C3_4  and  C4_6 
REMARK    2  A    between atoms: C4_6  and  C5_7 
REMARK    3  A    between atoms: C4_6  and  N2_11 
REMARK    4  A    between atoms: C5_7  and  C6_8 
REMARK       I    between atoms: N2_11  and  C9_12 
REMARK    5  A    between atoms: C9_12  and  C10_14 
REMARK    6  A    between atoms: C10_14  and  N3_16 
ROOT
HETATM    1  C1  UNL     1       1.601  -4.967  18.769  1.00  0.00     0.039 C 
HETATM    2  C2  UNL     1       1.467  -5.720  17.667  1.00  0.00     0.014 C 
HETATM    3  N1  UNL     1       2.642  -6.193  16.839  1.00  0.00    -0.319 N 
HETATM    4  C3  UNL     1       3.892  -5.909  17.316  1.00  0.00     0.260 C 
HETATM    5  O1  UNL     1       4.216  -5.495  18.406  1.00  0.00    -0.269 OA
HETATM    6  C13 UNL     1       2.069  -6.799  15.678  1.00  0.00     0.133 C 
HETATM    7  C14 UNL     1       0.578  -6.279  15.650  1.00  0.00     0.036 C 
HETATM    8  C15 UNL     1       0.275  -6.336  17.128  1.00  0.00     0.003 C 
HETATM    9  C16 UNL     1      -0.940  -5.453  17.448  1.00  0.00     0.017 C 
HETATM   10  C17 UNL     1      -1.683  -5.722  18.683  1.00  0.00     0.013 C 
HETATM   11  C18 UNL     1      -2.029  -7.212  18.693  1.00  0.00    -0.017 C 
HETATM   12  C19 UNL     1      -2.770  -7.541  19.972  1.00  0.00     0.038 C 
HETATM   13  C20 UNL     1      -4.175  -7.196  19.545  1.00  0.00     0.168 C 
HETATM   14  O3  UNL     1      -4.226  -7.033  18.239  1.00  0.00    -0.390 OA
HETATM   15  C21 UNL     1      -3.060  -7.528  17.627  1.00  0.00     0.177 C 
HETATM   16  C22 UNL     1      -0.828  -8.027  18.671  1.00  0.00     0.013 C 
HETATM   17  C23 UNL     1       0.153  -7.759  17.574  1.00  0.00     0.017 C 
ENDROOT
BRANCH   4  18
HETATM   18  C4  UNL     1       5.225  -6.094  16.364  1.00  0.00     0.259 C 
BRANCH  18  19
HETATM   19  C5  UNL     1       6.303  -5.452  17.277  1.00  0.00     0.053 C 
BRANCH  19  20
HETATM   20  C6  UNL     1       7.514  -4.943  16.723  1.00  0.00    -0.019 C 
HETATM   21  C7  UNL     1       8.819  -5.636  16.586  1.00  0.00     0.009 C 
HETATM   22  C8  UNL     1       7.693  -3.482  17.205  1.00  0.00     0.009 C 
ENDBRANCH  19  20
ENDBRANCH  18  19
BRANCH  18  23
HETATM   23  N2  UNL     1       5.083  -5.906  15.169  1.00  0.00    -0.398 NA
HETATM   24  C9  UNL     1       4.907  -5.657  13.672  1.00  0.00     0.318 C 
HETATM   25  O2  UNL     1       4.864  -4.735  13.068  1.00  0.00    -0.255 OA
BRANCH  24  26
HETATM   26  C10 UNL     1       4.900  -7.140  13.260  1.00  0.00     0.287 C 
HETATM   27  C11 UNL     1       6.282  -7.785  13.155  1.00  0.00     0.051 C 
BRANCH  26  28
HETATM   28  N3  UNL     1       4.107  -7.479  12.124  1.00  0.00    -0.065 N 
HETATM   29  C12 UNL     1       3.230  -8.565  12.592  1.00  0.00     0.267 C 
ATOM     30  H32 UNL     1       3.608  -6.689  11.715  1.00  0.00     0.277 HD
ATOM     31  H31 UNL     1       4.651  -7.713  11.293  1.00  0.00     0.277 HD
ENDBRANCH  26  28
ENDBRANCH  24  26
ENDBRANCH  18  23
ENDBRANCH   4  18
TORSDOF 6
ENDMDL
MODEL 2
REMARK VINA RESULT: -7.927431234      1.675      3.659
REMARK  6 active torsions:
REMARK  status: ('A' for Active; 'I' for Inactive)
REMARK       I    between atoms: N1_3  and  C3_4 
REMARK    1  A    between atoms: C3_4  and  C4_6 
REMARK    2  A    between atoms: C4_6  and  C5_7 
REMARK    3  A    between atoms: C4_6  and  N2_11 
REMARK    4  A    between atoms: C5_7  and  C6_8 
REMARK       I    between atoms: N2_11  and  C9_12 
REMARK    5  A    between atoms: C9_12  and  C10_14 
REMARK    6  A    between atoms: C10_14  and  N3_16 
ROOT
HETATM    1  C1  UNL     1       2.746  -5.151  18.410  1.00  0.00     0.039 C 
HETATM    2  C2  UNL     1       2.327  -5.734  17.277  1.00  0.00     0.014 C 
HETATM    3  N1  UNL     1       3.269  -6.347  16.264  1.00  0.00    -0.319 N 
HETATM    4  C3  UNL     1       4.596  -6.383  16.592  1.00  0.00     0.260 C 
HETATM    5  O1  UNL     1       5.122  -6.169  17.661  1.00  0.00    -0.269 OA
HETATM    6  C13 UNL     1       2.450  -6.688  15.143  1.00  0.00     0.133 C 
HETATM    7  C14 UNL     1       1.116  -5.869  15.357  1.00  0.00     0.036 C 
HETATM    8  C15 UNL     1       0.976  -6.025  16.851  1.00  0.00     0.003 C 
HETATM    9  C16 UNL     1       0.028  -4.949  17.403  1.00  0.00     0.017 C 
HETATM   10  C17 UNL     1      -0.613  -5.192  18.699  1.00  0.00     0.013 C 
HETATM   11  C18 UNL     1      -1.275  -6.569  18.631  1.00  0.00    -0.017 C 
HETATM   12  C19 UNL     1      -1.923  -6.875  19.964  1.00  0.00     0.038 C 
HETATM   13  C20 UNL     1      -3.256  -6.201  19.758  1.00  0.00     0.168 C 
HETATM   14  O3  UNL     1      -3.416  -5.888  18.489  1.00  0.00    -0.390 OA
HETATM   15  C21 UNL     1      -2.463  -6.545  17.689  1.00  0.00     0.177 C 
HETATM   16  C22 UNL     1      -0.293  -7.609  18.381  1.00  0.00     0.013 C 
HETATM   17  C23 UNL     1       0.594  -7.432  17.190  1.00  0.00     0.017 C 
ENDROOT
BRANCH   4  18
HETATM   18  C4  UNL     1       5.740  -6.736  15.460  1.00  0.00     0.259 C 
BRANCH  18  19
HETATM   19  C5  UNL     1       5.328  -8.188  15.101  1.00  0.00     0.053 C 
BRANCH  19  20
HETATM   20  C6  UNL     1       5.539  -8.697  13.786  1.00  0.00    -0.019 C 
HETATM   21  C7  UNL     1       6.478  -8.199  12.751  1.00  0.00     0.009 C 
HETATM   22  C8  UNL     1       4.160  -9.057  13.177  1.00  0.00     0.009 C 
ENDBRANCH  19  20
ENDBRANCH  18  19
BRANCH  18  23
HETATM   23  N2  UNL     1       6.871  -6.335  15.672  1.00  0.00    -0.398 NA
HETATM   24  C9  UNL     1       8.294  -5.844  15.933  1.00  0.00     0.318 C 
HETATM   25  O2  UNL     1       9.281  -6.319  15.812  1.00  0.00    -0.255 OA
BRANCH  24  26
HETATM   26  C10 UNL     1       7.900  -4.413  16.339  1.00  0.00     0.287 C 
HETATM   27  C11 UNL     1       8.984  -3.359  16.117  1.00  0.00     0.051 C 
BRANCH  26  28
HETATM   28  N3  UNL     1       7.316  -4.259  17.631  1.00  0.00    -0.065 N 
HETATM   29  C12 UNL     1       7.436  -2.821  17.925  1.00  0.00     0.267 C 
ATOM     30  H32 UNL     1       6.365  -4.619  17.704  1.00  0.00     0.277 HD
ATOM     31  H31 UNL     1       7.723  -4.863  18.346  1.00  0.00     0.277 HD
ENDBRANCH  26  28
ENDBRANCH  24  26
ENDBRANCH  18  23
ENDBRANCH   4  18
TORSDOF 6
ENDMDL
MODEL 3
REMARK VINA RESULT: -7.813154549      2.626      7.830
REMARK  6 active torsions:
REMARK  status: ('A' for Active; 'I' for Inactive)
REMARK       I    between atoms: N1_3  and  C3_4 
REMARK    1  A    between atoms: C3_4  and  C4_6 
REMARK    2  A    between atoms: C4_6  and  C5_7 
REMARK    3  A    between atoms: C4_6  and  N2_11 
REMARK    4  A    between atoms: C5_7  and  C6_8 
REMARK       I    between atoms: N2_11  and  C9_12 
REMARK    5  A    between atoms: C9_12  and  C10_14 
REMARK    6  A    between atoms: C10_14  and  N3_16 
ROOT
HETATM    1  C1  UNL     1       2.605  -5.546  16.827  1.00  0.00     0.039 C 
HETATM    2  C2  UNL     1       3.330  -6.494  16.214  1.00  0.00     0.014 C 
HETATM    3  N1  UNL     1       2.757  -7.429  15.171  1.00  0.00    -0.319 N 
HETATM    4  C3  UNL     1       1.465  -7.209  14.782  1.00  0.00     0.260 C 
HETATM    5  O1  UNL     1       0.754  -6.255  15.006  1.00  0.00    -0.269 OA
HETATM    6  C13 UNL     1       3.789  -8.383  14.910  1.00  0.00     0.133 C 
HETATM    7  C14 UNL     1       4.785  -8.239  16.127  1.00  0.00     0.036 C 
HETATM    8  C15 UNL     1       4.753  -6.739  16.288  1.00  0.00     0.003 C 
HETATM    9  C16 UNL     1       5.262  -6.351  17.684  1.00  0.00     0.017 C 
HETATM   10  C17 UNL     1       5.757  -4.985  17.884  1.00  0.00     0.013 C 
HETATM   11  C18 UNL     1       6.791  -4.709  16.791  1.00  0.00    -0.017 C 
HETATM   12  C19 UNL     1       7.305  -3.293  16.941  1.00  0.00     0.038 C 
HETATM   13  C20 UNL     1       8.403  -3.528  17.949  1.00  0.00     0.168 C 
HETATM   14  O3  UNL     1       8.642  -4.817  18.068  1.00  0.00    -0.390 OA
HETATM   15  C21 UNL     1       8.042  -5.536  17.018  1.00  0.00     0.177 C 
HETATM   16  C22 UNL     1       6.197  -4.813  15.471  1.00  0.00     0.013 C 
HETATM   17  C23 UNL     1       5.473  -6.083  15.152  1.00  0.00     0.017 C 
ENDROOT
BRANCH   4  18
HETATM   18  C4  UNL     1       0.642  -8.331  13.898  1.00  0.00     0.259 C 
BRANCH  18  19
HETATM   19  C5  UNL     1       1.510  -8.352  12.612  1.00  0.00     0.053 C 
BRANCH  19  20
HETATM   20  C6  UNL     1       1.839  -9.587  11.979  1.00  0.00    -0.019 C 
HETATM   21  C7  UNL     1       1.582 -10.963  12.469  1.00  0.00     0.009 C 
HETATM   22  C8  UNL     1       3.257  -9.456  11.368  1.00  0.00     0.009 C 
ENDBRANCH  19  20
ENDBRANCH  18  19
BRANCH  18  23
HETATM   23  N2  UNL     1      -0.574  -8.294  13.951  1.00  0.00    -0.398 NA
HETATM   24  C9  UNL     1      -2.101  -8.253  14.005  1.00  0.00     0.318 C 
HETATM   25  O2  UNL     1      -2.881  -8.545  13.283  1.00  0.00    -0.255 OA
BRANCH  24  26
HETATM   26  C10 UNL     1      -2.198  -7.750  15.457  1.00  0.00     0.287 C 
HETATM   27  C11 UNL     1      -3.215  -8.490  16.327  1.00  0.00     0.051 C 
BRANCH  26  28
HETATM   28  N3  UNL     1      -2.328  -6.341  15.632  1.00  0.00    -0.065 N 
HETATM   29  C12 UNL     1      -2.092  -6.121  17.068  1.00  0.00     0.267 C 
ATOM     30  H32 UNL     1      -1.725  -5.789  15.023  1.00  0.00     0.277 HD
ATOM     31  H31 UNL     1      -3.212  -5.960  15.293  1.00  0.00     0.277 HD
ENDBRANCH  26  28
ENDBRANCH  24  26
ENDBRANCH  18  23
ENDBRANCH   4  18
TORSDOF 6
ENDMDL
MODEL 4
REMARK VINA RESULT: -7.794130187      3.322      8.501
REMARK  6 active torsions:
REMARK  status: ('A' for Active; 'I' for Inactive)
REMARK       I    between atoms: N1_3  and  C3_4 
REMARK    1  A    between atoms: C3_4  and  C4_6 
REMARK    2  A    between atoms: C4_6  and  C5_7 
REMARK    3  A    between atoms: C4_6  and  N2_11 
REMARK    4  A    between atoms: C5_7  and  C6_8 
REMARK       I    between atoms: N2_11  and  C9_12 
REMARK    5  A    between atoms: C9_12  and  C10_14 
REMARK    6  A    between atoms: C10_14  and  N3_16 
ROOT
HETATM    1  C1  UNL     1       3.691  -7.823  12.238  1.00  0.00     0.039 C 
HETATM    2  C2  UNL     1       3.251  -7.619  13.489  1.00  0.00     0.014 C 
HETATM    3  N1  UNL     1       2.016  -8.289  14.052  1.00  0.00    -0.319 N 
HETATM    4  C3  UNL     1       1.398  -9.216  13.260  1.00  0.00     0.260 C 
HETATM    5  O1  UNL     1       1.793  -9.731  12.239  1.00  0.00    -0.269 OA
HETATM    6  C13 UNL     1       1.799  -7.675  15.325  1.00  0.00     0.133 C 
HETATM    7  C14 UNL     1       2.664  -6.354  15.286  1.00  0.00     0.036 C 
HETATM    8  C15 UNL     1       3.879  -6.884  14.565  1.00  0.00     0.003 C 
HETATM    9  C16 UNL     1       4.688  -5.719  13.976  1.00  0.00     0.017 C 
HETATM   10  C17 UNL     1       6.102  -5.947  13.664  1.00  0.00     0.013 C 
HETATM   11  C18 UNL     1       6.758  -6.535  14.915  1.00  0.00    -0.017 C 
HETATM   12  C19 UNL     1       8.216  -6.818  14.625  1.00  0.00     0.038 C 
HETATM   13  C20 UNL     1       8.802  -5.462  14.930  1.00  0.00     0.168 C 
HETATM   14  O3  UNL     1       7.916  -4.715  15.554  1.00  0.00    -0.390 OA
HETATM   15  C21 UNL     1       6.839  -5.494  16.014  1.00  0.00     0.177 C 
HETATM   16  C22 UNL     1       6.140  -7.795  15.285  1.00  0.00     0.013 C 
HETATM   17  C23 UNL     1       4.654  -7.797  15.462  1.00  0.00     0.017 C 
ENDROOT
BRANCH   4  18
HETATM   18  C4  UNL     1      -0.108  -9.777  13.629  1.00  0.00     0.259 C 
BRANCH  18  19
HETATM   19  C5  UNL     1      -0.128 -11.078  12.784  1.00  0.00     0.053 C 
BRANCH  19  20
HETATM   20  C6  UNL     1      -0.154 -12.355  13.417  1.00  0.00    -0.019 C 
HETATM   21  C7  UNL     1      -0.464 -12.668  14.834  1.00  0.00     0.009 C 
HETATM   22  C8  UNL     1       1.056 -13.177  12.904  1.00  0.00     0.009 C 
ENDBRANCH  19  20
ENDBRANCH  18  19
BRANCH  18  23
HETATM   23  N2  UNL     1      -1.001  -8.953  13.712  1.00  0.00    -0.398 NA
HETATM   24  C9  UNL     1      -2.125  -7.923  13.804  1.00  0.00     0.318 C 
HETATM   25  O2  UNL     1      -2.883  -7.578  13.081  1.00  0.00    -0.255 OA
BRANCH  24  26
HETATM   26  C10 UNL     1      -1.912  -7.581  15.289  1.00  0.00     0.287 C 
HETATM   27  C11 UNL     1      -2.504  -8.591  16.273  1.00  0.00     0.051 C 
BRANCH  26  28
HETATM   28  N3  UNL     1      -2.239  -6.252  15.687  1.00  0.00    -0.065 N 
HETATM   29  C12 UNL     1      -1.182  -5.879  16.642  1.00  0.00     0.267 C 
ATOM     30  H32 UNL     1      -2.345  -5.599  14.911  1.00  0.00     0.277 HD
ATOM     31  H31 UNL     1      -3.185  -6.148  16.054  1.00  0.00     0.277 HD
ENDBRANCH  26  28
ENDBRANCH  24  26
ENDBRANCH  18  23
ENDBRANCH   4  18
TORSDOF 6
ENDMDL
MODEL 5
REMARK VINA RESULT: -7.679876455      2.779      8.021
REMARK  6 active torsions:
REMARK  status: ('A' for Active; 'I' for Inactive)
REMARK       I    between atoms: N1_3  and  C3_4 
REMARK    1  A    between atoms: C3_4  and  C4_6 
REMARK    2  A    between atoms: C4_6  and  C5_7 
REMARK    3  A    between atoms: C4_6  and  N2_11 
REMARK    4  A    between atoms: C5_7  and  C6_8 
REMARK       I    between atoms: N2_11  and  C9_12 
REMARK    5  A    between atoms: C9_12  and  C10_14 
REMARK    6  A    between atoms: C10_14  and  N3_16 
ROOT
HETATM    1  C1  UNL     1       3.096  -6.525  17.183  1.00  0.00     0.039 C 
HETATM    2  C2  UNL     1       2.671  -6.869  15.958  1.00  0.00     0.014 C 
HETATM    3  N1  UNL     1       1.245  -6.671  15.490  1.00  0.00    -0.319 N 
HETATM    4  C3  UNL     1       0.398  -6.015  16.341  1.00  0.00     0.260 C 
HETATM    5  O1  UNL     1       0.659  -5.394  17.346  1.00  0.00    -0.269 OA
HETATM    6  C13 UNL     1       1.169  -7.323  14.220  1.00  0.00     0.133 C 
HETATM    7  C14 UNL     1       2.438  -8.261  14.175  1.00  0.00     0.036 C 
HETATM    8  C15 UNL     1       3.440  -7.341  14.829  1.00  0.00     0.003 C 
HETATM    9  C16 UNL     1       4.641  -8.153  15.338  1.00  0.00     0.017 C 
HETATM   10  C17 UNL     1       5.906  -7.447  15.565  1.00  0.00     0.013 C 
HETATM   11  C18 UNL     1       6.231  -6.669  14.288  1.00  0.00    -0.017 C 
HETATM   12  C19 UNL     1       7.516  -5.897  14.490  1.00  0.00     0.038 C 
HETATM   13  C20 UNL     1       8.514  -6.965  14.118  1.00  0.00     0.168 C 
HETATM   14  O3  UNL     1       7.903  -7.974  13.535  1.00  0.00    -0.390 OA
HETATM   15  C21 UNL     1       6.594  -7.618  13.162  1.00  0.00     0.177 C 
HETATM   16  C22 UNL     1       5.190  -5.702  13.987  1.00  0.00     0.013 C 
HETATM   17  C23 UNL     1       3.789  -6.217  13.905  1.00  0.00     0.017 C 
ENDROOT
BRANCH   4  18
HETATM   18  C4  UNL     1      -1.229  -6.012  16.081  1.00  0.00     0.259 C 
BRANCH  18  19
HETATM   19  C5  UNL     1      -1.736  -5.828  17.536  1.00  0.00     0.053 C 
BRANCH  19  20
HETATM   20  C6  UNL     1      -2.462  -6.868  18.189  1.00  0.00    -0.019 C 
HETATM   21  C7  UNL     1      -3.880  -6.860  18.622  1.00  0.00     0.009 C 
HETATM   22  C8  UNL     1      -1.542  -7.503  19.262  1.00  0.00     0.009 C 
ENDBRANCH  19  20
ENDBRANCH  18  19
BRANCH  18  23
HETATM   23  N2  UNL     1      -1.661  -6.801  15.259  1.00  0.00    -0.398 NA
HETATM   24  C9  UNL     1      -2.203  -7.780  14.219  1.00  0.00     0.318 C 
HETATM   25  O2  UNL     1      -2.617  -7.641  13.207  1.00  0.00    -0.255 OA
BRANCH  24  26
HETATM   26  C10 UNL     1      -1.893  -9.057  15.021  1.00  0.00     0.287 C 
HETATM   27  C11 UNL     1      -1.229 -10.176  14.219  1.00  0.00     0.051 C 
BRANCH  26  28
HETATM   28  N3  UNL     1      -2.956  -9.580  15.815  1.00  0.00    -0.065 N 
HETATM   29  C12 UNL     1      -2.285 -10.353  16.873  1.00  0.00     0.267 C 
ATOM     30  H32 UNL     1      -3.602  -8.872  16.164  1.00  0.00     0.277 HD
ATOM     31  H31 UNL     1      -3.646 -10.113  15.286  1.00  0.00     0.277 HD
ENDBRANCH  26  28
ENDBRANCH  24  26
ENDBRANCH  18  23
ENDBRANCH   4  18
TORSDOF 6
ENDMDL
