MODEL 1
REMARK VINA RESULT: -5.588572076      0.000      0.000
REMARK  5 active torsions:
REMARK  status: ('A' for Active; 'I' for Inactive)
REMARK    1  A    between atoms: O1_1  and  N1_3 
REMARK    2  A    between atoms: N1_3  and  C1_5 
REMARK    3  A    between atoms: C4_8  and  C5_9 
REMARK    4  A    between atoms: C5_9  and  N2_11 
REMARK    5  A    between atoms: N2_11  and  N3_13 
ROOT
HETATM    1  C1  UNL     1     -11.204   9.359 -12.887  1.00  0.00     0.054 A 
HETATM    2  C2  UNL     1     -10.680   8.951 -14.098  1.00  0.00     0.032 A 
HETATM    3  C3  UNL     1     -10.452   9.861 -15.111  1.00  0.00     0.017 A 
HETATM    4  C4  UNL     1     -10.745  11.215 -14.937  1.00  0.00     0.004 A 
HETATM    5  C6  UNL     1     -11.270  11.633 -13.730  1.00  0.00     0.017 A 
HETATM    6  C7  UNL     1     -11.488  10.702 -12.734  1.00  0.00     0.032 A 
ENDROOT
BRANCH   4   7
HETATM    7  C5  UNL     1     -10.514  12.192 -15.988  1.00  0.00     0.130 C 
HETATM    8  S1  UNL     1      -9.426  11.826 -17.144  1.00  0.00    -0.058 SA
BRANCH   7   9
HETATM    9  N2  UNL     1     -11.173  13.440 -16.071  1.00  0.00    -0.230 N 
ATOM     10  H2  UNL     1     -10.783  14.258 -15.601  1.00  0.00     0.194 HD
BRANCH   9  11
HETATM   11  N3  UNL     1     -12.368  13.550 -16.804  1.00  0.00    -0.038 N 
HETATM   12  O2  UNL     1     -12.366  13.832 -18.019  1.00  0.00    -0.516 OA
HETATM   13  O3  UNL     1     -13.563  13.341 -16.166  1.00  0.00    -0.516 OA
ENDBRANCH   9  11
ENDBRANCH   7   9
ENDBRANCH   4   7
BRANCH   1  14
HETATM   14  N1  UNL     1     -11.444   8.413 -11.828  1.00  0.00    -0.269 N 
ATOM     15  H1  UNL     1     -12.316   8.439 -11.299  1.00  0.00     0.194 HD
BRANCH  14  16
HETATM   16  O1  UNL     1     -10.569   7.560 -11.564  1.00  0.00    -0.289 OA
ATOM     17  H1  UNL     1     -10.465   6.812 -12.141  1.00  0.00     0.244 HD
ENDBRANCH  14  16
ENDBRANCH   1  14
TORSDOF 5
ENDMDL
MODEL 2
REMARK VINA RESULT: -5.587633630      0.047      1.270
REMARK  5 active torsions:
REMARK  status: ('A' for Active; 'I' for Inactive)
REMARK    1  A    between atoms: O1_1  and  N1_3 
REMARK    2  A    between atoms: N1_3  and  C1_5 
REMARK    3  A    between atoms: C4_8  and  C5_9 
REMARK    4  A    between atoms: C5_9  and  N2_11 
REMARK    5  A    between atoms: N2_11  and  N3_13 
ROOT
HETATM    1  C1  UNL     1     -11.203   9.323 -12.897  1.00  0.00     0.054 A 
HETATM    2  C2  UNL     1     -11.493  10.656 -12.683  1.00  0.00     0.032 A 
HETATM    3  C3  UNL     1     -11.273  11.594 -13.671  1.00  0.00     0.017 A 
HETATM    4  C4  UNL     1     -10.752  11.220 -14.912  1.00  0.00     0.004 A 
HETATM    5  C6  UNL     1     -10.458   9.889 -15.136  1.00  0.00     0.017 A 
HETATM    6  C7  UNL     1     -10.687   8.972 -14.129  1.00  0.00     0.032 A 
ENDROOT
BRANCH   4   7
HETATM    7  C5  UNL     1     -10.512  12.188 -15.967  1.00  0.00     0.130 C 
HETATM    8  S1  UNL     1      -9.417  11.811 -17.114  1.00  0.00    -0.058 SA
BRANCH   7   9
HETATM    9  N2  UNL     1     -11.166  13.438 -16.064  1.00  0.00    -0.230 N 
ATOM     10  H2  UNL     1     -10.767  14.262 -15.613  1.00  0.00     0.194 HD
BRANCH   9  11
HETATM   11  N3  UNL     1     -12.370  13.540 -16.784  1.00  0.00    -0.038 N 
HETATM   12  O2  UNL     1     -12.383  13.827 -17.998  1.00  0.00    -0.516 OA
HETATM   13  O3  UNL     1     -13.556  13.318 -16.135  1.00  0.00    -0.516 OA
ENDBRANCH   9  11
ENDBRANCH   7   9
ENDBRANCH   4   7
BRANCH   1  14
HETATM   14  N1  UNL     1     -11.430   8.341 -11.868  1.00  0.00    -0.269 N 
ATOM     15  H1  UNL     1     -12.332   8.286 -11.396  1.00  0.00     0.194 HD
BRANCH  14  16
HETATM   16  O1  UNL     1     -10.505   7.556 -11.562  1.00  0.00    -0.289 OA
ATOM     17  H1  UNL     1     -10.447   7.237 -10.669  1.00  0.00     0.244 HD
ENDBRANCH  14  16
ENDBRANCH   1  14
TORSDOF 5
ENDMDL
MODEL 3
REMARK VINA RESULT: -5.368469938      1.221      1.567
REMARK  5 active torsions:
REMARK  status: ('A' for Active; 'I' for Inactive)
REMARK    1  A    between atoms: O1_1  and  N1_3 
REMARK    2  A    between atoms: N1_3  and  C1_5 
REMARK    3  A    between atoms: C4_8  and  C5_9 
REMARK    4  A    between atoms: C5_9  and  N2_11 
REMARK    5  A    between atoms: N2_11  and  N3_13 
ROOT
HETATM    1  C1  UNL     1     -11.208  10.362 -13.437  1.00  0.00     0.054 A 
HETATM    2  C2  UNL     1     -10.530   9.915 -14.554  1.00  0.00     0.032 A 
HETATM    3  C3  UNL     1     -10.302  10.756 -15.625  1.00  0.00     0.017 A 
HETATM    4  C4  UNL     1     -10.750  12.079 -15.605  1.00  0.00     0.004 A 
HETATM    5  C6  UNL     1     -11.429  12.535 -14.493  1.00  0.00     0.017 A 
HETATM    6  C7  UNL     1     -11.644  11.672 -13.436  1.00  0.00     0.032 A 
ENDROOT
BRANCH   4   7
HETATM    7  C5  UNL     1     -10.523  12.983 -16.719  1.00  0.00     0.130 C 
HETATM    8  S1  UNL     1      -9.556  12.475 -17.929  1.00  0.00    -0.058 SA
BRANCH   7   9
HETATM    9  N2  UNL     1     -11.085  14.276 -16.821  1.00  0.00    -0.230 N 
ATOM     10  H2  UNL     1     -10.581  15.085 -16.456  1.00  0.00     0.194 HD
BRANCH   9  11
HETATM   11  N3  UNL     1     -12.344  14.443 -17.427  1.00  0.00    -0.038 N 
HETATM   12  O2  UNL     1     -13.378  14.609 -16.751  1.00  0.00    -0.516 OA
HETATM   13  O3  UNL     1     -12.432  14.422 -18.794  1.00  0.00    -0.516 OA
ENDBRANCH   9  11
ENDBRANCH   7   9
ENDBRANCH   4   7
BRANCH   1  14
HETATM   14  N1  UNL     1     -11.449   9.488 -12.318  1.00  0.00    -0.269 N 
ATOM     15  H1  UNL     1     -10.878   8.655 -12.180  1.00  0.00     0.194 HD
BRANCH  14  16
HETATM   16  O1  UNL     1     -12.369   9.764 -11.517  1.00  0.00    -0.289 OA
ATOM     17  H1  UNL     1     -13.084  10.317 -11.809  1.00  0.00     0.244 HD
ENDBRANCH  14  16
ENDBRANCH   1  14
TORSDOF 5
ENDMDL
MODEL 4
REMARK VINA RESULT: -5.312809812      1.274      1.883
REMARK  5 active torsions:
REMARK  status: ('A' for Active; 'I' for Inactive)
REMARK    1  A    between atoms: O1_1  and  N1_3 
REMARK    2  A    between atoms: N1_3  and  C1_5 
REMARK    3  A    between atoms: C4_8  and  C5_9 
REMARK    4  A    between atoms: C5_9  and  N2_11 
REMARK    5  A    between atoms: N2_11  and  N3_13 
ROOT
HETATM    1  C1  UNL     1     -11.228  10.428 -13.453  1.00  0.00     0.054 A 
HETATM    2  C2  UNL     1     -11.703  11.725 -13.419  1.00  0.00     0.032 A 
HETATM    3  C3  UNL     1     -11.471  12.589 -14.470  1.00  0.00     0.017 A 
HETATM    4  C4  UNL     1     -10.751  12.175 -15.593  1.00  0.00     0.004 A 
HETATM    5  C6  UNL     1     -10.273  10.881 -15.636  1.00  0.00     0.017 A 
HETATM    6  C7  UNL     1     -10.519  10.037 -14.571  1.00  0.00     0.032 A 
ENDROOT
BRANCH   4   7
HETATM    7  C5  UNL     1     -10.493  13.066 -16.711  1.00  0.00     0.130 C 
HETATM    8  S1  UNL     1      -9.564  12.512 -17.929  1.00  0.00    -0.058 SA
BRANCH   7   9
HETATM    9  N2  UNL     1     -10.997  14.384 -16.810  1.00  0.00    -0.230 N 
ATOM     10  H2  UNL     1     -10.439  15.172 -16.481  1.00  0.00     0.194 HD
BRANCH   9  11
HETATM   11  N3  UNL     1     -12.271  14.603 -17.365  1.00  0.00    -0.038 N 
HETATM   12  O2  UNL     1     -12.496  14.414 -18.577  1.00  0.00    -0.516 OA
HETATM   13  O3  UNL     1     -13.286  15.034 -16.553  1.00  0.00    -0.516 OA
ENDBRANCH   9  11
ENDBRANCH   7   9
ENDBRANCH   4   7
BRANCH   1  14
HETATM   14  N1  UNL     1     -11.468   9.523 -12.358  1.00  0.00    -0.269 N 
ATOM     15  H1  UNL     1     -10.919   8.669 -12.264  1.00  0.00     0.194 HD
BRANCH  14  16
HETATM   16  O1  UNL     1     -12.359   9.798 -11.525  1.00  0.00    -0.289 OA
ATOM     17  H1  UNL     1     -12.737  10.670 -11.525  1.00  0.00     0.244 HD
ENDBRANCH  14  16
ENDBRANCH   1  14
TORSDOF 5
ENDMDL
MODEL 5
REMARK VINA RESULT: -5.217145350      5.022      8.110
REMARK  5 active torsions:
REMARK  status: ('A' for Active; 'I' for Inactive)
REMARK    1  A    between atoms: O1_1  and  N1_3 
REMARK    2  A    between atoms: N1_3  and  C1_5 
REMARK    3  A    between atoms: C4_8  and  C5_9 
REMARK    4  A    between atoms: C5_9  and  N2_11 
REMARK    5  A    between atoms: N2_11  and  N3_13 
ROOT
HETATM    1  C1  UNL     1     -12.592  16.901 -20.978  1.00  0.00     0.054 A 
HETATM    2  C2  UNL     1     -12.098  17.590 -19.888  1.00  0.00     0.032 A 
HETATM    3  C3  UNL     1     -11.478  16.921 -18.852  1.00  0.00     0.017 A 
HETATM    4  C4  UNL     1     -11.335  15.532 -18.879  1.00  0.00     0.004 A 
HETATM    5  C6  UNL     1     -11.826  14.834 -19.965  1.00  0.00     0.017 A 
HETATM    6  C7  UNL     1     -12.442  15.528 -20.987  1.00  0.00     0.032 A 
ENDROOT
BRANCH   4   7
HETATM    7  C5  UNL     1     -10.688  14.806 -17.801  1.00  0.00     0.130 C 
HETATM    8  S1  UNL     1      -9.175  14.254 -18.053  1.00  0.00    -0.058 SA
BRANCH   7   9
HETATM    9  N2  UNL     1     -11.286  14.545 -16.546  1.00  0.00    -0.230 N 
ATOM     10  H2  UNL     1     -10.838  14.865 -15.688  1.00  0.00     0.194 HD
BRANCH   9  11
HETATM   11  N3  UNL     1     -12.502  13.840 -16.488  1.00  0.00    -0.038 N 
HETATM   12  O2  UNL     1     -13.600  14.433 -16.473  1.00  0.00    -0.516 OA
HETATM   13  O3  UNL     1     -12.478  12.471 -16.447  1.00  0.00    -0.516 OA
ENDBRANCH   9  11
ENDBRANCH   7   9
ENDBRANCH   4   7
BRANCH   1  14
HETATM   14  N1  UNL     1     -13.240  17.595 -22.062  1.00  0.00    -0.269 N 
ATOM     15  H1  UNL     1     -12.690  18.006 -22.815  1.00  0.00     0.194 HD
BRANCH  14  16
HETATM   16  O1  UNL     1     -14.487  17.686 -22.066  1.00  0.00    -0.289 OA
ATOM     17  H1  UNL     1     -14.993  17.084 -22.598  1.00  0.00     0.244 HD
ENDBRANCH  14  16
ENDBRANCH   1  14
TORSDOF 5
ENDMDL
