MODEL 1
REMARK VINA RESULT: -5.219550150      0.000      0.000
REMARK  4 active torsions:
REMARK  status: ('A' for Active; 'I' for Inactive)
REMARK    1  A    between atoms: O1_1  and  N1_3 
REMARK    2  A    between atoms: N1_3  and  C1_5 
REMARK    3  A    between atoms: C4_9  and  N2_10 
REMARK    4  A    between atoms: N2_10  and  N3_12 
ROOT
HETATM    1  C1  UNL     1     -11.801  12.941 -16.615  1.00  0.00     0.210 A 
HETATM    2  O2  UNL     1     -11.619  12.069 -15.618  1.00  0.00    -0.302 OA
HETATM    3  C2  UNL     1     -12.232  12.469 -14.534  1.00  0.00     0.147 A 
HETATM    4  C3  UNL     1     -12.861  13.658 -14.786  1.00  0.00     0.060 A 
HETATM    5  C4  UNL     1     -12.582  13.954 -16.117  1.00  0.00     0.104 A 
ENDROOT
BRANCH   5   6
HETATM    6  N2  UNL     1     -13.009  15.118 -16.780  1.00  0.00    -0.291 N 
ATOM      7  H2  UNL     1     -14.006  15.331 -16.757  1.00  0.00     0.187 HD
BRANCH   6   8
HETATM    8  N3  UNL     1     -12.183  16.001 -17.464  1.00  0.00    -0.278 N 
HETATM    9  C5  UNL     1     -12.456  16.597 -18.663  1.00  0.00     0.115 A 
HETATM   10  C6  UNL     1     -11.416  17.393 -19.063  1.00  0.00     0.021 A 
HETATM   11  C7  UNL     1     -10.454  17.304 -18.093  1.00  0.00     0.021 A 
HETATM   12  C8  UNL     1     -10.963  16.455 -17.152  1.00  0.00     0.115 A 
ENDBRANCH   6   8
ENDBRANCH   5   6
BRANCH   1  13
HETATM   13  N1  UNL     1     -11.255  12.795 -17.932  1.00  0.00    -0.159 N 
HETATM   14  S1  UNL     1      -9.707  12.350 -18.097  1.00  0.00     0.077 SA
BRANCH  13  15
HETATM   15  O1  UNL     1     -12.001  13.019 -19.056  1.00  0.00    -0.274 OA
ATOM     16  H1  UNL     1     -12.944  12.906 -19.011  1.00  0.00     0.246 HD
ENDBRANCH  13  15
ENDBRANCH   1  13
TORSDOF 4
ENDMDL
MODEL 2
REMARK VINA RESULT: -5.188655470      2.321      2.979
REMARK  4 active torsions:
REMARK  status: ('A' for Active; 'I' for Inactive)
REMARK    1  A    between atoms: O1_1  and  N1_3 
REMARK    2  A    between atoms: N1_3  and  C1_5 
REMARK    3  A    between atoms: C4_9  and  N2_10 
REMARK    4  A    between atoms: N2_10  and  N3_12 
ROOT
HETATM    1  C1  UNL     1     -11.089  13.680 -16.738  1.00  0.00     0.210 A 
HETATM    2  O2  UNL     1     -10.400  12.536 -16.689  1.00  0.00    -0.302 OA
HETATM    3  C2  UNL     1      -9.274  12.643 -17.345  1.00  0.00     0.147 A 
HETATM    4  C3  UNL     1      -9.177  13.905 -17.868  1.00  0.00     0.060 A 
HETATM    5  C4  UNL     1     -10.340  14.562 -17.476  1.00  0.00     0.104 A 
ENDROOT
BRANCH   5   6
HETATM    6  N2  UNL     1     -10.666  15.882 -17.833  1.00  0.00    -0.291 N 
ATOM      7  H2  UNL     1     -10.353  16.627 -17.211  1.00  0.00     0.187 HD
BRANCH   6   8
HETATM    8  N3  UNL     1     -11.381  16.254 -18.965  1.00  0.00    -0.278 N 
HETATM    9  C5  UNL     1     -11.853  15.413 -19.934  1.00  0.00     0.115 A 
HETATM   10  C6  UNL     1     -12.496  16.113 -20.919  1.00  0.00     0.021 A 
HETATM   11  C7  UNL     1     -12.434  17.435 -20.571  1.00  0.00     0.021 A 
HETATM   12  C8  UNL     1     -11.754  17.468 -19.387  1.00  0.00     0.115 A 
ENDBRANCH   6   8
ENDBRANCH   5   6
BRANCH   1  13
HETATM   13  N1  UNL     1     -12.366  13.887 -16.121  1.00  0.00    -0.159 N 
HETATM   14  S1  UNL     1     -12.640  13.264 -14.652  1.00  0.00     0.077 SA
BRANCH  13  15
HETATM   15  O1  UNL     1     -13.363  14.594 -16.735  1.00  0.00    -0.274 OA
ATOM     16  H1  UNL     1     -13.290  15.540 -16.786  1.00  0.00     0.246 HD
ENDBRANCH  13  15
ENDBRANCH   1  13
TORSDOF 4
ENDMDL
MODEL 3
REMARK VINA RESULT: -5.145803314      2.011      4.419
REMARK  4 active torsions:
REMARK  status: ('A' for Active; 'I' for Inactive)
REMARK    1  A    between atoms: O1_1  and  N1_3 
REMARK    2  A    between atoms: N1_3  and  C1_5 
REMARK    3  A    between atoms: C4_9  and  N2_10 
REMARK    4  A    between atoms: N2_10  and  N3_12 
ROOT
HETATM    1  C1  UNL     1     -11.785  15.230 -20.107  1.00  0.00     0.210 A 
HETATM    2  O2  UNL     1     -12.267  16.166 -20.930  1.00  0.00    -0.302 OA
HETATM    3  C2  UNL     1     -12.191  17.351 -20.380  1.00  0.00     0.147 A 
HETATM    4  C3  UNL     1     -11.638  17.234 -19.134  1.00  0.00     0.060 A 
HETATM    5  C4  UNL     1     -11.381  15.876 -18.965  1.00  0.00     0.104 A 
ENDROOT
BRANCH   5   6
HETATM    6  N2  UNL     1     -10.841  15.308 -17.798  1.00  0.00    -0.291 N 
ATOM      7  H2  UNL     1      -9.834  15.387 -17.661  1.00  0.00     0.187 HD
BRANCH   6   8
HETATM    8  N3  UNL     1     -11.569  14.647 -16.817  1.00  0.00    -0.278 N 
HETATM    9  C5  UNL     1     -12.911  14.768 -16.588  1.00  0.00     0.115 A 
HETATM   10  C6  UNL     1     -13.300  13.992 -15.530  1.00  0.00     0.021 A 
HETATM   11  C7  UNL     1     -12.178  13.357 -15.070  1.00  0.00     0.021 A 
HETATM   12  C8  UNL     1     -11.163  13.785 -15.877  1.00  0.00     0.115 A 
ENDBRANCH   6   8
ENDBRANCH   5   6
BRANCH   1  13
HETATM   13  N1  UNL     1     -11.732  13.831 -20.411  1.00  0.00    -0.159 N 
HETATM   14  S1  UNL     1     -11.301  13.366 -21.901  1.00  0.00     0.077 SA
BRANCH  13  15
HETATM   15  O1  UNL     1     -12.033  12.873 -19.482  1.00  0.00    -0.274 OA
ATOM     16  H1  UNL     1     -12.158  13.135 -18.577  1.00  0.00     0.246 HD
ENDBRANCH  13  15
ENDBRANCH   1  13
TORSDOF 4
ENDMDL
MODEL 4
REMARK VINA RESULT: -5.077998060      2.603      4.660
REMARK  4 active torsions:
REMARK  status: ('A' for Active; 'I' for Inactive)
REMARK    1  A    between atoms: O1_1  and  N1_3 
REMARK    2  A    between atoms: N1_3  and  C1_5 
REMARK    3  A    between atoms: C4_9  and  N2_10 
REMARK    4  A    between atoms: N2_10  and  N3_12 
ROOT
HETATM    1  C1  UNL     1     -11.789  16.154 -19.394  1.00  0.00     0.210 A 
HETATM    2  O2  UNL     1     -11.206  17.353 -19.290  1.00  0.00    -0.302 OA
HETATM    3  C2  UNL     1     -10.654  17.500 -18.112  1.00  0.00     0.147 A 
HETATM    4  C3  UNL     1     -10.861  16.366 -17.374  1.00  0.00     0.060 A 
HETATM    5  C4  UNL     1     -11.587  15.510 -18.199  1.00  0.00     0.104 A 
ENDROOT
BRANCH   5   6
HETATM    6  N2  UNL     1     -12.046  14.238 -17.817  1.00  0.00    -0.291 N 
ATOM      7  H2  UNL     1     -12.367  13.614 -18.557  1.00  0.00     0.187 HD
BRANCH   6   8
HETATM    8  N3  UNL     1     -12.098  13.762 -16.513  1.00  0.00    -0.278 N 
HETATM    9  C5  UNL     1     -13.094  13.997 -15.607  1.00  0.00     0.115 A 
HETATM   10  C6  UNL     1     -12.817  13.395 -14.408  1.00  0.00     0.021 A 
HETATM   11  C7  UNL     1     -11.615  12.759 -14.552  1.00  0.00     0.021 A 
HETATM   12  C8  UNL     1     -11.222  13.009 -15.836  1.00  0.00     0.115 A 
ENDBRANCH   6   8
ENDBRANCH   5   6
BRANCH   1  13
HETATM   13  N1  UNL     1     -12.483  15.688 -20.557  1.00  0.00    -0.159 N 
HETATM   14  S1  UNL     1     -12.985  16.763 -21.658  1.00  0.00     0.077 SA
BRANCH  13  15
HETATM   15  O1  UNL     1     -12.735  14.360 -20.768  1.00  0.00    -0.274 OA
ATOM     16  H1  UNL     1     -12.556  13.742 -20.069  1.00  0.00     0.246 HD
ENDBRANCH  13  15
ENDBRANCH   1  13
TORSDOF 4
ENDMDL
MODEL 5
REMARK VINA RESULT: -5.059335016      1.394      1.721
REMARK  4 active torsions:
REMARK  status: ('A' for Active; 'I' for Inactive)
REMARK    1  A    between atoms: O1_1  and  N1_3 
REMARK    2  A    between atoms: N1_3  and  C1_5 
REMARK    3  A    between atoms: C4_9  and  N2_10 
REMARK    4  A    between atoms: N2_10  and  N3_12 
ROOT
HETATM    1  C1  UNL     1     -11.127  12.617 -15.989  1.00  0.00     0.210 A 
HETATM    2  O2  UNL     1     -11.436  12.388 -14.709  1.00  0.00    -0.302 OA
HETATM    3  C2  UNL     1     -12.482  13.088 -14.352  1.00  0.00     0.147 A 
HETATM    4  C3  UNL     1     -12.915  13.827 -15.420  1.00  0.00     0.060 A 
HETATM    5  C4  UNL     1     -12.044  13.521 -16.463  1.00  0.00     0.104 A 
ENDROOT
BRANCH   5   6
HETATM    6  N2  UNL     1     -12.107  14.094 -17.745  1.00  0.00    -0.291 N 
ATOM      7  H2  UNL     1     -12.506  13.527 -18.493  1.00  0.00     0.187 HD
BRANCH   6   8
HETATM    8  N3  UNL     1     -11.670  15.370 -18.076  1.00  0.00    -0.278 N 
HETATM    9  C5  UNL     1     -10.810  16.143 -17.346  1.00  0.00     0.115 A 
HETATM   10  C6  UNL     1     -10.609  17.355 -17.950  1.00  0.00     0.021 A 
HETATM   11  C7  UNL     1     -11.358  17.357 -19.095  1.00  0.00     0.021 A 
HETATM   12  C8  UNL     1     -11.978  16.140 -19.126  1.00  0.00     0.115 A 
ENDBRANCH   6   8
ENDBRANCH   5   6
BRANCH   1  13
HETATM   13  N1  UNL     1     -10.030  12.007 -16.681  1.00  0.00    -0.159 N 
HETATM   14  S1  UNL     1      -9.858  10.398 -16.620  1.00  0.00     0.077 SA
BRANCH  13  15
HETATM   15  O1  UNL     1      -9.121  12.743 -17.392  1.00  0.00    -0.274 OA
ATOM     16  H1  UNL     1      -8.690  12.342 -18.138  1.00  0.00     0.246 HD
ENDBRANCH  13  15
ENDBRANCH   1  13
TORSDOF 4
ENDMDL
