MODEL 1
REMARK VINA RESULT: -4.861621875      0.000      0.000
REMARK  4 active torsions:
REMARK  status: ('A' for Active; 'I' for Inactive)
REMARK    1  A    between atoms: O1_2  and  C2_3 
REMARK    2  A    between atoms: C6_8  and  C7_9 
REMARK    3  A    between atoms: C7_9  and  N1_10 
REMARK    4  A    between atoms: C10_13  and  O2_14 
ROOT
HETATM    1  C2  UNL     1      -9.530  11.899 -16.748  1.00  0.00     0.103 A 
HETATM    2  C3  UNL     1     -10.192  11.544 -15.597  1.00  0.00     0.058 A 
HETATM    3  C4  UNL     1     -11.082  12.399 -14.988  1.00  0.00     0.014 A 
HETATM    4 BR1  UNL     1     -11.948  11.795 -13.382  1.00  0.00    -0.051 Br
HETATM    5  C5  UNL     1     -11.338  13.644 -15.518  1.00  0.00     0.034 A 
HETATM    6  C6  UNL     1     -10.694  14.023 -16.662  1.00  0.00     0.017 A 
HETATM    7  C10 UNL     1      -9.802  13.150 -17.261  1.00  0.00     0.113 A 
ENDROOT
BRANCH   6   8
HETATM    8  C7  UNL     1     -10.913  15.309 -17.300  1.00  0.00     0.099 C 
BRANCH   8   9
HETATM    9  N1  UNL     1     -12.216  15.656 -17.711  1.00  0.00    -0.398 N 
HETATM   10  C8  UNL     1     -12.527  17.032 -17.858  1.00  0.00     0.148 C 
HETATM   11  C9  UNL     1     -12.802  14.777 -18.673  1.00  0.00     0.148 C 
ENDBRANCH   8   9
ENDBRANCH   6   8
BRANCH   7  12
HETATM   12  O2  UNL     1      -9.125  13.493 -18.424  1.00  0.00    -0.352 OA
HETATM   13  C11 UNL     1      -9.662  13.031 -19.647  1.00  0.00     0.210 C 
ENDBRANCH   7  12
BRANCH   1  14
HETATM   14  O1  UNL     1      -8.645  11.016 -17.331  1.00  0.00    -0.353 OA
HETATM   15  C1  UNL     1      -9.139   9.779 -17.791  1.00  0.00     0.210 C 
ENDBRANCH   1  14
TORSDOF 4
ENDMDL
MODEL 2
REMARK VINA RESULT: -4.774411995      0.891      1.074
REMARK  4 active torsions:
REMARK  status: ('A' for Active; 'I' for Inactive)
REMARK    1  A    between atoms: O1_2  and  C2_3 
REMARK    2  A    between atoms: C6_8  and  C7_9 
REMARK    3  A    between atoms: C7_9  and  N1_10 
REMARK    4  A    between atoms: C10_13  and  O2_14 
ROOT
HETATM    1  C2  UNL     1      -9.562  12.157 -17.021  1.00  0.00     0.103 A 
HETATM    2  C3  UNL     1     -10.289  12.022 -15.862  1.00  0.00     0.058 A 
HETATM    3  C4  UNL     1     -11.209  12.970 -15.477  1.00  0.00     0.014 A 
HETATM    4 BR1  UNL     1     -12.165  12.675 -13.837  1.00  0.00    -0.051 Br
HETATM    5  C5  UNL     1     -11.431  14.090 -16.248  1.00  0.00     0.034 A 
HETATM    6  C6  UNL     1     -10.722  14.249 -17.405  1.00  0.00     0.017 A 
HETATM    7  C10 UNL     1      -9.801  13.285 -17.777  1.00  0.00     0.113 A 
ENDROOT
BRANCH   6   8
HETATM    8  C7  UNL     1     -10.901  15.389 -18.287  1.00  0.00     0.099 C 
BRANCH   8   9
HETATM    9  N1  UNL     1     -11.374  16.603 -17.749  1.00  0.00    -0.398 N 
HETATM   10  C8  UNL     1     -10.423  17.599 -17.406  1.00  0.00     0.148 C 
HETATM   11  C9  UNL     1     -12.600  17.078 -18.308  1.00  0.00     0.148 C 
ENDBRANCH   8   9
ENDBRANCH   6   8
BRANCH   7  12
HETATM   12  O2  UNL     1      -9.059  13.406 -18.945  1.00  0.00    -0.352 OA
HETATM   13  C11 UNL     1      -9.614  12.862 -20.125  1.00  0.00     0.210 C 
ENDBRANCH   7  12
BRANCH   1  14
HETATM   14  O1  UNL     1      -8.649  11.186 -17.376  1.00  0.00    -0.353 OA
HETATM   15  C1  UNL     1      -9.133   9.917 -17.753  1.00  0.00     0.210 C 
ENDBRANCH   1  14
TORSDOF 4
ENDMDL
MODEL 3
REMARK VINA RESULT: -4.760397598      3.047      4.638
REMARK  4 active torsions:
REMARK  status: ('A' for Active; 'I' for Inactive)
REMARK    1  A    between atoms: O1_2  and  C2_3 
REMARK    2  A    between atoms: C6_8  and  C7_9 
REMARK    3  A    between atoms: C7_9  and  N1_10 
REMARK    4  A    between atoms: C10_13  and  O2_14 
ROOT
HETATM    1  C2  UNL     1     -12.427  14.065 -18.752  1.00  0.00     0.103 A 
HETATM    2  C3  UNL     1     -11.937  15.346 -18.667  1.00  0.00     0.058 A 
HETATM    3  C4  UNL     1     -11.154  15.746 -17.609  1.00  0.00     0.014 A 
HETATM    4 BR1  UNL     1     -10.525  17.562 -17.598  1.00  0.00    -0.051 Br
HETATM    5  C5  UNL     1     -10.836  14.869 -16.596  1.00  0.00     0.034 A 
HETATM    6  C6  UNL     1     -11.311  13.589 -16.654  1.00  0.00     0.017 A 
HETATM    7  C10 UNL     1     -12.097  13.203 -17.727  1.00  0.00     0.113 A 
ENDROOT
BRANCH   6   8
HETATM    8  C7  UNL     1     -11.014  12.592 -15.641  1.00  0.00     0.099 C 
BRANCH   8   9
HETATM    9  N1  UNL     1     -11.509  12.777 -14.334  1.00  0.00    -0.398 N 
HETATM   10  C8  UNL     1     -12.855  13.196 -14.180  1.00  0.00     0.148 C 
HETATM   11  C9  UNL     1     -11.033  11.838 -13.368  1.00  0.00     0.148 C 
ENDBRANCH   8   9
ENDBRANCH   6   8
BRANCH   7  12
HETATM   12  O2  UNL     1     -12.600  11.913 -17.828  1.00  0.00    -0.352 OA
HETATM   13  C11 UNL     1     -11.854  10.983 -18.586  1.00  0.00     0.210 C 
ENDBRANCH   7  12
BRANCH   1  14
HETATM   14  O1  UNL     1     -13.209  13.698 -19.828  1.00  0.00    -0.353 OA
HETATM   15  C1  UNL     1     -12.691  13.883 -21.126  1.00  0.00     0.210 C 
ENDBRANCH   1  14
TORSDOF 4
ENDMDL
MODEL 4
REMARK VINA RESULT: -4.432828389      2.599      4.065
REMARK  4 active torsions:
REMARK  status: ('A' for Active; 'I' for Inactive)
REMARK    1  A    between atoms: O1_2  and  C2_3 
REMARK    2  A    between atoms: C6_8  and  C7_9 
REMARK    3  A    between atoms: C7_9  and  N1_10 
REMARK    4  A    between atoms: C10_13  and  O2_14 
ROOT
HETATM    1  C2  UNL     1      -9.922  13.389 -18.703  1.00  0.00     0.103 A 
HETATM    2  C3  UNL     1      -9.975  14.760 -18.620  1.00  0.00     0.058 A 
HETATM    3  C4  UNL     1     -10.667  15.392 -17.612  1.00  0.00     0.014 A 
HETATM    4 BR1  UNL     1     -10.671  17.313 -17.597  1.00  0.00    -0.051 Br
HETATM    5  C5  UNL     1     -11.333  14.663 -16.651  1.00  0.00     0.034 A 
HETATM    6  C6  UNL     1     -11.297  13.298 -16.710  1.00  0.00     0.017 A 
HETATM    7  C10 UNL     1     -10.594  12.680 -17.731  1.00  0.00     0.113 A 
ENDROOT
BRANCH   6   8
HETATM    8  C7  UNL     1     -11.955  12.451 -15.733  1.00  0.00     0.099 C 
BRANCH   8   9
HETATM    9  N1  UNL     1     -11.747  12.698 -14.361  1.00  0.00    -0.398 N 
HETATM   10  C8  UNL     1     -12.844  13.160 -13.589  1.00  0.00     0.148 C 
HETATM   11  C9  UNL     1     -10.865  11.785 -13.707  1.00  0.00     0.148 C 
ENDBRANCH   8   9
ENDBRANCH   6   8
BRANCH   7  12
HETATM   12  O2  UNL     1     -10.531  11.296 -17.830  1.00  0.00    -0.352 OA
HETATM   13  C11 UNL     1      -9.420  10.654 -17.238  1.00  0.00     0.210 C 
ENDBRANCH   7  12
BRANCH   1  14
HETATM   14  O1  UNL     1      -9.217  12.791 -19.727  1.00  0.00    -0.353 OA
HETATM   15  C1  UNL     1      -9.625  13.035 -21.054  1.00  0.00     0.210 C 
ENDBRANCH   1  14
TORSDOF 4
ENDMDL
MODEL 5
REMARK VINA RESULT: -4.351178257      2.431      4.282
REMARK  4 active torsions:
REMARK  status: ('A' for Active; 'I' for Inactive)
REMARK    1  A    between atoms: O1_2  and  C2_3 
REMARK    2  A    between atoms: C6_8  and  C7_9 
REMARK    3  A    between atoms: C7_9  and  N1_10 
REMARK    4  A    between atoms: C10_13  and  O2_14 
ROOT
HETATM    1  C2  UNL     1      -9.935  13.045 -18.329  1.00  0.00     0.103 A 
HETATM    2  C3  UNL     1     -10.929  13.993 -18.323  1.00  0.00     0.058 A 
HETATM    3  C4  UNL     1     -11.728  14.189 -17.219  1.00  0.00     0.014 A 
HETATM    4 BR1  UNL     1     -13.086  15.544 -17.326  1.00  0.00    -0.051 Br
HETATM    5  C5  UNL     1     -11.552  13.435 -16.080  1.00  0.00     0.034 A 
HETATM    6  C6  UNL     1     -10.570  12.484 -16.058  1.00  0.00     0.017 A 
HETATM    7  C10 UNL     1      -9.776  12.302 -17.178  1.00  0.00     0.113 A 
ENDROOT
BRANCH   6   8
HETATM    8  C7  UNL     1     -10.303  11.655 -14.897  1.00  0.00     0.099 C 
BRANCH   8   9
HETATM    9  N1  UNL     1     -11.384  11.047 -14.227  1.00  0.00    -0.398 N 
HETATM   10  C8  UNL     1     -11.866   9.807 -14.719  1.00  0.00     0.148 C 
HETATM   11  C9  UNL     1     -11.374  11.193 -12.806  1.00  0.00     0.148 C 
ENDBRANCH   8   9
ENDBRANCH   6   8
BRANCH   7  12
HETATM   12  O2  UNL     1      -8.767  11.348 -17.201  1.00  0.00    -0.352 OA
HETATM   13  C11 UNL     1      -9.102  10.061 -17.679  1.00  0.00     0.210 C 
ENDBRANCH   7  12
BRANCH   1  14
HETATM   14  O1  UNL     1      -9.153  12.877 -19.453  1.00  0.00    -0.353 OA
HETATM   15  C1  UNL     1      -9.681  13.267 -20.701  1.00  0.00     0.210 C 
ENDBRANCH   1  14
TORSDOF 4
ENDMDL
