MODEL 1
REMARK VINA RESULT: -5.585361608      0.000      0.000
REMARK  4 active torsions:
REMARK  status: ('A' for Active; 'I' for Inactive)
REMARK    1  A    between atoms: C2_2  and  C4_4 
REMARK    2  A    between atoms: N1_6  and  C6_8 
REMARK    3  A    between atoms: C7_11  and  N3_12 
REMARK    4  A    between atoms: C8_16  and  C9_17 
ROOT
HETATM    1  C6  UNL     1     -11.347  14.068 -17.812  1.00  0.00     0.121 A 
HETATM    2  N2  UNL     1     -10.633  13.143 -18.400  1.00  0.00    -0.322 N 
ATOM      3  H2  UNL     1     -10.410  13.223 -19.392  1.00  0.00     0.169 HD
HETATM    4  C7  UNL     1     -10.196  12.090 -17.697  1.00  0.00     0.144 A 
HETATM    5  S1  UNL     1     -10.807  12.394 -16.136  1.00  0.00    -0.055 SA
HETATM    6  C8  UNL     1     -11.613  13.871 -16.445  1.00  0.00     0.034 A 
ENDROOT
BRANCH   1   7
HETATM    7  N1  UNL     1     -11.640  15.361 -18.355  1.00  0.00    -0.345 N 
HETATM    8  C4  UNL     1     -12.226  15.825 -19.337  1.00  0.00     0.012 C 
HETATM    9  C5  UNL     1     -12.863  14.977 -20.419  1.00  0.00     0.068 C 
ATOM     10  H1  UNL     1     -11.259  16.103 -17.768  1.00  0.00     0.167 HD
BRANCH   8  11
HETATM   11  C2  UNL     1     -12.285  17.305 -19.514  1.00  0.00    -0.049 C 
HETATM   12  C1  UNL     1     -11.631  18.142 -18.764  1.00  0.00     0.020 C 
HETATM   13  C3  UNL     1     -13.203  17.881 -20.520  1.00  0.00     0.049 C 
ENDBRANCH   8  11
ENDBRANCH   1   7
BRANCH   6  14
HETATM   14  C9  UNL     1     -12.571  14.607 -15.562  1.00  0.00     0.021 C 
HETATM   15  C10 UNL     1     -12.861  13.807 -14.278  1.00  0.00     0.015 C 
HETATM   16  C11 UNL     1     -13.961  14.344 -16.347  1.00  0.00     0.015 C 
ENDBRANCH   6  14
BRANCH   4  17
HETATM   17  N3  UNL     1      -9.491  11.049 -18.126  1.00  0.00    -0.380 N 
ATOM     18  H32 UNL     1      -8.756  11.024 -18.833  1.00  0.00     0.158 HD
ATOM     19  H31 UNL     1      -9.533  10.082 -17.805  1.00  0.00     0.158 HD
ENDBRANCH   4  17
TORSDOF 4
ENDMDL
MODEL 2
REMARK VINA RESULT: -5.306811562      2.266      4.909
REMARK  4 active torsions:
REMARK  status: ('A' for Active; 'I' for Inactive)
REMARK    1  A    between atoms: C2_2  and  C4_4 
REMARK    2  A    between atoms: N1_6  and  C6_8 
REMARK    3  A    between atoms: C7_11  and  N3_12 
REMARK    4  A    between atoms: C8_16  and  C9_17 
ROOT
HETATM    1  C6  UNL     1     -12.462  13.753 -18.604  1.00  0.00     0.121 A 
HETATM    2  N2  UNL     1     -12.496  12.794 -19.494  1.00  0.00    -0.322 N 
ATOM      3  H2  UNL     1     -12.423  11.820 -19.199  1.00  0.00     0.169 HD
HETATM    4  C7  UNL     1     -12.628  13.093 -20.793  1.00  0.00     0.144 A 
HETATM    5  S1  UNL     1     -12.706  14.796 -20.786  1.00  0.00    -0.055 SA
HETATM    6  C8  UNL     1     -12.562  15.065 -19.103  1.00  0.00     0.034 A 
ENDROOT
BRANCH   1   7
HETATM    7  N1  UNL     1     -12.605  13.578 -17.190  1.00  0.00    -0.345 N 
HETATM    8  C4  UNL     1     -11.926  13.154 -16.252  1.00  0.00     0.012 C 
HETATM    9  C5  UNL     1     -10.533  12.578 -16.409  1.00  0.00     0.068 C 
ATOM     10  H1  UNL     1     -13.523  13.891 -16.870  1.00  0.00     0.167 HD
BRANCH   8  11
HETATM   11  C2  UNL     1     -12.506  13.156 -14.877  1.00  0.00    -0.049 C 
HETATM   12  C1  UNL     1     -13.280  14.099 -14.428  1.00  0.00     0.020 C 
HETATM   13  C3  UNL     1     -12.117  12.094 -13.922  1.00  0.00     0.049 C 
ENDBRANCH   8  11
ENDBRANCH   1   7
BRANCH   6  14
HETATM   14  C9  UNL     1     -12.327  16.358 -18.387  1.00  0.00     0.021 C 
HETATM   15  C10 UNL     1     -12.311  17.538 -19.377  1.00  0.00     0.015 C 
HETATM   16  C11 UNL     1     -10.741  16.250 -18.091  1.00  0.00     0.015 C 
ENDBRANCH   6  14
BRANCH   4  17
HETATM   17  N3  UNL     1     -12.653  12.264 -21.830  1.00  0.00    -0.380 N 
ATOM     18  H32 UNL     1     -13.430  11.707 -22.184  1.00  0.00     0.158 HD
ATOM     19  H31 UNL     1     -11.902  12.050 -22.487  1.00  0.00     0.158 HD
ENDBRANCH   4  17
TORSDOF 4
ENDMDL
MODEL 3
REMARK VINA RESULT: -5.264088178      1.400      1.400
REMARK  4 active torsions:
REMARK  status: ('A' for Active; 'I' for Inactive)
REMARK    1  A    between atoms: C2_2  and  C4_4 
REMARK    2  A    between atoms: N1_6  and  C6_8 
REMARK    3  A    between atoms: C7_11  and  N3_12 
REMARK    4  A    between atoms: C8_16  and  C9_17 
ROOT
HETATM    1  C6  UNL     1     -12.427  13.937 -18.665  1.00  0.00     0.121 A 
HETATM    2  N2  UNL     1     -12.356  12.908 -19.470  1.00  0.00    -0.322 N 
ATOM      3  H2  UNL     1     -12.557  13.022 -20.464  1.00  0.00     0.169 HD
HETATM    4  C7  UNL     1     -12.018  11.705 -18.988  1.00  0.00     0.144 A 
HETATM    5  S1  UNL     1     -11.788  12.011 -17.327  1.00  0.00    -0.055 SA
HETATM    6  C8  UNL     1     -12.140  13.685 -17.311  1.00  0.00     0.034 A 
ENDROOT
BRANCH   1   7
HETATM    7  N1  UNL     1     -12.499  15.308 -19.074  1.00  0.00    -0.345 N 
HETATM    8  C4  UNL     1     -12.815  15.941 -20.085  1.00  0.00     0.012 C 
HETATM    9  C5  UNL     1     -13.249  15.296 -21.385  1.00  0.00     0.068 C 
ATOM     10  H1  UNL     1     -12.208  15.933 -18.322  1.00  0.00     0.167 HD
BRANCH   8  11
HETATM   11  C2  UNL     1     -12.729  17.430 -20.063  1.00  0.00    -0.049 C 
HETATM   12  C1  UNL     1     -12.023  18.095 -19.196  1.00  0.00     0.020 C 
HETATM   13  C3  UNL     1     -13.557  18.220 -21.001  1.00  0.00     0.049 C 
ENDBRANCH   8  11
ENDBRANCH   1   7
BRANCH   6  14
HETATM   14  C9  UNL     1     -12.355  14.576 -16.128  1.00  0.00     0.021 C 
HETATM   15  C10 UNL     1     -12.051  13.829 -14.816  1.00  0.00     0.015 C 
HETATM   16  C11 UNL     1     -13.971  14.583 -16.050  1.00  0.00     0.015 C 
ENDBRANCH   6  14
BRANCH   4  17
HETATM   17  N3  UNL     1     -11.924  10.553 -19.642  1.00  0.00    -0.380 N 
ATOM     18  H32 UNL     1     -12.201  10.338 -20.600  1.00  0.00     0.158 HD
ATOM     19  H31 UNL     1     -11.529   9.671 -19.315  1.00  0.00     0.158 HD
ENDBRANCH   4  17
TORSDOF 4
ENDMDL
MODEL 4
REMARK VINA RESULT: -5.174325180      0.804      1.179
REMARK  4 active torsions:
REMARK  status: ('A' for Active; 'I' for Inactive)
REMARK    1  A    between atoms: C2_2  and  C4_4 
REMARK    2  A    between atoms: N1_6  and  C6_8 
REMARK    3  A    between atoms: C7_11  and  N3_12 
REMARK    4  A    between atoms: C8_16  and  C9_17 
ROOT
HETATM    1  C6  UNL     1     -11.542  13.602 -18.001  1.00  0.00     0.121 A 
HETATM    2  N2  UNL     1     -10.853  12.612 -18.508  1.00  0.00    -0.322 N 
ATOM      3  H2  UNL     1     -10.759  12.521 -19.520  1.00  0.00     0.169 HD
HETATM    4  C7  UNL     1     -10.270  11.719 -17.698  1.00  0.00     0.144 A 
HETATM    5  S1  UNL     1     -10.701  12.276 -16.146  1.00  0.00    -0.055 SA
HETATM    6  C8  UNL     1     -11.624  13.643 -16.597  1.00  0.00     0.034 A 
ENDROOT
BRANCH   1   7
HETATM    7  N1  UNL     1     -11.975  14.765 -18.716  1.00  0.00    -0.345 N 
HETATM    8  C4  UNL     1     -11.653  15.953 -18.803  1.00  0.00     0.012 C 
HETATM    9  C5  UNL     1     -10.537  16.587 -17.998  1.00  0.00     0.068 C 
ATOM     10  H1  UNL     1     -12.770  14.552 -19.319  1.00  0.00     0.167 HD
BRANCH   8  11
HETATM   11  C2  UNL     1     -12.424  16.847 -19.714  1.00  0.00    -0.049 C 
HETATM   12  C1  UNL     1     -12.591  18.119 -19.498  1.00  0.00     0.020 C 
HETATM   13  C3  UNL     1     -13.129  16.267 -20.878  1.00  0.00     0.049 C 
ENDBRANCH   8  11
ENDBRANCH   1   7
BRANCH   6  14
HETATM   14  C9  UNL     1     -12.508  14.490 -15.736  1.00  0.00     0.021 C 
HETATM   15  C10 UNL     1     -12.584  13.927 -14.305  1.00  0.00     0.015 C 
HETATM   16  C11 UNL     1     -13.966  14.037 -16.269  1.00  0.00     0.015 C 
ENDBRANCH   6  14
BRANCH   4  17
HETATM   17  N3  UNL     1      -9.564  10.645 -18.029  1.00  0.00    -0.380 N 
ATOM     18  H32 UNL     1      -8.806  10.563 -18.707  1.00  0.00     0.158 HD
ATOM     19  H31 UNL     1      -9.629   9.702 -17.645  1.00  0.00     0.158 HD
ENDBRANCH   4  17
TORSDOF 4
ENDMDL
MODEL 5
REMARK VINA RESULT: -5.063549118      2.073      3.382
REMARK  4 active torsions:
REMARK  status: ('A' for Active; 'I' for Inactive)
REMARK    1  A    between atoms: C2_2  and  C4_4 
REMARK    2  A    between atoms: N1_6  and  C6_8 
REMARK    3  A    between atoms: C7_11  and  N3_12 
REMARK    4  A    between atoms: C8_16  and  C9_17 
ROOT
HETATM    1  C6  UNL     1     -12.716  14.474 -16.836  1.00  0.00     0.121 A 
HETATM    2  N2  UNL     1     -13.087  14.818 -15.630  1.00  0.00    -0.322 N 
ATOM      3  H2  UNL     1     -13.261  15.799 -15.409  1.00  0.00     0.169 HD
HETATM    4  C7  UNL     1     -13.238  13.881 -14.684  1.00  0.00     0.144 A 
HETATM    5  S1  UNL     1     -12.842  12.443 -15.508  1.00  0.00    -0.055 SA
HETATM    6  C8  UNL     1     -12.490  13.102 -17.047  1.00  0.00     0.034 A 
ENDROOT
BRANCH   1   7
HETATM    7  N1  UNL     1     -12.784  15.312 -17.996  1.00  0.00    -0.345 N 
HETATM    8  C4  UNL     1     -12.058  16.122 -18.578  1.00  0.00     0.012 C 
HETATM    9  C5  UNL     1     -10.679  16.522 -18.093  1.00  0.00     0.068 C 
ATOM     10  H1  UNL     1     -13.681  15.211 -18.473  1.00  0.00     0.167 HD
BRANCH   8  11
HETATM   11  C2  UNL     1     -12.563  16.794 -19.810  1.00  0.00    -0.049 C 
HETATM   12  C1  UNL     1     -12.703  18.083 -19.917  1.00  0.00     0.020 C 
HETATM   13  C3  UNL     1     -13.032  15.972 -20.947  1.00  0.00     0.049 C 
ENDBRANCH   8  11
ENDBRANCH   1   7
BRANCH   6  14
HETATM   14  C9  UNL     1     -11.849  12.429 -18.219  1.00  0.00     0.021 C 
HETATM   15  C10 UNL     1     -11.928  10.897 -18.084  1.00  0.00     0.015 C 
HETATM   16  C11 UNL     1     -10.285  12.637 -17.863  1.00  0.00     0.015 C 
ENDBRANCH   6  14
BRANCH   4  17
HETATM   17  N3  UNL     1     -13.577  14.044 -13.411  1.00  0.00    -0.380 N 
ATOM     18  H32 UNL     1     -14.423  14.461 -13.023  1.00  0.00     0.158 HD
ATOM     19  H31 UNL     1     -13.063  13.754 -12.578  1.00  0.00     0.158 HD
ENDBRANCH   4  17
TORSDOF 4
ENDMDL
