MODEL 1
REMARK VINA RESULT: -5.236189508      0.000      0.000
REMARK  3 active torsions:
REMARK  status: ('A' for Active; 'I' for Inactive)
REMARK    1  A    between atoms: C3_4  and  N1_5 
REMARK    2  A    between atoms: C4_10  and  S2_11 
REMARK    3  A    between atoms: S2_11  and  C5_12 
ROOT
HETATM    1  C1  UNL     1      -9.789  12.563 -17.413  1.00  0.00     0.059 C 
HETATM    2  C2  UNL     1     -10.841  13.245 -16.618  1.00  0.00     0.016 A 
HETATM    3  S1  UNL     1     -11.553  12.664 -15.182  1.00  0.00    -0.057 SA
HETATM    4  C3  UNL     1     -12.625  13.963 -14.891  1.00  0.00     0.143 A 
HETATM    5  N2  UNL     1     -12.379  14.779 -15.915  1.00  0.00    -0.331 N 
ATOM      6  H2  UNL     1     -12.886  15.660 -16.003  1.00  0.00     0.168 HD
HETATM    7  C4  UNL     1     -11.489  14.444 -16.798  1.00  0.00     0.085 A 
ENDROOT
BRANCH   7   8
HETATM    8  S2  UNL     1     -11.027  15.438 -18.251  1.00  0.00    -0.106 SA
BRANCH   8   9
HETATM    9  C5  UNL     1     -12.345  16.396 -18.901  1.00  0.00     0.054 C 
HETATM   10  C6  UNL     1     -12.078  17.824 -19.204  1.00  0.00     0.015 C 
HETATM   11  C7  UNL     1     -13.293  18.165 -20.084  1.00  0.00     0.001 C 
HETATM   12  C8  UNL     1     -13.242  17.014 -21.064  1.00  0.00     0.001 C 
HETATM   13  C9  UNL     1     -12.669  15.844 -20.293  1.00  0.00     0.015 C 
ENDBRANCH   8   9
ENDBRANCH   7   8
BRANCH   4  14
HETATM   14  N1  UNL     1     -13.473  14.109 -13.900  1.00  0.00    -0.380 N 
ATOM     15  H12 UNL     1     -14.098  13.420 -13.481  1.00  0.00     0.158 HD
ATOM     16  H11 UNL     1     -13.671  14.950 -13.357  1.00  0.00     0.158 HD
ENDBRANCH   4  14
TORSDOF 3
ENDMDL
MODEL 2
REMARK VINA RESULT: -5.183559293      2.879      5.436
REMARK  3 active torsions:
REMARK  status: ('A' for Active; 'I' for Inactive)
REMARK    1  A    between atoms: C3_4  and  N1_5 
REMARK    2  A    between atoms: C4_10  and  S2_11 
REMARK    3  A    between atoms: S2_11  and  C5_12 
ROOT
HETATM    1  C1  UNL     1     -11.921  14.336 -20.850  1.00  0.00     0.059 C 
HETATM    2  C2  UNL     1     -12.509  15.677 -20.603  1.00  0.00     0.016 A 
HETATM    3  S1  UNL     1     -13.596  16.503 -21.624  1.00  0.00    -0.057 SA
HETATM    4  C3  UNL     1     -13.797  17.916 -20.683  1.00  0.00     0.143 A 
HETATM    5  N2  UNL     1     -13.017  17.679 -19.630  1.00  0.00    -0.331 N 
ATOM      6  H2  UNL     1     -12.939  18.369 -18.882  1.00  0.00     0.168 HD
HETATM    7  C4  UNL     1     -12.358  16.563 -19.562  1.00  0.00     0.085 A 
ENDROOT
BRANCH   7   8
HETATM    8  S2  UNL     1     -11.255  16.076 -18.199  1.00  0.00    -0.106 SA
BRANCH   8   9
HETATM    9  C5  UNL     1     -11.920  14.825 -17.164  1.00  0.00     0.054 C 
HETATM   10  C6  UNL     1     -11.457  14.774 -15.755  1.00  0.00     0.015 C 
HETATM   11  C7  UNL     1     -12.524  13.858 -15.131  1.00  0.00     0.001 C 
HETATM   12  C8  UNL     1     -13.780  14.529 -15.642  1.00  0.00     0.001 C 
HETATM   13  C9  UNL     1     -13.412  15.122 -16.984  1.00  0.00     0.015 C 
ENDBRANCH   8   9
ENDBRANCH   7   8
BRANCH   4  14
HETATM   14  N1  UNL     1     -14.539  18.967 -20.944  1.00  0.00    -0.380 N 
ATOM     15  H12 UNL     1     -14.382  19.713 -21.623  1.00  0.00     0.158 HD
ATOM     16  H11 UNL     1     -15.422  19.239 -20.512  1.00  0.00     0.158 HD
ENDBRANCH   4  14
TORSDOF 3
ENDMDL
MODEL 3
REMARK VINA RESULT: -4.984282231      2.785      5.652
REMARK  3 active torsions:
REMARK  status: ('A' for Active; 'I' for Inactive)
REMARK    1  A    between atoms: C3_4  and  N1_5 
REMARK    2  A    between atoms: C4_10  and  S2_11 
REMARK    3  A    between atoms: S2_11  and  C5_12 
ROOT
HETATM    1  C1  UNL     1     -12.071  18.098 -19.173  1.00  0.00     0.059 C 
HETATM    2  C2  UNL     1     -12.543  16.922 -19.947  1.00  0.00     0.016 A 
HETATM    3  S1  UNL     1     -13.567  16.957 -21.309  1.00  0.00    -0.057 SA
HETATM    4  C3  UNL     1     -13.639  15.277 -21.611  1.00  0.00     0.143 A 
HETATM    5  N2  UNL     1     -12.869  14.773 -20.648  1.00  0.00    -0.331 N 
ATOM      6  H2  UNL     1     -12.724  13.766 -20.580  1.00  0.00     0.168 HD
HETATM    7  C4  UNL     1     -12.306  15.576 -19.797  1.00  0.00     0.085 A 
ENDROOT
BRANCH   7   8
HETATM    8  S2  UNL     1     -11.224  15.061 -18.427  1.00  0.00    -0.106 SA
BRANCH   8   9
HETATM    9  C5  UNL     1     -12.001  15.113 -16.854  1.00  0.00     0.054 C 
HETATM   10  C6  UNL     1     -13.450  14.796 -16.787  1.00  0.00     0.015 C 
HETATM   11  C7  UNL     1     -13.626  14.565 -15.277  1.00  0.00     0.001 C 
HETATM   12  C8  UNL     1     -12.484  13.608 -15.020  1.00  0.00     0.001 C 
HETATM   13  C9  UNL     1     -11.403  13.984 -16.010  1.00  0.00     0.015 C 
ENDBRANCH   8   9
ENDBRANCH   7   8
BRANCH   4  14
HETATM   14  N1  UNL     1     -14.293  14.650 -22.561  1.00  0.00    -0.380 N 
ATOM     15  H12 UNL     1     -14.410  14.910 -23.540  1.00  0.00     0.158 HD
ATOM     16  H11 UNL     1     -14.814  13.775 -22.497  1.00  0.00     0.158 HD
ENDBRANCH   4  14
TORSDOF 3
ENDMDL
MODEL 4
REMARK VINA RESULT: -4.967268857      1.903      2.630
REMARK  3 active torsions:
REMARK  status: ('A' for Active; 'I' for Inactive)
REMARK    1  A    between atoms: C3_4  and  N1_5 
REMARK    2  A    between atoms: C4_10  and  S2_11 
REMARK    3  A    between atoms: S2_11  and  C5_12 
ROOT
HETATM    1  C1  UNL     1     -12.985  14.712 -15.973  1.00  0.00     0.059 C 
HETATM    2  C2  UNL     1     -11.921  13.946 -16.669  1.00  0.00     0.016 A 
HETATM    3  S1  UNL     1     -11.643  12.269 -16.544  1.00  0.00    -0.057 SA
HETATM    4  C3  UNL     1     -10.304  12.158 -17.600  1.00  0.00     0.143 A 
HETATM    5  N2  UNL     1     -10.140  13.419 -17.996  1.00  0.00    -0.331 N 
ATOM      6  H2  UNL     1      -9.394  13.660 -18.650  1.00  0.00     0.168 HD
HETATM    7  C4  UNL     1     -10.937  14.338 -17.545  1.00  0.00     0.085 A 
ENDROOT
BRANCH   7   8
HETATM    8  S2  UNL     1     -10.859  16.103 -17.984  1.00  0.00    -0.106 SA
BRANCH   8   9
HETATM    9  C5  UNL     1     -12.285  16.687 -18.824  1.00  0.00     0.054 C 
HETATM   10  C6  UNL     1     -12.236  18.052 -19.404  1.00  0.00     0.015 C 
HETATM   11  C7  UNL     1     -13.452  18.011 -20.345  1.00  0.00     0.001 C 
HETATM   12  C8  UNL     1     -13.180  16.714 -21.074  1.00  0.00     0.001 C 
HETATM   13  C9  UNL     1     -12.461  15.828 -20.080  1.00  0.00     0.015 C 
ENDBRANCH   8   9
ENDBRANCH   7   8
BRANCH   4  14
HETATM   14  N1  UNL     1      -9.616  11.090 -17.931  1.00  0.00    -0.380 N 
ATOM     15  H12 UNL     1      -9.868  10.107 -17.831  1.00  0.00     0.158 HD
ATOM     16  H11 UNL     1      -8.689  11.042 -18.354  1.00  0.00     0.158 HD
ENDBRANCH   4  14
TORSDOF 3
ENDMDL
MODEL 5
REMARK VINA RESULT: -4.863794259      2.489      5.249
REMARK  3 active torsions:
REMARK  status: ('A' for Active; 'I' for Inactive)
REMARK    1  A    between atoms: C3_4  and  N1_5 
REMARK    2  A    between atoms: C4_10  and  S2_11 
REMARK    3  A    between atoms: S2_11  and  C5_12 
ROOT
HETATM    1  C1  UNL     1     -12.325  13.014 -19.962  1.00  0.00     0.059 C 
HETATM    2  C2  UNL     1     -12.363  14.495 -19.866  1.00  0.00     0.016 A 
HETATM    3  S1  UNL     1     -13.142  15.554 -20.952  1.00  0.00    -0.057 SA
HETATM    4  C3  UNL     1     -12.745  17.031 -20.188  1.00  0.00     0.143 A 
HETATM    5  N2  UNL     1     -12.033  16.633 -19.135  1.00  0.00    -0.331 N 
ATOM      6  H2  UNL     1     -11.656  17.318 -18.480  1.00  0.00     0.168 HD
HETATM    7  C4  UNL     1     -11.825  15.365 -18.948  1.00  0.00     0.085 A 
ENDROOT
BRANCH   7   8
HETATM    8  S2  UNL     1     -10.883  14.649 -17.566  1.00  0.00    -0.106 SA
BRANCH   8   9
HETATM    9  C5  UNL     1     -11.738  14.682 -16.034  1.00  0.00     0.054 C 
HETATM   10  C6  UNL     1     -13.219  14.778 -16.070  1.00  0.00     0.015 C 
HETATM   11  C7  UNL     1     -13.570  14.384 -14.625  1.00  0.00     0.001 C 
HETATM   12  C8  UNL     1     -12.754  13.118 -14.490  1.00  0.00     0.001 C 
HETATM   13  C9  UNL     1     -11.537  13.319 -15.366  1.00  0.00     0.015 C 
ENDBRANCH   8   9
ENDBRANCH   7   8
BRANCH   4  14
HETATM   14  N1  UNL     1     -13.068  18.248 -20.556  1.00  0.00    -0.380 N 
ATOM     15  H12 UNL     1     -13.546  18.559 -21.402  1.00  0.00     0.158 HD
ATOM     16  H11 UNL     1     -12.900  19.124 -20.060  1.00  0.00     0.158 HD
ENDBRANCH   4  14
TORSDOF 3
ENDMDL
