MODEL 1
REMARK VINA RESULT: -5.213529908      0.000      0.000
REMARK  4 active torsions:
REMARK  status: ('A' for Active; 'I' for Inactive)
REMARK    1  A    between atoms: O1_1  and  N1_3 
REMARK    2  A    between atoms: N3_11  and  N4_12 
REMARK    3  A    between atoms: N4_12  and  C6_14 
REMARK    4  A    between atoms: C6_14  and  C7_15 
ROOT
HETATM    1  N1  UNL     1       1.593  27.585 -21.674  1.00  0.00    -0.136 N 
HETATM    2  C1  UNL     1       0.571  28.476 -21.778  1.00  0.00     0.131 A 
HETATM    3  C2  UNL     1      -0.677  28.960 -21.465  1.00  0.00     0.039 A 
HETATM    4  C3  UNL     1      -1.193  30.113 -22.028  1.00  0.00     0.020 A 
HETATM    5  C4  UNL     1      -0.386  30.770 -22.933  1.00  0.00     0.090 A 
HETATM    6  N2  UNL     1       0.847  30.298 -23.247  1.00  0.00    -0.348 N 
ATOM      7  H2  UNL     1       1.412  30.813 -23.922  1.00  0.00     0.167 HD
HETATM    8  C5  UNL     1       1.353  29.175 -22.701  1.00  0.00     0.179 A 
HETATM    9  N3  UNL     1       2.315  28.258 -22.547  1.00  0.00    -0.151 N 
ENDROOT
BRANCH   9  10
HETATM   10  N4  UNL     1       3.584  28.064 -23.082  1.00  0.00    -0.284 N 
ATOM     11  H4  UNL     1       4.406  28.071 -22.477  1.00  0.00     0.188 HD
BRANCH  10  12
HETATM   12  C6  UNL     1       3.708  27.880 -24.332  1.00  0.00     0.146 C 
BRANCH  12  13
HETATM   13  C7  UNL     1       3.972  29.040 -25.208  1.00  0.00     0.091 A 
HETATM   14  C8  UNL     1       4.745  29.043 -26.349  1.00  0.00     0.040 A 
HETATM   15  C9  UNL     1       4.750  30.316 -26.889  1.00  0.00     0.027 A 
HETATM   16  C10 UNL     1       3.948  31.053 -26.016  1.00  0.00     0.142 A 
HETATM   17  O2  UNL     1       3.524  30.263 -25.058  1.00  0.00    -0.321 OA
ENDBRANCH  12  13
ENDBRANCH  10  12
ENDBRANCH   9  10
BRANCH   1  18
HETATM   18  O1  UNL     1       1.707  26.443 -20.906  1.00  0.00    -0.266 OA
ATOM     19  H1  UNL     1       2.448  25.866 -20.770  1.00  0.00     0.247 HD
ENDBRANCH   1  18
TORSDOF 4
ENDMDL
MODEL 2
REMARK VINA RESULT: -5.126727361      2.579      4.228
REMARK  4 active torsions:
REMARK  status: ('A' for Active; 'I' for Inactive)
REMARK    1  A    between atoms: O1_1  and  N1_3 
REMARK    2  A    between atoms: N3_11  and  N4_12 
REMARK    3  A    between atoms: N4_12  and  C6_14 
REMARK    4  A    between atoms: C6_14  and  C7_15 
ROOT
HETATM    1  N1  UNL     1       2.758  28.324 -22.872  1.00  0.00    -0.136 N 
HETATM    2  C1  UNL     1       1.913  27.678 -22.024  1.00  0.00     0.131 A 
HETATM    3  C2  UNL     1       1.532  26.617 -21.236  1.00  0.00     0.039 A 
HETATM    4  C3  UNL     1       0.351  26.607 -20.518  1.00  0.00     0.020 A 
HETATM    5  C4  UNL     1      -0.444  27.730 -20.627  1.00  0.00     0.090 A 
HETATM    6  N2  UNL     1      -0.075  28.780 -21.403  1.00  0.00    -0.348 N 
ATOM      7  H2  UNL     1      -0.691  29.591 -21.457  1.00  0.00     0.167 HD
HETATM    8  C5  UNL     1       1.076  28.793 -22.103  1.00  0.00     0.179 A 
HETATM    9  N3  UNL     1       1.954  29.366 -22.934  1.00  0.00    -0.151 N 
ENDROOT
BRANCH   9  10
HETATM   10  N4  UNL     1       2.021  30.579 -23.612  1.00  0.00    -0.284 N 
ATOM     11  H4  UNL     1       2.774  31.239 -23.415  1.00  0.00     0.188 HD
BRANCH  10  12
HETATM   12  C6  UNL     1       1.134  30.854 -24.477  1.00  0.00     0.146 C 
BRANCH  12  13
HETATM   13  C7  UNL     1       0.066  31.815 -24.133  1.00  0.00     0.091 A 
HETATM   14  C8  UNL     1      -1.079  31.543 -23.415  1.00  0.00     0.040 A 
HETATM   15  C9  UNL     1      -1.828  32.699 -23.302  1.00  0.00     0.027 A 
HETATM   16  C10 UNL     1      -1.073  33.655 -23.984  1.00  0.00     0.142 A 
HETATM   17  O2  UNL     1       0.016  33.087 -24.445  1.00  0.00    -0.321 OA
ENDBRANCH  12  13
ENDBRANCH  10  12
ENDBRANCH   9  10
BRANCH   1  18
HETATM   18  O1  UNL     1       3.972  27.927 -23.396  1.00  0.00    -0.266 OA
ATOM     19  H1  UNL     1       4.186  27.577 -24.253  1.00  0.00     0.247 HD
ENDBRANCH   1  18
TORSDOF 4
ENDMDL
MODEL 3
REMARK VINA RESULT: -5.119909640      1.625      2.096
REMARK  4 active torsions:
REMARK  status: ('A' for Active; 'I' for Inactive)
REMARK    1  A    between atoms: O1_1  and  N1_3 
REMARK    2  A    between atoms: N3_11  and  N4_12 
REMARK    3  A    between atoms: N4_12  and  C6_14 
REMARK    4  A    between atoms: C6_14  and  C7_15 
ROOT
HETATM    1  N1  UNL     1       1.612  27.555 -21.723  1.00  0.00    -0.136 N 
HETATM    2  C1  UNL     1       0.591  28.451 -21.785  1.00  0.00     0.131 A 
HETATM    3  C2  UNL     1      -0.638  28.944 -21.416  1.00  0.00     0.039 A 
HETATM    4  C3  UNL     1      -1.177  30.094 -21.964  1.00  0.00     0.020 A 
HETATM    5  C4  UNL     1      -0.412  30.737 -22.916  1.00  0.00     0.090 A 
HETATM    6  N2  UNL     1       0.801  30.255 -23.286  1.00  0.00    -0.348 N 
ATOM      7  H2  UNL     1       1.334  30.760 -23.994  1.00  0.00     0.167 HD
HETATM    8  C5  UNL     1       1.328  29.136 -22.753  1.00  0.00     0.179 A 
HETATM    9  N3  UNL     1       2.293  28.215 -22.638  1.00  0.00    -0.151 N 
ENDROOT
BRANCH   9  10
HETATM   10  N4  UNL     1       3.533  28.010 -23.233  1.00  0.00    -0.284 N 
ATOM     11  H4  UNL     1       4.296  27.586 -22.704  1.00  0.00     0.188 HD
BRANCH  10  12
HETATM   12  C6  UNL     1       3.703  28.356 -24.443  1.00  0.00     0.146 C 
BRANCH  12  13
HETATM   13  C7  UNL     1       4.365  27.419 -25.374  1.00  0.00     0.091 A 
HETATM   14  C8  UNL     1       3.823  26.892 -26.527  1.00  0.00     0.040 A 
HETATM   15  C9  UNL     1       4.750  26.057 -27.122  1.00  0.00     0.027 A 
HETATM   16  C10 UNL     1       5.853  26.119 -26.269  1.00  0.00     0.142 A 
HETATM   17  O2  UNL     1       5.575  26.923 -25.271  1.00  0.00    -0.321 OA
ENDBRANCH  12  13
ENDBRANCH  10  12
ENDBRANCH   9  10
BRANCH   1  18
HETATM   18  O1  UNL     1       1.759  26.421 -20.949  1.00  0.00    -0.266 OA
ATOM     19  H1  UNL     1       1.855  26.328 -20.009  1.00  0.00     0.247 HD
ENDBRANCH   1  18
TORSDOF 4
ENDMDL
MODEL 4
REMARK VINA RESULT: -5.091552800      3.869      5.130
REMARK  4 active torsions:
REMARK  status: ('A' for Active; 'I' for Inactive)
REMARK    1  A    between atoms: O1_1  and  N1_3 
REMARK    2  A    between atoms: N3_11  and  N4_12 
REMARK    3  A    between atoms: N4_12  and  C6_14 
REMARK    4  A    between atoms: C6_14  and  C7_15 
ROOT
HETATM    1  N1  UNL     1      -1.677  26.423 -22.307  1.00  0.00    -0.136 N 
HETATM    2  C1  UNL     1      -0.468  26.563 -21.700  1.00  0.00     0.131 A 
HETATM    3  C2  UNL     1       0.552  26.147 -20.878  1.00  0.00     0.039 A 
HETATM    4  C3  UNL     1       1.692  26.899 -20.663  1.00  0.00     0.020 A 
HETATM    5  C4  UNL     1       1.764  28.109 -21.323  1.00  0.00     0.090 A 
HETATM    6  N2  UNL     1       0.760  28.526 -22.135  1.00  0.00    -0.348 N 
ATOM      7  H2  UNL     1       0.851  29.428 -22.604  1.00  0.00     0.167 HD
HETATM    8  C5  UNL     1      -0.352  27.796 -22.346  1.00  0.00     0.179 A 
HETATM    9  N3  UNL     1      -1.549  27.589 -22.907  1.00  0.00    -0.151 N 
ENDROOT
BRANCH   9  10
HETATM   10  N4  UNL     1      -2.362  28.302 -23.783  1.00  0.00    -0.284 N 
ATOM     11  H4  UNL     1      -3.366  28.125 -23.815  1.00  0.00     0.188 HD
BRANCH  10  12
HETATM   12  C6  UNL     1      -1.838  29.176 -24.541  1.00  0.00     0.146 C 
BRANCH  12  13
HETATM   13  C7  UNL     1      -2.006  30.607 -24.214  1.00  0.00     0.091 A 
HETATM   14  C8  UNL     1      -1.475  31.264 -23.125  1.00  0.00     0.040 A 
HETATM   15  C9  UNL     1      -1.856  32.592 -23.168  1.00  0.00     0.027 A 
HETATM   16  C10 UNL     1      -2.630  32.681 -24.326  1.00  0.00     0.142 A 
HETATM   17  O2  UNL     1      -2.684  31.499 -24.893  1.00  0.00    -0.321 OA
ENDBRANCH  12  13
ENDBRANCH  10  12
ENDBRANCH   9  10
BRANCH   1  18
HETATM   18  O1  UNL     1      -2.597  25.396 -22.237  1.00  0.00    -0.266 OA
ATOM     19  H1  UNL     1      -3.542  25.424 -22.150  1.00  0.00     0.247 HD
ENDBRANCH   1  18
TORSDOF 4
ENDMDL
MODEL 5
REMARK VINA RESULT: -5.034774702      2.056      5.709
REMARK  4 active torsions:
REMARK  status: ('A' for Active; 'I' for Inactive)
REMARK    1  A    between atoms: O1_1  and  N1_3 
REMARK    2  A    between atoms: N3_11  and  N4_12 
REMARK    3  A    between atoms: N4_12  and  C6_14 
REMARK    4  A    between atoms: C6_14  and  C7_15 
ROOT
HETATM    1  N1  UNL     1       2.471  28.364 -25.042  1.00  0.00    -0.136 N 
HETATM    2  C1  UNL     1       3.342  27.764 -25.898  1.00  0.00     0.131 A 
HETATM    3  C2  UNL     1       3.723  27.281 -27.127  1.00  0.00     0.039 A 
HETATM    4  C3  UNL     1       4.953  26.689 -27.347  1.00  0.00     0.020 A 
HETATM    5  C4  UNL     1       5.797  26.602 -26.259  1.00  0.00     0.090 A 
HETATM    6  N2  UNL     1       5.426  27.077 -25.043  1.00  0.00    -0.348 N 
ATOM      7  H2  UNL     1       6.079  26.993 -24.264  1.00  0.00     0.167 HD
HETATM    8  C5  UNL     1       4.229  27.655 -24.826  1.00  0.00     0.179 A 
HETATM    9  N3  UNL     1       3.322  28.251 -24.043  1.00  0.00    -0.151 N 
ENDROOT
BRANCH   9  10
HETATM   10  N4  UNL     1       3.269  28.620 -22.703  1.00  0.00    -0.284 N 
ATOM     11  H4  UNL     1       3.866  29.369 -22.350  1.00  0.00     0.188 HD
BRANCH  10  12
HETATM   12  C6  UNL     1       2.470  28.013 -21.925  1.00  0.00     0.146 C 
BRANCH  12  13
HETATM   13  C7  UNL     1       1.104  28.543 -21.739  1.00  0.00     0.091 A 
HETATM   14  C8  UNL     1       0.180  28.115 -20.810  1.00  0.00     0.040 A 
HETATM   15  C9  UNL     1      -0.979  28.856 -20.951  1.00  0.00     0.027 A 
HETATM   16  C10 UNL     1      -0.692  29.733 -21.998  1.00  0.00     0.142 A 
HETATM   17  O2  UNL     1       0.530  29.507 -22.418  1.00  0.00    -0.321 OA
ENDBRANCH  12  13
ENDBRANCH  10  12
ENDBRANCH   9  10
BRANCH   1  18
HETATM   18  O1  UNL     1       1.202  28.860 -25.263  1.00  0.00    -0.266 OA
ATOM     19  H1  UNL     1       0.917  29.734 -25.503  1.00  0.00     0.247 HD
ENDBRANCH   1  18
TORSDOF 4
ENDMDL
