MODEL 1
REMARK VINA RESULT: -7.706154788      0.000      0.000
REMARK  2 active torsions:
REMARK  status: ('A' for Active; 'I' for Inactive)
REMARK    1  A    between atoms: C2_2  and  C4_4 
REMARK    2  A    between atoms: C7_7  and  N1_8 
ROOT
HETATM    1  C4  UNL     1    -111.282-174.932 306.898  1.00  0.00     0.061 C 
HETATM    2  C5  UNL     1    -109.862-174.428 306.741  1.00  0.00     0.013 C 
HETATM    3  C6  UNL     1    -108.951-175.633 307.008  1.00  0.00     0.034 C 
HETATM    4  C7  UNL     1    -109.196-176.206 308.361  1.00  0.00     0.195 C 
HETATM    5  C13 UNL     1    -110.191-175.317 309.121  1.00  0.00     0.113 C 
HETATM    6  C14 UNL     1    -111.491-175.199 308.359  1.00  0.00     0.249 C 
HETATM    7  F1  UNL     1    -112.181-174.137 308.945  1.00  0.00    -0.206 F 
HETATM    8  F2  UNL     1    -112.268-176.343 308.491  1.00  0.00    -0.206 F 
ENDROOT
BRANCH   4   9
HETATM    9  N1  UNL     1    -108.046-176.481 309.136  1.00  0.00    -0.066 N 
HETATM   10  C8  UNL     1    -106.991-177.023 308.258  1.00  0.00     0.273 C 
HETATM   11  C9  UNL     1    -108.205-177.424 310.193  1.00  0.00     0.237 C 
HETATM   12  C10 UNL     1    -107.180-177.079 311.266  1.00  0.00     0.029 C 
HETATM   13  C11 UNL     1    -106.415-175.952 310.667  1.00  0.00     0.029 C 
HETATM   14  C12 UNL     1    -107.447-175.311 309.759  1.00  0.00     0.237 C 
ENDBRANCH   4   9
BRANCH   1  15
HETATM   15  C2  UNL     1    -112.283-173.984 306.313  1.00  0.00    -0.013 C 
HETATM   16  C1  UNL     1    -111.691-173.479 304.992  1.00  0.00     0.010 C 
HETATM   17  C3  UNL     1    -113.543-174.708 305.979  1.00  0.00     0.010 C 
ENDBRANCH   1  15
TORSDOF 2
ENDMDL
MODEL 2
REMARK VINA RESULT: -7.662961616      1.001      1.197
REMARK  2 active torsions:
REMARK  status: ('A' for Active; 'I' for Inactive)
REMARK    1  A    between atoms: C2_2  and  C4_4 
REMARK    2  A    between atoms: C7_7  and  N1_8 
ROOT
HETATM    1  C4  UNL     1    -110.477-174.611 306.288  1.00  0.00     0.061 C 
HETATM    2  C5  UNL     1    -109.012-174.901 306.041  1.00  0.00     0.013 C 
HETATM    3  C6  UNL     1    -108.689-176.174 306.836  1.00  0.00     0.034 C 
HETATM    4  C7  UNL     1    -108.988-175.994 308.284  1.00  0.00     0.195 C 
HETATM    5  C13 UNL     1    -109.395-174.537 308.547  1.00  0.00     0.113 C 
HETATM    6  C14 UNL     1    -110.599-174.160 307.713  1.00  0.00     0.249 C 
HETATM    7  F1  UNL     1    -110.680-172.769 307.769  1.00  0.00    -0.206 F 
HETATM    8  F2  UNL     1    -111.772-174.682 308.243  1.00  0.00    -0.206 F 
ENDROOT
BRANCH   4   9
HETATM    9  N1  UNL     1    -107.986-176.424 309.183  1.00  0.00    -0.066 N 
HETATM   10  C8  UNL     1    -106.851-176.972 308.414  1.00  0.00     0.273 C 
HETATM   11  C9  UNL     1    -108.359-177.439 310.111  1.00  0.00     0.237 C 
HETATM   12  C10 UNL     1    -107.482-177.270 311.346  1.00  0.00     0.029 C 
HETATM   13  C11 UNL     1    -106.565-176.159 310.971  1.00  0.00     0.029 C 
HETATM   14  C12 UNL     1    -107.409-175.363 309.993  1.00  0.00     0.237 C 
ENDBRANCH   4   9
BRANCH   1  15
HETATM   15  C2  UNL     1    -111.032-173.632 305.301  1.00  0.00    -0.013 C 
HETATM   16  C1  UNL     1    -110.315-173.894 303.971  1.00  0.00     0.010 C 
HETATM   17  C3  UNL     1    -112.482-173.893 305.074  1.00  0.00     0.010 C 
ENDBRANCH   1  15
TORSDOF 2
ENDMDL
MODEL 3
REMARK VINA RESULT: -7.418159492      1.233      1.666
REMARK  2 active torsions:
REMARK  status: ('A' for Active; 'I' for Inactive)
REMARK    1  A    between atoms: C2_2  and  C4_4 
REMARK    2  A    between atoms: C7_7  and  N1_8 
ROOT
HETATM    1  C4  UNL     1    -110.448-174.570 306.012  1.00  0.00     0.061 C 
HETATM    2  C5  UNL     1    -108.971-174.901 305.963  1.00  0.00     0.013 C 
HETATM    3  C6  UNL     1    -108.781-176.133 306.859  1.00  0.00     0.034 C 
HETATM    4  C7  UNL     1    -109.250-175.867 308.247  1.00  0.00     0.195 C 
HETATM    5  C13 UNL     1    -109.648-174.389 308.380  1.00  0.00     0.113 C 
HETATM    6  C14 UNL     1    -110.731-174.037 307.385  1.00  0.00     0.249 C 
HETATM    7  F1  UNL     1    -110.782-172.643 307.356  1.00  0.00    -0.206 F 
HETATM    8  F2  UNL     1    -111.973-174.506 307.793  1.00  0.00    -0.206 F 
ENDROOT
BRANCH   4   9
HETATM    9  N1  UNL     1    -108.376-176.265 309.285  1.00  0.00    -0.066 N 
HETATM   10  C8  UNL     1    -108.774-177.603 309.763  1.00  0.00     0.273 C 
HETATM   11  C9  UNL     1    -108.338-175.429 310.438  1.00  0.00     0.237 C 
HETATM   12  C10 UNL     1    -106.957-175.580 311.064  1.00  0.00     0.029 C 
HETATM   13  C11 UNL     1    -106.304-176.616 310.217  1.00  0.00     0.029 C 
HETATM   14  C12 UNL     1    -106.988-176.413 308.878  1.00  0.00     0.237 C 
ENDBRANCH   4   9
BRANCH   1  15
HETATM   15  C2  UNL     1    -110.852-173.637 304.913  1.00  0.00    -0.013 C 
HETATM   16  C1  UNL     1    -110.098-174.085 303.655  1.00  0.00     0.010 C 
HETATM   17  C3  UNL     1    -112.308-173.780 304.624  1.00  0.00     0.010 C 
ENDBRANCH   1  15
TORSDOF 2
ENDMDL
MODEL 4
REMARK VINA RESULT: -7.260661036      0.516      1.027
REMARK  2 active torsions:
REMARK  status: ('A' for Active; 'I' for Inactive)
REMARK    1  A    between atoms: C2_2  and  C4_4 
REMARK    2  A    between atoms: C7_7  and  N1_8 
ROOT
HETATM    1  C4  UNL     1    -111.380-174.978 306.925  1.00  0.00     0.061 C 
HETATM    2  C5  UNL     1    -109.964-174.448 306.832  1.00  0.00     0.013 C 
HETATM    3  C6  UNL     1    -109.042-175.648 307.086  1.00  0.00     0.034 C 
HETATM    4  C7  UNL     1    -109.322-176.271 308.410  1.00  0.00     0.195 C 
HETATM    5  C13 UNL     1    -110.355-175.425 309.168  1.00  0.00     0.113 C 
HETATM    6  C14 UNL     1    -111.632-175.299 308.368  1.00  0.00     0.249 C 
HETATM    7  F1  UNL     1    -112.356-174.268 308.968  1.00  0.00    -0.206 F 
HETATM    8  F2  UNL     1    -112.394-176.458 308.435  1.00  0.00    -0.206 F 
ENDROOT
BRANCH   4   9
HETATM    9  N1  UNL     1    -108.194-176.556 309.212  1.00  0.00    -0.066 N 
HETATM   10  C8  UNL     1    -108.393-177.858 309.879  1.00  0.00     0.273 C 
HETATM   11  C9  UNL     1    -107.900-175.623 310.248  1.00  0.00     0.237 C 
HETATM   12  C10 UNL     1    -106.399-175.686 310.504  1.00  0.00     0.029 C 
HETATM   13  C11 UNL     1    -105.938-176.774 309.599  1.00  0.00     0.029 C 
HETATM   14  C12 UNL     1    -106.951-176.705 308.472  1.00  0.00     0.237 C 
ENDBRANCH   4   9
BRANCH   1  15
HETATM   15  C2  UNL     1    -112.376-174.025 306.341  1.00  0.00    -0.013 C 
HETATM   16  C1  UNL     1    -111.769-173.497 305.036  1.00  0.00     0.010 C 
HETATM   17  C3  UNL     1    -113.629-174.748 305.978  1.00  0.00     0.010 C 
ENDBRANCH   1  15
TORSDOF 2
ENDMDL
MODEL 5
REMARK VINA RESULT: -7.181090950      1.489      2.008
REMARK  2 active torsions:
REMARK  status: ('A' for Active; 'I' for Inactive)
REMARK    1  A    between atoms: C2_2  and  C4_4 
REMARK    2  A    between atoms: C7_7  and  N1_8 
ROOT
HETATM    1  C4  UNL     1    -111.859-174.798 308.408  1.00  0.00     0.061 C 
HETATM    2  C5  UNL     1    -111.216-175.903 307.596  1.00  0.00     0.013 C 
HETATM    3  C6  UNL     1    -110.496-176.809 308.604  1.00  0.00     0.034 C 
HETATM    4  C7  UNL     1    -109.497-176.042 309.399  1.00  0.00     0.195 C 
HETATM    5  C13 UNL     1    -109.401-174.608 308.858  1.00  0.00     0.113 C 
HETATM    6  C14 UNL     1    -110.750-173.926 308.915  1.00  0.00     0.249 C 
HETATM    7  F1  UNL     1    -110.634-172.787 308.117  1.00  0.00    -0.206 F 
HETATM    8  F2  UNL     1    -111.063-173.519 310.205  1.00  0.00    -0.206 F 
ENDROOT
BRANCH   4   9
HETATM    9  N1  UNL     1    -108.220-176.635 309.528  1.00  0.00    -0.066 N 
HETATM   10  C8  UNL     1    -108.371-177.984 310.108  1.00  0.00     0.273 C 
HETATM   11  C9  UNL     1    -107.284-175.952 310.357  1.00  0.00     0.237 C 
HETATM   12  C10 UNL     1    -105.890-176.293 309.845  1.00  0.00     0.029 C 
HETATM   13  C11 UNL     1    -106.151-177.268 308.752  1.00  0.00     0.029 C 
HETATM   14  C12 UNL     1    -107.526-176.848 308.268  1.00  0.00     0.237 C 
ENDBRANCH   4   9
BRANCH   1  15
HETATM   15  C2  UNL     1    -112.895-174.054 307.624  1.00  0.00    -0.013 C 
HETATM   16  C1  UNL     1    -112.565-174.269 306.142  1.00  0.00     0.010 C 
HETATM   17  C3  UNL     1    -114.244-174.644 307.860  1.00  0.00     0.010 C 
ENDBRANCH   1  15
TORSDOF 2
ENDMDL
