MODEL 1
REMARK VINA RESULT: -7.402408065      0.000      0.000
REMARK  10 active torsions:
REMARK  status: ('A' for Active; 'I' for Inactive)
REMARK    1  A    between atoms: O1_2  and  C2_3 
REMARK    2  A    between atoms: C2_3  and  C3_5 
REMARK    3  A    between atoms: C3_5  and  C4_6 
REMARK    4  A    between atoms: C4_6  and  O4_8 
REMARK    5  A    between atoms: O4_8  and  C5_9 
REMARK    6  A    between atoms: C7_11  and  C8_12 
REMARK    7  A    between atoms: C8_12  and  C9_13 
REMARK    8  A    between atoms: C9_13  and  O6_15 
REMARK    9  A    between atoms: O6_15  and  C10_16 
REMARK   10  A    between atoms: C15_21  and  O7_22 
ROOT
HETATM    1  C5  UNL     1      20.908   1.542   9.451  1.00  0.00     0.137 C 
HETATM    2  C6  UNL     1      21.124   1.396  10.937  1.00  0.00     0.040 C 
HETATM    3  C7  UNL     1      20.727   0.027  11.409  1.00  0.00     0.021 C 
HETATM    4  C16 UNL     1      21.271  -1.011  10.600  1.00  0.00     0.098 C 
HETATM    5  C17 UNL     1      22.348  -0.373   9.593  1.00  0.00     0.051 C 
HETATM    6  C18 UNL     1      22.928  -1.699   9.150  1.00  0.00    -0.025 A 
HETATM    7  C19 UNL     1      24.161  -2.197   8.822  1.00  0.00     0.010 A 
HETATM    8  C20 UNL     1      24.230  -3.500   8.380  1.00  0.00     0.001 A 
HETATM    9  C21 UNL     1      23.117  -4.331   8.251  1.00  0.00     0.002 A 
HETATM   10  C22 UNL     1      21.883  -3.794   8.594  1.00  0.00     0.030 A 
HETATM   11  C23 UNL     1      21.757  -2.504   9.041  1.00  0.00     0.037 A 
HETATM   12  N1  UNL     1      20.702  -1.623   9.467  1.00  0.00    -0.374 N 
HETATM   13  C24 UNL     1      19.533  -1.282   8.713  1.00  0.00     0.124 C 
HETATM   14  C25 UNL     1      20.350  -0.168   7.877  1.00  0.00     0.028 C 
HETATM   15  C26 UNL     1      21.486   0.353   8.654  1.00  0.00     0.027 C 
ENDROOT
BRANCH   3  16
HETATM   16  C8  UNL     1      19.346  -0.087  11.977  1.00  0.00     0.117 C 
BRANCH  16  17
HETATM   17  C9  UNL     1      19.262  -0.824  13.259  1.00  0.00     0.259 C 
HETATM   18  O5  UNL     1      20.281  -1.100  13.908  1.00  0.00    -0.265 OA
BRANCH  17  19
HETATM   19  O6  UNL     1      18.038  -1.227  13.776  1.00  0.00    -0.313 OA
BRANCH  19  20
HETATM   20  C10 UNL     1      17.363  -0.388  14.682  1.00  0.00     0.160 C 
HETATM   21  C11 UNL     1      16.582   0.660  13.968  1.00  0.00     0.035 C 
HETATM   22  C12 UNL     1      15.448   0.057  13.201  1.00  0.00     0.003 C 
HETATM   23  C13 UNL     1      14.552  -0.692  14.132  1.00  0.00     0.003 C 
HETATM   24  C14 UNL     1      15.057  -0.761  15.546  1.00  0.00     0.034 C 
HETATM   25  C15 UNL     1      16.486  -1.199  15.637  1.00  0.00     0.147 C 
BRANCH  25  26
HETATM   26  O7  UNL     1      16.884  -1.040  16.971  1.00  0.00    -0.393 OA
ATOM     27  H7  UNL     1      16.221  -1.350  17.576  1.00  0.00     0.210 HD
ENDBRANCH  25  26
ENDBRANCH  19  20
ENDBRANCH  17  19
ENDBRANCH  16  17
ENDBRANCH   3  16
BRANCH   1  28
HETATM   28  O4  UNL     1      21.445   2.772   8.988  1.00  0.00    -0.315 OA
BRANCH  28  29
HETATM   29  C4  UNL     1      22.574   2.901   8.207  1.00  0.00     0.268 C 
HETATM   30  O3  UNL     1      23.663   2.582   8.662  1.00  0.00    -0.265 OA
BRANCH  29  31
HETATM   31  C3  UNL     1      22.410   3.434   6.821  1.00  0.00     0.222 C 
BRANCH  31  32
HETATM   32  C2  UNL     1      22.407   2.332   5.828  1.00  0.00     0.267 C 
HETATM   33  O2  UNL     1      21.334   1.957   5.314  1.00  0.00    -0.265 OA
BRANCH  32  34
HETATM   34  O1  UNL     1      23.596   1.744   5.491  1.00  0.00    -0.326 OA
HETATM   35  C1  UNL     1      23.941   0.404   5.869  1.00  0.00     0.213 C 
ENDBRANCH  32  34
ENDBRANCH  31  32
ENDBRANCH  29  31
ENDBRANCH  28  29
ENDBRANCH   1  28
TORSDOF 10
ENDMDL
MODEL 2
REMARK VINA RESULT: -7.341550040      1.954      3.881
REMARK  10 active torsions:
REMARK  status: ('A' for Active; 'I' for Inactive)
REMARK    1  A    between atoms: O1_2  and  C2_3 
REMARK    2  A    between atoms: C2_3  and  C3_5 
REMARK    3  A    between atoms: C3_5  and  C4_6 
REMARK    4  A    between atoms: C4_6  and  O4_8 
REMARK    5  A    between atoms: O4_8  and  C5_9 
REMARK    6  A    between atoms: C7_11  and  C8_12 
REMARK    7  A    between atoms: C8_12  and  C9_13 
REMARK    8  A    between atoms: C9_13  and  O6_15 
REMARK    9  A    between atoms: O6_15  and  C10_16 
REMARK   10  A    between atoms: C15_21  and  O7_22 
ROOT
HETATM    1  C5  UNL     1      20.836  -1.212   9.985  1.00  0.00     0.137 C 
HETATM    2  C6  UNL     1      19.512  -0.923  10.648  1.00  0.00     0.040 C 
HETATM    3  C7  UNL     1      19.704  -0.485  12.072  1.00  0.00     0.021 C 
HETATM    4  C16 UNL     1      20.696   0.528  12.204  1.00  0.00     0.098 C 
HETATM    5  C17 UNL     1      21.103   1.051  10.740  1.00  0.00     0.051 C 
HETATM    6  C18 UNL     1      21.869   2.260  11.232  1.00  0.00    -0.025 A 
HETATM    7  C19 UNL     1      22.065   3.556  10.833  1.00  0.00     0.010 A 
HETATM    8  C20 UNL     1      22.941   4.327  11.565  1.00  0.00     0.001 A 
HETATM    9  C21 UNL     1      23.632   3.859  12.682  1.00  0.00     0.002 A 
HETATM   10  C22 UNL     1      23.409   2.542  13.059  1.00  0.00     0.030 A 
HETATM   11  C23 UNL     1      22.547   1.730  12.368  1.00  0.00     0.037 A 
HETATM   12  N1  UNL     1      22.076   0.372  12.438  1.00  0.00    -0.374 N 
HETATM   13  C24 UNL     1      22.894  -0.804  12.437  1.00  0.00     0.124 C 
HETATM   14  C25 UNL     1      23.026  -0.758  10.828  1.00  0.00     0.028 C 
HETATM   15  C26 UNL     1      21.867  -0.087  10.218  1.00  0.00     0.027 C 
ENDROOT
BRANCH   3  16
HETATM   16  C8  UNL     1      19.562  -1.560  13.105  1.00  0.00     0.117 C 
BRANCH  16  17
HETATM   17  C9  UNL     1      18.657  -1.224  14.228  1.00  0.00     0.259 C 
HETATM   18  O5  UNL     1      18.999  -1.409  15.405  1.00  0.00    -0.265 OA
BRANCH  17  19
HETATM   19  O6  UNL     1      17.397  -0.688  14.000  1.00  0.00    -0.313 OA
BRANCH  19  20
HETATM   20  C10 UNL     1      16.609  -0.288  15.095  1.00  0.00     0.160 C 
HETATM   21  C11 UNL     1      15.482   0.581  14.659  1.00  0.00     0.035 C 
HETATM   22  C12 UNL     1      14.497  -0.188  13.835  1.00  0.00     0.003 C 
HETATM   23  C13 UNL     1      13.970  -1.340  14.626  1.00  0.00     0.003 C 
HETATM   24  C14 UNL     1      14.626  -1.515  15.967  1.00  0.00     0.034 C 
HETATM   25  C15 UNL     1      16.121  -1.496  15.894  1.00  0.00     0.147 C 
BRANCH  25  26
HETATM   26  O7  UNL     1      16.600  -1.477  17.211  1.00  0.00    -0.393 OA
ATOM     27  H7  UNL     1      16.769  -2.354  17.537  1.00  0.00     0.210 HD
ENDBRANCH  25  26
ENDBRANCH  19  20
ENDBRANCH  17  19
ENDBRANCH  16  17
ENDBRANCH   3  16
BRANCH   1  28
HETATM   28  O4  UNL     1      20.656  -1.457   8.599  1.00  0.00    -0.315 OA
BRANCH  28  29
HETATM   29  C4  UNL     1      20.550  -0.482   7.628  1.00  0.00     0.268 C 
HETATM   30  O3  UNL     1      19.447  -0.061   7.312  1.00  0.00    -0.265 OA
BRANCH  29  31
HETATM   31  C3  UNL     1      21.809   0.020   7.000  1.00  0.00     0.222 C 
BRANCH  31  32
HETATM   32  C2  UNL     1      21.689   1.455   6.647  1.00  0.00     0.267 C 
HETATM   33  O2  UNL     1      21.932   2.332   7.502  1.00  0.00    -0.265 OA
BRANCH  32  34
HETATM   34  O1  UNL     1      21.310   1.793   5.376  1.00  0.00    -0.326 OA
HETATM   35  C1  UNL     1      22.218   2.331   4.407  1.00  0.00     0.213 C 
ENDBRANCH  32  34
ENDBRANCH  31  32
ENDBRANCH  29  31
ENDBRANCH  28  29
ENDBRANCH   1  28
TORSDOF 10
ENDMDL
MODEL 3
REMARK VINA RESULT: -7.313671150      2.565      4.573
REMARK  10 active torsions:
REMARK  status: ('A' for Active; 'I' for Inactive)
REMARK    1  A    between atoms: O1_2  and  C2_3 
REMARK    2  A    between atoms: C2_3  and  C3_5 
REMARK    3  A    between atoms: C3_5  and  C4_6 
REMARK    4  A    between atoms: C4_6  and  O4_8 
REMARK    5  A    between atoms: O4_8  and  C5_9 
REMARK    6  A    between atoms: C7_11  and  C8_12 
REMARK    7  A    between atoms: C8_12  and  C9_13 
REMARK    8  A    between atoms: C9_13  and  O6_15 
REMARK    9  A    between atoms: O6_15  and  C10_16 
REMARK   10  A    between atoms: C15_21  and  O7_22 
ROOT
HETATM    1  C5  UNL     1      20.858   0.367  10.226  1.00  0.00     0.137 C 
HETATM    2  C6  UNL     1      19.842   0.358  11.342  1.00  0.00     0.040 C 
HETATM    3  C7  UNL     1      20.513   0.287  12.684  1.00  0.00     0.021 C 
HETATM    4  C16 UNL     1      21.571   1.232  12.818  1.00  0.00     0.098 C 
HETATM    5  C17 UNL     1      21.526   2.242  11.569  1.00  0.00     0.051 C 
HETATM    6  C18 UNL     1      22.499   3.238  12.160  1.00  0.00    -0.025 A 
HETATM    7  C19 UNL     1      22.657   4.599  12.181  1.00  0.00     0.010 A 
HETATM    8  C20 UNL     1      23.777   5.106  12.801  1.00  0.00     0.001 A 
HETATM    9  C21 UNL     1      24.752   4.311  13.403  1.00  0.00     0.002 A 
HETATM   10  C22 UNL     1      24.560   2.936  13.365  1.00  0.00     0.030 A 
HETATM   11  C23 UNL     1      23.463   2.377  12.763  1.00  0.00     0.037 A 
HETATM   12  N1  UNL     1      22.936   1.061  12.520  1.00  0.00    -0.374 N 
HETATM   13  C24 UNL     1      23.617  -0.010  11.856  1.00  0.00     0.124 C 
HETATM   14  C25 UNL     1      23.231   0.591  10.408  1.00  0.00     0.028 C 
HETATM   15  C26 UNL     1      21.992   1.384  10.474  1.00  0.00     0.027 C 
ENDROOT
BRANCH   3  16
HETATM   16  C8  UNL     1      20.627  -1.082  13.279  1.00  0.00     0.117 C 
BRANCH  16  17
HETATM   17  C9  UNL     1      19.534  -1.445  14.211  1.00  0.00     0.259 C 
HETATM   18  O5  UNL     1      19.775  -1.954  15.315  1.00  0.00    -0.265 OA
BRANCH  17  19
HETATM   19  O6  UNL     1      18.205  -1.225  13.878  1.00  0.00    -0.313 OA
BRANCH  19  20
HETATM   20  C10 UNL     1      17.436  -0.341  14.658  1.00  0.00     0.160 C 
HETATM   21  C11 UNL     1      16.770   0.686  13.810  1.00  0.00     0.035 C 
HETATM   22  C12 UNL     1      15.729   0.066  12.932  1.00  0.00     0.003 C 
HETATM   23  C13 UNL     1      14.711  -0.633  13.772  1.00  0.00     0.003 C 
HETATM   24  C14 UNL     1      15.035  -0.649  15.240  1.00  0.00     0.034 C 
HETATM   25  C15 UNL     1      16.433  -1.100  15.526  1.00  0.00     0.147 C 
BRANCH  25  26
HETATM   26  O7  UNL     1      16.664  -0.891  16.893  1.00  0.00    -0.393 OA
ATOM     27  H7  UNL     1      16.034  -1.355  17.432  1.00  0.00     0.210 HD
ENDBRANCH  25  26
ENDBRANCH  19  20
ENDBRANCH  17  19
ENDBRANCH  16  17
ENDBRANCH   3  16
BRANCH   1  28
HETATM   28  O4  UNL     1      20.225   0.607   8.979  1.00  0.00    -0.315 OA
BRANCH  28  29
HETATM   29  C4  UNL     1      19.602  -0.351   8.207  1.00  0.00     0.268 C 
HETATM   30  O3  UNL     1      18.775  -0.012   7.373  1.00  0.00    -0.265 OA
BRANCH  29  31
HETATM   31  C3  UNL     1      19.973  -1.781   8.430  1.00  0.00     0.222 C 
BRANCH  31  32
HETATM   32  C2  UNL     1      21.221  -2.123   7.706  1.00  0.00     0.267 C 
HETATM   33  O2  UNL     1      22.011  -1.220   7.361  1.00  0.00    -0.265 OA
BRANCH  32  34
HETATM   34  O1  UNL     1      21.486  -3.437   7.430  1.00  0.00    -0.326 OA
HETATM   35  C1  UNL     1      22.416  -4.224   8.187  1.00  0.00     0.213 C 
ENDBRANCH  32  34
ENDBRANCH  31  32
ENDBRANCH  29  31
ENDBRANCH  28  29
ENDBRANCH   1  28
TORSDOF 10
ENDMDL
MODEL 4
REMARK VINA RESULT: -7.278337872      2.307      8.121
REMARK  10 active torsions:
REMARK  status: ('A' for Active; 'I' for Inactive)
REMARK    1  A    between atoms: O1_2  and  C2_3 
REMARK    2  A    between atoms: C2_3  and  C3_5 
REMARK    3  A    between atoms: C3_5  and  C4_6 
REMARK    4  A    between atoms: C4_6  and  O4_8 
REMARK    5  A    between atoms: O4_8  and  C5_9 
REMARK    6  A    between atoms: C7_11  and  C8_12 
REMARK    7  A    between atoms: C8_12  and  C9_13 
REMARK    8  A    between atoms: C9_13  and  O6_15 
REMARK    9  A    between atoms: O6_15  and  C10_16 
REMARK   10  A    between atoms: C15_21  and  O7_22 
ROOT
HETATM    1  C5  UNL     1      18.477  -0.349  11.915  1.00  0.00     0.137 C 
HETATM    2  C6  UNL     1      18.624  -1.562  11.030  1.00  0.00     0.040 C 
HETATM    3  C7  UNL     1      19.798  -1.418  10.105  1.00  0.00     0.021 C 
HETATM    4  C16 UNL     1      20.980  -0.999  10.781  1.00  0.00     0.098 C 
HETATM    5  C17 UNL     1      20.723  -1.069  12.366  1.00  0.00     0.051 C 
HETATM    6  C18 UNL     1      22.176  -0.895  12.750  1.00  0.00    -0.025 A 
HETATM    7  C19 UNL     1      23.025  -1.373  13.713  1.00  0.00     0.010 A 
HETATM    8  C20 UNL     1      24.306  -0.870  13.746  1.00  0.00     0.001 A 
HETATM    9  C21 UNL     1      24.780   0.093  12.856  1.00  0.00     0.002 A 
HETATM   10  C22 UNL     1      23.894   0.555  11.892  1.00  0.00     0.030 A 
HETATM   11  C23 UNL     1      22.607   0.088  11.812  1.00  0.00     0.037 A 
HETATM   12  N1  UNL     1      21.441   0.312  11.000  1.00  0.00    -0.374 N 
HETATM   13  C24 UNL     1      20.802   1.575  10.774  1.00  0.00     0.124 C 
HETATM   14  C25 UNL     1      20.008   1.467  12.176  1.00  0.00     0.028 C 
HETATM   15  C26 UNL     1      19.812   0.063  12.571  1.00  0.00     0.027 C 
ENDROOT
BRANCH   3  16
HETATM   16  C8  UNL     1      19.481  -0.915   8.730  1.00  0.00     0.117 C 
BRANCH  16  17
HETATM   17  C9  UNL     1      20.625  -0.922   7.790  1.00  0.00     0.259 C 
HETATM   18  O5  UNL     1      20.854   0.047   7.051  1.00  0.00    -0.265 OA
BRANCH  17  19
HETATM   19  O6  UNL     1      21.480  -2.012   7.706  1.00  0.00    -0.313 OA
BRANCH  19  20
HETATM   20  C10 UNL     1      22.840  -1.801   7.414  1.00  0.00     0.160 C 
HETATM   21  C11 UNL     1      23.630  -1.579   8.657  1.00  0.00     0.035 C 
HETATM   22  C12 UNL     1      23.683  -2.821   9.490  1.00  0.00     0.003 C 
HETATM   23  C13 UNL     1      24.289  -3.933   8.699  1.00  0.00     0.003 C 
HETATM   24  C14 UNL     1      24.575  -3.582   7.266  1.00  0.00     0.034 C 
HETATM   25  C15 UNL     1      23.409  -2.946   6.575  1.00  0.00     0.147 C 
BRANCH  25  26
HETATM   26  O7  UNL     1      23.860  -2.501   5.326  1.00  0.00    -0.393 OA
ATOM     27  H7  UNL     1      23.927  -3.213   4.700  1.00  0.00     0.210 HD
ENDBRANCH  25  26
ENDBRANCH  19  20
ENDBRANCH  17  19
ENDBRANCH  16  17
ENDBRANCH   3  16
BRANCH   1  28
HETATM   28  O4  UNL     1      17.476  -0.568  12.898  1.00  0.00    -0.315 OA
BRANCH  28  29
HETATM   29  C4  UNL     1      16.782   0.423  13.559  1.00  0.00     0.268 C 
HETATM   30  O3  UNL     1      16.605   1.503  13.015  1.00  0.00    -0.265 OA
BRANCH  29  31
HETATM   31  C3  UNL     1      16.271   0.124  14.930  1.00  0.00     0.222 C 
BRANCH  31  32
HETATM   32  C2  UNL     1      14.964  -0.573  14.868  1.00  0.00     0.267 C 
HETATM   33  O2  UNL     1      14.576  -1.262  15.834  1.00  0.00    -0.265 OA
BRANCH  32  34
HETATM   34  O1  UNL     1      14.200  -0.445  13.739  1.00  0.00    -0.326 OA
HETATM   35  C1  UNL     1      13.036  -1.244  13.487  1.00  0.00     0.213 C 
ENDBRANCH  32  34
ENDBRANCH  31  32
ENDBRANCH  29  31
ENDBRANCH  28  29
ENDBRANCH   1  28
TORSDOF 10
ENDMDL
MODEL 5
REMARK VINA RESULT: -7.176774230      1.205      2.269
REMARK  10 active torsions:
REMARK  status: ('A' for Active; 'I' for Inactive)
REMARK    1  A    between atoms: O1_2  and  C2_3 
REMARK    2  A    between atoms: C2_3  and  C3_5 
REMARK    3  A    between atoms: C3_5  and  C4_6 
REMARK    4  A    between atoms: C4_6  and  O4_8 
REMARK    5  A    between atoms: O4_8  and  C5_9 
REMARK    6  A    between atoms: C7_11  and  C8_12 
REMARK    7  A    between atoms: C8_12  and  C9_13 
REMARK    8  A    between atoms: C9_13  and  O6_15 
REMARK    9  A    between atoms: O6_15  and  C10_16 
REMARK   10  A    between atoms: C15_21  and  O7_22 
ROOT
HETATM    1  C5  UNL     1      20.845   1.627   9.806  1.00  0.00     0.137 C 
HETATM    2  C6  UNL     1      20.998   1.378  11.286  1.00  0.00     0.040 C 
HETATM    3  C7  UNL     1      20.578  -0.018  11.646  1.00  0.00     0.021 C 
HETATM    4  C16 UNL     1      21.152  -1.001  10.791  1.00  0.00     0.098 C 
HETATM    5  C17 UNL     1      22.273  -0.301   9.876  1.00  0.00     0.051 C 
HETATM    6  C18 UNL     1      22.867  -1.597   9.369  1.00  0.00    -0.025 A 
HETATM    7  C19 UNL     1      24.112  -2.079   9.058  1.00  0.00     0.010 A 
HETATM    8  C20 UNL     1      24.195  -3.348   8.532  1.00  0.00     0.001 A 
HETATM    9  C21 UNL     1      23.087  -4.162   8.300  1.00  0.00     0.002 A 
HETATM   10  C22 UNL     1      21.841  -3.643   8.626  1.00  0.00     0.030 A 
HETATM   11  C23 UNL     1      21.699  -2.386   9.155  1.00  0.00     0.037 A 
HETATM   12  N1  UNL     1      20.630  -1.531   9.596  1.00  0.00    -0.374 N 
HETATM   13  C24 UNL     1      19.495  -1.132   8.819  1.00  0.00     0.124 C 
HETATM   14  C25 UNL     1      20.350   0.032   8.096  1.00  0.00     0.028 C 
HETATM   15  C26 UNL     1      21.454   0.493   8.955  1.00  0.00     0.027 C 
ENDROOT
BRANCH   3  16
HETATM   16  C8  UNL     1      19.173  -0.162  12.147  1.00  0.00     0.117 C 
BRANCH  16  17
HETATM   17  C9  UNL     1      19.047  -0.862  13.445  1.00  0.00     0.259 C 
HETATM   18  O5  UNL     1      20.043  -1.105  14.142  1.00  0.00    -0.265 OA
BRANCH  17  19
HETATM   19  O6  UNL     1      17.809  -1.268  13.925  1.00  0.00    -0.313 OA
BRANCH  19  20
HETATM   20  C10 UNL     1      17.175  -0.509  14.926  1.00  0.00     0.160 C 
HETATM   21  C11 UNL     1      16.265   0.510  14.335  1.00  0.00     0.035 C 
HETATM   22  C12 UNL     1      15.100  -0.139  13.655  1.00  0.00     0.003 C 
HETATM   23  C13 UNL     1      14.349  -0.978  14.635  1.00  0.00     0.003 C 
HETATM   24  C14 UNL     1      14.993  -1.064  15.991  1.00  0.00     0.034 C 
HETATM   25  C15 UNL     1      16.448  -1.410  15.925  1.00  0.00     0.147 C 
BRANCH  25  26
HETATM   26  O7  UNL     1      16.966  -1.273  17.220  1.00  0.00    -0.393 OA
ATOM     27  H7  UNL     1      16.315  -1.477  17.883  1.00  0.00     0.210 HD
ENDBRANCH  25  26
ENDBRANCH  19  20
ENDBRANCH  17  19
ENDBRANCH  16  17
ENDBRANCH   3  16
BRANCH   1  28
HETATM   28  O4  UNL     1      21.405   2.883   9.452  1.00  0.00    -0.315 OA
BRANCH  28  29
HETATM   29  C4  UNL     1      22.379   3.076   8.495  1.00  0.00     0.268 C 
HETATM   30  O3  UNL     1      22.054   3.324   7.343  1.00  0.00    -0.265 OA
BRANCH  29  31
HETATM   31  C3  UNL     1      23.807   2.974   8.920  1.00  0.00     0.222 C 
BRANCH  31  32
HETATM   32  C2  UNL     1      23.990   3.497  10.295  1.00  0.00     0.267 C 
HETATM   33  O2  UNL     1      24.275   2.718  11.228  1.00  0.00    -0.265 OA
BRANCH  32  34
HETATM   34  O1  UNL     1      23.842   4.839  10.516  1.00  0.00    -0.326 OA
HETATM   35  C1  UNL     1      22.938   5.377  11.490  1.00  0.00     0.213 C 
ENDBRANCH  32  34
ENDBRANCH  31  32
ENDBRANCH  29  31
ENDBRANCH  28  29
ENDBRANCH   1  28
TORSDOF 10
ENDMDL
