MODEL 1
REMARK VINA RESULT: -7.917430687      0.000      0.000
REMARK  7 active torsions:
REMARK  status: ('A' for Active; 'I' for Inactive)
REMARK    1  A    between atoms: C2_2  and  C3_3 
REMARK    2  A    between atoms: C4_4  and  O1_5 
REMARK    3  A    between atoms: O1_5  and  C5_6 
REMARK    4  A    between atoms: C5_6  and  C6_8 
REMARK    5  A    between atoms: C8_10  and  O3_11 
REMARK    6  A    between atoms: C11_14  and  O4_15 
REMARK    7  A    between atoms: C22_27  and  C23_28 
ROOT
HETATM    1  C3  UNL     1      22.172  -0.601  13.724  1.00  0.00     0.075 C 
HETATM    2  C4  UNL     1      21.586  -0.916  12.399  1.00  0.00     0.162 C 
HETATM    3  C14 UNL     1      22.401  -0.735  11.198  1.00  0.00     0.063 C 
HETATM    4  C15 UNL     1      22.283  -1.712  10.087  1.00  0.00    -0.042 C 
HETATM    5  C16 UNL     1      21.297  -2.048   9.296  1.00  0.00    -0.025 C 
HETATM    6  C17 UNL     1      21.441  -3.082   8.238  1.00  0.00     0.036 C 
HETATM    7  C18 UNL     1      23.661  -2.329  10.007  1.00  0.00     0.203 C 
HETATM    8  O5  UNL     1      24.429  -1.154  10.185  1.00  0.00    -0.379 OA
HETATM    9  C19 UNL     1      23.875  -0.631  11.351  1.00  0.00     0.152 C 
HETATM   10  C20 UNL     1      23.663   0.867  11.372  1.00  0.00     0.078 C 
HETATM   11  C21 UNL     1      22.336   0.689  10.771  1.00  0.00    -0.048 C 
HETATM   12  C22 UNL     1      21.465   1.453  10.133  1.00  0.00     0.075 C 
HETATM   13  C24 UNL     1      23.651   1.263  12.820  1.00  0.00     0.168 A 
HETATM   14  O7  UNL     1      22.496   1.758  13.418  1.00  0.00    -0.368 OA
HETATM   15  C25 UNL     1      23.178   0.467  13.811  1.00  0.00     0.094 A 
HETATM   16  C26 UNL     1      23.758   0.600  15.234  1.00  0.00     0.049 C 
ENDROOT
BRANCH   2  17
HETATM   17  O1  UNL     1      20.398  -0.122  12.240  1.00  0.00    -0.310 OA
BRANCH  17  18
HETATM   18  C5  UNL     1      19.140  -0.695  12.186  1.00  0.00     0.293 C 
HETATM   19  O2  UNL     1      18.850  -1.267  11.078  1.00  0.00    -0.259 OA
BRANCH  18  20
HETATM   20  C6  UNL     1      18.191  -0.677  13.270  1.00  0.00     0.044 A 
HETATM   21  C7  UNL     1      16.910  -0.246  13.067  1.00  0.00     0.054 A 
HETATM   22  C8  UNL     1      15.970  -0.218  14.094  1.00  0.00     0.071 A 
HETATM   23  C10 UNL     1      16.338  -0.632  15.343  1.00  0.00     0.073 A 
HETATM   24  C11 UNL     1      17.626  -1.072  15.573  1.00  0.00     0.071 A 
HETATM   25  C13 UNL     1      18.561  -1.093  14.522  1.00  0.00     0.054 A 
BRANCH  22  26
HETATM   26  O3  UNL     1      14.693   0.221  13.855  1.00  0.00    -0.356 OA
HETATM   27  C9  UNL     1      13.633  -0.697  13.665  1.00  0.00     0.210 C 
ENDBRANCH  22  26
BRANCH  24  28
HETATM   28  O4  UNL     1      17.937  -1.476  16.853  1.00  0.00    -0.356 OA
HETATM   29  C12 UNL     1      18.746  -2.571  17.176  1.00  0.00     0.210 C 
ENDBRANCH  24  28
ENDBRANCH  18  20
ENDBRANCH  17  18
ENDBRANCH   2  17
BRANCH   1  30
HETATM   30  C2  UNL     1      22.651  -1.845  14.384  1.00  0.00    -0.027 C 
HETATM   31  C1  UNL     1      21.839  -2.524  15.207  1.00  0.00     0.007 C 
ENDBRANCH   1  30
BRANCH  12  32
HETATM   32  C23 UNL     1      21.746   2.868   9.879  1.00  0.00     0.254 C 
HETATM   33  N1  UNL     1      21.747   3.415   8.573  1.00  0.00    -0.058 NA
HETATM   34  O6  UNL     1      22.002   3.654  10.834  1.00  0.00    -0.272 OA
ENDBRANCH  12  32
TORSDOF 7
ENDMDL
MODEL 2
REMARK VINA RESULT: -7.798322308      0.108      2.105
REMARK  7 active torsions:
REMARK  status: ('A' for Active; 'I' for Inactive)
REMARK    1  A    between atoms: C2_2  and  C3_3 
REMARK    2  A    between atoms: C4_4  and  O1_5 
REMARK    3  A    between atoms: O1_5  and  C5_6 
REMARK    4  A    between atoms: C5_6  and  C6_8 
REMARK    5  A    between atoms: C8_10  and  O3_11 
REMARK    6  A    between atoms: C11_14  and  O4_15 
REMARK    7  A    between atoms: C22_27  and  C23_28 
ROOT
HETATM    1  C3  UNL     1      22.218  -0.635  13.802  1.00  0.00     0.075 C 
HETATM    2  C4  UNL     1      21.640  -0.937  12.470  1.00  0.00     0.162 C 
HETATM    3  C14 UNL     1      22.459  -0.734  11.275  1.00  0.00     0.063 C 
HETATM    4  C15 UNL     1      22.350  -1.697  10.150  1.00  0.00    -0.042 C 
HETATM    5  C16 UNL     1      21.370  -2.028   9.351  1.00  0.00    -0.025 C 
HETATM    6  C17 UNL     1      21.524  -3.046   8.280  1.00  0.00     0.036 C 
HETATM    7  C18 UNL     1      23.732  -2.304  10.068  1.00  0.00     0.203 C 
HETATM    8  O5  UNL     1      24.493  -1.128  10.265  1.00  0.00    -0.379 OA
HETATM    9  C19 UNL     1      23.931  -0.623  11.436  1.00  0.00     0.152 C 
HETATM   10  C20 UNL     1      23.710   0.872  11.477  1.00  0.00     0.078 C 
HETATM   11  C21 UNL     1      22.387   0.695  10.868  1.00  0.00    -0.048 C 
HETATM   12  C22 UNL     1      21.514   1.462  10.236  1.00  0.00     0.075 C 
HETATM   13  C24 UNL     1      23.690   1.249  12.930  1.00  0.00     0.168 A 
HETATM   14  O7  UNL     1      22.530   1.729  13.529  1.00  0.00    -0.368 OA
HETATM   15  C25 UNL     1      23.217   0.437  13.908  1.00  0.00     0.094 A 
HETATM   16  C26 UNL     1      23.791   0.554  15.335  1.00  0.00     0.049 C 
ENDROOT
BRANCH   2  17
HETATM   17  O1  UNL     1      20.447  -0.147  12.317  1.00  0.00    -0.310 OA
BRANCH  17  18
HETATM   18  C5  UNL     1      19.194  -0.727  12.244  1.00  0.00     0.293 C 
HETATM   19  O2  UNL     1      18.925  -1.305  11.134  1.00  0.00    -0.259 OA
BRANCH  18  20
HETATM   20  C6  UNL     1      18.227  -0.709  13.312  1.00  0.00     0.044 A 
HETATM   21  C7  UNL     1      18.571  -1.112  14.572  1.00  0.00     0.054 A 
HETATM   22  C8  UNL     1      17.660  -1.105  15.624  1.00  0.00     0.071 A 
HETATM   23  C10 UNL     1      16.381  -0.683  15.392  1.00  0.00     0.073 A 
HETATM   24  C11 UNL     1      16.008  -0.269  14.128  1.00  0.00     0.071 A 
HETATM   25  C13 UNL     1      16.944  -0.284  13.079  1.00  0.00     0.054 A 
BRANCH  22  26
HETATM   26  O3  UNL     1      18.039  -1.517  16.876  1.00  0.00    -0.356 OA
HETATM   27  C9  UNL     1      18.767  -2.716  17.056  1.00  0.00     0.210 C 
ENDBRANCH  22  26
BRANCH  24  28
HETATM   28  O4  UNL     1      14.706   0.146  13.957  1.00  0.00    -0.356 OA
HETATM   29  C12 UNL     1      13.602  -0.704  13.823  1.00  0.00     0.210 C 
ENDBRANCH  24  28
ENDBRANCH  18  20
ENDBRANCH  17  18
ENDBRANCH   2  17
BRANCH   1  30
HETATM   30  C2  UNL     1      22.702  -1.885  14.447  1.00  0.00    -0.027 C 
HETATM   31  C1  UNL     1      21.893  -2.576  15.264  1.00  0.00     0.007 C 
ENDBRANCH   1  30
BRANCH  12  32
HETATM   32  C23 UNL     1      21.788   2.882  10.003  1.00  0.00     0.254 C 
HETATM   33  N1  UNL     1      21.799   3.445   8.703  1.00  0.00    -0.058 NA
HETATM   34  O6  UNL     1      22.027   3.659  10.970  1.00  0.00    -0.272 OA
ENDBRANCH  12  32
TORSDOF 7
ENDMDL
MODEL 3
REMARK VINA RESULT: -7.754159372      1.018      1.073
REMARK  7 active torsions:
REMARK  status: ('A' for Active; 'I' for Inactive)
REMARK    1  A    between atoms: C2_2  and  C3_3 
REMARK    2  A    between atoms: C4_4  and  O1_5 
REMARK    3  A    between atoms: O1_5  and  C5_6 
REMARK    4  A    between atoms: C5_6  and  C6_8 
REMARK    5  A    between atoms: C8_10  and  O3_11 
REMARK    6  A    between atoms: C11_14  and  O4_15 
REMARK    7  A    between atoms: C22_27  and  C23_28 
ROOT
HETATM    1  C3  UNL     1      22.379   0.228  13.220  1.00  0.00     0.075 C 
HETATM    2  C4  UNL     1      21.952  -0.518  12.013  1.00  0.00     0.162 C 
HETATM    3  C14 UNL     1      22.820  -0.526  10.835  1.00  0.00     0.063 C 
HETATM    4  C15 UNL     1      22.938  -1.766  10.028  1.00  0.00    -0.042 C 
HETATM    5  C16 UNL     1      22.078  -2.458   9.327  1.00  0.00    -0.025 C 
HETATM    6  C17 UNL     1      22.459  -3.695   8.596  1.00  0.00     0.036 C 
HETATM    7  C18 UNL     1      24.395  -2.143  10.166  1.00  0.00     0.203 C 
HETATM    8  O5  UNL     1      24.960  -0.852  10.043  1.00  0.00    -0.379 OA
HETATM    9  C19 UNL     1      24.245  -0.140  11.003  1.00  0.00     0.152 C 
HETATM   10  C20 UNL     1      23.806   1.253  10.609  1.00  0.00     0.078 C 
HETATM   11  C21 UNL     1      22.572   0.704  10.035  1.00  0.00    -0.048 C 
HETATM   12  C22 UNL     1      21.648   1.116   9.184  1.00  0.00     0.075 C 
HETATM   13  C24 UNL     1      23.623   2.009  11.893  1.00  0.00     0.168 A 
HETATM   14  O7  UNL     1      22.364   2.443  12.295  1.00  0.00    -0.368 OA
HETATM   15  C25 UNL     1      23.201   1.434  13.047  1.00  0.00     0.094 A 
HETATM   16  C26 UNL     1      23.643   2.032  14.399  1.00  0.00     0.049 C 
ENDROOT
BRANCH   2  17
HETATM   17  O1  UNL     1      20.672  -0.004  11.604  1.00  0.00    -0.310 OA
BRANCH  17  18
HETATM   18  C5  UNL     1      19.507  -0.726  11.783  1.00  0.00     0.293 C 
HETATM   19  O2  UNL     1      19.104  -1.374  10.754  1.00  0.00    -0.259 OA
BRANCH  18  20
HETATM   20  C6  UNL     1      18.763  -0.777  13.016  1.00  0.00     0.044 A 
HETATM   21  C7  UNL     1      17.528  -0.199  13.109  1.00  0.00     0.054 A 
HETATM   22  C8  UNL     1      16.784  -0.232  14.286  1.00  0.00     0.071 A 
HETATM   23  C10 UNL     1      17.305  -0.860  15.383  1.00  0.00     0.073 A 
HETATM   24  C11 UNL     1      18.550  -1.451  15.314  1.00  0.00     0.071 A 
HETATM   25  C13 UNL     1      19.285  -1.408  14.115  1.00  0.00     0.054 A 
BRANCH  22  26
HETATM   26  O3  UNL     1      15.548   0.358  14.344  1.00  0.00    -0.356 OA
HETATM   27  C9  UNL     1      14.391  -0.338  13.925  1.00  0.00     0.210 C 
ENDBRANCH  22  26
BRANCH  24  28
HETATM   28  O4  UNL     1      19.021  -2.069  16.452  1.00  0.00    -0.356 OA
HETATM   29  C12 UNL     1      20.371  -2.207  16.792  1.00  0.00     0.210 C 
ENDBRANCH  24  28
ENDBRANCH  18  20
ENDBRANCH  17  18
ENDBRANCH   2  17
BRANCH   1  30
HETATM   30  C2  UNL     1      22.990  -0.700  14.209  1.00  0.00    -0.027 C 
HETATM   31  C1  UNL     1      22.867  -2.026  14.050  1.00  0.00     0.007 C 
ENDBRANCH   1  30
BRANCH  12  32
HETATM   32  C23 UNL     1      21.729   2.441   8.565  1.00  0.00     0.254 C 
HETATM   33  N1  UNL     1      22.145   2.623   7.223  1.00  0.00    -0.058 NA
HETATM   34  O6  UNL     1      21.426   3.478   9.220  1.00  0.00    -0.272 OA
ENDBRANCH  12  32
TORSDOF 7
ENDMDL
MODEL 4
REMARK VINA RESULT: -7.415594033      1.717      3.535
REMARK  7 active torsions:
REMARK  status: ('A' for Active; 'I' for Inactive)
REMARK    1  A    between atoms: C2_2  and  C3_3 
REMARK    2  A    between atoms: C4_4  and  O1_5 
REMARK    3  A    between atoms: O1_5  and  C5_6 
REMARK    4  A    between atoms: C5_6  and  C6_8 
REMARK    5  A    between atoms: C8_10  and  O3_11 
REMARK    6  A    between atoms: C11_14  and  O4_15 
REMARK    7  A    between atoms: C22_27  and  C23_28 
ROOT
HETATM    1  C3  UNL     1      22.497   1.080  12.634  1.00  0.00     0.075 C 
HETATM    2  C4  UNL     1      22.735  -0.241  12.005  1.00  0.00     0.162 C 
HETATM    3  C14 UNL     1      22.961  -0.314  10.562  1.00  0.00     0.063 C 
HETATM    4  C15 UNL     1      23.952  -1.283  10.031  1.00  0.00    -0.042 C 
HETATM    5  C16 UNL     1      24.020  -2.588  10.048  1.00  0.00    -0.025 C 
HETATM    6  C17 UNL     1      25.146  -3.335   9.430  1.00  0.00     0.036 C 
HETATM    7  C18 UNL     1      24.998  -0.403   9.384  1.00  0.00     0.203 C 
HETATM    8  O5  UNL     1      24.135   0.534   8.768  1.00  0.00    -0.379 OA
HETATM    9  C19 UNL     1      23.338   0.929   9.841  1.00  0.00     0.152 C 
HETATM   10  C20 UNL     1      21.862   1.086   9.552  1.00  0.00     0.078 C 
HETATM   11  C21 UNL     1      21.649  -0.332   9.861  1.00  0.00    -0.048 C 
HETATM   12  C22 UNL     1      20.709  -1.232   9.622  1.00  0.00     0.075 C 
HETATM   13  C24 UNL     1      21.337   2.042  10.583  1.00  0.00     0.168 A 
HETATM   14  O7  UNL     1      20.427   1.625  11.549  1.00  0.00    -0.368 OA
HETATM   15  C25 UNL     1      21.823   2.122  11.847  1.00  0.00     0.094 A 
HETATM   16  C26 UNL     1      21.744   3.461  12.608  1.00  0.00     0.049 C 
ENDROOT
BRANCH   2  17
HETATM   17  O1  UNL     1      21.611  -1.085  12.311  1.00  0.00    -0.310 OA
BRANCH  17  18
HETATM   18  C5  UNL     1      21.301  -1.445  13.609  1.00  0.00     0.293 C 
HETATM   19  O2  UNL     1      22.278  -1.910  14.293  1.00  0.00    -0.259 OA
BRANCH  18  20
HETATM   20  C6  UNL     1      19.991  -1.325  14.196  1.00  0.00     0.044 A 
HETATM   21  C7  UNL     1      19.742  -1.804  15.451  1.00  0.00     0.054 A 
HETATM   22  C8  UNL     1      18.487  -1.702  16.046  1.00  0.00     0.071 A 
HETATM   23  C10 UNL     1      17.471  -1.105  15.353  1.00  0.00     0.073 A 
HETATM   24  C11 UNL     1      17.697  -0.612  14.083  1.00  0.00     0.071 A 
HETATM   25  C13 UNL     1      18.972  -0.725  13.501  1.00  0.00     0.054 A 
BRANCH  22  26
HETATM   26  O3  UNL     1      18.272  -2.194  17.307  1.00  0.00    -0.356 OA
HETATM   27  C9  UNL     1      19.110  -1.823  18.384  1.00  0.00     0.210 C 
ENDBRANCH  22  26
BRANCH  24  28
HETATM   28  O4  UNL     1      16.634  -0.021  13.436  1.00  0.00    -0.356 OA
HETATM   29  C12 UNL     1      15.329   0.052  13.935  1.00  0.00     0.210 C 
ENDBRANCH  24  28
ENDBRANCH  18  20
ENDBRANCH  17  18
ENDBRANCH   2  17
BRANCH   1  30
HETATM   30  C2  UNL     1      23.754   1.595  13.240  1.00  0.00    -0.027 C 
HETATM   31  C1  UNL     1      24.699   0.739  13.657  1.00  0.00     0.007 C 
ENDBRANCH   1  30
BRANCH  12  32
HETATM   32  C23 UNL     1      19.503  -0.882   8.868  1.00  0.00     0.254 C 
HETATM   33  N1  UNL     1      19.561  -0.325   7.567  1.00  0.00    -0.058 NA
HETATM   34  O6  UNL     1      18.357  -1.069   9.365  1.00  0.00    -0.272 OA
ENDBRANCH  12  32
TORSDOF 7
ENDMDL
MODEL 5
REMARK VINA RESULT: -7.341067583      1.769      2.999
REMARK  7 active torsions:
REMARK  status: ('A' for Active; 'I' for Inactive)
REMARK    1  A    between atoms: C2_2  and  C3_3 
REMARK    2  A    between atoms: C4_4  and  O1_5 
REMARK    3  A    between atoms: O1_5  and  C5_6 
REMARK    4  A    between atoms: C5_6  and  C6_8 
REMARK    5  A    between atoms: C8_10  and  O3_11 
REMARK    6  A    between atoms: C11_14  and  O4_15 
REMARK    7  A    between atoms: C22_27  and  C23_28 
ROOT
HETATM    1  C3  UNL     1      22.613   1.136  12.538  1.00  0.00     0.075 C 
HETATM    2  C4  UNL     1      22.852  -0.180  11.900  1.00  0.00     0.162 C 
HETATM    3  C14 UNL     1      23.028  -0.247  10.449  1.00  0.00     0.063 C 
HETATM    4  C15 UNL     1      24.017  -1.197   9.881  1.00  0.00    -0.042 C 
HETATM    5  C16 UNL     1      24.110  -2.501   9.894  1.00  0.00    -0.025 C 
HETATM    6  C17 UNL     1      25.227  -3.226   9.234  1.00  0.00     0.036 C 
HETATM    7  C18 UNL     1      25.023  -0.297   9.198  1.00  0.00     0.203 C 
HETATM    8  O5  UNL     1      24.121   0.624   8.616  1.00  0.00    -0.379 OA
HETATM    9  C19 UNL     1      23.356   1.003   9.717  1.00  0.00     0.152 C 
HETATM   10  C20 UNL     1      21.868   1.133   9.481  1.00  0.00     0.078 C 
HETATM   11  C21 UNL     1      21.693  -0.289   9.795  1.00  0.00    -0.048 C 
HETATM   12  C22 UNL     1      20.761  -1.206   9.589  1.00  0.00     0.075 C 
HETATM   13  C24 UNL     1      21.362   2.078  10.532  1.00  0.00     0.168 A 
HETATM   14  O7  UNL     1      20.495   1.643  11.529  1.00  0.00    -0.368 OA
HETATM   15  C25 UNL     1      21.892   2.166  11.778  1.00  0.00     0.094 A 
HETATM   16  C26 UNL     1      21.815   3.503  12.542  1.00  0.00     0.049 C 
ENDROOT
BRANCH   2  17
HETATM   17  O1  UNL     1      21.756  -1.045  12.243  1.00  0.00    -0.310 OA
BRANCH  17  18
HETATM   18  C5  UNL     1      21.501  -1.414  13.551  1.00  0.00     0.293 C 
HETATM   19  O2  UNL     1      22.516  -1.843  14.204  1.00  0.00    -0.259 OA
BRANCH  18  20
HETATM   20  C6  UNL     1      20.207  -1.340  14.180  1.00  0.00     0.044 A 
HETATM   21  C7  UNL     1      19.144  -0.786  13.523  1.00  0.00     0.054 A 
HETATM   22  C8  UNL     1      17.881  -0.700  14.103  1.00  0.00     0.071 A 
HETATM   23  C10 UNL     1      17.697  -1.185  15.368  1.00  0.00     0.073 A 
HETATM   24  C11 UNL     1      18.754  -1.749  16.052  1.00  0.00     0.071 A 
HETATM   25  C13 UNL     1      20.022  -1.827  15.448  1.00  0.00     0.054 A 
BRANCH  22  26
HETATM   26  O3  UNL     1      16.837  -0.138  13.415  1.00  0.00    -0.356 OA
HETATM   27  C9  UNL     1      15.809   0.557  14.095  1.00  0.00     0.210 C 
ENDBRANCH  22  26
BRANCH  24  28
HETATM   28  O4  UNL     1      18.506  -2.220  17.323  1.00  0.00    -0.356 OA
HETATM   29  C12 UNL     1      19.232  -1.867  18.466  1.00  0.00     0.210 C 
ENDBRANCH  24  28
ENDBRANCH  18  20
ENDBRANCH  17  18
ENDBRANCH   2  17
BRANCH   1  30
HETATM   30  C2  UNL     1      23.881   1.674  13.100  1.00  0.00    -0.027 C 
HETATM   31  C1  UNL     1      24.906   0.847  13.355  1.00  0.00     0.007 C 
ENDBRANCH   1  30
BRANCH  12  32
HETATM   32  C23 UNL     1      19.523  -0.878   8.879  1.00  0.00     0.254 C 
HETATM   33  N1  UNL     1      19.524  -0.315   7.579  1.00  0.00    -0.058 NA
HETATM   34  O6  UNL     1      18.399  -1.090   9.415  1.00  0.00    -0.272 OA
ENDBRANCH  12  32
TORSDOF 7
ENDMDL
