MODEL 1
REMARK VINA RESULT: -5.323119666      0.000      0.000
REMARK  6 active torsions:
REMARK  status: ('A' for Active; 'I' for Inactive)
REMARK    1  A    between atoms: C2_2  and  C4_4 
REMARK    2  A    between atoms: C5_6  and  C6_7 
REMARK    3  A    between atoms: C6_7  and  C7_8 
REMARK    4  A    between atoms: C7_8  and  O1_9 
REMARK    5  A    between atoms: C8_11  and  N2_17 
REMARK    6  A    between atoms: C10_13  and  C11_14 
ROOT
HETATM    1  C4  UNL     1      10.195  -2.254  73.632  1.00  0.00     0.063 C 
HETATM    2  N1  UNL     1       9.613  -2.389  74.844  1.00  0.00    -0.381 N 
HETATM    3  C5  UNL     1       9.114  -1.476  75.743  1.00  0.00     0.119 C 
HETATM    4  C8  UNL     1       8.047  -2.325  76.495  1.00  0.00     0.248 C 
HETATM    5  C9  UNL     1       7.593  -3.041  75.221  1.00  0.00     0.063 C 
HETATM    6  C10 UNL     1       8.919  -3.694  74.983  1.00  0.00     0.092 C 
ENDROOT
BRANCH   1   7
HETATM    7  C2  UNL     1      11.579  -1.688  73.533  1.00  0.00     0.016 C 
HETATM    8  C1  UNL     1      12.408  -1.781  74.761  1.00  0.00     0.015 C 
HETATM    9  C3  UNL     1      11.529  -0.216  73.087  1.00  0.00     0.015 C 
ENDBRANCH   1   7
BRANCH   3  10
HETATM   10  C6  UNL     1       8.371  -0.244  75.317  1.00  0.00     0.053 C 
BRANCH  10  11
HETATM   11  C7  UNL     1       9.196   0.972  75.717  1.00  0.00     0.166 C 
BRANCH  11  12
HETATM   12  O1  UNL     1      10.327   0.581  76.446  1.00  0.00    -0.401 OA
ATOM     13  H1  UNL     1      10.948   1.297  76.508  1.00  0.00     0.209 HD
ENDBRANCH  11  12
ENDBRANCH  10  11
ENDBRANCH   3  10
BRANCH   6  14
HETATM   14  C11 UNL     1       9.492  -4.459  76.126  1.00  0.00     0.048 C 
HETATM   15  C12 UNL     1       8.451  -5.273  76.901  1.00  0.00     0.039 C 
HETATM   16  C13 UNL     1       8.472  -6.613  76.222  1.00  0.00     0.274 C 
HETATM   17  N2  UNL     1       9.227  -6.319  75.015  1.00  0.00     0.104 N 
HETATM   18  C14 UNL     1      10.356  -5.639  75.662  1.00  0.00     0.159 C 
HETATM   19  C15 UNL     1      10.899  -6.422  76.819  1.00  0.00     0.049 C 
HETATM   20  C16 UNL     1      11.523  -5.331  74.834  1.00  0.00     0.049 C 
ENDBRANCH   6  14
TORSDOF 6
ENDMDL
MODEL 2
REMARK VINA RESULT: -5.219923469      0.687      1.000
REMARK  6 active torsions:
REMARK  status: ('A' for Active; 'I' for Inactive)
REMARK    1  A    between atoms: C2_2  and  C4_4 
REMARK    2  A    between atoms: C5_6  and  C6_7 
REMARK    3  A    between atoms: C6_7  and  C7_8 
REMARK    4  A    between atoms: C7_8  and  O1_9 
REMARK    5  A    between atoms: C8_11  and  N2_17 
REMARK    6  A    between atoms: C10_13  and  C11_14 
ROOT
HETATM    1  C4  UNL     1       9.759  -2.792  73.524  1.00  0.00     0.063 C 
HETATM    2  N1  UNL     1       9.440  -2.786  74.837  1.00  0.00    -0.381 N 
HETATM    3  C5  UNL     1       9.221  -1.769  75.737  1.00  0.00     0.119 C 
HETATM    4  C8  UNL     1       8.273  -2.456  76.763  1.00  0.00     0.248 C 
HETATM    5  C9  UNL     1       7.500  -3.208  75.678  1.00  0.00     0.063 C 
HETATM    6  C10 UNL     1       8.685  -4.003  75.229  1.00  0.00     0.092 C 
ENDROOT
BRANCH   1   7
HETATM    7  C2  UNL     1      11.132  -2.374  73.093  1.00  0.00     0.016 C 
HETATM    8  C1  UNL     1      11.324  -0.920  72.859  1.00  0.00     0.015 C 
HETATM    9  C3  UNL     1      11.553  -3.133  71.822  1.00  0.00     0.015 C 
ENDBRANCH   1   7
BRANCH   3  10
HETATM   10  C6  UNL     1       8.509  -0.502  75.368  1.00  0.00     0.053 C 
BRANCH  10  11
HETATM   11  C7  UNL     1       9.421   0.672  75.703  1.00  0.00     0.166 C 
BRANCH  11  12
HETATM   12  O1  UNL     1      10.532   0.237  76.438  1.00  0.00    -0.401 OA
ATOM     13  H1  UNL     1      11.147   0.950  76.565  1.00  0.00     0.209 HD
ENDBRANCH  11  12
ENDBRANCH  10  11
ENDBRANCH   3  10
BRANCH   6  14
HETATM   14  C11 UNL     1       9.424  -4.743  76.291  1.00  0.00     0.048 C 
HETATM   15  C12 UNL     1       8.527  -5.645  77.145  1.00  0.00     0.039 C 
HETATM   16  C13 UNL     1       8.577  -6.968  76.435  1.00  0.00     0.274 C 
HETATM   17  N2  UNL     1       9.184  -6.599  75.167  1.00  0.00     0.104 N 
HETATM   18  C14 UNL     1      10.320  -5.848  75.716  1.00  0.00     0.159 C 
HETATM   19  C15 UNL     1      11.031  -6.607  76.794  1.00  0.00     0.049 C 
HETATM   20  C16 UNL     1      11.373  -5.440  74.784  1.00  0.00     0.049 C 
ENDBRANCH   6  14
TORSDOF 6
ENDMDL
MODEL 3
REMARK VINA RESULT: -5.005710277      2.250      5.780
REMARK  6 active torsions:
REMARK  status: ('A' for Active; 'I' for Inactive)
REMARK    1  A    between atoms: C2_2  and  C4_4 
REMARK    2  A    between atoms: C5_6  and  C6_7 
REMARK    3  A    between atoms: C6_7  and  C7_8 
REMARK    4  A    between atoms: C7_8  and  O1_9 
REMARK    5  A    between atoms: C8_11  and  N2_17 
REMARK    6  A    between atoms: C10_13  and  C11_14 
ROOT
HETATM    1  C4  UNL     1       9.380  -5.328  75.486  1.00  0.00     0.063 C 
HETATM    2  N1  UNL     1      10.603  -4.762  75.397  1.00  0.00    -0.381 N 
HETATM    3  C5  UNL     1      11.871  -5.241  75.633  1.00  0.00     0.119 C 
HETATM    4  C8  UNL     1      12.728  -4.334  74.703  1.00  0.00     0.248 C 
HETATM    5  C9  UNL     1      11.689  -4.354  73.580  1.00  0.00     0.063 C 
HETATM    6  C10 UNL     1      10.636  -3.669  74.393  1.00  0.00     0.092 C 
ENDROOT
BRANCH   1   7
HETATM    7  C2  UNL     1       8.803  -5.641  76.833  1.00  0.00     0.016 C 
HETATM    8  C1  UNL     1       8.440  -7.061  77.070  1.00  0.00     0.015 C 
HETATM    9  C3  UNL     1       7.565  -4.768  77.105  1.00  0.00     0.015 C 
ENDBRANCH   1   7
BRANCH   3  10
HETATM   10  C6  UNL     1      12.287  -6.636  75.274  1.00  0.00     0.053 C 
BRANCH  10  11
HETATM   11  C7  UNL     1      12.177  -7.503  76.522  1.00  0.00     0.166 C 
BRANCH  11  12
HETATM   12  O1  UNL     1      12.923  -6.950  77.571  1.00  0.00    -0.401 OA
ATOM     13  H1  UNL     1      12.364  -6.443  78.147  1.00  0.00     0.209 HD
ENDBRANCH  11  12
ENDBRANCH  10  11
ENDBRANCH   3  10
BRANCH   6  14
HETATM   14  C11 UNL     1      11.033  -2.388  75.042  1.00  0.00     0.048 C 
HETATM   15  C12 UNL     1      11.966  -1.529  74.183  1.00  0.00     0.039 C 
HETATM   16  C13 UNL     1      11.025  -0.644  73.416  1.00  0.00     0.274 C 
HETATM   17  N2  UNL     1       9.746  -1.288  73.665  1.00  0.00     0.104 N 
HETATM   18  C14 UNL     1       9.870  -1.391  75.124  1.00  0.00     0.159 C 
HETATM   19  C15 UNL     1      10.289  -0.094  75.748  1.00  0.00     0.049 C 
HETATM   20  C16 UNL     1       8.683  -1.805  75.874  1.00  0.00     0.049 C 
ENDBRANCH   6  14
TORSDOF 6
ENDMDL
MODEL 4
REMARK VINA RESULT: -4.960288087      1.961      3.143
REMARK  6 active torsions:
REMARK  status: ('A' for Active; 'I' for Inactive)
REMARK    1  A    between atoms: C2_2  and  C4_4 
REMARK    2  A    between atoms: C5_6  and  C6_7 
REMARK    3  A    between atoms: C6_7  and  C7_8 
REMARK    4  A    between atoms: C7_8  and  O1_9 
REMARK    5  A    between atoms: C8_11  and  N2_17 
REMARK    6  A    between atoms: C10_13  and  C11_14 
ROOT
HETATM    1  C4  UNL     1      10.812  -3.857  74.551  1.00  0.00     0.063 C 
HETATM    2  N1  UNL     1      10.286  -4.610  75.541  1.00  0.00    -0.381 N 
HETATM    3  C5  UNL     1       9.195  -4.440  76.361  1.00  0.00     0.119 C 
HETATM    4  C8  UNL     1       8.828  -5.913  76.707  1.00  0.00     0.248 C 
HETATM    5  C9  UNL     1       9.128  -6.411  75.292  1.00  0.00     0.063 C 
HETATM    6  C10 UNL     1      10.579  -6.054  75.354  1.00  0.00     0.092 C 
ENDROOT
BRANCH   1   7
HETATM    7  C2  UNL     1      11.507  -2.572  74.886  1.00  0.00     0.016 C 
HETATM    8  C1  UNL     1      10.656  -1.355  74.886  1.00  0.00     0.015 C 
HETATM    9  C3  UNL     1      12.695  -2.337  73.936  1.00  0.00     0.015 C 
ENDBRANCH   1   7
BRANCH   3  10
HETATM   10  C6  UNL     1       7.907  -3.842  75.880  1.00  0.00     0.053 C 
BRANCH  10  11
HETATM   11  C7  UNL     1       7.642  -2.574  76.679  1.00  0.00     0.166 C 
BRANCH  11  12
HETATM   12  O1  UNL     1       7.190  -1.548  75.838  1.00  0.00    -0.401 OA
ATOM     13  H1  UNL     1       7.790  -1.423  75.113  1.00  0.00     0.209 HD
ENDBRANCH  11  12
ENDBRANCH  10  11
ENDBRANCH   3  10
BRANCH   6  14
HETATM   14  C11 UNL     1      11.339  -6.577  76.523  1.00  0.00     0.048 C 
HETATM   15  C12 UNL     1      11.123  -8.074  76.773  1.00  0.00     0.039 C 
HETATM   16  C13 UNL     1      12.227  -8.726  75.989  1.00  0.00     0.274 C 
HETATM   17  N2  UNL     1      12.702  -7.620  75.175  1.00  0.00     0.104 N 
HETATM   18  C14 UNL     1      12.849  -6.639  76.258  1.00  0.00     0.159 C 
HETATM   19  C15 UNL     1      13.599  -7.200  77.428  1.00  0.00     0.049 C 
HETATM   20  C16 UNL     1      13.526  -5.381  75.943  1.00  0.00     0.049 C 
ENDBRANCH   6  14
TORSDOF 6
ENDMDL
MODEL 5
REMARK VINA RESULT: -4.822261539      2.281      4.620
REMARK  6 active torsions:
REMARK  status: ('A' for Active; 'I' for Inactive)
REMARK    1  A    between atoms: C2_2  and  C4_4 
REMARK    2  A    between atoms: C5_6  and  C6_7 
REMARK    3  A    between atoms: C6_7  and  C7_8 
REMARK    4  A    between atoms: C7_8  and  O1_9 
REMARK    5  A    between atoms: C8_11  and  N2_17 
REMARK    6  A    between atoms: C10_13  and  C11_14 
ROOT
HETATM    1  C4  UNL     1       8.295  -0.896  74.411  1.00  0.00     0.063 C 
HETATM    2  N1  UNL     1       9.064  -1.970  74.696  1.00  0.00    -0.381 N 
HETATM    3  C5  UNL     1       9.024  -2.900  75.708  1.00  0.00     0.119 C 
HETATM    4  C8  UNL     1       9.698  -4.130  75.032  1.00  0.00     0.248 C 
HETATM    5  C9  UNL     1       9.014  -3.874  73.687  1.00  0.00     0.063 C 
HETATM    6  C10 UNL     1       9.678  -2.550  73.475  1.00  0.00     0.092 C 
ENDROOT
BRANCH   1   7
HETATM    7  C2  UNL     1       8.377   0.326  75.276  1.00  0.00     0.016 C 
HETATM    8  C1  UNL     1       7.950   1.599  74.643  1.00  0.00     0.015 C 
HETATM    9  C3  UNL     1       9.805   0.506  75.820  1.00  0.00     0.015 C 
ENDBRANCH   1   7
BRANCH   3  10
HETATM   10  C6  UNL     1       7.740  -3.440  76.261  1.00  0.00     0.053 C 
BRANCH  10  11
HETATM   11  C7  UNL     1       7.992  -4.859  76.754  1.00  0.00     0.166 C 
BRANCH  11  12
HETATM   12  O1  UNL     1       7.157  -5.158  77.839  1.00  0.00    -0.401 OA
ATOM     13  H1  UNL     1       7.066  -6.098  77.941  1.00  0.00     0.209 HD
ENDBRANCH  11  12
ENDBRANCH  10  11
ENDBRANCH   3  10
BRANCH   6  14
HETATM   14  C11 UNL     1      11.163  -2.530  73.592  1.00  0.00     0.048 C 
HETATM   15  C12 UNL     1      11.838  -3.781  73.018  1.00  0.00     0.039 C 
HETATM   16  C13 UNL     1      12.122  -3.406  71.591  1.00  0.00     0.274 C 
HETATM   17  N2  UNL     1      11.329  -2.197  71.441  1.00  0.00     0.104 N 
HETATM   18  C14 UNL     1      11.809  -1.509  72.646  1.00  0.00     0.159 C 
HETATM   19  C15 UNL     1      13.304  -1.522  72.747  1.00  0.00     0.049 C 
HETATM   20  C16 UNL     1      11.432  -0.106  72.817  1.00  0.00     0.049 C 
ENDBRANCH   6  14
TORSDOF 6
ENDMDL
