MODEL 1
REMARK VINA RESULT: -5.468812947      0.000      0.000
REMARK  4 active torsions:
REMARK  status: ('A' for Active; 'I' for Inactive)
REMARK    1  A    between atoms: C8_8  and  N1_9 
REMARK    2  A    between atoms: N2_12  and  C11_13 
REMARK    3  A    between atoms: C11_13  and  C12_14 
REMARK    4  A    between atoms: C12_14  and  O1_15 
ROOT
HETATM    1  N1  UNL     1       8.984  -3.917  75.330  1.00  0.00    -0.404 N 
HETATM    2  C9  UNL     1       7.974  -4.129  76.293  1.00  0.00     0.147 C 
HETATM    3  C10 UNL     1       8.378  -5.272  77.202  1.00  0.00     0.291 C 
HETATM    4  N2  UNL     1       8.306  -6.467  76.387  1.00  0.00     0.093 N 
HETATM    5  C13 UNL     1       9.067  -6.350  75.173  1.00  0.00     0.291 C 
HETATM    6  C14 UNL     1       9.847  -5.028  75.120  1.00  0.00     0.147 C 
ENDROOT
BRANCH   1   7
HETATM    7  C8  UNL     1       9.416  -2.646  75.022  1.00  0.00     0.088 C 
HETATM    8  C6  UNL     1       9.052  -1.948  73.773  1.00  0.00    -0.020 C 
HETATM    9  C2  UNL     1       9.851  -0.630  73.991  1.00  0.00    -0.004 C 
HETATM   10  C5  UNL     1       7.658  -1.339  73.804  1.00  0.00     0.012 C 
HETATM   11  C7  UNL     1       9.390  -2.558  72.474  1.00  0.00     0.018 C 
HETATM   12  C1  UNL     1      11.304  -0.850  74.140  1.00  0.00     0.011 C 
HETATM   13  C3  UNL     1       9.156  -0.305  75.314  1.00  0.00    -0.008 C 
HETATM   14  C4  UNL     1       7.718  -0.199  74.799  1.00  0.00     0.006 C 
HETATM   15  C15 UNL     1       9.256  -1.583  76.076  1.00  0.00     0.030 C 
ENDBRANCH   1   7
BRANCH   4  16
HETATM   16  C11 UNL     1       8.478  -7.667  77.126  1.00  0.00     0.298 C 
BRANCH  16  17
HETATM   17  C12 UNL     1       8.675  -8.890  76.266  1.00  0.00     0.194 C 
BRANCH  17  18
HETATM   18  O1  UNL     1       9.780  -9.622  76.744  1.00  0.00    -0.399 OA
ATOM     19  H1  UNL     1      10.264  -9.977  76.008  1.00  0.00     0.209 HD
ENDBRANCH  17  18
ENDBRANCH  16  17
ENDBRANCH   4  16
TORSDOF 4
ENDMDL
MODEL 2
REMARK VINA RESULT: -5.358280991      1.331      1.901
REMARK  4 active torsions:
REMARK  status: ('A' for Active; 'I' for Inactive)
REMARK    1  A    between atoms: C8_8  and  N1_9 
REMARK    2  A    between atoms: N2_12  and  C11_13 
REMARK    3  A    between atoms: C11_13  and  C12_14 
REMARK    4  A    between atoms: C12_14  and  O1_15 
ROOT
HETATM    1  N1  UNL     1       9.324  -4.754  76.408  1.00  0.00    -0.404 N 
HETATM    2  C9  UNL     1      10.327  -5.724  76.191  1.00  0.00     0.147 C 
HETATM    3  C10 UNL     1       9.690  -6.999  75.678  1.00  0.00     0.291 C 
HETATM    4  N2  UNL     1       8.948  -7.545  76.796  1.00  0.00     0.093 N 
HETATM    5  C13 UNL     1       8.037  -6.591  77.368  1.00  0.00     0.291 C 
HETATM    6  C14 UNL     1       8.012  -5.283  76.565  1.00  0.00     0.147 C 
ENDROOT
BRANCH   1   7
HETATM    7  C8  UNL     1       9.493  -3.452  75.993  1.00  0.00     0.088 C 
HETATM    8  C6  UNL     1       9.843  -3.082  74.607  1.00  0.00    -0.020 C 
HETATM    9  C2  UNL     1       9.926  -1.538  74.783  1.00  0.00    -0.004 C 
HETATM   10  C5  UNL     1       8.655  -3.107  73.656  1.00  0.00     0.012 C 
HETATM   11  C7  UNL     1      11.080  -3.609  74.004  1.00  0.00     0.018 C 
HETATM   12  C1  UNL     1      10.936  -1.120  75.776  1.00  0.00     0.011 C 
HETATM   13  C3  UNL     1       8.491  -1.414  75.299  1.00  0.00    -0.008 C 
HETATM   14  C4  UNL     1       7.757  -1.962  74.073  1.00  0.00     0.006 C 
HETATM   15  C15 UNL     1       8.418  -2.463  76.358  1.00  0.00     0.030 C 
ENDBRANCH   1   7
BRANCH   4  16
HETATM   16  C11 UNL     1       8.430  -8.844  76.552  1.00  0.00     0.298 C 
BRANCH  16  17
HETATM   17  C12 UNL     1       7.922  -9.541  77.788  1.00  0.00     0.194 C 
BRANCH  17  18
HETATM   18  O1  UNL     1       8.754 -10.641  78.079  1.00  0.00    -0.399 OA
ATOM     19  H1  UNL     1       8.262 -11.285  78.573  1.00  0.00     0.209 HD
ENDBRANCH  17  18
ENDBRANCH  16  17
ENDBRANCH   4  16
TORSDOF 4
ENDMDL
MODEL 3
REMARK VINA RESULT: -5.323633385      4.334      6.983
REMARK  4 active torsions:
REMARK  status: ('A' for Active; 'I' for Inactive)
REMARK    1  A    between atoms: C8_8  and  N1_9 
REMARK    2  A    between atoms: N2_12  and  C11_13 
REMARK    3  A    between atoms: C11_13  and  C12_14 
REMARK    4  A    between atoms: C12_14  and  O1_15 
ROOT
HETATM    1  N1  UNL     1       8.746   0.158  74.377  1.00  0.00    -0.404 N 
HETATM    2  C9  UNL     1       9.765   1.129  74.476  1.00  0.00     0.147 C 
HETATM    3  C10 UNL     1       9.425   2.103  75.586  1.00  0.00     0.291 C 
HETATM    4  N2  UNL     1       8.293   2.868  75.105  1.00  0.00     0.093 N 
HETATM    5  C13 UNL     1       7.209   2.029  74.671  1.00  0.00     0.291 C 
HETATM    6  C14 UNL     1       7.499   0.546  74.942  1.00  0.00     0.147 C 
ENDROOT
BRANCH   1   7
HETATM    7  C8  UNL     1       9.049  -1.179  74.240  1.00  0.00     0.088 C 
HETATM    8  C6  UNL     1       9.773  -1.955  75.267  1.00  0.00    -0.020 C 
HETATM    9  C2  UNL     1       9.837  -3.325  74.533  1.00  0.00    -0.004 C 
HETATM   10  C5  UNL     1       8.891  -2.395  76.426  1.00  0.00     0.012 C 
HETATM   11  C7  UNL     1      11.117  -1.523  75.692  1.00  0.00     0.018 C 
HETATM   12  C1  UNL     1      10.545  -3.259  73.239  1.00  0.00     0.011 C 
HETATM   13  C3  UNL     1       8.319  -3.433  74.380  1.00  0.00    -0.008 C 
HETATM   14  C4  UNL     1       7.937  -3.426  75.863  1.00  0.00     0.006 C 
HETATM   15  C15 UNL     1       7.937  -2.103  73.822  1.00  0.00     0.030 C 
ENDBRANCH   1   7
BRANCH   4  16
HETATM   16  C11 UNL     1       7.949   3.959  75.945  1.00  0.00     0.298 C 
BRANCH  16  17
HETATM   17  C12 UNL     1       8.679   3.967  77.265  1.00  0.00     0.194 C 
BRANCH  17  18
HETATM   18  O1  UNL     1       7.741   3.960  78.317  1.00  0.00    -0.399 OA
ATOM     19  H1  UNL     1       8.168   3.676  79.116  1.00  0.00     0.209 HD
ENDBRANCH  17  18
ENDBRANCH  16  17
ENDBRANCH   4  16
TORSDOF 4
ENDMDL
MODEL 4
REMARK VINA RESULT: -5.229308237      2.580      2.851
REMARK  4 active torsions:
REMARK  status: ('A' for Active; 'I' for Inactive)
REMARK    1  A    between atoms: C8_8  and  N1_9 
REMARK    2  A    between atoms: N2_12  and  C11_13 
REMARK    3  A    between atoms: C11_13  and  C12_14 
REMARK    4  A    between atoms: C12_14  and  O1_15 
ROOT
HETATM    1  N1  UNL     1      11.115  -4.578  74.961  1.00  0.00    -0.404 N 
HETATM    2  C9  UNL     1      10.208  -5.566  75.399  1.00  0.00     0.147 C 
HETATM    3  C10 UNL     1      10.856  -6.394  76.490  1.00  0.00     0.291 C 
HETATM    4  N2  UNL     1      11.889  -7.170  75.835  1.00  0.00     0.093 N 
HETATM    5  C13 UNL     1      12.790  -6.349  75.072  1.00  0.00     0.291 C 
HETATM    6  C14 UNL     1      12.481  -4.855  75.249  1.00  0.00     0.147 C 
ENDROOT
BRANCH   1   7
HETATM    7  C8  UNL     1      10.708  -3.277  74.763  1.00  0.00     0.088 C 
HETATM    8  C6  UNL     1      10.241  -2.765  73.458  1.00  0.00    -0.020 C 
HETATM    9  C2  UNL     1       9.978  -1.285  73.860  1.00  0.00    -0.004 C 
HETATM   10  C5  UNL     1       8.801  -3.140  73.141  1.00  0.00     0.012 C 
HETATM   11  C7  UNL     1      11.132  -2.841  72.286  1.00  0.00     0.018 C 
HETATM   12  C1  UNL     1      11.184  -0.597  74.365  1.00  0.00     0.011 C 
HETATM   13  C3  UNL     1       8.990  -1.652  74.969  1.00  0.00    -0.008 C 
HETATM   14  C4  UNL     1       7.939  -2.365  74.114  1.00  0.00     0.006 C 
HETATM   15  C15 UNL     1       9.716  -2.704  75.739  1.00  0.00     0.030 C 
ENDBRANCH   1   7
BRANCH   4  16
HETATM   16  C11 UNL     1      12.484  -8.144  76.678  1.00  0.00     0.298 C 
BRANCH  16  17
HETATM   17  C12 UNL     1      13.808  -7.720  77.261  1.00  0.00     0.194 C 
BRANCH  17  18
HETATM   18  O1  UNL     1      13.593  -7.119  78.517  1.00  0.00    -0.399 OA
ATOM     19  H1  UNL     1      13.310  -6.221  78.392  1.00  0.00     0.209 HD
ENDBRANCH  17  18
ENDBRANCH  16  17
ENDBRANCH   4  16
TORSDOF 4
ENDMDL
MODEL 5
REMARK VINA RESULT: -5.158017645      9.268     10.907
REMARK  4 active torsions:
REMARK  status: ('A' for Active; 'I' for Inactive)
REMARK    1  A    between atoms: C8_8  and  N1_9 
REMARK    2  A    between atoms: N2_12  and  C11_13 
REMARK    3  A    between atoms: C11_13  and  C12_14 
REMARK    4  A    between atoms: C12_14  and  O1_15 
ROOT
HETATM    1  N1  UNL     1      16.433  -1.215  80.683  1.00  0.00    -0.404 N 
HETATM    2  C9  UNL     1      16.006   0.049  80.222  1.00  0.00     0.147 C 
HETATM    3  C10 UNL     1      15.804   0.973  81.406  1.00  0.00     0.291 C 
HETATM    4  N2  UNL     1      14.637   0.471  82.102  1.00  0.00     0.093 N 
HETATM    5  C13 UNL     1      14.750  -0.926  82.426  1.00  0.00     0.291 C 
HETATM    6  C14 UNL     1      16.130  -1.483  82.047  1.00  0.00     0.147 C 
ENDROOT
BRANCH   1   7
HETATM    7  C8  UNL     1      17.467  -1.884  80.067  1.00  0.00     0.088 C 
HETATM    8  C6  UNL     1      17.374  -2.436  78.700  1.00  0.00    -0.020 C 
HETATM    9  C2  UNL     1      18.788  -3.078  78.602  1.00  0.00    -0.004 C 
HETATM   10  C5  UNL     1      17.559  -1.389  77.611  1.00  0.00     0.012 C 
HETATM   11  C7  UNL     1      16.326  -3.423  78.384  1.00  0.00     0.018 C 
HETATM   12  C1  UNL     1      19.033  -4.104  79.635  1.00  0.00     0.011 C 
HETATM   13  C3  UNL     1      19.520  -1.763  78.880  1.00  0.00    -0.008 C 
HETATM   14  C4  UNL     1      19.008  -0.958  77.682  1.00  0.00     0.006 C 
HETATM   15  C15 UNL     1      18.825  -1.236  80.091  1.00  0.00     0.030 C 
ENDBRANCH   1   7
BRANCH   4  16
HETATM   16  C11 UNL     1      14.187   1.324  83.142  1.00  0.00     0.298 C 
BRANCH  16  17
HETATM   17  C12 UNL     1      13.882   0.606  84.432  1.00  0.00     0.194 C 
BRANCH  17  18
HETATM   18  O1  UNL     1      14.616   1.198  85.480  1.00  0.00    -0.399 OA
ATOM     19  H1  UNL     1      15.179   0.545  85.877  1.00  0.00     0.209 HD
ENDBRANCH  17  18
ENDBRANCH  16  17
ENDBRANCH   4  16
TORSDOF 4
ENDMDL
