MODEL 1
REMARK VINA RESULT: -9.789722922      0.000      0.000
REMARK  10 active torsions:
REMARK  status: ('A' for Active; 'I' for Inactive)
REMARK    1  A    between atoms: N1_2  and  C2_4 
REMARK    2  A    between atoms: C3_7  and  C4_8 
REMARK       I    between atoms: C4_8  and  N3_10 
REMARK    3  A    between atoms: N3_10  and  C5_12 
REMARK    4  A    between atoms: C8_15  and  C9_16 
REMARK    5  A    between atoms: C16_28  and  C17_29 
REMARK    6  A    between atoms: C18_30  and  C19_31 
REMARK    7  A    between atoms: C19_31  and  C20_32 
REMARK    8  A    between atoms: C22_36  and  N8_37 
REMARK    9  A    between atoms: N8_37  and  S1_39 
REMARK   10  A    between atoms: S1_39  and  C23_42 
ROOT
HETATM    1  C2  UNL     1      75.845  53.277  70.391  1.00  0.00     0.120 A 
HETATM    2  N2  UNL     1      76.205  53.227  71.687  1.00  0.00    -0.337 N 
ATOM      3  H2  UNL     1      76.328  52.333  72.160  1.00  0.00     0.167 HD
HETATM    4  C3  UNL     1      76.398  54.377  72.339  1.00  0.00     0.102 A 
HETATM    5  C14 UNL     1      76.226  55.597  71.680  1.00  0.00     0.037 A 
HETATM    6  C15 UNL     1      75.858  55.649  70.353  1.00  0.00     0.027 A 
HETATM    7  C16 UNL     1      75.665  54.466  69.702  1.00  0.00     0.061 A 
ENDROOT
BRANCH   7   8
HETATM    8  C17 UNL     1      75.279  54.472  68.306  1.00  0.00    -0.063 C 
HETATM    9  C18 UNL     1      74.946  54.470  67.150  1.00  0.00    -0.095 C 
BRANCH   9  10
HETATM   10  C19 UNL     1      74.543  54.442  65.751  1.00  0.00     0.152 C 
BRANCH  10  11
HETATM   11  C20 UNL     1      73.498  55.496  65.566  1.00  0.00     0.039 A 
HETATM   12  C21 UNL     1      73.707  56.526  64.687  1.00  0.00     0.116 A 
HETATM   13  N7  UNL     1      72.756  57.496  64.503  1.00  0.00    -0.345 N 
HETATM   14  C22 UNL     1      71.598  57.479  65.164  1.00  0.00     0.184 A 
ATOM     15  H7  UNL     1      72.938  58.251  63.842  1.00  0.00     0.167 HD
HETATM   16  C32 UNL     1      71.393  56.419  66.062  1.00  0.00     0.290 A 
HETATM   17  O4  UNL     1      70.323  56.383  66.688  1.00  0.00    -0.264 OA
HETATM   18  N10 UNL     1      72.342  55.476  66.227  1.00  0.00    -0.322 N 
ATOM     19  H10 UNL     1      72.168  54.717  66.886  1.00  0.00     0.169 HD
BRANCH  14  20
HETATM   20  N8  UNL     1      70.699  58.351  65.007  1.00  0.00    -0.261 N 
ATOM     21  H8  UNL     1      69.941  58.125  64.363  1.00  0.00     0.180 HD
BRANCH  20  22
HETATM   22  S1  UNL     1      70.638  59.868  65.773  1.00  0.00     0.266 S 
HETATM   23  O2  UNL     1      70.584  59.638  67.281  1.00  0.00    -0.200 OA
HETATM   24  O3  UNL     1      69.408  60.672  65.396  1.00  0.00    -0.200 OA
BRANCH  22  25
HETATM   25  C23 UNL     1      72.042  60.865  65.422  1.00  0.00     0.107 A 
HETATM   26  C24 UNL     1      71.973  61.909  64.530  1.00  0.00     0.028 A 
HETATM   27  C25 UNL     1      73.090  62.691  64.262  1.00  0.00     0.003 A 
HETATM   28  C26 UNL     1      74.294  62.414  64.905  1.00  0.00     0.014 A 
HETATM   29  C27 UNL     1      74.379  61.371  65.802  1.00  0.00    -0.008 A 
HETATM   30  C28 UNL     1      75.588  61.122  66.428  1.00  0.00     0.015 A 
HETATM   31  C31 UNL     1      73.256  60.594  66.063  1.00  0.00     0.066 A 
HETATM   32  C29 UNL     1      75.655  60.075  67.325  1.00  0.00     0.018 A 
HETATM   33  C30 UNL     1      74.503  59.328  67.551  1.00  0.00     0.088 A 
HETATM   34  N9  UNL     1      73.338  59.580  66.939  1.00  0.00    -0.364 N 
ATOM     35  H9  UNL     1      72.519  59.005  67.136  1.00  0.00     0.165 HD
ENDBRANCH  22  25
ENDBRANCH  20  22
ENDBRANCH  14  20
ENDBRANCH  10  11
ENDBRANCH   9  10
ENDBRANCH   7   8
BRANCH   1  36
HETATM   36  N1  UNL     1      75.665  52.140  69.781  1.00  0.00    -0.379 N 
HETATM   37  C1  UNL     1      74.380  51.494  69.734  1.00  0.00     0.147 C 
ATOM     38  H1  UNL     1      76.460  51.694  69.324  1.00  0.00     0.160 HD
ENDBRANCH   1  36
BRANCH   4  39
HETATM   39  C4  UNL     1      76.781  54.402  73.726  1.00  0.00     0.273 C 
HETATM   40  O1  UNL     1      76.699  55.419  74.462  1.00  0.00    -0.266 OA
HETATM   41  N3  UNL     1      77.283  53.230  74.329  1.00  0.00    -0.308 N 
ATOM     42  H3  UNL     1      78.291  53.161  74.459  1.00  0.00     0.170 HD
BRANCH  41  43
HETATM   43  C5  UNL     1      76.560  52.240  74.729  1.00  0.00     0.107 A 
HETATM   44  C6  UNL     1      75.596  52.328  75.709  1.00  0.00     0.049 A 
HETATM   45  C7  UNL     1      74.839  51.249  76.118  1.00  0.00     0.017 A 
HETATM   46  C8  UNL     1      75.038  50.016  75.533  1.00  0.00    -0.008 A 
HETATM   47  C13 UNL     1      76.008  49.949  74.553  1.00  0.00     0.102 A 
HETATM   48  N6  UNL     1      76.736  51.011  74.167  1.00  0.00    -0.351 N 
ATOM     49  H6  UNL     1      77.437  50.894  73.436  1.00  0.00     0.166 HD
BRANCH  46  50
HETATM   50  C9  UNL     1      74.262  48.852  75.942  1.00  0.00     0.009 A 
HETATM   51  C10 UNL     1      74.802  47.642  76.364  1.00  0.00     0.121 A 
HETATM   52  N4  UNL     1      73.771  46.832  76.654  1.00  0.00    -0.310 N 
HETATM   53  N5  UNL     1      72.608  47.424  76.452  1.00  0.00    -0.307 N 
ATOM     54  H4  UNL     1      73.874  45.874  76.990  1.00  0.00     0.186 HD
HETATM   55  C11 UNL     1      71.273  46.844  76.663  1.00  0.00     0.177 C 
HETATM   56  C12 UNL     1      72.897  48.666  76.014  1.00  0.00     0.123 A 
ENDBRANCH  46  50
ENDBRANCH  41  43
ENDBRANCH   4  39
TORSDOF 10
ENDMDL
MODEL 2
REMARK VINA RESULT: -9.593676142      2.227      2.888
REMARK  10 active torsions:
REMARK  status: ('A' for Active; 'I' for Inactive)
REMARK    1  A    between atoms: N1_2  and  C2_4 
REMARK    2  A    between atoms: C3_7  and  C4_8 
REMARK       I    between atoms: C4_8  and  N3_10 
REMARK    3  A    between atoms: N3_10  and  C5_12 
REMARK    4  A    between atoms: C8_15  and  C9_16 
REMARK    5  A    between atoms: C16_28  and  C17_29 
REMARK    6  A    between atoms: C18_30  and  C19_31 
REMARK    7  A    between atoms: C19_31  and  C20_32 
REMARK    8  A    between atoms: C22_36  and  N8_37 
REMARK    9  A    between atoms: N8_37  and  S1_39 
REMARK   10  A    between atoms: S1_39  and  C23_42 
ROOT
HETATM    1  C2  UNL     1      75.946  53.326  70.319  1.00  0.00     0.120 A 
HETATM    2  N2  UNL     1      76.377  53.194  71.587  1.00  0.00    -0.337 N 
ATOM      3  H2  UNL     1      76.546  52.272  71.987  1.00  0.00     0.167 HD
HETATM    4  C3  UNL     1      76.577  54.300  72.309  1.00  0.00     0.102 A 
HETATM    5  C14 UNL     1      76.342  55.558  71.749  1.00  0.00     0.037 A 
HETATM    6  C15 UNL     1      75.901  55.694  70.451  1.00  0.00     0.027 A 
HETATM    7  C16 UNL     1      75.700  54.555  69.727  1.00  0.00     0.061 A 
ENDROOT
BRANCH   7   8
HETATM    8  C17 UNL     1      75.239  54.648  68.358  1.00  0.00    -0.063 C 
HETATM    9  C18 UNL     1      74.845  54.734  67.224  1.00  0.00    -0.095 C 
BRANCH   9  10
HETATM   10  C19 UNL     1      74.345  54.823  65.859  1.00  0.00     0.152 C 
BRANCH  10  11
HETATM   11  C20 UNL     1      73.788  56.199  65.676  1.00  0.00     0.039 A 
HETATM   12  C21 UNL     1      74.091  57.190  66.574  1.00  0.00     0.116 A 
HETATM   13  N7  UNL     1      73.592  58.457  66.416  1.00  0.00    -0.345 N 
HETATM   14  C22 UNL     1      72.798  58.777  65.393  1.00  0.00     0.184 A 
ATOM     15  H7  UNL     1      73.835  59.175  67.099  1.00  0.00     0.167 HD
HETATM   16  C32 UNL     1      72.492  57.755  64.480  1.00  0.00     0.290 A 
HETATM   17  O4  UNL     1      71.755  58.030  63.522  1.00  0.00    -0.264 OA
HETATM   18  N10 UNL     1      72.994  56.517  64.654  1.00  0.00    -0.322 N 
ATOM     19  H10 UNL     1      72.757  55.793  63.977  1.00  0.00     0.169 HD
BRANCH  14  20
HETATM   20  N8  UNL     1      72.333  59.937  65.216  1.00  0.00    -0.261 N 
ATOM     21  H8  UNL     1      71.341  60.074  65.411  1.00  0.00     0.180 HD
BRANCH  20  22
HETATM   22  S1  UNL     1      73.211  61.292  64.680  1.00  0.00     0.266 S 
HETATM   23  O2  UNL     1      74.674  60.883  64.537  1.00  0.00    -0.200 OA
HETATM   24  O3  UNL     1      73.160  62.453  65.655  1.00  0.00    -0.200 OA
BRANCH  22  25
HETATM   25  C23 UNL     1      72.656  61.890  63.124  1.00  0.00     0.107 A 
HETATM   26  C24 UNL     1      71.911  63.042  63.025  1.00  0.00     0.028 A 
HETATM   27  C25 UNL     1      71.479  63.506  61.788  1.00  0.00     0.003 A 
HETATM   28  C26 UNL     1      71.804  62.796  60.635  1.00  0.00     0.014 A 
HETATM   29  C27 UNL     1      72.550  61.640  60.718  1.00  0.00    -0.008 A 
HETATM   30  C28 UNL     1      72.860  60.958  59.555  1.00  0.00     0.015 A 
HETATM   31  C31 UNL     1      72.977  61.183  61.959  1.00  0.00     0.066 A 
HETATM   32  C29 UNL     1      73.610  59.804  59.654  1.00  0.00     0.018 A 
HETATM   33  C30 UNL     1      74.013  59.389  60.921  1.00  0.00     0.088 A 
HETATM   34  N9  UNL     1      73.706  60.059  62.040  1.00  0.00    -0.364 N 
ATOM     35  H9  UNL     1      74.023  59.717  62.947  1.00  0.00     0.165 HD
ENDBRANCH  22  25
ENDBRANCH  20  22
ENDBRANCH  14  20
ENDBRANCH  10  11
ENDBRANCH   9  10
ENDBRANCH   7   8
BRANCH   1  36
HETATM   36  N1  UNL     1      75.759  52.230  69.639  1.00  0.00    -0.379 N 
HETATM   37  C1  UNL     1      74.592  51.407  69.821  1.00  0.00     0.147 C 
ATOM     38  H1  UNL     1      76.462  51.947  68.957  1.00  0.00     0.160 HD
ENDBRANCH   1  36
BRANCH   4  39
HETATM   39  C4  UNL     1      77.035  54.237  73.672  1.00  0.00     0.273 C 
HETATM   40  O1  UNL     1      77.123  55.235  74.432  1.00  0.00    -0.266 OA
HETATM   41  N3  UNL     1      77.414  52.995  74.221  1.00  0.00    -0.308 N 
ATOM     42  H3  UNL     1      78.411  52.795  74.291  1.00  0.00     0.170 HD
BRANCH  41  43
HETATM   43  C5  UNL     1      76.594  52.093  74.640  1.00  0.00     0.107 A 
HETATM   44  C6  UNL     1      75.586  52.323  75.551  1.00  0.00     0.049 A 
HETATM   45  C7  UNL     1      74.723  51.337  75.982  1.00  0.00     0.017 A 
HETATM   46  C8  UNL     1      74.856  50.053  75.495  1.00  0.00    -0.008 A 
HETATM   47  C13 UNL     1      75.872  49.844  74.584  1.00  0.00     0.102 A 
HETATM   48  N6  UNL     1      76.703  50.818  74.174  1.00  0.00    -0.351 N 
ATOM     49  H6  UNL     1      77.433  50.596  73.497  1.00  0.00     0.166 HD
BRANCH  46  50
HETATM   50  C9  UNL     1      73.968  48.984  75.932  1.00  0.00     0.009 A 
HETATM   51  C10 UNL     1      72.669  49.165  76.392  1.00  0.00     0.121 A 
HETATM   52  N4  UNL     1      72.186  47.948  76.692  1.00  0.00    -0.310 N 
HETATM   53  N5  UNL     1      73.071  46.997  76.461  1.00  0.00    -0.307 N 
ATOM     54  H4  UNL     1      71.247  47.780  77.054  1.00  0.00     0.186 HD
HETATM   55  C11 UNL     1      72.891  45.552  76.672  1.00  0.00     0.177 C 
HETATM   56  C12 UNL     1      74.171  47.620  75.995  1.00  0.00     0.123 A 
ENDBRANCH  46  50
ENDBRANCH  41  43
ENDBRANCH   4  39
TORSDOF 10
ENDMDL
MODEL 3
REMARK VINA RESULT: -9.435232134      2.060      3.205
REMARK  10 active torsions:
REMARK  status: ('A' for Active; 'I' for Inactive)
REMARK    1  A    between atoms: N1_2  and  C2_4 
REMARK    2  A    between atoms: C3_7  and  C4_8 
REMARK       I    between atoms: C4_8  and  N3_10 
REMARK    3  A    between atoms: N3_10  and  C5_12 
REMARK    4  A    between atoms: C8_15  and  C9_16 
REMARK    5  A    between atoms: C16_28  and  C17_29 
REMARK    6  A    between atoms: C18_30  and  C19_31 
REMARK    7  A    between atoms: C19_31  and  C20_32 
REMARK    8  A    between atoms: C22_36  and  N8_37 
REMARK    9  A    between atoms: N8_37  and  S1_39 
REMARK   10  A    between atoms: S1_39  and  C23_42 
ROOT
HETATM    1  C2  UNL     1      75.757  53.383  70.393  1.00  0.00     0.120 A 
HETATM    2  N2  UNL     1      76.197  53.260  71.659  1.00  0.00    -0.337 N 
ATOM      3  H2  UNL     1      76.292  52.342  72.092  1.00  0.00     0.167 HD
HETATM    4  C3  UNL     1      76.507  54.369  72.335  1.00  0.00     0.102 A 
HETATM    5  C14 UNL     1      76.373  55.623  71.731  1.00  0.00     0.037 A 
HETATM    6  C15 UNL     1      75.923  55.749  70.436  1.00  0.00     0.027 A 
HETATM    7  C16 UNL     1      75.610  54.606  69.759  1.00  0.00     0.061 A 
ENDROOT
BRANCH   7   8
HETATM    8  C17 UNL     1      75.134  54.690  68.394  1.00  0.00    -0.063 C 
HETATM    9  C18 UNL     1      74.752  54.754  67.255  1.00  0.00    -0.095 C 
BRANCH   9  10
HETATM   10  C19 UNL     1      74.308  54.850  65.871  1.00  0.00     0.152 C 
BRANCH  10  11
HETATM   11  C20 UNL     1      74.064  56.297  65.580  1.00  0.00     0.039 A 
HETATM   12  C21 UNL     1      72.991  56.675  64.816  1.00  0.00     0.116 A 
HETATM   13  N7  UNL     1      72.752  57.998  64.546  1.00  0.00    -0.345 N 
HETATM   14  C22 UNL     1      73.545  58.964  65.010  1.00  0.00     0.184 A 
ATOM     15  H7  UNL     1      71.944  58.250  63.975  1.00  0.00     0.167 HD
HETATM   16  C32 UNL     1      74.643  58.567  65.791  1.00  0.00     0.290 A 
HETATM   17  O4  UNL     1      75.394  59.448  66.233  1.00  0.00    -0.264 OA
HETATM   18  N10 UNL     1      74.858  57.261  66.044  1.00  0.00    -0.322 N 
ATOM     19  H10 UNL     1      75.662  56.999  66.614  1.00  0.00     0.169 HD
BRANCH  14  20
HETATM   20  N8  UNL     1      73.344  60.190  64.788  1.00  0.00    -0.261 N 
ATOM     21  H8  UNL     1      74.167  60.776  64.645  1.00  0.00     0.180 HD
BRANCH  20  22
HETATM   22  S1  UNL     1      71.826  60.952  64.706  1.00  0.00     0.266 S 
HETATM   23  O2  UNL     1      71.737  61.957  65.851  1.00  0.00    -0.200 OA
HETATM   24  O3  UNL     1      70.668  59.985  64.864  1.00  0.00    -0.200 OA
BRANCH  22  25
HETATM   25  C23 UNL     1      71.581  61.820  63.197  1.00  0.00     0.107 A 
HETATM   26  C24 UNL     1      72.401  61.612  62.113  1.00  0.00     0.028 A 
HETATM   27  C25 UNL     1      72.196  62.303  60.923  1.00  0.00     0.003 A 
HETATM   28  C26 UNL     1      71.148  63.216  60.831  1.00  0.00     0.014 A 
HETATM   29  C27 UNL     1      70.319  63.435  61.910  1.00  0.00    -0.008 A 
HETATM   30  C28 UNL     1      69.285  64.346  61.786  1.00  0.00     0.015 A 
HETATM   31  C31 UNL     1      70.532  62.740  63.094  1.00  0.00     0.066 A 
HETATM   32  C29 UNL     1      68.462  64.552  62.874  1.00  0.00     0.018 A 
HETATM   33  C30 UNL     1      68.717  63.831  64.037  1.00  0.00     0.088 A 
HETATM   34  N9  UNL     1      69.722  62.951  64.144  1.00  0.00    -0.364 N 
ATOM     35  H9  UNL     1      69.871  62.445  65.017  1.00  0.00     0.165 HD
ENDBRANCH  22  25
ENDBRANCH  20  22
ENDBRANCH  14  20
ENDBRANCH  10  11
ENDBRANCH   9  10
ENDBRANCH   7   8
BRANCH   1  36
HETATM   36  N1  UNL     1      75.462  52.284  69.759  1.00  0.00    -0.379 N 
HETATM   37  C1  UNL     1      74.418  51.400  70.206  1.00  0.00     0.147 C 
ATOM     38  H1  UNL     1      75.988  52.042  68.920  1.00  0.00     0.160 HD
ENDBRANCH   1  36
BRANCH   4  39
HETATM   39  C4  UNL     1      76.982  54.317  73.693  1.00  0.00     0.273 C 
HETATM   40  O1  UNL     1      77.039  55.313  74.459  1.00  0.00    -0.266 OA
HETATM   41  N3  UNL     1      77.415  53.087  74.230  1.00  0.00    -0.308 N 
ATOM     42  H3  UNL     1      78.420  52.926  74.289  1.00  0.00     0.170 HD
BRANCH  41  43
HETATM   43  C5  UNL     1      76.635  52.152  74.653  1.00  0.00     0.107 A 
HETATM   44  C6  UNL     1      75.703  52.311  75.655  1.00  0.00     0.049 A 
HETATM   45  C7  UNL     1      74.883  51.290  76.088  1.00  0.00     0.017 A 
HETATM   46  C8  UNL     1      74.981  50.043  75.506  1.00  0.00    -0.008 A 
HETATM   47  C13 UNL     1      75.919  49.905  74.504  1.00  0.00     0.102 A 
HETATM   48  N6  UNL     1      76.711  50.912  74.094  1.00  0.00    -0.351 N 
ATOM     49  H6  UNL     1      77.384  50.742  73.347  1.00  0.00     0.166 HD
BRANCH  46  50
HETATM   50  C9  UNL     1      74.136  48.939  75.940  1.00  0.00     0.009 A 
HETATM   51  C10 UNL     1      72.823  49.065  76.382  1.00  0.00     0.121 A 
HETATM   52  N4  UNL     1      72.391  47.830  76.685  1.00  0.00    -0.310 N 
HETATM   53  N5  UNL     1      73.321  46.918  76.474  1.00  0.00    -0.307 N 
ATOM     54  H4  UNL     1      71.456  47.623  77.037  1.00  0.00     0.186 HD
HETATM   55  C11 UNL     1      73.202  45.468  76.693  1.00  0.00     0.177 C 
HETATM   56  C12 UNL     1      74.397  47.586  76.016  1.00  0.00     0.123 A 
ENDBRANCH  46  50
ENDBRANCH  41  43
ENDBRANCH   4  39
TORSDOF 10
ENDMDL
MODEL 4
REMARK VINA RESULT: -9.395395781      1.745      2.820
REMARK  10 active torsions:
REMARK  status: ('A' for Active; 'I' for Inactive)
REMARK    1  A    between atoms: N1_2  and  C2_4 
REMARK    2  A    between atoms: C3_7  and  C4_8 
REMARK       I    between atoms: C4_8  and  N3_10 
REMARK    3  A    between atoms: N3_10  and  C5_12 
REMARK    4  A    between atoms: C8_15  and  C9_16 
REMARK    5  A    between atoms: C16_28  and  C17_29 
REMARK    6  A    between atoms: C18_30  and  C19_31 
REMARK    7  A    between atoms: C19_31  and  C20_32 
REMARK    8  A    between atoms: C22_36  and  N8_37 
REMARK    9  A    between atoms: N8_37  and  S1_39 
REMARK   10  A    between atoms: S1_39  and  C23_42 
ROOT
HETATM    1  C2  UNL     1      75.863  53.348  70.217  1.00  0.00     0.120 A 
HETATM    2  N2  UNL     1      76.215  53.307  71.515  1.00  0.00    -0.337 N 
ATOM      3  H2  UNL     1      76.358  52.416  71.990  1.00  0.00     0.167 HD
HETATM    4  C3  UNL     1      76.372  54.462  72.169  1.00  0.00     0.102 A 
HETATM    5  C14 UNL     1      76.174  55.677  71.508  1.00  0.00     0.037 A 
HETATM    6  C15 UNL     1      75.813  55.719  70.179  1.00  0.00     0.027 A 
HETATM    7  C16 UNL     1      75.656  54.531  69.526  1.00  0.00     0.061 A 
ENDROOT
BRANCH   7   8
HETATM    8  C17 UNL     1      75.280  54.527  68.128  1.00  0.00    -0.063 C 
HETATM    9  C18 UNL     1      74.958  54.533  66.968  1.00  0.00    -0.095 C 
BRANCH   9  10
HETATM   10  C19 UNL     1      74.544  54.533  65.572  1.00  0.00     0.152 C 
BRANCH  10  11
HETATM   11  C20 UNL     1      73.686  55.740  65.361  1.00  0.00     0.039 A 
HETATM   12  C21 UNL     1      74.007  56.927  65.965  1.00  0.00     0.116 A 
HETATM   13  N7  UNL     1      73.233  58.043  65.775  1.00  0.00    -0.345 N 
HETATM   14  C22 UNL     1      72.146  58.021  65.004  1.00  0.00     0.184 A 
ATOM     15  H7  UNL     1      73.497  58.914  66.237  1.00  0.00     0.167 HD
HETATM   16  C32 UNL     1      71.825  56.800  64.389  1.00  0.00     0.290 A 
HETATM   17  O4  UNL     1      70.818  56.756  63.668  1.00  0.00    -0.264 OA
HETATM   18  N10 UNL     1      72.600  55.716  64.589  1.00  0.00    -0.322 N 
ATOM     19  H10 UNL     1      72.345  54.841  64.132  1.00  0.00     0.169 HD
BRANCH  14  20
HETATM   20  N8  UNL     1      71.421  59.034  64.802  1.00  0.00    -0.261 N 
ATOM     21  H8  UNL     1      70.824  59.020  63.974  1.00  0.00     0.180 HD
BRANCH  20  22
HETATM   22  S1  UNL     1      71.350  60.422  65.784  1.00  0.00     0.266 S 
HETATM   23  O2  UNL     1      72.732  61.069  65.792  1.00  0.00    -0.200 OA
HETATM   24  O3  UNL     1      70.990  60.109  67.224  1.00  0.00    -0.200 OA
BRANCH  22  25
HETATM   25  C23 UNL     1      70.193  61.609  65.201  1.00  0.00     0.107 A 
HETATM   26  C24 UNL     1      69.007  61.834  65.860  1.00  0.00     0.028 A 
HETATM   27  C25 UNL     1      68.100  62.778  65.391  1.00  0.00     0.003 A 
HETATM   28  C26 UNL     1      68.397  63.503  64.239  1.00  0.00     0.014 A 
HETATM   29  C27 UNL     1      69.582  63.288  63.568  1.00  0.00    -0.008 A 
HETATM   30  C28 UNL     1      69.850  64.026  62.428  1.00  0.00     0.015 A 
HETATM   31  C31 UNL     1      70.482  62.343  64.045  1.00  0.00     0.066 A 
HETATM   32  C29 UNL     1      71.041  63.801  61.770  1.00  0.00     0.018 A 
HETATM   33  C30 UNL     1      71.908  62.843  62.288  1.00  0.00     0.088 A 
HETATM   34  N9  UNL     1      71.637  62.135  63.393  1.00  0.00    -0.364 N 
ATOM     35  H9  UNL     1      72.302  61.443  63.736  1.00  0.00     0.165 HD
ENDBRANCH  22  25
ENDBRANCH  20  22
ENDBRANCH  14  20
ENDBRANCH  10  11
ENDBRANCH   9  10
ENDBRANCH   7   8
BRANCH   1  36
HETATM   36  N1  UNL     1      75.717  52.206  69.606  1.00  0.00    -0.379 N 
HETATM   37  C1  UNL     1      74.540  51.395  69.774  1.00  0.00     0.147 C 
ATOM     38  H1  UNL     1      76.460  51.877  68.990  1.00  0.00     0.160 HD
ENDBRANCH   1  36
BRANCH   4  39
HETATM   39  C4  UNL     1      76.745  54.497  73.558  1.00  0.00     0.273 C 
HETATM   40  O1  UNL     1      76.669  55.522  74.283  1.00  0.00    -0.266 OA
HETATM   41  N3  UNL     1      77.229  53.326  74.178  1.00  0.00    -0.308 N 
ATOM     42  H3  UNL     1      78.235  53.246  74.316  1.00  0.00     0.170 HD
BRANCH  41  43
HETATM   43  C5  UNL     1      76.492  52.348  74.582  1.00  0.00     0.107 A 
HETATM   44  C6  UNL     1      75.346  52.498  75.333  1.00  0.00     0.049 A 
HETATM   45  C7  UNL     1      74.578  51.432  75.753  1.00  0.00     0.017 A 
HETATM   46  C8  UNL     1      74.954  50.147  75.419  1.00  0.00    -0.008 A 
HETATM   47  C13 UNL     1      76.104  50.019  74.666  1.00  0.00     0.102 A 
HETATM   48  N6  UNL     1      76.840  51.070  74.265  1.00  0.00    -0.351 N 
ATOM     49  H6  UNL     1      77.679  50.906  73.709  1.00  0.00     0.166 HD
BRANCH  46  50
HETATM   50  C9  UNL     1      74.172  48.996  75.849  1.00  0.00     0.009 A 
HETATM   51  C10 UNL     1      72.838  49.039  76.238  1.00  0.00     0.121 A 
HETATM   52  N4  UNL     1      72.481  47.784  76.557  1.00  0.00    -0.310 N 
HETATM   53  N5  UNL     1      73.480  46.934  76.403  1.00  0.00    -0.307 N 
ATOM     54  H4  UNL     1      71.550  47.519  76.878  1.00  0.00     0.186 HD
HETATM   55  C11 UNL     1      73.454  45.485  76.655  1.00  0.00     0.177 C 
HETATM   56  C12 UNL     1      74.524  47.667  75.969  1.00  0.00     0.123 A 
ENDBRANCH  46  50
ENDBRANCH  41  43
ENDBRANCH   4  39
TORSDOF 10
ENDMDL
MODEL 5
REMARK VINA RESULT: -9.355026839      2.313      3.522
REMARK  10 active torsions:
REMARK  status: ('A' for Active; 'I' for Inactive)
REMARK    1  A    between atoms: N1_2  and  C2_4 
REMARK    2  A    between atoms: C3_7  and  C4_8 
REMARK       I    between atoms: C4_8  and  N3_10 
REMARK    3  A    between atoms: N3_10  and  C5_12 
REMARK    4  A    between atoms: C8_15  and  C9_16 
REMARK    5  A    between atoms: C16_28  and  C17_29 
REMARK    6  A    between atoms: C18_30  and  C19_31 
REMARK    7  A    between atoms: C19_31  and  C20_32 
REMARK    8  A    between atoms: C22_36  and  N8_37 
REMARK    9  A    between atoms: N8_37  and  S1_39 
REMARK   10  A    between atoms: S1_39  and  C23_42 
ROOT
HETATM    1  C2  UNL     1      76.002  53.142  70.449  1.00  0.00     0.120 A 
HETATM    2  N2  UNL     1      76.396  52.812  71.692  1.00  0.00    -0.337 N 
ATOM      3  H2  UNL     1      76.548  51.837  71.950  1.00  0.00     0.167 HD
HETATM    4  C3  UNL     1      76.584  53.790  72.582  1.00  0.00     0.102 A 
HETATM    5  C14 UNL     1      76.374  55.123  72.217  1.00  0.00     0.037 A 
HETATM    6  C15 UNL     1      75.970  55.462  70.944  1.00  0.00     0.027 A 
HETATM    7  C16 UNL     1      75.782  54.450  70.048  1.00  0.00     0.061 A 
ENDROOT
BRANCH   7   8
HETATM    8  C17 UNL     1      75.360  54.759  68.698  1.00  0.00    -0.063 C 
HETATM    9  C18 UNL     1      75.001  55.005  67.576  1.00  0.00    -0.095 C 
BRANCH   9  10
HETATM   10  C19 UNL     1      74.575  55.279  66.210  1.00  0.00     0.152 C 
BRANCH  10  11
HETATM   11  C20 UNL     1      74.149  56.711  66.154  1.00  0.00     0.039 A 
HETATM   12  C21 UNL     1      72.924  57.045  65.639  1.00  0.00     0.116 A 
HETATM   13  N7  UNL     1      72.518  58.354  65.586  1.00  0.00    -0.345 N 
HETATM   14  C22 UNL     1      73.290  59.348  66.028  1.00  0.00     0.184 A 
ATOM     15  H7  UNL     1      71.600  58.574  65.199  1.00  0.00     0.167 HD
HETATM   16  C32 UNL     1      74.544  58.995  66.553  1.00  0.00     0.290 A 
HETATM   17  O4  UNL     1      75.278  59.902  66.970  1.00  0.00    -0.264 OA
HETATM   18  N10 UNL     1      74.923  57.702  66.596  1.00  0.00    -0.322 N 
ATOM     19  H10 UNL     1      75.838  57.473  66.982  1.00  0.00     0.169 HD
BRANCH  14  20
HETATM   20  N8  UNL     1      72.939  60.559  66.003  1.00  0.00    -0.261 N 
ATOM     21  H8  UNL     1      72.730  61.001  66.899  1.00  0.00     0.180 HD
BRANCH  20  22
HETATM   22  S1  UNL     1      72.783  61.524  64.611  1.00  0.00     0.266 S 
HETATM   23  O2  UNL     1      73.028  60.640  63.391  1.00  0.00    -0.200 OA
HETATM   24  O3  UNL     1      73.792  62.655  64.558  1.00  0.00    -0.200 OA
BRANCH  22  25
HETATM   25  C23 UNL     1      71.186  62.240  64.454  1.00  0.00     0.107 A 
HETATM   26  C24 UNL     1      70.254  62.134  65.460  1.00  0.00     0.028 A 
HETATM   27  C25 UNL     1      68.994  62.707  65.326  1.00  0.00     0.003 A 
HETATM   28  C26 UNL     1      68.672  63.394  64.159  1.00  0.00     0.014 A 
HETATM   29  C27 UNL     1      69.596  63.509  63.142  1.00  0.00    -0.008 A 
HETATM   30  C28 UNL     1      69.248  64.201  61.996  1.00  0.00     0.015 A 
HETATM   31  C31 UNL     1      70.853  62.933  63.285  1.00  0.00     0.066 A 
HETATM   32  C29 UNL     1      70.185  64.308  60.988  1.00  0.00     0.018 A 
HETATM   33  C30 UNL     1      71.429  63.714  61.181  1.00  0.00     0.088 A 
HETATM   34  N9  UNL     1      71.753  63.046  62.296  1.00  0.00    -0.364 N 
ATOM     35  H9  UNL     1      72.677  62.627  62.393  1.00  0.00     0.165 HD
ENDBRANCH  22  25
ENDBRANCH  20  22
ENDBRANCH  14  20
ENDBRANCH  10  11
ENDBRANCH   9  10
ENDBRANCH   7   8
BRANCH   1  36
HETATM   36  N1  UNL     1      75.827  52.166  69.603  1.00  0.00    -0.379 N 
HETATM   37  C1  UNL     1      74.616  51.389  69.573  1.00  0.00     0.147 C 
ATOM     38  H1  UNL     1      76.572  51.947  68.942  1.00  0.00     0.160 HD
ENDBRANCH   1  36
BRANCH   4  39
HETATM   39  C4  UNL     1      77.003  53.513  73.931  1.00  0.00     0.273 C 
HETATM   40  O1  UNL     1      77.311  54.399  74.769  1.00  0.00    -0.266 OA
HETATM   41  N3  UNL     1      77.082  52.176  74.373  1.00  0.00    -0.308 N 
ATOM     42  H3  UNL     1      78.006  51.747  74.417  1.00  0.00     0.170 HD
BRANCH  41  43
HETATM   43  C5  UNL     1      76.073  51.456  74.725  1.00  0.00     0.107 A 
HETATM   44  C6  UNL     1      76.028  50.082  74.632  1.00  0.00     0.049 A 
HETATM   45  C7  UNL     1      74.933  49.337  75.015  1.00  0.00     0.017 A 
HETATM   46  C8  UNL     1      73.817  49.975  75.517  1.00  0.00    -0.008 A 
HETATM   47  C13 UNL     1      73.882  51.350  75.603  1.00  0.00     0.102 A 
HETATM   48  N6  UNL     1      74.959  52.060  75.225  1.00  0.00    -0.351 N 
ATOM     49  H6  UNL     1      74.941  53.076  75.315  1.00  0.00     0.166 HD
BRANCH  46  50
HETATM   50  C9  UNL     1      72.638  49.223  75.927  1.00  0.00     0.009 A 
HETATM   51  C10 UNL     1      72.637  47.884  76.302  1.00  0.00     0.121 A 
HETATM   52  N4  UNL     1      71.370  47.563  76.610  1.00  0.00    -0.310 N 
HETATM   53  N5  UNL     1      70.553  48.590  76.462  1.00  0.00    -0.307 N 
ATOM     54  H4  UNL     1      71.074  46.637  76.920  1.00  0.00     0.186 HD
HETATM   55  C11 UNL     1      69.102  48.607  76.706  1.00  0.00     0.177 C 
HETATM   56  C12 UNL     1      71.320  49.615  76.043  1.00  0.00     0.123 A 
ENDBRANCH  46  50
ENDBRANCH  41  43
ENDBRANCH   4  39
TORSDOF 10
ENDMDL
