MODEL 1
REMARK VINA RESULT: -8.646413806      0.000      0.000
REMARK  9 active torsions:
REMARK  status: ('A' for Active; 'I' for Inactive)
REMARK    1  A    between atoms: C2_2  and  S1_4 
REMARK    2  A    between atoms: S1_4  and  N1_7 
REMARK    3  A    between atoms: C4_10  and  C5_11 
REMARK    4  A    between atoms: C10_16  and  N3_17 
REMARK       I    between atoms: N3_17  and  C11_19 
REMARK    5  A    between atoms: C11_19  and  C12_21 
REMARK    6  A    between atoms: C16_25  and  N4_26 
REMARK    7  A    between atoms: N4_26  and  C17_28 
REMARK    8  A    between atoms: C17_28  and  O4_29 
REMARK    9  A    between atoms: C17_28  and  N5_31 
ROOT
HETATM    1  C12 UNL     1       6.059 -23.235  -4.746  1.00  0.00     0.034 A 
HETATM    2  C13 UNL     1       6.203 -24.481  -4.228  1.00  0.00     0.018 A 
HETATM    3  C14 UNL     1       6.629 -25.562  -5.004  1.00  0.00     0.018 A 
HETATM    4  C15 UNL     1       6.909 -25.354  -6.328  1.00  0.00     0.037 A 
HETATM    5  C16 UNL     1       7.385 -26.159  -7.332  1.00  0.00     0.135 A 
HETATM    6  N7  UNL     1       7.516 -25.379  -8.429  1.00  0.00    -0.284 N 
ATOM      7  H7  UNL     1       7.851 -25.691  -9.341  1.00  0.00     0.188 HD
HETATM    8  N8  UNL     1       7.143 -24.157  -8.131  1.00  0.00    -0.298 N 
ATOM      9  H8  UNL     1       7.145 -23.377  -8.787  1.00  0.00     0.187 HD
HETATM   10  C23 UNL     1       6.758 -24.070  -6.852  1.00  0.00     0.063 A 
HETATM   11  C24 UNL     1       6.331 -23.007  -6.059  1.00  0.00     0.049 A 
ENDROOT
BRANCH   1  12
HETATM   12  C11 UNL     1       5.688 -22.097  -3.885  1.00  0.00     0.257 C 
HETATM   13  N3  UNL     1       5.453 -22.181  -2.570  1.00  0.00    -0.307 N 
ATOM     14  H3  UNL     1       5.507 -23.188  -2.415  1.00  0.00     0.170 HD
HETATM   15  O3  UNL     1       5.611 -20.999  -4.528  1.00  0.00    -0.267 OA
BRANCH  13  16
HETATM   16  C10 UNL     1       5.213 -21.772  -1.444  1.00  0.00     0.143 A 
HETATM   17  N1  UNL     1       4.450 -22.215  -0.437  1.00  0.00    -0.164 N 
HETATM   18  N2  UNL     1       4.608 -21.390   0.594  1.00  0.00    -0.286 N 
HETATM   19  C4  UNL     1       5.458 -20.398   0.305  1.00  0.00     0.038 A 
ATOM     20  H2  UNL     1       4.140 -21.500   1.494  1.00  0.00     0.188 HD
HETATM   21  C9  UNL     1       5.874 -20.577  -0.963  1.00  0.00     0.078 A 
BRANCH  17  22
HETATM   22  S1  UNL     1       3.341 -23.575  -0.439  1.00  0.00     0.255 S 
HETATM   23  O1  UNL     1       3.340 -24.316  -1.728  1.00  0.00    -0.203 OA
HETATM   24  O2  UNL     1       3.898 -24.586   0.578  1.00  0.00    -0.203 OA
BRANCH  22  25
HETATM   25  C2  UNL     1       1.756 -23.148   0.184  1.00  0.00     0.123 C 
HETATM   26  C1  UNL     1       0.766 -24.269   0.176  1.00  0.00     0.027 C 
HETATM   27  C3  UNL     1       1.238 -22.005  -0.707  1.00  0.00     0.027 C 
ENDBRANCH  22  25
ENDBRANCH  17  22
BRANCH  19  28
HETATM   28  C5  UNL     1       5.871 -19.271   1.208  1.00  0.00    -0.007 C 
HETATM   29  C6  UNL     1       5.046 -18.035   0.935  1.00  0.00     0.021 C 
HETATM   30  C7  UNL     1       7.321 -18.901   0.949  1.00  0.00     0.021 C 
HETATM   31  C8  UNL     1       5.724 -19.629   2.667  1.00  0.00     0.021 C 
ENDBRANCH  19  28
ENDBRANCH  13  16
ENDBRANCH   1  12
BRANCH   5  32
HETATM   32  N4  UNL     1       7.642 -27.444  -7.281  1.00  0.00    -0.306 N 
ATOM     33  H4  UNL     1       6.900 -28.113  -7.491  1.00  0.00     0.171 HD
BRANCH  32  34
HETATM   34  C17 UNL     1       8.909 -27.909  -6.946  1.00  0.00     0.236 C 
BRANCH  34  35
HETATM   35  O4  UNL     1       9.326 -28.853  -7.757  1.00  0.00    -0.332 OA
ATOM     36  H4  UNL     1      10.259 -28.798  -7.927  1.00  0.00     0.221 HD
ENDBRANCH  34  35
BRANCH  34  37
HETATM   37  N5  UNL     1       9.747 -27.509  -5.895  1.00  0.00    -0.195 N 
HETATM   38  C18 UNL     1      10.017 -28.324  -4.717  1.00  0.00     0.333 C 
HETATM   39  O5  UNL     1       9.521 -29.481  -4.554  1.00  0.00    -0.246 OA
HETATM   40  N6  UNL     1      10.882 -27.597  -3.875  1.00  0.00    -0.325 N 
HETATM   41  C19 UNL     1      11.078 -26.256  -4.370  1.00  0.00     0.109 C 
ATOM     42  H6  UNL     1      11.311 -27.969  -3.028  1.00  0.00     0.165 HD
HETATM   43  C20 UNL     1      12.561 -25.938  -4.512  1.00  0.00     0.049 C 
HETATM   44  C21 UNL     1      10.335 -25.235  -3.532  1.00  0.00     0.049 C 
HETATM   45  C22 UNL     1      10.470 -26.316  -5.712  1.00  0.00     0.263 C 
HETATM   46  O6  UNL     1      10.584 -25.397  -6.596  1.00  0.00    -0.270 OA
ENDBRANCH  34  37
ENDBRANCH  32  34
ENDBRANCH   5  32
TORSDOF 9
ENDMDL
MODEL 2
REMARK VINA RESULT: -8.626470966      2.004      3.374
REMARK  9 active torsions:
REMARK  status: ('A' for Active; 'I' for Inactive)
REMARK    1  A    between atoms: C2_2  and  S1_4 
REMARK    2  A    between atoms: S1_4  and  N1_7 
REMARK    3  A    between atoms: C4_10  and  C5_11 
REMARK    4  A    between atoms: C10_16  and  N3_17 
REMARK       I    between atoms: N3_17  and  C11_19 
REMARK    5  A    between atoms: C11_19  and  C12_21 
REMARK    6  A    between atoms: C16_25  and  N4_26 
REMARK    7  A    between atoms: N4_26  and  C17_28 
REMARK    8  A    between atoms: C17_28  and  O4_29 
REMARK    9  A    between atoms: C17_28  and  N5_31 
ROOT
HETATM    1  C12 UNL     1       7.455 -23.494  -3.588  1.00  0.00     0.034 A 
HETATM    2  C13 UNL     1       6.972 -24.409  -4.466  1.00  0.00     0.018 A 
HETATM    3  C14 UNL     1       7.754 -25.463  -4.945  1.00  0.00     0.018 A 
HETATM    4  C15 UNL     1       9.048 -25.573  -4.513  1.00  0.00     0.037 A 
HETATM    5  C16 UNL     1      10.045 -26.488  -4.736  1.00  0.00     0.135 A 
HETATM    6  N7  UNL     1      11.104 -26.104  -3.988  1.00  0.00    -0.284 N 
ATOM      7  H7  UNL     1      12.001 -26.587  -3.940  1.00  0.00     0.188 HD
HETATM    8  N8  UNL     1      10.789 -25.010  -3.335  1.00  0.00    -0.298 N 
ATOM      9  H8  UNL     1      11.417 -24.516  -2.702  1.00  0.00     0.187 HD
HETATM   10  C23 UNL     1       9.537 -24.628  -3.611  1.00  0.00     0.063 A 
HETATM   11  C24 UNL     1       8.739 -23.585  -3.147  1.00  0.00     0.049 A 
ENDROOT
BRANCH   1  12
HETATM   12  C11 UNL     1       6.583 -22.442  -3.036  1.00  0.00     0.257 C 
HETATM   13  N3  UNL     1       6.000 -22.489  -1.831  1.00  0.00    -0.307 N 
ATOM     14  H3  UNL     1       6.250 -23.428  -1.519  1.00  0.00     0.170 HD
HETATM   15  O3  UNL     1       6.433 -21.459  -3.834  1.00  0.00    -0.267 OA
BRANCH  13  16
HETATM   16  C10 UNL     1       5.348 -22.079  -0.883  1.00  0.00     0.143 A 
HETATM   17  N1  UNL     1       4.275 -22.536  -0.225  1.00  0.00    -0.164 N 
HETATM   18  N2  UNL     1       4.018 -21.701   0.777  1.00  0.00    -0.286 N 
HETATM   19  C4  UNL     1       4.891 -20.687   0.809  1.00  0.00     0.038 A 
ATOM     20  H2  UNL     1       3.251 -21.818   1.439  1.00  0.00     0.188 HD
HETATM   21  C9  UNL     1       5.754 -20.864  -0.210  1.00  0.00     0.078 A 
BRANCH  17  22
HETATM   22  S1  UNL     1       3.279 -23.927  -0.618  1.00  0.00     0.255 S 
HETATM   23  O1  UNL     1       3.558 -24.472  -1.973  1.00  0.00    -0.203 OA
HETATM   24  O2  UNL     1       3.714 -25.052   0.338  1.00  0.00    -0.203 OA
BRANCH  22  25
HETATM   25  C2  UNL     1       1.584 -23.663  -0.249  1.00  0.00     0.123 C 
HETATM   26  C1  UNL     1       0.771 -24.914  -0.140  1.00  0.00     0.027 C 
HETATM   27  C3  UNL     1       1.027 -22.791  -1.389  1.00  0.00     0.027 C 
ENDBRANCH  22  25
ENDBRANCH  17  22
BRANCH  19  28
HETATM   28  C5  UNL     1       4.911 -19.544   1.782  1.00  0.00    -0.007 C 
HETATM   29  C6  UNL     1       3.575 -19.405   2.473  1.00  0.00     0.021 C 
HETATM   30  C7  UNL     1       5.167 -18.239   1.048  1.00  0.00     0.021 C 
HETATM   31  C8  UNL     1       5.977 -19.714   2.836  1.00  0.00     0.021 C 
ENDBRANCH  19  28
ENDBRANCH  13  16
ENDBRANCH   1  12
BRANCH   5  32
HETATM   32  N4  UNL     1      10.021 -27.527  -5.538  1.00  0.00    -0.306 N 
ATOM     33  H4  UNL     1       9.575 -28.390  -5.227  1.00  0.00     0.171 HD
BRANCH  32  34
HETATM   34  C17 UNL     1      10.595 -27.469  -6.803  1.00  0.00     0.236 C 
BRANCH  34  35
HETATM   35  O4  UNL     1      11.281 -26.366  -6.992  1.00  0.00    -0.332 OA
ATOM     36  H4  UNL     1      11.857 -26.421  -7.745  1.00  0.00     0.221 HD
ENDBRANCH  34  35
BRANCH  34  37
HETATM   37  N5  UNL     1      10.527 -28.403  -7.847  1.00  0.00    -0.195 N 
HETATM   38  C18 UNL     1       9.311 -29.116  -8.219  1.00  0.00     0.333 C 
HETATM   39  O5  UNL     1       8.201 -28.935  -7.631  1.00  0.00    -0.246 OA
HETATM   40  N6  UNL     1       9.624 -29.977  -9.290  1.00  0.00    -0.325 N 
HETATM   41  C19 UNL     1      11.043 -29.985  -9.549  1.00  0.00     0.109 C 
ATOM     42  H6  UNL     1       8.938 -30.522  -9.812  1.00  0.00     0.165 HD
HETATM   43  C20 UNL     1      11.332 -29.678 -11.013  1.00  0.00     0.049 C 
HETATM   44  C21 UNL     1      11.691 -31.272  -9.079  1.00  0.00     0.049 C 
HETATM   45  C22 UNL     1      11.528 -28.867  -8.720  1.00  0.00     0.263 C 
HETATM   46  O6  UNL     1      12.711 -28.382  -8.786  1.00  0.00    -0.270 OA
ENDBRANCH  34  37
ENDBRANCH  32  34
ENDBRANCH   5  32
TORSDOF 9
ENDMDL
MODEL 3
REMARK VINA RESULT: -8.535591316      1.915      3.497
REMARK  9 active torsions:
REMARK  status: ('A' for Active; 'I' for Inactive)
REMARK    1  A    between atoms: C2_2  and  S1_4 
REMARK    2  A    between atoms: S1_4  and  N1_7 
REMARK    3  A    between atoms: C4_10  and  C5_11 
REMARK    4  A    between atoms: C10_16  and  N3_17 
REMARK       I    between atoms: N3_17  and  C11_19 
REMARK    5  A    between atoms: C11_19  and  C12_21 
REMARK    6  A    between atoms: C16_25  and  N4_26 
REMARK    7  A    between atoms: N4_26  and  C17_28 
REMARK    8  A    between atoms: C17_28  and  O4_29 
REMARK    9  A    between atoms: C17_28  and  N5_31 
ROOT
HETATM    1  C12 UNL     1       7.475 -23.481  -3.577  1.00  0.00     0.034 A 
HETATM    2  C13 UNL     1       6.988 -24.388  -4.461  1.00  0.00     0.018 A 
HETATM    3  C14 UNL     1       7.764 -25.445  -4.943  1.00  0.00     0.018 A 
HETATM    4  C15 UNL     1       9.056 -25.567  -4.507  1.00  0.00     0.037 A 
HETATM    5  C16 UNL     1      10.047 -26.489  -4.732  1.00  0.00     0.135 A 
HETATM    6  N7  UNL     1      11.106 -26.116  -3.978  1.00  0.00    -0.284 N 
ATOM      7  H7  UNL     1      12.000 -26.605  -3.928  1.00  0.00     0.188 HD
HETATM    8  N8  UNL     1      10.797 -25.023  -3.320  1.00  0.00    -0.298 N 
ATOM      9  H8  UNL     1      11.426 -24.537  -2.682  1.00  0.00     0.187 HD
HETATM   10  C23 UNL     1       9.548 -24.630  -3.598  1.00  0.00     0.063 A 
HETATM   11  C24 UNL     1       8.756 -23.584  -3.132  1.00  0.00     0.049 A 
ENDROOT
BRANCH   1  12
HETATM   12  C11 UNL     1       6.608 -22.426  -3.023  1.00  0.00     0.257 C 
HETATM   13  N3  UNL     1       6.017 -22.477  -1.822  1.00  0.00    -0.307 N 
ATOM     14  H3  UNL     1       6.256 -23.420  -1.516  1.00  0.00     0.170 HD
HETATM   15  O3  UNL     1       6.473 -21.435  -3.814  1.00  0.00    -0.267 OA
BRANCH  13  16
HETATM   16  C10 UNL     1       5.361 -22.069  -0.876  1.00  0.00     0.143 A 
HETATM   17  N1  UNL     1       4.286 -22.526  -0.223  1.00  0.00    -0.164 N 
HETATM   18  N2  UNL     1       4.026 -21.693   0.780  1.00  0.00    -0.286 N 
HETATM   19  C4  UNL     1       4.900 -20.681   0.818  1.00  0.00     0.038 A 
ATOM     20  H2  UNL     1       3.257 -21.811   1.439  1.00  0.00     0.188 HD
HETATM   21  C9  UNL     1       5.767 -20.856  -0.198  1.00  0.00     0.078 A 
BRANCH  17  22
HETATM   22  S1  UNL     1       3.289 -23.915  -0.623  1.00  0.00     0.255 S 
HETATM   23  O1  UNL     1       3.571 -24.455  -1.979  1.00  0.00    -0.203 OA
HETATM   24  O2  UNL     1       3.721 -25.043   0.330  1.00  0.00    -0.203 OA
BRANCH  22  25
HETATM   25  C2  UNL     1       1.593 -23.650  -0.257  1.00  0.00     0.123 C 
HETATM   26  C1  UNL     1       0.780 -24.901  -0.152  1.00  0.00     0.027 C 
HETATM   27  C3  UNL     1       1.039 -22.776  -1.396  1.00  0.00     0.027 C 
ENDBRANCH  22  25
ENDBRANCH  17  22
BRANCH  19  28
HETATM   28  C5  UNL     1       4.918 -19.540   1.794  1.00  0.00    -0.007 C 
HETATM   29  C6  UNL     1       3.582 -19.404   2.485  1.00  0.00     0.021 C 
HETATM   30  C7  UNL     1       5.173 -18.232   1.064  1.00  0.00     0.021 C 
HETATM   31  C8  UNL     1       5.984 -19.712   2.849  1.00  0.00     0.021 C 
ENDBRANCH  19  28
ENDBRANCH  13  16
ENDBRANCH   1  12
BRANCH   5  32
HETATM   32  N4  UNL     1      10.019 -27.522  -5.538  1.00  0.00    -0.306 N 
ATOM     33  H4  UNL     1       9.591 -28.394  -5.223  1.00  0.00     0.171 HD
BRANCH  32  34
HETATM   34  C17 UNL     1      10.562 -27.449  -6.817  1.00  0.00     0.236 C 
BRANCH  34  35
HETATM   35  O4  UNL     1      11.263 -26.355  -7.001  1.00  0.00    -0.332 OA
ATOM     36  H4  UNL     1      11.140 -25.988  -7.868  1.00  0.00     0.221 HD
ENDBRANCH  34  35
BRANCH  34  37
HETATM   37  N5  UNL     1      10.452 -28.362  -7.876  1.00  0.00    -0.195 N 
HETATM   38  C18 UNL     1      11.566 -28.747  -8.735  1.00  0.00     0.333 C 
HETATM   39  O5  UNL     1      12.741 -28.291  -8.582  1.00  0.00    -0.246 OA
HETATM   40  N6  UNL     1      11.081 -29.661  -9.691  1.00  0.00    -0.325 N 
HETATM   41  C19 UNL     1       9.646 -29.787  -9.604  1.00  0.00     0.109 C 
ATOM     42  H6  UNL     1      11.666 -30.167 -10.355  1.00  0.00     0.165 HD
HETATM   43  C20 UNL     1       9.234 -31.246  -9.457  1.00  0.00     0.049 C 
HETATM   44  C21 UNL     1       8.953 -29.093 -10.760  1.00  0.00     0.049 C 
HETATM   45  C22 UNL     1       9.335 -29.072  -8.353  1.00  0.00     0.263 C 
HETATM   46  O6  UNL     1       8.192 -29.093  -7.777  1.00  0.00    -0.270 OA
ENDBRANCH  34  37
ENDBRANCH  32  34
ENDBRANCH   5  32
TORSDOF 9
ENDMDL
MODEL 4
REMARK VINA RESULT: -8.421281979      3.024      4.575
REMARK  9 active torsions:
REMARK  status: ('A' for Active; 'I' for Inactive)
REMARK    1  A    between atoms: C2_2  and  S1_4 
REMARK    2  A    between atoms: S1_4  and  N1_7 
REMARK    3  A    between atoms: C4_10  and  C5_11 
REMARK    4  A    between atoms: C10_16  and  N3_17 
REMARK       I    between atoms: N3_17  and  C11_19 
REMARK    5  A    between atoms: C11_19  and  C12_21 
REMARK    6  A    between atoms: C16_25  and  N4_26 
REMARK    7  A    between atoms: N4_26  and  C17_28 
REMARK    8  A    between atoms: C17_28  and  O4_29 
REMARK    9  A    between atoms: C17_28  and  N5_31 
ROOT
HETATM    1  C12 UNL     1       3.854 -20.948  -3.235  1.00  0.00     0.034 A 
HETATM    2  C13 UNL     1       5.022 -21.298  -2.642  1.00  0.00     0.018 A 
HETATM    3  C14 UNL     1       6.121 -21.751  -3.377  1.00  0.00     0.018 A 
HETATM    4  C15 UNL     1       6.013 -21.842  -4.738  1.00  0.00     0.037 A 
HETATM    5  C16 UNL     1       6.887 -22.188  -5.736  1.00  0.00     0.135 A 
HETATM    6  N7  UNL     1       6.226 -22.037  -6.906  1.00  0.00    -0.284 N 
ATOM      7  H7  UNL     1       6.613 -22.216  -7.833  1.00  0.00     0.188 HD
HETATM    8  N8  UNL     1       5.007 -21.622  -6.656  1.00  0.00    -0.298 N 
ATOM      9  H8  UNL     1       4.304 -21.434  -7.370  1.00  0.00     0.187 HD
HETATM   10  C23 UNL     1       4.807 -21.480  -5.340  1.00  0.00     0.063 A 
HETATM   11  C24 UNL     1       3.724 -21.032  -4.587  1.00  0.00     0.049 A 
ENDROOT
BRANCH   1  12
HETATM   12  C11 UNL     1       2.740 -20.395  -2.444  1.00  0.00     0.257 C 
HETATM   13  N3  UNL     1       2.843 -19.967  -1.179  1.00  0.00    -0.307 N 
ATOM     14  H3  UNL     1       3.804 -20.223  -0.953  1.00  0.00     0.170 HD
HETATM   15  O3  UNL     1       1.644 -20.362  -3.094  1.00  0.00    -0.267 OA
BRANCH  13  16
HETATM   16  C10 UNL     1       2.472 -19.452  -0.135  1.00  0.00     0.143 A 
HETATM   17  N1  UNL     1       3.006 -19.341   1.088  1.00  0.00    -0.164 N 
HETATM   18  N2  UNL     1       2.178 -18.619   1.836  1.00  0.00    -0.286 N 
HETATM   19  C4  UNL     1       1.093 -18.244   1.148  1.00  0.00     0.038 A 
ATOM     20  H2  UNL     1       2.347 -18.382   2.813  1.00  0.00     0.188 HD
HETATM   21  C9  UNL     1       1.215 -18.736  -0.100  1.00  0.00     0.078 A 
BRANCH  17  22
HETATM   22  S1  UNL     1       4.483 -20.073   1.692  1.00  0.00     0.255 S 
HETATM   23  O1  UNL     1       4.406 -20.420   3.135  1.00  0.00    -0.203 OA
HETATM   24  O2  UNL     1       4.610 -21.433   0.982  1.00  0.00    -0.203 OA
BRANCH  22  25
HETATM   25  C2  UNL     1       5.917 -19.185   1.207  1.00  0.00     0.123 C 
HETATM   26  C1  UNL     1       7.048 -20.045   0.737  1.00  0.00     0.027 C 
HETATM   27  C3  UNL     1       6.365 -18.386   2.444  1.00  0.00     0.027 C 
ENDBRANCH  22  25
ENDBRANCH  17  22
BRANCH  19  28
HETATM   28  C5  UNL     1      -0.065 -17.436   1.659  1.00  0.00    -0.007 C 
HETATM   29  C6  UNL     1      -0.032 -17.347   3.166  1.00  0.00     0.021 C 
HETATM   30  C7  UNL     1      -1.375 -18.108   1.284  1.00  0.00     0.021 C 
HETATM   31  C8  UNL     1      -0.072 -16.035   1.098  1.00  0.00     0.021 C 
ENDBRANCH  19  28
ENDBRANCH  13  16
ENDBRANCH   1  12
BRANCH   5  32
HETATM   32  N4  UNL     1       8.121 -22.617  -5.614  1.00  0.00    -0.306 N 
ATOM     33  H4  UNL     1       8.853 -21.966  -5.328  1.00  0.00     0.171 HD
BRANCH  32  34
HETATM   34  C17 UNL     1       8.446 -23.946  -5.868  1.00  0.00     0.236 C 
BRANCH  34  35
HETATM   35  O4  UNL     1       7.872 -24.402  -6.956  1.00  0.00    -0.332 OA
ATOM     36  H4  UNL     1       7.931 -25.347  -7.028  1.00  0.00     0.221 HD
ENDBRANCH  34  35
BRANCH  34  37
HETATM   37  N5  UNL     1       9.272 -24.808  -5.132  1.00  0.00    -0.195 N 
HETATM   38  C18 UNL     1       9.426 -24.744  -3.684  1.00  0.00     0.333 C 
HETATM   39  O5  UNL     1       8.808 -23.901  -2.964  1.00  0.00    -0.246 OA
HETATM   40  N6  UNL     1      10.340 -25.746  -3.300  1.00  0.00    -0.325 N 
HETATM   41  C19 UNL     1      10.927 -26.380  -4.456  1.00  0.00     0.109 C 
ATOM     42  H6  UNL     1      10.557 -25.990  -2.334  1.00  0.00     0.165 HD
HETATM   43  C20 UNL     1      10.765 -27.893  -4.389  1.00  0.00     0.049 C 
HETATM   44  C21 UNL     1      12.366 -25.950  -4.660  1.00  0.00     0.049 C 
HETATM   45  C22 UNL     1      10.104 -25.858  -5.562  1.00  0.00     0.263 C 
HETATM   46  O6  UNL     1      10.144 -26.303  -6.762  1.00  0.00    -0.270 OA
ENDBRANCH  34  37
ENDBRANCH  32  34
ENDBRANCH   5  32
TORSDOF 9
ENDMDL
MODEL 5
REMARK VINA RESULT: -8.267183977      1.646      2.755
REMARK  9 active torsions:
REMARK  status: ('A' for Active; 'I' for Inactive)
REMARK    1  A    between atoms: C2_2  and  S1_4 
REMARK    2  A    between atoms: S1_4  and  N1_7 
REMARK    3  A    between atoms: C4_10  and  C5_11 
REMARK    4  A    between atoms: C10_16  and  N3_17 
REMARK       I    between atoms: N3_17  and  C11_19 
REMARK    5  A    between atoms: C11_19  and  C12_21 
REMARK    6  A    between atoms: C16_25  and  N4_26 
REMARK    7  A    between atoms: N4_26  and  C17_28 
REMARK    8  A    between atoms: C17_28  and  O4_29 
REMARK    9  A    between atoms: C17_28  and  N5_31 
ROOT
HETATM    1  C12 UNL     1       7.185 -22.936  -3.952  1.00  0.00     0.034 A 
HETATM    2  C13 UNL     1       8.254 -23.482  -3.320  1.00  0.00     0.018 A 
HETATM    3  C14 UNL     1       9.142 -24.344  -3.970  1.00  0.00     0.018 A 
HETATM    4  C15 UNL     1       8.923 -24.645  -5.287  1.00  0.00     0.037 A 
HETATM    5  C16 UNL     1       9.606 -25.391  -6.213  1.00  0.00     0.135 A 
HETATM    6  N7  UNL     1       8.933 -25.277  -7.381  1.00  0.00    -0.284 N 
ATOM      7  H7  UNL     1       9.196 -25.720  -8.262  1.00  0.00     0.188 HD
HETATM    8  N8  UNL     1       7.888 -24.506  -7.197  1.00  0.00    -0.298 N 
ATOM      9  H8  UNL     1       7.215 -24.263  -7.924  1.00  0.00     0.187 HD
HETATM   10  C23 UNL     1       7.821 -24.079  -5.930  1.00  0.00     0.063 A 
HETATM   11  C24 UNL     1       6.949 -23.223  -5.261  1.00  0.00     0.049 A 
ENDROOT
BRANCH   1  12
HETATM   12  C11 UNL     1       6.315 -21.966  -3.265  1.00  0.00     0.257 C 
HETATM   13  N3  UNL     1       5.801 -22.136  -2.040  1.00  0.00    -0.307 N 
ATOM     14  H3  UNL     1       6.095 -23.089  -1.825  1.00  0.00     0.170 HD
HETATM   15  O3  UNL     1       6.092 -20.923  -3.965  1.00  0.00    -0.267 OA
BRANCH  13  16
HETATM   16  C10 UNL     1       5.190 -21.832  -1.027  1.00  0.00     0.143 A 
HETATM   17  N1  UNL     1       4.169 -22.380  -0.356  1.00  0.00    -0.164 N 
HETATM   18  N2  UNL     1       3.944 -21.643   0.727  1.00  0.00    -0.286 N 
HETATM   19  C4  UNL     1       4.787 -20.607   0.802  1.00  0.00     0.038 A 
ATOM     20  H2  UNL     1       3.218 -21.843   1.416  1.00  0.00     0.188 HD
HETATM   21  C9  UNL     1       5.597 -20.666  -0.272  1.00  0.00     0.078 A 
BRANCH  17  22
HETATM   22  S1  UNL     1       3.194 -23.765  -0.818  1.00  0.00     0.255 S 
HETATM   23  O1  UNL     1       3.664 -24.409  -2.072  1.00  0.00    -0.203 OA
HETATM   24  O2  UNL     1       3.425 -24.833   0.266  1.00  0.00    -0.203 OA
BRANCH  22  25
HETATM   25  C2  UNL     1       1.473 -23.426  -0.745  1.00  0.00     0.123 C 
HETATM   26  C1  UNL     1       0.908 -23.382   0.639  1.00  0.00     0.027 C 
HETATM   27  C3  UNL     1       0.782 -24.546  -1.543  1.00  0.00     0.027 C 
ENDBRANCH  22  25
ENDBRANCH  17  22
BRANCH  19  28
HETATM   28  C5  UNL     1       4.827 -19.552   1.869  1.00  0.00    -0.007 C 
HETATM   29  C6  UNL     1       3.534 -19.529   2.649  1.00  0.00     0.021 C 
HETATM   30  C7  UNL     1       4.989 -18.179   1.240  1.00  0.00     0.021 C 
HETATM   31  C8  UNL     1       5.964 -19.767   2.838  1.00  0.00     0.021 C 
ENDBRANCH  19  28
ENDBRANCH  13  16
ENDBRANCH   1  12
BRANCH   5  32
HETATM   32  N4  UNL     1      10.685 -26.113  -6.029  1.00  0.00    -0.306 N 
ATOM     33  H4  UNL     1      11.359 -25.836  -5.314  1.00  0.00     0.171 HD
BRANCH  32  34
HETATM   34  C17 UNL     1      10.925 -27.251  -6.791  1.00  0.00     0.236 C 
BRANCH  34  35
HETATM   35  O4  UNL     1      11.994 -27.134  -7.543  1.00  0.00    -0.332 OA
ATOM     36  H4  UNL     1      11.796 -26.782  -8.402  1.00  0.00     0.221 HD
ENDBRANCH  34  35
BRANCH  34  37
HETATM   37  N5  UNL     1      10.192 -28.446  -6.848  1.00  0.00    -0.195 N 
HETATM   38  C18 UNL     1       9.618 -29.102  -5.679  1.00  0.00     0.333 C 
HETATM   39  O5  UNL     1       9.725 -28.630  -4.505  1.00  0.00    -0.246 OA
HETATM   40  N6  UNL     1       8.973 -30.277  -6.113  1.00  0.00    -0.325 N 
HETATM   41  C19 UNL     1       9.226 -30.518  -7.513  1.00  0.00     0.109 C 
ATOM     42  H6  UNL     1       8.403 -30.876  -5.518  1.00  0.00     0.165 HD
HETATM   43  C20 UNL     1       7.923 -30.705  -8.279  1.00  0.00     0.049 C 
HETATM   44  C21 UNL     1      10.199 -31.663  -7.717  1.00  0.00     0.049 C 
HETATM   45  C22 UNL     1       9.862 -29.260  -7.947  1.00  0.00     0.263 C 
HETATM   46  O6  UNL     1      10.085 -28.950  -9.169  1.00  0.00    -0.270 OA
ENDBRANCH  34  37
ENDBRANCH  32  34
ENDBRANCH   5  32
TORSDOF 9
ENDMDL
