MODEL 1
REMARK VINA RESULT: -8.505655512      0.000      0.000
REMARK  10 active torsions:
REMARK  status: ('A' for Active; 'I' for Inactive)
REMARK    1  A    between atoms: O1_2  and  C2_3 
REMARK    2  A    between atoms: C4_5  and  C5_6 
REMARK    3  A    between atoms: C6_7  and  O2_8 
REMARK    4  A    between atoms: O2_8  and  C7_9 
REMARK    5  A    between atoms: C7_9  and  C8_10 
REMARK    6  A    between atoms: C15_17  and  O3_18 
REMARK    7  A    between atoms: C17_20  and  O4_21 
REMARK    8  A    between atoms: C21_25  and  O5_26 
REMARK    9  A    between atoms: C24_30  and  O6_31 
REMARK   10  A    between atoms: C33_43  and  O7_44 
ROOT
HETATM    1  C8  UNL     1      17.901   2.568 -18.556  1.00  0.00     0.001 A 
HETATM    2  C9  UNL     1      18.673   1.370 -18.049  1.00  0.00     0.014 A 
HETATM    3  C10 UNL     1      17.391   0.925 -17.388  1.00  0.00     0.015 A 
HETATM    4  C11 UNL     1      16.731   2.190 -17.904  1.00  0.00     0.012 A 
HETATM    5  C12 UNL     1      17.337   3.476 -17.504  1.00  0.00     0.032 A 
HETATM    6  C13 UNL     1      17.626   3.347 -16.053  1.00  0.00    -0.021 C 
HETATM    7  C14 UNL     1      17.199   4.233 -15.160  1.00  0.00     0.010 C 
HETATM    8  C15 UNL     1      16.405   5.452 -15.428  1.00  0.00     0.110 C 
HETATM    9  C17 UNL     1      15.909   6.013 -14.061  1.00  0.00     0.160 C 
HETATM   10  C19 UNL     1      14.492   5.790 -14.449  1.00  0.00     0.047 C 
HETATM   11  C20 UNL     1      15.044   5.437 -15.845  1.00  0.00     0.067 C 
HETATM   12  C21 UNL     1      14.267   4.359 -16.438  1.00  0.00     0.082 C 
HETATM   13  C22 UNL     1      14.343   3.007 -15.942  1.00  0.00     0.010 C 
HETATM   14  C23 UNL     1      14.791   1.998 -16.611  1.00  0.00     0.010 C 
HETATM   15  C24 UNL     1      15.287   2.156 -18.006  1.00  0.00     0.085 C 
HETATM   16  C25 UNL     1      14.563   3.243 -18.674  1.00  0.00     0.046 C 
HETATM   17  C26 UNL     1      14.260   4.481 -17.939  1.00  0.00     0.046 C 
ENDROOT
BRANCH   1  18
HETATM   18  C7  UNL     1      18.097   3.072 -19.956  1.00  0.00     0.187 C 
BRANCH  18  19
HETATM   19  O2  UNL     1      17.678   2.072 -20.858  1.00  0.00    -0.348 OA
BRANCH  19  20
HETATM   20  C6  UNL     1      18.102   1.994 -22.189  1.00  0.00     0.099 A 
HETATM   21  C5  UNL     1      18.715   0.947 -22.740  1.00  0.00    -0.004 A 
HETATM   22  C29 UNL     1      18.991   1.293 -24.153  1.00  0.00     0.065 A 
HETATM   23  C28 UNL     1      18.448   2.649 -24.307  1.00  0.00     0.044 A 
HETATM   24  C30 UNL     1      18.362   0.336 -25.147  1.00  0.00     0.021 C 
HETATM   25  C27 UNL     1      17.934   3.060 -23.170  1.00  0.00     0.086 A 
HETATM   26 CL2  UNL     1      18.508   3.553 -25.830  1.00  0.00    -0.086 Cl
HETATM   27 CL1  UNL     1      17.179   4.638 -22.942  1.00  0.00    -0.080 Cl
BRANCH  21  28
HETATM   28  C4  UNL     1      19.051  -0.303 -22.045  1.00  0.00    -0.024 A 
HETATM   29  C3  UNL     1      20.095  -1.123 -22.387  1.00  0.00     0.051 A 
HETATM   30  C2  UNL     1      20.393  -2.281 -21.682  1.00  0.00     0.102 A 
HETATM   31  C33 UNL     1      19.634  -2.633 -20.610  1.00  0.00     0.099 A 
HETATM   32  C32 UNL     1      18.576  -1.835 -20.234  1.00  0.00     0.040 A 
HETATM   33  C31 UNL     1      18.298  -0.678 -20.959  1.00  0.00     0.015 A 
BRANCH  30  34
HETATM   34  O1  UNL     1      21.454  -3.102 -22.041  1.00  0.00    -0.353 OA
HETATM   35  C1  UNL     1      22.739  -2.531 -22.110  1.00  0.00     0.210 C 
ENDBRANCH  30  34
BRANCH  31  36
HETATM   36  O7  UNL     1      19.906  -3.794 -19.876  1.00  0.00    -0.358 OA
ATOM     37  H7  UNL     1      20.489  -3.780 -19.126  1.00  0.00     0.217 HD
ENDBRANCH  31  36
ENDBRANCH  21  28
ENDBRANCH  19  20
ENDBRANCH  18  19
ENDBRANCH   1  18
BRANCH  15  38
HETATM   38  O6  UNL     1      14.955   0.961 -18.734  1.00  0.00    -0.385 OA
ATOM     39  H6  UNL     1      14.708   0.309 -18.088  1.00  0.00     0.211 HD
ENDBRANCH  15  38
BRANCH   8  40
HETATM   40  O3  UNL     1      17.248   6.451 -15.959  1.00  0.00    -0.378 OA
HETATM   41  C16 UNL     1      16.798   7.194 -16.976  1.00  0.00     0.203 C 
ENDBRANCH   8  40
BRANCH  12  42
HETATM   42  O5  UNL     1      12.903   4.723 -16.082  1.00  0.00    -0.385 OA
ATOM     43  H5  UNL     1      12.412   3.951 -16.337  1.00  0.00     0.211 HD
ENDBRANCH  12  42
BRANCH   9  44
HETATM   44  O4  UNL     1      16.303   7.252 -13.715  1.00  0.00    -0.387 OA
HETATM   45  C18 UNL     1      17.042   7.380 -12.566  1.00  0.00     0.202 C 
ENDBRANCH   9  44
TORSDOF 10
ENDMDL
MODEL 2
REMARK VINA RESULT: -8.456361122      0.921      1.466
REMARK  10 active torsions:
REMARK  status: ('A' for Active; 'I' for Inactive)
REMARK    1  A    between atoms: O1_2  and  C2_3 
REMARK    2  A    between atoms: C4_5  and  C5_6 
REMARK    3  A    between atoms: C6_7  and  O2_8 
REMARK    4  A    between atoms: O2_8  and  C7_9 
REMARK    5  A    between atoms: C7_9  and  C8_10 
REMARK    6  A    between atoms: C15_17  and  O3_18 
REMARK    7  A    between atoms: C17_20  and  O4_21 
REMARK    8  A    between atoms: C21_25  and  O5_26 
REMARK    9  A    between atoms: C24_30  and  O6_31 
REMARK   10  A    between atoms: C33_43  and  O7_44 
ROOT
HETATM    1  C8  UNL     1      18.093   2.116 -18.599  1.00  0.00     0.001 A 
HETATM    2  C9  UNL     1      19.040   1.084 -18.027  1.00  0.00     0.014 A 
HETATM    3  C10 UNL     1      17.861   0.552 -17.248  1.00  0.00     0.015 A 
HETATM    4  C11 UNL     1      17.017   1.664 -17.842  1.00  0.00     0.012 A 
HETATM    5  C12 UNL     1      17.467   3.051 -17.607  1.00  0.00     0.032 A 
HETATM    6  C13 UNL     1      17.841   3.111 -16.171  1.00  0.00    -0.021 C 
HETATM    7  C14 UNL     1      17.346   4.025 -15.343  1.00  0.00     0.010 C 
HETATM    8  C15 UNL     1      16.386   5.099 -15.679  1.00  0.00     0.110 C 
HETATM    9  C17 UNL     1      15.889   5.733 -14.344  1.00  0.00     0.160 C 
HETATM   10  C19 UNL     1      14.496   5.294 -14.620  1.00  0.00     0.047 C 
HETATM   11  C20 UNL     1      15.020   4.870 -16.007  1.00  0.00     0.067 C 
HETATM   12  C21 UNL     1      14.363   3.647 -16.443  1.00  0.00     0.082 C 
HETATM   13  C22 UNL     1      14.641   2.374 -15.824  1.00  0.00     0.010 C 
HETATM   14  C23 UNL     1      15.184   1.366 -16.419  1.00  0.00     0.010 C 
HETATM   15  C24 UNL     1      15.586   1.438 -17.851  1.00  0.00     0.085 C 
HETATM   16  C25 UNL     1      14.693   2.350 -18.574  1.00  0.00     0.046 C 
HETATM   17  C26 UNL     1      14.267   3.610 -17.946  1.00  0.00     0.046 C 
ENDROOT
BRANCH   1  18
HETATM   18  C7  UNL     1      18.152   2.493 -20.051  1.00  0.00     0.187 C 
BRANCH  18  19
HETATM   19  O2  UNL     1      18.174   1.312 -20.822  1.00  0.00    -0.348 OA
BRANCH  19  20
HETATM   20  C6  UNL     1      18.343   1.290 -22.210  1.00  0.00     0.099 A 
HETATM   21  C5  UNL     1      19.015   0.358 -22.888  1.00  0.00    -0.004 A 
HETATM   22  C29 UNL     1      18.952   0.726 -24.321  1.00  0.00     0.065 A 
HETATM   23  C28 UNL     1      18.158   1.962 -24.343  1.00  0.00     0.044 A 
HETATM   24  C30 UNL     1      18.323  -0.342 -25.195  1.00  0.00     0.021 C 
HETATM   25  C27 UNL     1      17.806   2.293 -23.121  1.00  0.00     0.086 A 
HETATM   26 CL2  UNL     1      17.766   2.839 -25.833  1.00  0.00    -0.086 Cl
HETATM   27 CL1  UNL     1      16.842   3.716 -22.724  1.00  0.00    -0.080 Cl
BRANCH  21  28
HETATM   28  C4  UNL     1      19.694  -0.801 -22.293  1.00  0.00    -0.024 A 
HETATM   29  C3  UNL     1      19.064  -1.784 -21.575  1.00  0.00     0.051 A 
HETATM   30  C2  UNL     1      19.742  -2.878 -21.056  1.00  0.00     0.102 A 
HETATM   31  C33 UNL     1      21.082  -2.998 -21.256  1.00  0.00     0.099 A 
HETATM   32  C32 UNL     1      21.752  -2.030 -21.973  1.00  0.00     0.040 A 
HETATM   33  C31 UNL     1      21.048  -0.943 -22.483  1.00  0.00     0.015 A 
BRANCH  30  34
HETATM   34  O1  UNL     1      19.090  -3.865 -20.331  1.00  0.00    -0.353 OA
HETATM   35  C1  UNL     1      18.334  -4.818 -21.040  1.00  0.00     0.210 C 
ENDBRANCH  30  34
BRANCH  31  36
HETATM   36  O7  UNL     1      21.799  -4.088 -20.748  1.00  0.00    -0.358 OA
ATOM     37  H7  UNL     1      22.500  -3.968 -20.118  1.00  0.00     0.217 HD
ENDBRANCH  31  36
ENDBRANCH  21  28
ENDBRANCH  19  20
ENDBRANCH  18  19
ENDBRANCH   1  18
BRANCH  15  38
HETATM   38  O6  UNL     1      15.379   0.142 -18.437  1.00  0.00    -0.385 OA
ATOM     39  H6  UNL     1      14.723  -0.295 -17.906  1.00  0.00     0.211 HD
ENDBRANCH  15  38
BRANCH   8  40
HETATM   40  O3  UNL     1      17.064   6.136 -16.356  1.00  0.00    -0.378 OA
HETATM   41  C16 UNL     1      16.491   6.676 -17.436  1.00  0.00     0.203 C 
ENDBRANCH   8  40
BRANCH  12  42
HETATM   42  O5  UNL     1      12.983   3.872 -16.040  1.00  0.00    -0.385 OA
ATOM     43  H5  UNL     1      13.082   4.312 -15.205  1.00  0.00     0.211 HD
ENDBRANCH  12  42
BRANCH   9  44
HETATM   44  O4  UNL     1      16.133   7.041 -14.145  1.00  0.00    -0.387 OA
HETATM   45  C18 UNL     1      15.064   7.841 -13.832  1.00  0.00     0.202 C 
ENDBRANCH   9  44
TORSDOF 10
ENDMDL
MODEL 3
REMARK VINA RESULT: -8.189072647      2.274      4.419
REMARK  10 active torsions:
REMARK  status: ('A' for Active; 'I' for Inactive)
REMARK    1  A    between atoms: O1_2  and  C2_3 
REMARK    2  A    between atoms: C4_5  and  C5_6 
REMARK    3  A    between atoms: C6_7  and  O2_8 
REMARK    4  A    between atoms: O2_8  and  C7_9 
REMARK    5  A    between atoms: C7_9  and  C8_10 
REMARK    6  A    between atoms: C15_17  and  O3_18 
REMARK    7  A    between atoms: C17_20  and  O4_21 
REMARK    8  A    between atoms: C21_25  and  O5_26 
REMARK    9  A    between atoms: C24_30  and  O6_31 
REMARK   10  A    between atoms: C33_43  and  O7_44 
ROOT
HETATM    1  C8  UNL     1      17.980   2.445 -18.122  1.00  0.00     0.001 A 
HETATM    2  C9  UNL     1      18.649   1.256 -17.467  1.00  0.00     0.014 A 
HETATM    3  C10 UNL     1      17.296   0.915 -16.891  1.00  0.00     0.015 A 
HETATM    4  C11 UNL     1      16.743   2.165 -17.550  1.00  0.00     0.012 A 
HETATM    5  C12 UNL     1      17.374   3.451 -17.189  1.00  0.00     0.032 A 
HETATM    6  C13 UNL     1      17.534   3.417 -15.713  1.00  0.00    -0.021 C 
HETATM    7  C14 UNL     1      17.077   4.384 -14.925  1.00  0.00     0.010 C 
HETATM    8  C15 UNL     1      16.367   5.612 -15.346  1.00  0.00     0.110 C 
HETATM    9  C17 UNL     1      15.785   6.292 -14.069  1.00  0.00     0.160 C 
HETATM   10  C19 UNL     1      14.397   6.100 -14.562  1.00  0.00     0.047 C 
HETATM   11  C20 UNL     1      15.046   5.622 -15.877  1.00  0.00     0.067 C 
HETATM   12  C21 UNL     1      14.271   4.537 -16.459  1.00  0.00     0.082 C 
HETATM   13  C22 UNL     1      14.241   3.223 -15.864  1.00  0.00     0.010 C 
HETATM   14  C23 UNL     1      14.694   2.150 -16.420  1.00  0.00     0.010 C 
HETATM   15  C24 UNL     1      15.312   2.184 -17.774  1.00  0.00     0.085 C 
HETATM   16  C25 UNL     1      14.699   3.248 -18.576  1.00  0.00     0.046 C 
HETATM   17  C26 UNL     1      14.396   4.548 -17.959  1.00  0.00     0.046 C 
ENDROOT
BRANCH   1  18
HETATM   18  C7  UNL     1      18.316   2.836 -19.532  1.00  0.00     0.187 C 
BRANCH  18  19
HETATM   19  O2  UNL     1      17.558   2.037 -20.414  1.00  0.00    -0.348 OA
BRANCH  19  20
HETATM   20  C6  UNL     1      18.032   1.568 -21.644  1.00  0.00     0.099 A 
HETATM   21  C5  UNL     1      17.925   2.214 -22.805  1.00  0.00    -0.004 A 
HETATM   22  C29 UNL     1      18.548   1.359 -23.842  1.00  0.00     0.065 A 
HETATM   23  C28 UNL     1      19.014   0.177 -23.105  1.00  0.00     0.044 A 
HETATM   24  C30 UNL     1      19.691   2.031 -24.577  1.00  0.00     0.021 C 
HETATM   25  C27 UNL     1      18.715   0.294 -21.831  1.00  0.00     0.086 A 
HETATM   26 CL2  UNL     1      19.851  -1.182 -23.876  1.00  0.00    -0.086 Cl
HETATM   27 CL1  UNL     1      19.108  -0.918 -20.610  1.00  0.00    -0.080 Cl
BRANCH  21  28
HETATM   28  C4  UNL     1      17.290   3.525 -22.993  1.00  0.00    -0.024 A 
HETATM   29  C3  UNL     1      17.239   4.198 -24.186  1.00  0.00     0.051 A 
HETATM   30  C2  UNL     1      16.601   5.423 -24.323  1.00  0.00     0.102 A 
HETATM   31  C33 UNL     1      15.999   5.995 -23.246  1.00  0.00     0.099 A 
HETATM   32  C32 UNL     1      16.028   5.349 -22.028  1.00  0.00     0.040 A 
HETATM   33  C31 UNL     1      16.675   4.121 -21.918  1.00  0.00     0.015 A 
BRANCH  30  34
HETATM   34  O1  UNL     1      16.559   6.092 -25.539  1.00  0.00    -0.353 OA
HETATM   35  C1  UNL     1      17.712   6.784 -25.955  1.00  0.00     0.210 C 
ENDBRANCH  30  34
BRANCH  31  36
HETATM   36  O7  UNL     1      15.347   7.230 -23.347  1.00  0.00    -0.358 OA
ATOM     37  H7  UNL     1      15.133   7.740 -22.575  1.00  0.00     0.217 HD
ENDBRANCH  31  36
ENDBRANCH  21  28
ENDBRANCH  19  20
ENDBRANCH  18  19
ENDBRANCH   1  18
BRANCH  15  38
HETATM   38  O6  UNL     1      14.986   0.953 -18.443  1.00  0.00    -0.385 OA
ATOM     39  H6  UNL     1      15.523   0.277 -18.045  1.00  0.00     0.211 HD
ENDBRANCH  15  38
BRANCH   8  40
HETATM   40  O3  UNL     1      17.298   6.533 -15.870  1.00  0.00    -0.378 OA
HETATM   41  C16 UNL     1      16.941   7.273 -16.925  1.00  0.00     0.203 C 
ENDBRANCH   8  40
BRANCH  12  42
HETATM   42  O5  UNL     1      12.901   4.983 -16.249  1.00  0.00    -0.385 OA
ATOM     43  H5  UNL     1      12.611   4.425 -15.537  1.00  0.00     0.211 HD
ENDBRANCH  12  42
BRANCH   9  44
HETATM   44  O4  UNL     1      16.208   7.536 -13.777  1.00  0.00    -0.387 OA
HETATM   45  C18 UNL     1      16.825   7.724 -12.567  1.00  0.00     0.202 C 
ENDBRANCH   9  44
TORSDOF 10
ENDMDL
MODEL 4
REMARK VINA RESULT: -7.969038945      2.298      4.350
REMARK  10 active torsions:
REMARK  status: ('A' for Active; 'I' for Inactive)
REMARK    1  A    between atoms: O1_2  and  C2_3 
REMARK    2  A    between atoms: C4_5  and  C5_6 
REMARK    3  A    between atoms: C6_7  and  O2_8 
REMARK    4  A    between atoms: O2_8  and  C7_9 
REMARK    5  A    between atoms: C7_9  and  C8_10 
REMARK    6  A    between atoms: C15_17  and  O3_18 
REMARK    7  A    between atoms: C17_20  and  O4_21 
REMARK    8  A    between atoms: C21_25  and  O5_26 
REMARK    9  A    between atoms: C24_30  and  O6_31 
REMARK   10  A    between atoms: C33_43  and  O7_44 
ROOT
HETATM    1  C8  UNL     1      18.136   2.416 -18.185  1.00  0.00     0.001 A 
HETATM    2  C9  UNL     1      19.005   1.379 -17.507  1.00  0.00     0.014 A 
HETATM    3  C10 UNL     1      17.752   0.897 -16.817  1.00  0.00     0.015 A 
HETATM    4  C11 UNL     1      16.989   2.010 -17.511  1.00  0.00     0.012 A 
HETATM    5  C12 UNL     1      17.453   3.392 -17.274  1.00  0.00     0.032 A 
HETATM    6  C13 UNL     1      17.706   3.485 -15.814  1.00  0.00    -0.021 C 
HETATM    7  C14 UNL     1      17.167   4.433 -15.056  1.00  0.00     0.010 C 
HETATM    8  C15 UNL     1      16.265   5.519 -15.500  1.00  0.00     0.110 C 
HETATM    9  C17 UNL     1      15.673   6.202 -14.230  1.00  0.00     0.160 C 
HETATM   10  C19 UNL     1      14.298   5.787 -14.611  1.00  0.00     0.047 C 
HETATM   11  C20 UNL     1      14.926   5.312 -15.937  1.00  0.00     0.067 C 
HETATM   12  C21 UNL     1      14.278   4.092 -16.395  1.00  0.00     0.082 C 
HETATM   13  C22 UNL     1      14.471   2.832 -15.721  1.00  0.00     0.010 C 
HETATM   14  C23 UNL     1      15.036   1.795 -16.240  1.00  0.00     0.010 C 
HETATM   15  C24 UNL     1      15.559   1.817 -17.634  1.00  0.00     0.085 C 
HETATM   16  C25 UNL     1      14.754   2.728 -18.455  1.00  0.00     0.046 C 
HETATM   17  C26 UNL     1      14.308   4.014 -17.898  1.00  0.00     0.046 C 
ENDROOT
BRANCH   1  18
HETATM   18  C7  UNL     1      18.327   2.749 -19.636  1.00  0.00     0.187 C 
BRANCH  18  19
HETATM   19  O2  UNL     1      17.565   1.848 -20.409  1.00  0.00    -0.348 OA
BRANCH  19  20
HETATM   20  C6  UNL     1      18.085   1.098 -21.470  1.00  0.00     0.099 A 
HETATM   21  C5  UNL     1      18.080   1.472 -22.749  1.00  0.00    -0.004 A 
HETATM   22  C29 UNL     1      18.716   0.384 -23.527  1.00  0.00     0.065 A 
HETATM   23  C28 UNL     1      19.074  -0.622 -22.518  1.00  0.00     0.044 A 
HETATM   24  C30 UNL     1      19.935   0.829 -24.311  1.00  0.00     0.021 C 
HETATM   25  C27 UNL     1      18.707  -0.212 -21.324  1.00  0.00     0.086 A 
HETATM   26 CL2  UNL     1      19.880  -2.150 -22.912  1.00  0.00    -0.086 Cl
HETATM   27 CL1  UNL     1      18.962  -1.136 -19.843  1.00  0.00    -0.080 Cl
BRANCH  21  28
HETATM   28  C4  UNL     1      17.529   2.733 -23.264  1.00  0.00    -0.024 A 
HETATM   29  C3  UNL     1      16.906   3.679 -22.493  1.00  0.00     0.051 A 
HETATM   30  C2  UNL     1      16.426   4.870 -23.020  1.00  0.00     0.102 A 
HETATM   31  C33 UNL     1      16.569   5.127 -24.348  1.00  0.00     0.099 A 
HETATM   32  C32 UNL     1      17.190   4.200 -25.157  1.00  0.00     0.040 A 
HETATM   33  C31 UNL     1      17.662   3.013 -24.603  1.00  0.00     0.015 A 
BRANCH  30  34
HETATM   34  O1  UNL     1      15.798   5.819 -22.225  1.00  0.00    -0.353 OA
HETATM   35  C1  UNL     1      16.054   5.799 -20.841  1.00  0.00     0.210 C 
ENDBRANCH  30  34
BRANCH  31  36
HETATM   36  O7  UNL     1      16.097   6.318 -24.913  1.00  0.00    -0.358 OA
ATOM     37  H7  UNL     1      16.116   7.136 -24.430  1.00  0.00     0.217 HD
ENDBRANCH  31  36
ENDBRANCH  21  28
ENDBRANCH  19  20
ENDBRANCH  18  19
ENDBRANCH   1  18
BRANCH  15  38
HETATM   38  O6  UNL     1      15.370   0.509 -18.202  1.00  0.00    -0.385 OA
ATOM     39  H6  UNL     1      14.826   0.624 -18.973  1.00  0.00     0.211 HD
ENDBRANCH  15  38
BRANCH   8  40
HETATM   40  O3  UNL     1      17.024   6.520 -16.144  1.00  0.00    -0.378 OA
HETATM   41  C16 UNL     1      16.545   7.061 -17.270  1.00  0.00     0.203 C 
ENDBRANCH   8  40
BRANCH  12  42
HETATM   42  O5  UNL     1      12.875   4.360 -16.117  1.00  0.00    -0.385 OA
ATOM     43  H5  UNL     1      12.466   3.521 -16.296  1.00  0.00     0.211 HD
ENDBRANCH  12  42
BRANCH   9  44
HETATM   44  O4  UNL     1      15.933   7.509 -14.045  1.00  0.00    -0.387 OA
HETATM   45  C18 UNL     1      14.868   8.331 -13.776  1.00  0.00     0.202 C 
ENDBRANCH   9  44
TORSDOF 10
ENDMDL
MODEL 5
REMARK VINA RESULT: -7.952346812      1.579      1.880
REMARK  10 active torsions:
REMARK  status: ('A' for Active; 'I' for Inactive)
REMARK    1  A    between atoms: O1_2  and  C2_3 
REMARK    2  A    between atoms: C4_5  and  C5_6 
REMARK    3  A    between atoms: C6_7  and  O2_8 
REMARK    4  A    between atoms: O2_8  and  C7_9 
REMARK    5  A    between atoms: C7_9  and  C8_10 
REMARK    6  A    between atoms: C15_17  and  O3_18 
REMARK    7  A    between atoms: C17_20  and  O4_21 
REMARK    8  A    between atoms: C21_25  and  O5_26 
REMARK    9  A    between atoms: C24_30  and  O6_31 
REMARK   10  A    between atoms: C33_43  and  O7_44 
ROOT
HETATM    1  C8  UNL     1      17.527   1.449 -18.401  1.00  0.00     0.001 A 
HETATM    2  C9  UNL     1      18.667   0.844 -17.611  1.00  0.00     0.014 A 
HETATM    3  C10 UNL     1      17.739   0.853 -16.420  1.00  0.00     0.015 A 
HETATM    4  C11 UNL     1      16.687   1.509 -17.294  1.00  0.00     0.012 A 
HETATM    5  C12 UNL     1      17.047   2.791 -17.933  1.00  0.00     0.032 A 
HETATM    6  C13 UNL     1      17.716   3.591 -16.875  1.00  0.00    -0.021 C 
HETATM    7  C14 UNL     1      17.330   4.823 -16.562  1.00  0.00     0.010 C 
HETATM    8  C15 UNL     1      16.225   5.590 -17.178  1.00  0.00     0.110 C 
HETATM    9  C17 UNL     1      15.972   6.854 -16.301  1.00  0.00     0.160 C 
HETATM   10  C19 UNL     1      14.599   6.389 -15.974  1.00  0.00     0.047 C 
HETATM   11  C20 UNL     1      14.847   5.273 -17.009  1.00  0.00     0.067 C 
HETATM   12  C21 UNL     1      14.227   4.031 -16.572  1.00  0.00     0.082 C 
HETATM   13  C22 UNL     1      14.749   3.273 -15.462  1.00  0.00     0.010 C 
HETATM   14  C23 UNL     1      15.241   2.082 -15.546  1.00  0.00     0.010 C 
HETATM   15  C24 UNL     1      15.315   1.368 -16.850  1.00  0.00     0.085 C 
HETATM   16  C25 UNL     1      14.207   1.789 -17.714  1.00  0.00     0.046 C 
HETATM   17  C26 UNL     1      13.812   3.205 -17.761  1.00  0.00     0.046 C 
ENDROOT
BRANCH   1  18
HETATM   18  C7  UNL     1      17.236   0.995 -19.801  1.00  0.00     0.187 C 
BRANCH  18  19
HETATM   19  O2  UNL     1      18.359   0.295 -20.291  1.00  0.00    -0.348 OA
BRANCH  19  20
HETATM   20  C6  UNL     1      18.800   0.357 -21.617  1.00  0.00     0.099 A 
HETATM   21  C5  UNL     1      19.395  -0.637 -22.276  1.00  0.00    -0.004 A 
HETATM   22  C29 UNL     1      19.701  -0.140 -23.637  1.00  0.00     0.065 A 
HETATM   23  C28 UNL     1      19.193   1.238 -23.643  1.00  0.00     0.044 A 
HETATM   24  C30 UNL     1      19.062  -0.962 -24.741  1.00  0.00     0.021 C 
HETATM   25  C27 UNL     1      18.672   1.531 -22.472  1.00  0.00     0.086 A 
HETATM   26 CL2  UNL     1      19.298   2.307 -25.053  1.00  0.00    -0.086 Cl
HETATM   27 CL1  UNL     1      17.953   3.092 -22.075  1.00  0.00    -0.080 Cl
BRANCH  21  28
HETATM   28  C4  UNL     1      19.691  -1.965 -21.724  1.00  0.00    -0.024 A 
HETATM   29  C3  UNL     1      20.945  -2.516 -21.658  1.00  0.00     0.051 A 
HETATM   30  C2  UNL     1      21.180  -3.765 -21.100  1.00  0.00     0.102 A 
HETATM   31  C33 UNL     1      20.143  -4.486 -20.595  1.00  0.00     0.099 A 
HETATM   32  C32 UNL     1      18.867  -3.966 -20.642  1.00  0.00     0.040 A 
HETATM   33  C31 UNL     1      18.658  -2.711 -21.207  1.00  0.00     0.015 A 
BRANCH  30  34
HETATM   34  O1  UNL     1      22.456  -4.309 -21.041  1.00  0.00    -0.353 OA
HETATM   35  C1  UNL     1      22.913  -5.048 -22.148  1.00  0.00     0.210 C 
ENDBRANCH  30  34
BRANCH  31  36
HETATM   36  O7  UNL     1      20.344  -5.749 -20.024  1.00  0.00    -0.358 OA
ATOM     37  H7  UNL     1      19.797  -6.489 -20.258  1.00  0.00     0.217 HD
ENDBRANCH  31  36
ENDBRANCH  21  28
ENDBRANCH  19  20
ENDBRANCH  18  19
ENDBRANCH   1  18
BRANCH  15  38
HETATM   38  O6  UNL     1      15.107  -0.033 -16.603  1.00  0.00    -0.385 OA
ATOM     39  H6  UNL     1      14.389  -0.095 -15.982  1.00  0.00     0.211 HD
ENDBRANCH  15  38
BRANCH   8  40
HETATM   40  O3  UNL     1      16.642   6.082 -18.433  1.00  0.00    -0.378 OA
HETATM   41  C16 UNL     1      15.896   5.805 -19.508  1.00  0.00     0.203 C 
ENDBRANCH   8  40
BRANCH  12  42
HETATM   42  O5  UNL     1      12.952   4.488 -16.039  1.00  0.00    -0.385 OA
ATOM     43  H5  UNL     1      12.355   3.805 -16.322  1.00  0.00     0.211 HD
ENDBRANCH  12  42
BRANCH   9  44
HETATM   44  O4  UNL     1      16.131   8.058 -16.881  1.00  0.00    -0.387 OA
HETATM   45  C18 UNL     1      17.128   8.864 -16.394  1.00  0.00     0.202 C 
ENDBRANCH   9  44
TORSDOF 10
ENDMDL
