MODEL 1
REMARK VINA RESULT: -9.673881880      0.000      0.000
REMARK  9 active torsions:
REMARK  status: ('A' for Active; 'I' for Inactive)
REMARK    1  A    between atoms: C2_2  and  C3_3 
REMARK    2  A    between atoms: C4_5  and  N1_6 
REMARK    3  A    between atoms: N1_6  and  C5_8 
REMARK    4  A    between atoms: N3_14  and  C9_16 
REMARK    5  A    between atoms: N4_20  and  C12_21 
REMARK    6  A    between atoms: C15_24  and  C16_25 
REMARK       I    between atoms: C16_25  and  N5_27 
REMARK    7  A    between atoms: N5_27  and  C17_28 
REMARK    8  A    between atoms: C17_28  and  C18_29 
REMARK    9  A    between atoms: C18_29  and  C19_30 
ROOT
HETATM    1  C5  UNL     1      17.389   0.275 -18.687  1.00  0.00     0.109 A 
HETATM    2  C6  UNL     1      17.177   1.103 -19.753  1.00  0.00     0.081 A 
HETATM    3  C7  UNL     1      17.902   0.937 -20.931  1.00  0.00     0.081 A 
HETATM    4  N2  UNL     1      17.882   1.623 -22.087  1.00  0.00    -0.189 N 
ATOM      5  H2  UNL     1      17.281   2.421 -22.294  1.00  0.00     0.184 HD
HETATM    6  C8  UNL     1      18.795   1.079 -22.937  1.00  0.00     0.683 A 
HETATM    7  N3  UNL     1      19.013   1.547 -24.071  1.00  0.00    -0.204 N 
ATOM      8  H3  UNL     1      19.731   0.977 -24.517  1.00  0.00     0.179 HD
HETATM    9  N4  UNL     1      19.382   0.035 -22.279  1.00  0.00    -0.175 N 
HETATM   10  C25 UNL     1      18.844  -0.065 -21.037  1.00  0.00     0.095 A 
HETATM   11  C26 UNL     1      19.027  -0.874 -19.945  1.00  0.00     0.122 A 
HETATM   12  N8  UNL     1      18.302  -0.687 -18.801  1.00  0.00    -0.350 N 
ATOM     13  H8  UNL     1      18.465  -1.306 -18.009  1.00  0.00     0.166 HD
ENDROOT
BRANCH   9  14
HETATM   14  C12 UNL     1      20.388  -0.809 -22.801  1.00  0.00     0.108 C 
HETATM   15  C13 UNL     1      19.873  -1.964 -23.615  1.00  0.00     0.027 C 
HETATM   16  C14 UNL     1      19.353  -3.049 -22.647  1.00  0.00     0.017 C 
HETATM   17  C15 UNL     1      20.584  -3.832 -22.256  1.00  0.00     0.093 C 
HETATM   18  C23 UNL     1      21.722  -2.872 -22.226  1.00  0.00     0.017 C 
HETATM   19  C24 UNL     1      21.324  -1.454 -21.811  1.00  0.00     0.027 C 
BRANCH  17  20
HETATM   20  C16 UNL     1      20.388  -4.526 -20.907  1.00  0.00     0.295 C 
HETATM   21  O1  UNL     1      21.436  -4.527 -20.195  1.00  0.00    -0.257 OA
HETATM   22  N5  UNL     1      19.199  -5.046 -20.596  1.00  0.00    -0.387 NA
BRANCH  22  23
HETATM   23  C17 UNL     1      17.966  -5.587 -20.271  1.00  0.00     0.165 C 
BRANCH  23  24
HETATM   24  C18 UNL     1      17.804  -7.023 -20.743  1.00  0.00     0.116 C 
BRANCH  24  25
HETATM   25  C19 UNL     1      17.698  -7.917 -19.572  1.00  0.00     0.017 A 
HETATM   26  C20 UNL     1      17.174  -9.174 -19.659  1.00  0.00     0.042 A 
HETATM   27  C21 UNL     1      17.085 -10.006 -18.538  1.00  0.00     0.091 A 
HETATM   28  N6  UNL     1      17.530  -9.531 -17.379  1.00  0.00    -0.362 N 
HETATM   29  C22 UNL     1      18.047  -8.304 -17.265  1.00  0.00     0.180 A 
ATOM     30  H6  UNL     1      17.475 -10.122 -16.550  1.00  0.00     0.165 HD
HETATM   31  N7  UNL     1      18.132  -7.500 -18.353  1.00  0.00    -0.355 N 
ATOM     32  H7  UNL     1      18.529  -6.565 -18.256  1.00  0.00     0.166 HD
ENDBRANCH  24  25
ENDBRANCH  23  24
ENDBRANCH  22  23
ENDBRANCH  17  20
ENDBRANCH   9  14
BRANCH   7  33
HETATM   33  C9  UNL     1      18.655   2.536 -24.943  1.00  0.00     0.117 C 
HETATM   34  C10 UNL     1      19.655   3.028 -25.960  1.00  0.00     0.056 C 
HETATM   35  C11 UNL     1      17.379   2.220 -25.744  1.00  0.00     0.056 C 
HETATM   36 CL1  UNL     1      18.205   4.022 -23.990  1.00  0.00    -0.096 Cl
ENDBRANCH   7  33
BRANCH   1  37
HETATM   37  N1  UNL     1      16.701   0.474 -17.613  1.00  0.00    -0.323 N 
ATOM     38  H1  UNL     1      16.484  -0.315 -17.003  1.00  0.00     0.169 HD
BRANCH  37  39
HETATM   39  C4  UNL     1      16.234   1.792 -17.264  1.00  0.00     0.151 A 
HETATM   40  S1  UNL     1      14.645   2.446 -17.392  1.00  0.00    -0.055 SA
HETATM   41  C3  UNL     1      14.961   4.007 -16.779  1.00  0.00     0.024 A 
HETATM   42  C27 UNL     1      16.301   3.930 -16.507  1.00  0.00     0.118 A 
HETATM   43  N9  UNL     1      16.903   2.815 -16.760  1.00  0.00    -0.326 N 
HETATM   44 CL2  UNL     1      17.170   5.337 -15.824  1.00  0.00    -0.063 Cl
ATOM     45  H9  UNL     1      17.901   2.724 -16.569  1.00  0.00     0.169 HD
BRANCH  41  46
HETATM   46  C2  UNL     1      14.045   5.188 -16.575  1.00  0.00     0.045 C 
HETATM   47  C1  UNL     1      14.145   6.032 -17.813  1.00  0.00     0.010 C 
ENDBRANCH  41  46
ENDBRANCH  37  39
ENDBRANCH   1  37
TORSDOF 9
ENDMDL
MODEL 2
REMARK VINA RESULT: -9.430224303      3.877      8.872
REMARK  9 active torsions:
REMARK  status: ('A' for Active; 'I' for Inactive)
REMARK    1  A    between atoms: C2_2  and  C3_3 
REMARK    2  A    between atoms: C4_5  and  N1_6 
REMARK    3  A    between atoms: N1_6  and  C5_8 
REMARK    4  A    between atoms: N3_14  and  C9_16 
REMARK    5  A    between atoms: N4_20  and  C12_21 
REMARK    6  A    between atoms: C15_24  and  C16_25 
REMARK       I    between atoms: C16_25  and  N5_27 
REMARK    7  A    between atoms: N5_27  and  C17_28 
REMARK    8  A    between atoms: C17_28  and  C18_29 
REMARK    9  A    between atoms: C18_29  and  C19_30 
ROOT
HETATM    1  C5  UNL     1      18.227  -1.018 -19.933  1.00  0.00     0.109 A 
HETATM    2  C6  UNL     1      17.957  -0.380 -18.756  1.00  0.00     0.081 A 
HETATM    3  C7  UNL     1      17.709   0.991 -18.736  1.00  0.00     0.081 A 
HETATM    4  N2  UNL     1      17.441   1.828 -17.718  1.00  0.00    -0.189 N 
ATOM      5  H2  UNL     1      17.363   1.563 -16.737  1.00  0.00     0.184 HD
HETATM    6  C8  UNL     1      17.290   3.087 -18.213  1.00  0.00     0.683 A 
HETATM    7  N3  UNL     1      17.073   4.070 -17.479  1.00  0.00    -0.204 N 
ATOM      8  H3  UNL     1      16.997   4.897 -18.071  1.00  0.00     0.179 HD
HETATM    9  N4  UNL     1      17.469   3.009 -19.565  1.00  0.00    -0.175 N 
HETATM   10  C25 UNL     1      17.732   1.722 -19.905  1.00  0.00     0.095 A 
HETATM   11  C26 UNL     1      18.007   1.044 -21.065  1.00  0.00     0.122 A 
HETATM   12  N8  UNL     1      18.248  -0.301 -21.053  1.00  0.00    -0.350 N 
ATOM     13  H8  UNL     1      18.450  -0.772 -21.935  1.00  0.00     0.166 HD
ENDROOT
BRANCH   9  14
HETATM   14  C12 UNL     1      17.395   4.092 -20.470  1.00  0.00     0.108 C 
HETATM   15  C13 UNL     1      15.997   4.490 -20.854  1.00  0.00     0.027 C 
HETATM   16  C14 UNL     1      15.470   3.479 -21.895  1.00  0.00     0.017 C 
HETATM   17  C15 UNL     1      16.007   3.977 -23.216  1.00  0.00     0.093 C 
HETATM   18  C23 UNL     1      17.337   4.591 -22.944  1.00  0.00     0.017 C 
HETATM   19  C24 UNL     1      18.099   3.928 -21.794  1.00  0.00     0.027 C 
BRANCH  17  20
HETATM   20  C16 UNL     1      16.102   2.839 -24.234  1.00  0.00     0.295 C 
HETATM   21  O1  UNL     1      15.255   1.920 -24.028  1.00  0.00    -0.257 OA
HETATM   22  N5  UNL     1      17.015   2.894 -25.206  1.00  0.00    -0.387 NA
BRANCH  22  23
HETATM   23  C17 UNL     1      17.962   2.950 -26.216  1.00  0.00     0.165 C 
BRANCH  23  24
HETATM   24  C18 UNL     1      19.349   2.532 -25.753  1.00  0.00     0.116 C 
BRANCH  24  25
HETATM   25  C19 UNL     1      19.322   1.114 -25.339  1.00  0.00     0.017 A 
HETATM   26  C20 UNL     1      19.902   0.682 -24.182  1.00  0.00     0.042 A 
HETATM   27  C21 UNL     1      19.863  -0.665 -23.805  1.00  0.00     0.091 A 
HETATM   28  N6  UNL     1      19.240  -1.515 -24.615  1.00  0.00    -0.362 N 
HETATM   29  C22 UNL     1      18.664  -1.119 -25.754  1.00  0.00     0.180 A 
ATOM     30  H6  UNL     1      19.200  -2.502 -24.359  1.00  0.00     0.165 HD
HETATM   31  N7  UNL     1      18.703   0.187 -26.117  1.00  0.00    -0.355 N 
ATOM     32  H7  UNL     1      18.261   0.479 -26.987  1.00  0.00     0.166 HD
ENDBRANCH  24  25
ENDBRANCH  23  24
ENDBRANCH  22  23
ENDBRANCH  17  20
ENDBRANCH   9  14
BRANCH   7  33
HETATM   33  C9  UNL     1      16.897   4.460 -16.182  1.00  0.00     0.117 C 
HETATM   34  C10 UNL     1      17.980   4.177 -15.169  1.00  0.00     0.056 C 
HETATM   35  C11 UNL     1      16.571   5.955 -16.025  1.00  0.00     0.056 C 
HETATM   36 CL1  UNL     1      15.420   3.626 -15.515  1.00  0.00    -0.096 Cl
ENDBRANCH   7  33
BRANCH   1  37
HETATM   37  N1  UNL     1      18.460  -2.287 -19.900  1.00  0.00    -0.323 N 
ATOM     38  H1  UNL     1      17.799  -2.907 -19.432  1.00  0.00     0.169 HD
BRANCH  37  39
HETATM   39  C4  UNL     1      19.641  -2.841 -20.514  1.00  0.00     0.151 A 
HETATM   40  S1  UNL     1      20.085  -4.495 -20.711  1.00  0.00    -0.055 SA
HETATM   41  C3  UNL     1      21.573  -4.266 -21.514  1.00  0.00     0.024 A 
HETATM   42  C27 UNL     1      21.643  -2.900 -21.583  1.00  0.00     0.118 A 
HETATM   43  N9  UNL     1      20.666  -2.222 -21.076  1.00  0.00    -0.326 N 
HETATM   44 CL2  UNL     1      23.046  -2.100 -22.353  1.00  0.00    -0.063 Cl
ATOM     45  H9  UNL     1      20.685  -1.202 -21.111  1.00  0.00     0.169 HD
BRANCH  41  46
HETATM   46  C2  UNL     1      22.578  -5.267 -22.026  1.00  0.00     0.045 C 
HETATM   47  C1  UNL     1      22.379  -6.526 -21.231  1.00  0.00     0.010 C 
ENDBRANCH  41  46
ENDBRANCH  37  39
ENDBRANCH   1  37
TORSDOF 9
ENDMDL
MODEL 3
REMARK VINA RESULT: -9.337557868      4.165     10.998
REMARK  9 active torsions:
REMARK  status: ('A' for Active; 'I' for Inactive)
REMARK    1  A    between atoms: C2_2  and  C3_3 
REMARK    2  A    between atoms: C4_5  and  N1_6 
REMARK    3  A    between atoms: N1_6  and  C5_8 
REMARK    4  A    between atoms: N3_14  and  C9_16 
REMARK    5  A    between atoms: N4_20  and  C12_21 
REMARK    6  A    between atoms: C15_24  and  C16_25 
REMARK       I    between atoms: C16_25  and  N5_27 
REMARK    7  A    between atoms: N5_27  and  C17_28 
REMARK    8  A    between atoms: C17_28  and  C18_29 
REMARK    9  A    between atoms: C18_29  and  C19_30 
ROOT
HETATM    1  C5  UNL     1      19.843  -1.132 -22.516  1.00  0.00     0.109 A 
HETATM    2  C6  UNL     1      19.341  -1.004 -21.253  1.00  0.00     0.081 A 
HETATM    3  C7  UNL     1      18.582   0.112 -20.905  1.00  0.00     0.081 A 
HETATM    4  N2  UNL     1      18.005   0.463 -19.741  1.00  0.00    -0.189 N 
ATOM      5  H2  UNL     1      18.030  -0.081 -18.879  1.00  0.00     0.184 HD
HETATM    6  C8  UNL     1      17.383   1.662 -19.903  1.00  0.00     0.683 A 
HETATM    7  N3  UNL     1      16.798   2.242 -18.968  1.00  0.00    -0.204 N 
ATOM      8  H3  UNL     1      16.413   3.115 -19.329  1.00  0.00     0.179 HD
HETATM    9  N4  UNL     1      17.586   2.046 -21.199  1.00  0.00    -0.175 N 
HETATM   10  C25 UNL     1      18.328   1.101 -21.831  1.00  0.00     0.095 A 
HETATM   11  C26 UNL     1      18.851   0.935 -23.088  1.00  0.00     0.122 A 
HETATM   12  N8  UNL     1      19.592  -0.170 -23.400  1.00  0.00    -0.350 N 
ATOM     13  H8  UNL     1      19.966  -0.260 -24.345  1.00  0.00     0.166 HD
ENDROOT
BRANCH   9  14
HETATM   14  C12 UNL     1      17.105   3.235 -21.792  1.00  0.00     0.108 C 
HETATM   15  C13 UNL     1      15.857   3.062 -22.613  1.00  0.00     0.027 C 
HETATM   16  C14 UNL     1      16.249   2.447 -23.973  1.00  0.00     0.017 C 
HETATM   17  C15 UNL     1      16.677   3.626 -24.816  1.00  0.00     0.093 C 
HETATM   18  C23 UNL     1      17.314   4.610 -23.898  1.00  0.00     0.017 C 
HETATM   19  C24 UNL     1      18.045   3.970 -22.715  1.00  0.00     0.027 C 
BRANCH  17  20
HETATM   20  C16 UNL     1      17.628   3.187 -25.931  1.00  0.00     0.295 C 
HETATM   21  O1  UNL     1      17.351   2.040 -26.393  1.00  0.00    -0.257 OA
HETATM   22  N5  UNL     1      18.618   3.996 -26.314  1.00  0.00    -0.387 NA
BRANCH  22  23
HETATM   23  C17 UNL     1      19.646   4.834 -26.712  1.00  0.00     0.165 C 
BRANCH  23  24
HETATM   24  C18 UNL     1      19.233   6.296 -26.768  1.00  0.00     0.116 C 
BRANCH  24  25
HETATM   25  C19 UNL     1      19.911   6.956 -27.903  1.00  0.00     0.017 A 
HETATM   26  C20 UNL     1      21.063   6.466 -28.447  1.00  0.00     0.042 A 
HETATM   27  C21 UNL     1      21.688   7.104 -29.525  1.00  0.00     0.091 A 
HETATM   28  N6  UNL     1      21.122   8.208 -30.003  1.00  0.00    -0.362 N 
HETATM   29  C22 UNL     1      19.995   8.708 -29.488  1.00  0.00     0.180 A 
ATOM     30  H6  UNL     1      21.562   8.688 -30.788  1.00  0.00     0.165 HD
HETATM   31  N7  UNL     1      19.391   8.088 -28.444  1.00  0.00    -0.355 N 
ATOM     32  H7  UNL     1      18.531   8.478 -28.059  1.00  0.00     0.166 HD
ENDBRANCH  24  25
ENDBRANCH  23  24
ENDBRANCH  22  23
ENDBRANCH  17  20
ENDBRANCH   9  14
BRANCH   7  33
HETATM   33  C9  UNL     1      16.478   2.152 -17.644  1.00  0.00     0.117 C 
HETATM   34  C10 UNL     1      15.907   3.355 -16.934  1.00  0.00     0.056 C 
HETATM   35  C11 UNL     1      15.521   0.992 -17.318  1.00  0.00     0.056 C 
HETATM   36 CL1  UNL     1      17.985   1.741 -16.704  1.00  0.00    -0.096 Cl
ENDBRANCH   7  33
BRANCH   1  37
HETATM   37  N1  UNL     1      20.549  -2.178 -22.789  1.00  0.00    -0.323 N 
ATOM     38  H1  UNL     1      21.203  -2.152 -23.572  1.00  0.00     0.169 HD
BRANCH  37  39
HETATM   39  C4  UNL     1      20.427  -3.381 -22.005  1.00  0.00     0.151 A 
HETATM   40  S1  UNL     1      19.023  -4.053 -21.264  1.00  0.00    -0.055 SA
HETATM   41  C3  UNL     1      19.739  -5.435 -20.565  1.00  0.00     0.024 A 
HETATM   42  C27 UNL     1      21.046  -5.294 -20.951  1.00  0.00     0.118 A 
HETATM   43  N9  UNL     1      21.354  -4.262 -21.666  1.00  0.00    -0.326 N 
HETATM   44 CL2  UNL     1      22.270  -6.508 -20.473  1.00  0.00    -0.063 Cl
ATOM     45  H9  UNL     1      22.318  -4.126 -21.971  1.00  0.00     0.169 HD
BRANCH  41  46
HETATM   46  C2  UNL     1      19.138  -6.541 -19.735  1.00  0.00     0.045 C 
HETATM   47  C1  UNL     1      17.906  -7.003 -20.457  1.00  0.00     0.010 C 
ENDBRANCH  41  46
ENDBRANCH  37  39
ENDBRANCH   1  37
TORSDOF 9
ENDMDL
MODEL 4
REMARK VINA RESULT: -9.271730875      3.943     10.341
REMARK  9 active torsions:
REMARK  status: ('A' for Active; 'I' for Inactive)
REMARK    1  A    between atoms: C2_2  and  C3_3 
REMARK    2  A    between atoms: C4_5  and  N1_6 
REMARK    3  A    between atoms: N1_6  and  C5_8 
REMARK    4  A    between atoms: N3_14  and  C9_16 
REMARK    5  A    between atoms: N4_20  and  C12_21 
REMARK    6  A    between atoms: C15_24  and  C16_25 
REMARK       I    between atoms: C16_25  and  N5_27 
REMARK    7  A    between atoms: N5_27  and  C17_28 
REMARK    8  A    between atoms: C17_28  and  C18_29 
REMARK    9  A    between atoms: C18_29  and  C19_30 
ROOT
HETATM    1  C5  UNL     1      18.356  -1.197 -20.153  1.00  0.00     0.109 A 
HETATM    2  C6  UNL     1      18.011  -0.588 -18.980  1.00  0.00     0.081 A 
HETATM    3  C7  UNL     1      17.772   0.784 -18.941  1.00  0.00     0.081 A 
HETATM    4  N2  UNL     1      17.441   1.597 -17.922  1.00  0.00    -0.189 N 
ATOM      5  H2  UNL     1      17.295   1.307 -16.955  1.00  0.00     0.184 HD
HETATM    6  C8  UNL     1      17.333   2.870 -18.391  1.00  0.00     0.683 A 
HETATM    7  N3  UNL     1      17.073   3.835 -17.648  1.00  0.00    -0.204 N 
ATOM      8  H3  UNL     1      17.044   4.677 -18.222  1.00  0.00     0.179 HD
HETATM    9  N4  UNL     1      17.603   2.826 -19.730  1.00  0.00    -0.175 N 
HETATM   10  C25 UNL     1      17.879   1.545 -20.086  1.00  0.00     0.095 A 
HETATM   11  C26 UNL     1      18.228   0.896 -21.242  1.00  0.00     0.122 A 
HETATM   12  N8  UNL     1      18.458  -0.451 -21.250  1.00  0.00    -0.350 N 
ATOM     13  H8  UNL     1      18.716  -0.901 -22.128  1.00  0.00     0.166 HD
ENDROOT
BRANCH   9  14
HETATM   14  C12 UNL     1      17.598   3.932 -20.609  1.00  0.00     0.108 C 
HETATM   15  C13 UNL     1      16.228   4.431 -20.976  1.00  0.00     0.027 C 
HETATM   16  C14 UNL     1      15.631   3.483 -22.038  1.00  0.00     0.017 C 
HETATM   17  C15 UNL     1      16.195   3.976 -23.350  1.00  0.00     0.093 C 
HETATM   18  C23 UNL     1      17.564   4.493 -23.069  1.00  0.00     0.017 C 
HETATM   19  C24 UNL     1      18.285   3.754 -21.940  1.00  0.00     0.027 C 
BRANCH  17  20
HETATM   20  C16 UNL     1      16.211   2.859 -24.395  1.00  0.00     0.295 C 
HETATM   21  O1  UNL     1      15.260   2.034 -24.250  1.00  0.00    -0.257 OA
HETATM   22  N5  UNL     1      17.166   2.836 -25.326  1.00  0.00    -0.387 NA
BRANCH  22  23
HETATM   23  C17 UNL     1      18.157   2.811 -26.294  1.00  0.00     0.165 C 
BRANCH  23  24
HETATM   24  C18 UNL     1      19.383   3.623 -25.909  1.00  0.00     0.116 C 
BRANCH  24  25
HETATM   25  C19 UNL     1      19.220   5.014 -26.381  1.00  0.00     0.017 A 
HETATM   26  C20 UNL     1      20.061   5.576 -27.297  1.00  0.00     0.042 A 
HETATM   27  C21 UNL     1      19.887   6.894 -27.734  1.00  0.00     0.091 A 
HETATM   28  N6  UNL     1      18.872   7.585 -27.224  1.00  0.00    -0.362 N 
HETATM   29  C22 UNL     1      18.035   7.059 -26.325  1.00  0.00     0.180 A 
ATOM     30  H6  UNL     1      18.728   8.547 -27.529  1.00  0.00     0.165 HD
HETATM   31  N7  UNL     1      18.205   5.782 -25.904  1.00  0.00    -0.355 N 
ATOM     32  H7  UNL     1      17.561   5.390 -25.217  1.00  0.00     0.166 HD
ENDBRANCH  24  25
ENDBRANCH  23  24
ENDBRANCH  22  23
ENDBRANCH  17  20
ENDBRANCH   9  14
BRANCH   7  33
HETATM   33  C9  UNL     1      16.813   4.192 -16.355  1.00  0.00     0.117 C 
HETATM   34  C10 UNL     1      15.596   3.632 -15.661  1.00  0.00     0.056 C 
HETATM   35  C11 UNL     1      17.987   3.934 -15.395  1.00  0.00     0.056 C 
HETATM   36 CL1  UNL     1      16.587   5.999 -16.282  1.00  0.00    -0.096 Cl
ENDBRANCH   7  33
BRANCH   1  37
HETATM   37  N1  UNL     1      18.578  -2.469 -20.138  1.00  0.00    -0.323 N 
ATOM     38  H1  UNL     1      17.889  -3.094 -19.718  1.00  0.00     0.169 HD
BRANCH  37  39
HETATM   39  C4  UNL     1      19.783  -3.019 -20.706  1.00  0.00     0.151 A 
HETATM   40  S1  UNL     1      20.250  -4.670 -20.863  1.00  0.00    -0.055 SA
HETATM   41  C3  UNL     1      21.761  -4.437 -21.623  1.00  0.00     0.024 A 
HETATM   42  C27 UNL     1      21.817  -3.072 -21.712  1.00  0.00     0.118 A 
HETATM   43  N9  UNL     1      20.818  -2.396 -21.247  1.00  0.00    -0.326 N 
HETATM   44 CL2  UNL     1      23.235  -2.268 -22.450  1.00  0.00    -0.063 Cl
ATOM     45  H9  UNL     1      20.828  -1.377 -21.297  1.00  0.00     0.169 HD
BRANCH  41  46
HETATM   46  C2  UNL     1      22.792  -5.435 -22.087  1.00  0.00     0.045 C 
HETATM   47  C1  UNL     1      22.517  -6.715 -21.353  1.00  0.00     0.010 C 
ENDBRANCH  41  46
ENDBRANCH  37  39
ENDBRANCH   1  37
TORSDOF 9
ENDMDL
MODEL 5
REMARK VINA RESULT: -9.269232770      3.932      5.712
REMARK  9 active torsions:
REMARK  status: ('A' for Active; 'I' for Inactive)
REMARK    1  A    between atoms: C2_2  and  C3_3 
REMARK    2  A    between atoms: C4_5  and  N1_6 
REMARK    3  A    between atoms: N1_6  and  C5_8 
REMARK    4  A    between atoms: N3_14  and  C9_16 
REMARK    5  A    between atoms: N4_20  and  C12_21 
REMARK    6  A    between atoms: C15_24  and  C16_25 
REMARK       I    between atoms: C16_25  and  N5_27 
REMARK    7  A    between atoms: N5_27  and  C17_28 
REMARK    8  A    between atoms: C17_28  and  C18_29 
REMARK    9  A    between atoms: C18_29  and  C19_30 
ROOT
HETATM    1  C5  UNL     1      16.057   3.478 -21.393  1.00  0.00     0.109 A 
HETATM    2  C6  UNL     1      16.092   4.677 -22.047  1.00  0.00     0.081 A 
HETATM    3  C7  UNL     1      16.877   4.836 -23.187  1.00  0.00     0.081 A 
HETATM    4  N2  UNL     1      17.083   5.904 -23.978  1.00  0.00    -0.189 N 
ATOM      5  H2  UNL     1      16.656   6.823 -23.859  1.00  0.00     0.184 HD
HETATM    6  C8  UNL     1      17.955   5.559 -24.965  1.00  0.00     0.683 A 
HETATM    7  N3  UNL     1      18.353   6.374 -25.819  1.00  0.00    -0.204 N 
ATOM      8  H3  UNL     1      18.992   5.888 -26.446  1.00  0.00     0.179 HD
HETATM    9  N4  UNL     1      18.283   4.248 -24.767  1.00  0.00    -0.175 N 
HETATM   10  C25 UNL     1      17.628   3.786 -23.671  1.00  0.00     0.095 A 
HETATM   11  C26 UNL     1      17.566   2.600 -22.985  1.00  0.00     0.122 A 
HETATM   12  N8  UNL     1      16.788   2.474 -21.869  1.00  0.00    -0.350 N 
ATOM     13  H8  UNL     1      16.766   1.577 -21.384  1.00  0.00     0.166 HD
ENDROOT
BRANCH   9  14
HETATM   14  C12 UNL     1      19.163   3.488 -25.570  1.00  0.00     0.108 C 
HETATM   15  C13 UNL     1      18.495   2.731 -26.684  1.00  0.00     0.027 C 
HETATM   16  C14 UNL     1      17.825   1.475 -26.088  1.00  0.00     0.017 C 
HETATM   17  C15 UNL     1      18.932   0.450 -26.016  1.00  0.00     0.093 C 
HETATM   18  C23 UNL     1      20.194   1.190 -25.731  1.00  0.00     0.017 C 
HETATM   19  C24 UNL     1      19.996   2.441 -24.873  1.00  0.00     0.027 C 
BRANCH  17  20
HETATM   20  C16 UNL     1      18.636  -0.604 -24.947  1.00  0.00     0.295 C 
HETATM   21  O1  UNL     1      17.978  -1.589 -25.395  1.00  0.00    -0.257 OA
HETATM   22  N5  UNL     1      19.068  -0.421 -23.698  1.00  0.00    -0.387 NA
BRANCH  22  23
HETATM   23  C17 UNL     1      19.515  -0.232 -22.400  1.00  0.00     0.165 C 
BRANCH  23  24
HETATM   24  C18 UNL     1      19.427  -1.491 -21.553  1.00  0.00     0.116 C 
BRANCH  24  25
HETATM   25  C19 UNL     1      20.678  -2.264 -21.689  1.00  0.00     0.017 A 
HETATM   26  C20 UNL     1      20.775  -3.568 -21.300  1.00  0.00     0.042 A 
HETATM   27  C21 UNL     1      21.969  -4.285 -21.441  1.00  0.00     0.091 A 
HETATM   28  N6  UNL     1      23.012  -3.650 -21.967  1.00  0.00    -0.362 N 
HETATM   29  C22 UNL     1      22.945  -2.373 -22.356  1.00  0.00     0.180 A 
ATOM     30  H6  UNL     1      23.891  -4.154 -22.078  1.00  0.00     0.165 HD
HETATM   31  N7  UNL     1      21.786  -1.682 -22.219  1.00  0.00    -0.355 N 
ATOM     32  H7  UNL     1      21.745  -0.708 -22.518  1.00  0.00     0.166 HD
ENDBRANCH  24  25
ENDBRANCH  23  24
ENDBRANCH  22  23
ENDBRANCH  17  20
ENDBRANCH   9  14
BRANCH   7  33
HETATM   33  C9  UNL     1      18.256   7.672 -26.233  1.00  0.00     0.117 C 
HETATM   34  C10 UNL     1      16.953   8.174 -26.805  1.00  0.00     0.056 C 
HETATM   35  C11 UNL     1      18.650   8.696 -25.153  1.00  0.00     0.056 C 
HETATM   36 CL1  UNL     1      19.475   7.956 -27.558  1.00  0.00    -0.096 Cl
ENDBRANCH   7  33
BRANCH   1  37
HETATM   37  N1  UNL     1      15.324   3.381 -20.335  1.00  0.00    -0.323 N 
ATOM     38  H1  UNL     1      14.411   3.837 -20.314  1.00  0.00     0.169 HD
BRANCH  37  39
HETATM   39  C4  UNL     1      15.774   2.639 -19.185  1.00  0.00     0.151 A 
HETATM   40  S1  UNL     1      17.384   2.381 -18.625  1.00  0.00    -0.055 SA
HETATM   41  C3  UNL     1      17.028   1.435 -17.250  1.00  0.00     0.024 A 
HETATM   42  C27 UNL     1      15.661   1.372 -17.305  1.00  0.00     0.118 A 
HETATM   43  N9  UNL     1      15.069   1.981 -18.279  1.00  0.00    -0.326 N 
HETATM   44 CL2  UNL     1      14.743   0.473 -16.060  1.00  0.00    -0.063 Cl
ATOM     45  H9  UNL     1      14.051   1.955 -18.350  1.00  0.00     0.169 HD
BRANCH  41  46
HETATM   46  C2  UNL     1      17.939   0.812 -16.223  1.00  0.00     0.045 C 
HETATM   47  C1  UNL     1      19.084   0.198 -16.975  1.00  0.00     0.010 C 
ENDBRANCH  41  46
ENDBRANCH  37  39
ENDBRANCH   1  37
TORSDOF 9
ENDMDL
