MODEL 1
REMARK VINA RESULT: -4.114355926      0.000      0.000
REMARK  5 active torsions:
REMARK  status: ('A' for Active; 'I' for Inactive)
REMARK    1  A    between atoms: O1_2  and  C2_3 
REMARK    2  A    between atoms: C5_6  and  C6_7 
REMARK    3  A    between atoms: C8_9  and  N1_10 
REMARK    4  A    between atoms: N1_10  and  C9_12 
REMARK       I    between atoms: N2_15  and  C12_16 
REMARK    5  A    between atoms: C12_16  and  C13_18 
ROOT
HETATM    1  C6  UNL     1      26.433   1.298 -10.646  1.00  0.00     0.022 A 
HETATM    2  C7  UNL     1      25.749   0.160 -10.841  1.00  0.00     0.064 A 
HETATM    3  C8  UNL     1      24.798   0.170 -11.827  1.00  0.00     0.088 A 
HETATM    4  S1  UNL     1      24.914   1.764 -12.420  1.00  0.00     0.003 SA
HETATM    5  N3  UNL     1      26.137   2.341 -11.419  1.00  0.00    -0.328 N 
ATOM      6  H3  UNL     1      26.553   3.273 -11.407  1.00  0.00     0.174 HD
ENDROOT
BRANCH   3   7
HETATM    7  N1  UNL     1      24.008  -0.807 -12.203  1.00  0.00    -0.378 N 
ATOM      8  H1  UNL     1      24.352  -1.613 -12.725  1.00  0.00     0.160 HD
BRANCH   7   9
HETATM    9  C9  UNL     1      22.618  -0.668 -11.828  1.00  0.00     0.085 C 
HETATM   10  C10 UNL     1      21.903  -2.000 -11.761  1.00  0.00     0.045 C 
HETATM   11  C11 UNL     1      20.406  -1.673 -11.829  1.00  0.00     0.128 C 
HETATM   12  N2  UNL     1      20.120  -0.853 -10.662  1.00  0.00    -0.344 N 
HETATM   13  C12 UNL     1      19.022  -1.161  -9.822  1.00  0.00     0.327 C 
HETATM   14  C14 UNL     1      20.947   0.291 -10.333  1.00  0.00     0.128 C 
HETATM   15  O2  UNL     1      18.818  -0.409  -8.818  1.00  0.00    -0.263 OA
HETATM   16  C15 UNL     1      22.424   0.022 -10.522  1.00  0.00     0.045 C 
BRANCH  13  17
HETATM   17  C13 UNL     1      18.111  -2.290 -10.039  1.00  0.00     0.472 C 
HETATM   18  F1  UNL     1      18.843  -3.476  -9.900  1.00  0.00    -0.162 F 
HETATM   19  F2  UNL     1      17.620  -2.345 -11.352  1.00  0.00    -0.162 F 
HETATM   20  F3  UNL     1      17.090  -2.355  -9.108  1.00  0.00    -0.162 F 
ENDBRANCH  13  17
ENDBRANCH   7   9
ENDBRANCH   3   7
BRANCH   1  21
HETATM   21  C5  UNL     1      27.516   1.437  -9.592  1.00  0.00     0.036 C 
HETATM   22  C4  UNL     1      26.940   1.742  -8.250  1.00  0.00     0.013 C 
HETATM   23  C3  UNL     1      27.098   0.638  -7.249  1.00  0.00     0.032 C 
HETATM   24  C2  UNL     1      28.529   0.235  -7.105  1.00  0.00     0.120 C 
HETATM   25  C17 UNL     1      29.292   0.238  -8.405  1.00  0.00     0.032 C 
HETATM   26  C16 UNL     1      28.278   0.132  -9.522  1.00  0.00     0.013 C 
BRANCH  24  27
HETATM   27  O1  UNL     1      28.686  -1.017  -6.526  1.00  0.00    -0.391 OA
HETATM   28  C1  UNL     1      27.996  -2.010  -7.207  1.00  0.00     0.202 C 
ENDBRANCH  24  27
ENDBRANCH   1  21
TORSDOF 5
ENDMDL
MODEL 2
REMARK VINA RESULT: -3.363567526      1.382      1.725
REMARK  5 active torsions:
REMARK  status: ('A' for Active; 'I' for Inactive)
REMARK    1  A    between atoms: O1_2  and  C2_3 
REMARK    2  A    between atoms: C5_6  and  C6_7 
REMARK    3  A    between atoms: C8_9  and  N1_10 
REMARK    4  A    between atoms: N1_10  and  C9_12 
REMARK       I    between atoms: N2_15  and  C12_16 
REMARK    5  A    between atoms: C12_16  and  C13_18 
ROOT
HETATM    1  C6  UNL     1      27.132   0.862 -11.345  1.00  0.00     0.022 A 
HETATM    2  C7  UNL     1      25.790   0.907 -11.367  1.00  0.00     0.064 A 
HETATM    3  C8  UNL     1      25.184   0.720 -12.581  1.00  0.00     0.088 A 
HETATM    4  S1  UNL     1      26.519   0.495 -13.617  1.00  0.00     0.003 SA
HETATM    5  N3  UNL     1      27.764   0.642 -12.496  1.00  0.00    -0.328 N 
ATOM      6  H3  UNL     1      28.769   0.577 -12.659  1.00  0.00     0.174 HD
ENDROOT
BRANCH   3   7
HETATM    7  N1  UNL     1      23.901   0.720 -12.857  1.00  0.00    -0.378 N 
ATOM      8  H1  UNL     1      23.536   1.072 -13.741  1.00  0.00     0.160 HD
BRANCH   7   9
HETATM    9  C9  UNL     1      23.040   0.186 -11.824  1.00  0.00     0.085 C 
HETATM   10  C10 UNL     1      21.578   0.473 -12.088  1.00  0.00     0.045 C 
HETATM   11  C11 UNL     1      20.868   0.288 -10.740  1.00  0.00     0.128 C 
HETATM   12  N2  UNL     1      21.080  -1.100 -10.362  1.00  0.00    -0.344 N 
HETATM   13  C12 UNL     1      19.991  -1.903  -9.943  1.00  0.00     0.327 C 
HETATM   14  C14 UNL     1      22.403  -1.691 -10.404  1.00  0.00     0.128 C 
HETATM   15  O2  UNL     1      20.235  -3.108  -9.621  1.00  0.00    -0.263 OA
HETATM   16  C15 UNL     1      23.190  -1.284 -11.630  1.00  0.00     0.045 C 
BRANCH  13  17
HETATM   17  C13 UNL     1      18.605  -1.430  -9.860  1.00  0.00     0.472 C 
HETATM   18  F1  UNL     1      18.347  -0.630 -10.981  1.00  0.00    -0.162 F 
HETATM   19  F2  UNL     1      18.390  -0.572  -8.772  1.00  0.00    -0.162 F 
HETATM   20  F3  UNL     1      17.675  -2.455  -9.895  1.00  0.00    -0.162 F 
ENDBRANCH  13  17
ENDBRANCH   7   9
ENDBRANCH   3   7
BRANCH   1  21
HETATM   21  C5  UNL     1      27.940   1.052 -10.075  1.00  0.00     0.036 C 
HETATM   22  C4  UNL     1      27.092   1.551  -8.953  1.00  0.00     0.013 C 
HETATM   23  C3  UNL     1      26.903   0.564  -7.841  1.00  0.00     0.032 C 
HETATM   24  C2  UNL     1      28.215   0.087  -7.310  1.00  0.00     0.120 C 
HETATM   25  C17 UNL     1      29.263  -0.115  -8.374  1.00  0.00     0.032 C 
HETATM   26  C16 UNL     1      28.538  -0.284  -9.692  1.00  0.00     0.013 C 
BRANCH  24  27
HETATM   27  O1  UNL     1      28.112  -1.096  -6.589  1.00  0.00    -0.391 OA
HETATM   28  C1  UNL     1      27.399  -2.074  -7.269  1.00  0.00     0.202 C 
ENDBRANCH  24  27
ENDBRANCH   1  21
TORSDOF 5
ENDMDL
MODEL 3
REMARK VINA RESULT: -3.227039347      1.512      2.022
REMARK  5 active torsions:
REMARK  status: ('A' for Active; 'I' for Inactive)
REMARK    1  A    between atoms: O1_2  and  C2_3 
REMARK    2  A    between atoms: C5_6  and  C6_7 
REMARK    3  A    between atoms: C8_9  and  N1_10 
REMARK    4  A    between atoms: N1_10  and  C9_12 
REMARK       I    between atoms: N2_15  and  C12_16 
REMARK    5  A    between atoms: C12_16  and  C13_18 
ROOT
HETATM    1  C6  UNL     1      26.919   0.411 -11.496  1.00  0.00     0.022 A 
HETATM    2  C7  UNL     1      25.704   0.712 -11.010  1.00  0.00     0.064 A 
HETATM    3  C8  UNL     1      24.754   1.105 -11.915  1.00  0.00     0.088 A 
HETATM    4  S1  UNL     1      25.611   1.034 -13.387  1.00  0.00     0.003 SA
HETATM    5  N3  UNL     1      27.105   0.519 -12.810  1.00  0.00    -0.328 N 
ATOM      6  H3  UNL     1      27.955   0.332 -13.343  1.00  0.00     0.174 HD
ENDROOT
BRANCH   3   7
HETATM    7  N1  UNL     1      23.508   1.447 -11.688  1.00  0.00    -0.378 N 
ATOM      8  H1  UNL     1      23.178   2.404 -11.803  1.00  0.00     0.160 HD
BRANCH   7   9
HETATM    9  C9  UNL     1      22.633   0.376 -11.263  1.00  0.00     0.085 C 
HETATM   10  C10 UNL     1      21.173   0.763 -11.330  1.00  0.00     0.045 C 
HETATM   11  C11 UNL     1      20.434  -0.241 -10.436  1.00  0.00     0.128 C 
HETATM   12  N2  UNL     1      20.666  -1.550 -11.025  1.00  0.00    -0.344 N 
HETATM   13  C12 UNL     1      19.584  -2.436 -11.253  1.00  0.00     0.327 C 
HETATM   14  C14 UNL     1      22.002  -1.977 -11.392  1.00  0.00     0.128 C 
HETATM   15  O2  UNL     1      19.847  -3.568 -11.767  1.00  0.00    -0.263 OA
HETATM   16  C15 UNL     1      22.811  -0.879 -12.048  1.00  0.00     0.045 C 
BRANCH  13  17
HETATM   17  C13 UNL     1      18.187  -2.127 -10.932  1.00  0.00     0.472 C 
HETATM   18  F1  UNL     1      18.019  -0.738 -11.002  1.00  0.00    -0.162 F 
HETATM   19  F2  UNL     1      17.852  -2.444  -9.607  1.00  0.00    -0.162 F 
HETATM   20  F3  UNL     1      17.287  -2.671 -11.831  1.00  0.00    -0.162 F 
ENDBRANCH  13  17
ENDBRANCH   7   9
ENDBRANCH   3   7
BRANCH   1  21
HETATM   21  C5  UNL     1      28.069  -0.038 -10.615  1.00  0.00     0.036 C 
HETATM   22  C4  UNL     1      28.381   0.971  -9.561  1.00  0.00     0.013 C 
HETATM   23  C3  UNL     1      28.069   0.518  -8.167  1.00  0.00     0.032 C 
HETATM   24  C2  UNL     1      28.751  -0.772  -7.849  1.00  0.00     0.120 C 
HETATM   25  C17 UNL     1      28.785  -1.740  -9.004  1.00  0.00     0.032 C 
HETATM   26  C16 UNL     1      27.678  -1.343  -9.956  1.00  0.00     0.013 C 
BRANCH  24  27
HETATM   27  O1  UNL     1      28.190  -1.431  -6.762  1.00  0.00    -0.391 OA
HETATM   28  C1  UNL     1      27.713  -2.692  -7.092  1.00  0.00     0.202 C 
ENDBRANCH  24  27
ENDBRANCH   1  21
TORSDOF 5
ENDMDL
MODEL 4
REMARK VINA RESULT: -2.425261033      1.816      2.206
REMARK  5 active torsions:
REMARK  status: ('A' for Active; 'I' for Inactive)
REMARK    1  A    between atoms: O1_2  and  C2_3 
REMARK    2  A    between atoms: C5_6  and  C6_7 
REMARK    3  A    between atoms: C8_9  and  N1_10 
REMARK    4  A    between atoms: N1_10  and  C9_12 
REMARK       I    between atoms: N2_15  and  C12_16 
REMARK    5  A    between atoms: C12_16  and  C13_18 
ROOT
HETATM    1  C6  UNL     1      26.773   0.924 -11.363  1.00  0.00     0.022 A 
HETATM    2  C7  UNL     1      25.850  -0.040 -11.220  1.00  0.00     0.064 A 
HETATM    3  C8  UNL     1      25.006  -0.251 -12.279  1.00  0.00     0.088 A 
HETATM    4  S1  UNL     1      25.550   0.906 -13.407  1.00  0.00     0.003 SA
HETATM    5  N3  UNL     1      26.798   1.595 -12.512  1.00  0.00    -0.328 N 
ATOM      6  H3  UNL     1      27.426   2.350 -12.787  1.00  0.00     0.174 HD
ENDROOT
BRANCH   3   7
HETATM    7  N1  UNL     1      24.033  -1.125 -12.379  1.00  0.00    -0.378 N 
ATOM      8  H1  UNL     1      24.051  -1.882 -13.062  1.00  0.00     0.160 HD
BRANCH   7   9
HETATM    9  C9  UNL     1      22.932  -0.945 -11.458  1.00  0.00     0.085 C 
HETATM   10  C10 UNL     1      22.379   0.462 -11.489  1.00  0.00     0.045 C 
HETATM   11  C11 UNL     1      21.588   0.628 -10.184  1.00  0.00     0.128 C 
HETATM   12  N2  UNL     1      20.526  -0.365 -10.230  1.00  0.00    -0.344 N 
HETATM   13  C12 UNL     1      19.188   0.005  -9.949  1.00  0.00     0.327 C 
HETATM   14  C14 UNL     1      20.810  -1.747 -10.562  1.00  0.00     0.128 C 
HETATM   15  O2  UNL     1      18.302  -0.905 -10.000  1.00  0.00    -0.263 OA
HETATM   16  C15 UNL     1      21.802  -1.887 -11.697  1.00  0.00     0.045 C 
BRANCH  13  17
HETATM   17  C13 UNL     1      18.766   1.366  -9.603  1.00  0.00     0.472 C 
HETATM   18  F1  UNL     1      17.573   1.641 -10.285  1.00  0.00    -0.162 F 
HETATM   19  F2  UNL     1      19.657   2.344 -10.068  1.00  0.00    -0.162 F 
HETATM   20  F3  UNL     1      18.486   1.526  -8.257  1.00  0.00    -0.162 F 
ENDBRANCH  13  17
ENDBRANCH   7   9
ENDBRANCH   3   7
BRANCH   1  21
HETATM   21  C5  UNL     1      27.774   1.270 -10.277  1.00  0.00     0.036 C 
HETATM   22  C4  UNL     1      27.123   1.972  -9.132  1.00  0.00     0.013 C 
HETATM   23  C3  UNL     1      27.092   1.177  -7.862  1.00  0.00     0.032 C 
HETATM   24  C2  UNL     1      28.461   0.730  -7.468  1.00  0.00     0.120 C 
HETATM   25  C17 UNL     1      29.325   0.322  -8.633  1.00  0.00     0.032 C 
HETATM   26  C16 UNL     1      28.400  -0.015  -9.782  1.00  0.00     0.013 C 
BRANCH  24  27
HETATM   27  O1  UNL     1      28.450  -0.322  -6.561  1.00  0.00    -0.391 OA
HETATM   28  C1  UNL     1      27.783  -1.438  -7.049  1.00  0.00     0.202 C 
ENDBRANCH  24  27
ENDBRANCH   1  21
TORSDOF 5
ENDMDL
MODEL 5
REMARK VINA RESULT: -1.879394929      1.714      2.245
REMARK  5 active torsions:
REMARK  status: ('A' for Active; 'I' for Inactive)
REMARK    1  A    between atoms: O1_2  and  C2_3 
REMARK    2  A    between atoms: C5_6  and  C6_7 
REMARK    3  A    between atoms: C8_9  and  N1_10 
REMARK    4  A    between atoms: N1_10  and  C9_12 
REMARK       I    between atoms: N2_15  and  C12_16 
REMARK    5  A    between atoms: C12_16  and  C13_18 
ROOT
HETATM    1  C6  UNL     1      26.005   0.121 -11.284  1.00  0.00     0.022 A 
HETATM    2  C7  UNL     1      24.941   0.314 -10.489  1.00  0.00     0.064 A 
HETATM    3  C8  UNL     1      23.794   0.764 -11.088  1.00  0.00     0.088 A 
HETATM    4  S1  UNL     1      24.268   0.891 -12.721  1.00  0.00     0.003 SA
HETATM    5  N3  UNL     1      25.865   0.380 -12.583  1.00  0.00    -0.328 N 
ATOM      6  H3  UNL     1      26.563   0.289 -13.322  1.00  0.00     0.174 HD
ENDROOT
BRANCH   3   7
HETATM    7  N1  UNL     1      22.636   1.026 -10.530  1.00  0.00    -0.378 N 
ATOM      8  H1  UNL     1      22.419   1.939 -10.132  1.00  0.00     0.160 HD
BRANCH   7   9
HETATM    9  C9  UNL     1      21.687  -0.066 -10.516  1.00  0.00     0.085 C 
HETATM   10  C10 UNL     1      20.322   0.351 -11.018  1.00  0.00     0.045 C 
HETATM   11  C11 UNL     1      19.347  -0.721 -10.512  1.00  0.00     0.128 C 
HETATM   12  N2  UNL     1      19.779  -1.972 -11.115  1.00  0.00    -0.344 N 
HETATM   13  C12 UNL     1      18.844  -2.815 -11.764  1.00  0.00     0.327 C 
HETATM   14  C14 UNL     1      21.168  -2.385 -11.065  1.00  0.00     0.128 C 
HETATM   15  O2  UNL     1      19.276  -3.898 -12.269  1.00  0.00    -0.263 OA
HETATM   16  C15 UNL     1      22.129  -1.243 -11.316  1.00  0.00     0.045 C 
BRANCH  13  17
HETATM   17  C13 UNL     1      17.413  -2.515 -11.888  1.00  0.00     0.472 C 
HETATM   18  F1  UNL     1      16.870  -3.365 -12.860  1.00  0.00    -0.162 F 
HETATM   19  F2  UNL     1      17.171  -1.227 -12.388  1.00  0.00    -0.162 F 
HETATM   20  F3  UNL     1      16.703  -2.755 -10.725  1.00  0.00    -0.162 F 
ENDBRANCH  13  17
ENDBRANCH   7   9
ENDBRANCH   3   7
BRANCH   1  21
HETATM   21  C5  UNL     1      27.341  -0.374 -10.764  1.00  0.00     0.036 C 
HETATM   22  C4  UNL     1      28.239   0.758 -10.388  1.00  0.00     0.013 C 
HETATM   23  C3  UNL     1      28.509   0.865  -8.918  1.00  0.00     0.032 C 
HETATM   24  C2  UNL     1      29.052  -0.414  -8.371  1.00  0.00     0.120 C 
HETATM   25  C17 UNL     1      28.423  -1.645  -8.969  1.00  0.00     0.032 C 
HETATM   26  C16 UNL     1      27.086  -1.232  -9.544  1.00  0.00     0.013 C 
BRANCH  24  27
HETATM   27  O1  UNL     1      28.934  -0.508  -6.990  1.00  0.00    -0.391 OA
HETATM   28  C1  UNL     1      27.723  -0.017  -6.524  1.00  0.00     0.202 C 
ENDBRANCH  24  27
ENDBRANCH   1  21
TORSDOF 5
ENDMDL
