MODEL 1
REMARK VINA RESULT: -5.694250498      0.000      0.000
REMARK  6 active torsions:
REMARK  status: ('A' for Active; 'I' for Inactive)
REMARK    1  A    between atoms: C2_2  and  C4_4 
REMARK    2  A    between atoms: C7_7  and  O1_8 
REMARK    3  A    between atoms: C7_7  and  C8_10 
REMARK    4  A    between atoms: C9_12  and  C10_13 
REMARK    5  A    between atoms: C10_13  and  C11_14 
REMARK    6  A    between atoms: C12_17  and  O5_18 
ROOT
HETATM    1  C8  UNL     1      24.337  80.161  39.470  1.00  0.00     0.169 C 
HETATM    2  O2  UNL     1      23.516  81.041  38.822  1.00  0.00    -0.374 OA
HETATM    3  C9  UNL     1      22.177  80.932  38.980  1.00  0.00     0.161 C 
HETATM    4  C12 UNL     1      21.611  79.570  38.772  1.00  0.00     0.155 C 
HETATM    5  C14 UNL     1      22.604  78.469  38.719  1.00  0.00     0.033 A 
HETATM    6  C15 UNL     1      23.939  78.726  39.259  1.00  0.00     0.034 A 
HETATM    7  C16 UNL     1      23.720  78.345  37.790  1.00  0.00    -0.035 A 
HETATM    8  C17 UNL     1      24.074  79.316  36.722  1.00  0.00     0.016 C 
HETATM    9  C18 UNL     1      24.251  76.931  37.489  1.00  0.00     0.016 C 
ENDROOT
BRANCH   1  10
HETATM   10  C7  UNL     1      24.480  80.421  40.936  1.00  0.00     0.144 C 
HETATM   11  C6  UNL     1      24.721  79.189  41.748  1.00  0.00     0.049 C 
HETATM   12  C5  UNL     1      26.140  79.074  42.285  1.00  0.00     0.013 C 
HETATM   13  C4  UNL     1      26.565  80.167  43.188  1.00  0.00     0.020 C 
HETATM   14  C20 UNL     1      26.038  81.477  42.617  1.00  0.00     0.090 C 
HETATM   15  C19 UNL     1      25.690  81.304  41.191  1.00  0.00     0.164 C 
HETATM   16  O6  UNL     1      26.337  81.835  40.334  1.00  0.00    -0.295 OA
BRANCH  13  17
HETATM   17  C2  UNL     1      26.217  80.024  44.611  1.00  0.00    -0.089 C 
HETATM   18  C1  UNL     1      26.565  78.987  45.331  1.00  0.00     0.014 C 
HETATM   19  C3  UNL     1      25.422  81.113  45.259  1.00  0.00     0.043 C 
ENDBRANCH  13  17
BRANCH  10  20
HETATM   20  O1  UNL     1      23.351  81.078  41.486  1.00  0.00    -0.379 OA
ATOM     21  H1  UNL     1      22.577  80.681  41.105  1.00  0.00     0.211 HD
ENDBRANCH  10  20
ENDBRANCH   1  10
BRANCH   3  22
HETATM   22  C10 UNL     1      21.540  81.949  38.010  1.00  0.00     0.147 C 
BRANCH  22  23
HETATM   23  C11 UNL     1      21.211  83.200  38.733  1.00  0.00     0.175 C 
HETATM   24  O3  UNL     1      20.736  84.175  38.096  1.00  0.00    -0.648 OA
HETATM   25  O4  UNL     1      21.414  83.330  40.097  1.00  0.00    -0.648 OA
ENDBRANCH  22  23
ENDBRANCH   3  22
BRANCH   4  26
HETATM   26  O5  UNL     1      20.734  79.596  37.711  1.00  0.00    -0.388 OA
HETATM   27  C13 UNL     1      19.765  78.625  37.742  1.00  0.00     0.202 C 
ENDBRANCH   4  26
TORSDOF 6
ENDMDL
MODEL 2
REMARK VINA RESULT: -5.456522183      1.364      1.525
REMARK  6 active torsions:
REMARK  status: ('A' for Active; 'I' for Inactive)
REMARK    1  A    between atoms: C2_2  and  C4_4 
REMARK    2  A    between atoms: C7_7  and  O1_8 
REMARK    3  A    between atoms: C7_7  and  C8_10 
REMARK    4  A    between atoms: C9_12  and  C10_13 
REMARK    5  A    between atoms: C10_13  and  C11_14 
REMARK    6  A    between atoms: C12_17  and  O5_18 
ROOT
HETATM    1  C8  UNL     1      24.531  80.050  39.516  1.00  0.00     0.169 C 
HETATM    2  O2  UNL     1      24.386  81.158  38.731  1.00  0.00    -0.374 OA
HETATM    3  C9  UNL     1      23.180  81.767  38.667  1.00  0.00     0.161 C 
HETATM    4  C12 UNL     1      22.020  80.875  38.386  1.00  0.00     0.155 C 
HETATM    5  C14 UNL     1      22.290  79.421  38.512  1.00  0.00     0.033 A 
HETATM    6  C15 UNL     1      23.476  79.009  39.261  1.00  0.00     0.034 A 
HETATM    7  C16 UNL     1      23.291  78.653  37.781  1.00  0.00    -0.035 A 
HETATM    8  C17 UNL     1      24.239  79.197  36.774  1.00  0.00     0.016 C 
HETATM    9  C18 UNL     1      23.042  77.146  37.590  1.00  0.00     0.016 C 
ENDROOT
BRANCH   1  10
HETATM   10  C7  UNL     1      24.591  80.340  40.983  1.00  0.00     0.144 C 
HETATM   11  C6  UNL     1      24.857  79.136  41.827  1.00  0.00     0.049 C 
HETATM   12  C5  UNL     1      26.253  79.105  42.432  1.00  0.00     0.013 C 
HETATM   13  C4  UNL     1      26.577  80.233  43.334  1.00  0.00     0.020 C 
HETATM   14  C20 UNL     1      26.009  81.504  42.715  1.00  0.00     0.090 C 
HETATM   15  C19 UNL     1      25.739  81.290  41.278  1.00  0.00     0.164 C 
HETATM   16  O6  UNL     1      26.397  81.842  40.442  1.00  0.00    -0.295 OA
BRANCH  13  17
HETATM   17  C2  UNL     1      26.169  80.094  44.741  1.00  0.00    -0.089 C 
HETATM   18  C1  UNL     1      26.573  79.113  45.509  1.00  0.00     0.014 C 
HETATM   19  C3  UNL     1      25.245  81.120  45.317  1.00  0.00     0.043 C 
ENDBRANCH  13  17
BRANCH  10  20
HETATM   20  O1  UNL     1      23.404  80.944  41.468  1.00  0.00    -0.379 OA
ATOM     21  H1  UNL     1      23.605  81.852  41.663  1.00  0.00     0.211 HD
ENDBRANCH  10  20
ENDBRANCH   1  10
BRANCH   3  22
HETATM   22  C10 UNL     1      23.303  82.867  37.592  1.00  0.00     0.147 C 
BRANCH  22  23
HETATM   23  C11 UNL     1      24.068  84.016  38.130  1.00  0.00     0.175 C 
HETATM   24  O3  UNL     1      23.501  84.827  38.906  1.00  0.00    -0.648 OA
HETATM   25  O4  UNL     1      25.396  84.227  37.801  1.00  0.00    -0.648 OA
ENDBRANCH  22  23
ENDBRANCH   3  22
BRANCH   4  26
HETATM   26  O5  UNL     1      21.437  81.243  37.195  1.00  0.00    -0.388 OA
HETATM   27  C13 UNL     1      20.230  80.644  36.935  1.00  0.00     0.202 C 
ENDBRANCH   4  26
TORSDOF 6
ENDMDL
MODEL 3
REMARK VINA RESULT: -5.326982773      8.482     12.135
REMARK  6 active torsions:
REMARK  status: ('A' for Active; 'I' for Inactive)
REMARK    1  A    between atoms: C2_2  and  C4_4 
REMARK    2  A    between atoms: C7_7  and  O1_8 
REMARK    3  A    between atoms: C7_7  and  C8_10 
REMARK    4  A    between atoms: C9_12  and  C10_13 
REMARK    5  A    between atoms: C10_13  and  C11_14 
REMARK    6  A    between atoms: C12_17  and  O5_18 
ROOT
HETATM    1  C8  UNL     1      28.856  74.532  48.649  1.00  0.00     0.169 C 
HETATM    2  O2  UNL     1      30.189  74.238  48.718  1.00  0.00    -0.374 OA
HETATM    3  C9  UNL     1      30.854  73.923  47.583  1.00  0.00     0.161 C 
HETATM    4  C12 UNL     1      30.217  72.882  46.729  1.00  0.00     0.155 C 
HETATM    5  C14 UNL     1      28.812  72.548  47.071  1.00  0.00     0.033 A 
HETATM    6  C15 UNL     1      28.066  73.499  47.895  1.00  0.00     0.034 A 
HETATM    7  C16 UNL     1      28.321  72.058  48.352  1.00  0.00    -0.035 A 
HETATM    8  C17 UNL     1      29.146  71.810  49.563  1.00  0.00     0.016 C 
HETATM    9  C18 UNL     1      27.022  71.229  48.354  1.00  0.00     0.016 C 
ENDROOT
BRANCH   1  10
HETATM   10  C7  UNL     1      28.556  75.887  48.088  1.00  0.00     0.144 C 
HETATM   11  C6  UNL     1      27.399  75.906  47.142  1.00  0.00     0.049 C 
HETATM   12  C5  UNL     1      26.154  76.573  47.705  1.00  0.00     0.013 C 
HETATM   13  C4  UNL     1      26.312  77.996  48.080  1.00  0.00     0.020 C 
HETATM   14  C20 UNL     1      27.670  78.153  48.753  1.00  0.00     0.090 C 
HETATM   15  C19 UNL     1      28.166  76.837  49.207  1.00  0.00     0.164 C 
HETATM   16  O6  UNL     1      28.238  76.579  50.375  1.00  0.00    -0.295 OA
BRANCH  13  17
HETATM   17  C2  UNL     1      26.128  78.987  47.008  1.00  0.00    -0.089 C 
HETATM   18  C1  UNL     1      26.553  78.804  45.783  1.00  0.00     0.014 C 
HETATM   19  C3  UNL     1      25.427  80.268  47.339  1.00  0.00     0.043 C 
ENDBRANCH  13  17
BRANCH  10  20
HETATM   20  O1  UNL     1      29.665  76.456  47.414  1.00  0.00    -0.379 OA
ATOM     21  H1  UNL     1      30.271  75.752  47.218  1.00  0.00     0.211 HD
ENDBRANCH  10  20
ENDBRANCH   1  10
BRANCH   3  22
HETATM   22  C10 UNL     1      32.272  73.494  48.012  1.00  0.00     0.147 C 
BRANCH  22  23
HETATM   23  C11 UNL     1      33.193  74.652  47.947  1.00  0.00     0.175 C 
HETATM   24  O3  UNL     1      34.378  74.523  48.348  1.00  0.00    -0.648 OA
HETATM   25  O4  UNL     1      32.786  75.882  47.457  1.00  0.00    -0.648 OA
ENDBRANCH  22  23
ENDBRANCH   3  22
BRANCH   4  26
HETATM   26  O5  UNL     1      31.053  71.792  46.636  1.00  0.00    -0.388 OA
HETATM   27  C13 UNL     1      30.686  70.863  45.695  1.00  0.00     0.202 C 
ENDBRANCH   4  26
TORSDOF 6
ENDMDL
MODEL 4
REMARK VINA RESULT: -5.282540545      2.012      2.719
REMARK  6 active torsions:
REMARK  status: ('A' for Active; 'I' for Inactive)
REMARK    1  A    between atoms: C2_2  and  C4_4 
REMARK    2  A    between atoms: C7_7  and  O1_8 
REMARK    3  A    between atoms: C7_7  and  C8_10 
REMARK    4  A    between atoms: C9_12  and  C10_13 
REMARK    5  A    between atoms: C10_13  and  C11_14 
REMARK    6  A    between atoms: C12_17  and  O5_18 
ROOT
HETATM    1  C8  UNL     1      24.954  79.727  39.479  1.00  0.00     0.169 C 
HETATM    2  O2  UNL     1      23.748  79.536  38.865  1.00  0.00    -0.374 OA
HETATM    3  C9  UNL     1      23.054  78.402  39.115  1.00  0.00     0.161 C 
HETATM    4  C12 UNL     1      23.822  77.132  38.979  1.00  0.00     0.155 C 
HETATM    5  C14 UNL     1      25.295  77.285  38.889  1.00  0.00     0.033 A 
HETATM    6  C15 UNL     1      25.879  78.551  39.332  1.00  0.00     0.034 A 
HETATM    7  C16 UNL     1      26.032  78.050  37.891  1.00  0.00    -0.035 A 
HETATM    8  C17 UNL     1      25.434  78.831  36.777  1.00  0.00     0.016 C 
HETATM    9  C18 UNL     1      27.483  77.629  37.591  1.00  0.00     0.016 C 
ENDROOT
BRANCH   1  10
HETATM   10  C7  UNL     1      24.854  80.096  40.926  1.00  0.00     0.144 C 
HETATM   11  C6  UNL     1      25.226  78.989  41.859  1.00  0.00     0.049 C 
HETATM   12  C5  UNL     1      26.559  79.199  42.562  1.00  0.00     0.013 C 
HETATM   13  C4  UNL     1      26.642  80.406  43.414  1.00  0.00     0.020 C 
HETATM   14  C20 UNL     1      25.945  81.545  42.680  1.00  0.00     0.090 C 
HETATM   15  C19 UNL     1      25.823  81.222  41.243  1.00  0.00     0.164 C 
HETATM   16  O6  UNL     1      26.459  81.823  40.424  1.00  0.00    -0.295 OA
BRANCH  13  17
HETATM   17  C2  UNL     1      26.148  80.278  44.795  1.00  0.00    -0.089 C 
HETATM   18  C1  UNL     1      26.515  79.311  45.598  1.00  0.00     0.014 C 
HETATM   19  C3  UNL     1      25.176  81.298  45.298  1.00  0.00     0.043 C 
ENDBRANCH  13  17
BRANCH  10  20
HETATM   20  O1  UNL     1      23.557  80.538  41.287  1.00  0.00    -0.379 OA
ATOM     21  H1  UNL     1      23.113  80.801  40.489  1.00  0.00     0.211 HD
ENDBRANCH  10  20
ENDBRANCH   1  10
BRANCH   3  22
HETATM   22  C10 UNL     1      21.839  78.416  38.164  1.00  0.00     0.147 C 
BRANCH  22  23
HETATM   23  C11 UNL     1      20.584  78.476  38.948  1.00  0.00     0.175 C 
HETATM   24  O3  UNL     1      19.521  78.845  38.385  1.00  0.00    -0.648 OA
HETATM   25  O4  UNL     1      20.545  78.138  40.290  1.00  0.00    -0.648 OA
ENDBRANCH  22  23
ENDBRANCH   3  22
BRANCH   4  26
HETATM   26  O5  UNL     1      23.268  76.366  37.979  1.00  0.00    -0.388 OA
HETATM   27  C13 UNL     1      23.795  75.106  37.860  1.00  0.00     0.202 C 
ENDBRANCH   4  26
TORSDOF 6
ENDMDL
MODEL 5
REMARK VINA RESULT: -5.278711487      9.983     14.445
REMARK  6 active torsions:
REMARK  status: ('A' for Active; 'I' for Inactive)
REMARK    1  A    between atoms: C2_2  and  C4_4 
REMARK    2  A    between atoms: C7_7  and  O1_8 
REMARK    3  A    between atoms: C7_7  and  C8_10 
REMARK    4  A    between atoms: C9_12  and  C10_13 
REMARK    5  A    between atoms: C10_13  and  C11_14 
REMARK    6  A    between atoms: C12_17  and  O5_18 
ROOT
HETATM    1  C8  UNL     1      28.886  73.153  50.797  1.00  0.00     0.169 C 
HETATM    2  O2  UNL     1      28.599  71.819  50.718  1.00  0.00    -0.374 OA
HETATM    3  C9  UNL     1      27.376  71.385  51.100  1.00  0.00     0.161 C 
HETATM    4  C12 UNL     1      26.911  71.855  52.435  1.00  0.00     0.155 C 
HETATM    5  C14 UNL     1      27.700  72.962  53.030  1.00  0.00     0.033 A 
HETATM    6  C15 UNL     1      28.561  73.743  52.141  1.00  0.00     0.034 A 
HETATM    7  C16 UNL     1      29.127  72.954  53.327  1.00  0.00    -0.035 A 
HETATM    8  C17 UNL     1      30.061  71.825  53.075  1.00  0.00     0.016 C 
HETATM    9  C18 UNL     1      29.636  73.891  54.438  1.00  0.00     0.016 C 
ENDROOT
BRANCH   1  10
HETATM   10  C7  UNL     1      28.249  73.982  49.728  1.00  0.00     0.144 C 
HETATM   11  C6  UNL     1      27.464  75.142  50.250  1.00  0.00     0.049 C 
HETATM   12  C5  UNL     1      28.122  76.491  50.006  1.00  0.00     0.013 C 
HETATM   13  C4  UNL     1      28.341  76.840  48.583  1.00  0.00     0.020 C 
HETATM   14  C20 UNL     1      28.814  75.584  47.862  1.00  0.00     0.090 C 
HETATM   15  C19 UNL     1      29.317  74.597  48.841  1.00  0.00     0.164 C 
HETATM   16  O6  UNL     1      30.484  74.332  48.898  1.00  0.00    -0.295 OA
BRANCH  13  17
HETATM   17  C2  UNL     1      27.217  77.473  47.876  1.00  0.00    -0.089 C 
HETATM   18  C1  UNL     1      27.011  78.766  47.873  1.00  0.00     0.014 C 
HETATM   19  C3  UNL     1      26.261  76.593  47.133  1.00  0.00     0.043 C 
ENDBRANCH  13  17
BRANCH  10  20
HETATM   20  O1  UNL     1      27.386  73.228  48.894  1.00  0.00    -0.379 OA
ATOM     21  H1  UNL     1      27.760  72.358  48.810  1.00  0.00     0.211 HD
ENDBRANCH  10  20
ENDBRANCH   1  10
BRANCH   3  22
HETATM   22  C10 UNL     1      27.423  69.844  51.043  1.00  0.00     0.147 C 
BRANCH  22  23
HETATM   23  C11 UNL     1      26.876  69.368  49.752  1.00  0.00     0.175 C 
HETATM   24  O3  UNL     1      26.810  68.132  49.526  1.00  0.00    -0.648 OA
HETATM   25  O4  UNL     1      26.435  70.247  48.777  1.00  0.00    -0.648 OA
ENDBRANCH  22  23
ENDBRANCH   3  22
BRANCH   4  26
HETATM   26  O5  UNL     1      26.735  70.773  53.266  1.00  0.00    -0.388 OA
HETATM   27  C13 UNL     1      25.886  70.990  54.322  1.00  0.00     0.202 C 
ENDBRANCH   4  26
TORSDOF 6
ENDMDL
