MODEL 1
REMARK VINA RESULT: -6.680873136      0.000      0.000
REMARK  2 active torsions:
REMARK  status: ('A' for Active; 'I' for Inactive)
REMARK    1  A    between atoms: C2_2  and  C3_4 
REMARK    2  A    between atoms: C10_12  and  O2_14 
ROOT
HETATM    1  C3  UNL     1      -4.998   3.638  14.801  1.00  0.00     0.140 C 
HETATM    2  C4  UNL     1      -5.255   3.035  13.474  1.00  0.00     0.080 C 
HETATM    3  N1  UNL     1      -5.449   2.578  12.425  1.00  0.00    -0.196 NA
HETATM    4  C5  UNL     1      -6.243   4.415  15.171  1.00  0.00     0.036 C 
HETATM    5  C6  UNL     1      -6.601   4.024  16.588  1.00  0.00     0.014 C 
HETATM    6  C7  UNL     1      -6.018   2.637  16.764  1.00  0.00    -0.015 C 
HETATM    7  C8  UNL     1      -7.120   1.655  16.432  1.00  0.00     0.018 C 
HETATM    8  C9  UNL     1      -5.624   2.404  18.193  1.00  0.00     0.018 C 
HETATM    9  C10 UNL     1      -4.852   2.539  15.837  1.00  0.00     0.089 C 
HETATM   10  C11 UNL     1      -4.838   1.172  15.139  1.00  0.00     0.049 C 
ENDROOT
BRANCH   1  11
HETATM   11  C2  UNL     1      -3.801   4.506  14.733  1.00  0.00     0.148 C 
HETATM   12  C1  UNL     1      -3.792   5.944  15.039  1.00  0.00     0.093 C 
HETATM   13  O1  UNL     1      -2.743   4.002  14.398  1.00  0.00    -0.296 OA
ENDBRANCH   1  11
BRANCH   9  14
HETATM   14  O2  UNL     1      -3.649   2.617  16.532  1.00  0.00    -0.387 OA
ATOM     15  H2  UNL     1      -3.742   3.048  17.374  1.00  0.00     0.210 HD
ENDBRANCH   9  14
TORSDOF 2
ENDMDL
MODEL 2
REMARK VINA RESULT: -6.295887464      1.916      3.920
REMARK  2 active torsions:
REMARK  status: ('A' for Active; 'I' for Inactive)
REMARK    1  A    between atoms: C2_2  and  C3_4 
REMARK    2  A    between atoms: C10_12  and  O2_14 
ROOT
HETATM    1  C3  UNL     1      -5.078   2.783  15.301  1.00  0.00     0.140 C 
HETATM    2  C4  UNL     1      -4.788   1.347  15.084  1.00  0.00     0.080 C 
HETATM    3  N1  UNL     1      -4.568   0.218  14.932  1.00  0.00    -0.196 NA
HETATM    4  C5  UNL     1      -3.832   3.387  15.912  1.00  0.00     0.036 C 
HETATM    5  C6  UNL     1      -3.528   4.648  15.133  1.00  0.00     0.014 C 
HETATM    6  C7  UNL     1      -4.141   4.415  13.767  1.00  0.00    -0.015 C 
HETATM    7  C8  UNL     1      -3.046   3.851  12.888  1.00  0.00     0.018 C 
HETATM    8  C9  UNL     1      -4.585   5.711  13.156  1.00  0.00     0.018 C 
HETATM    9  C10 UNL     1      -5.277   3.467  13.962  1.00  0.00     0.089 C 
HETATM   10  C11 UNL     1      -5.293   2.416  12.843  1.00  0.00     0.049 C 
ENDROOT
BRANCH   1  11
HETATM   11  C2  UNL     1      -6.256   2.927  16.185  1.00  0.00     0.148 C 
HETATM   12  C1  UNL     1      -7.107   1.816  16.634  1.00  0.00     0.093 C 
HETATM   13  O1  UNL     1      -6.550   4.045  16.574  1.00  0.00    -0.296 OA
ENDBRANCH   1  11
BRANCH   9  14
HETATM   14  O2  UNL     1      -6.500   4.124  13.875  1.00  0.00    -0.387 OA
ATOM     15  H2  UNL     1      -7.019   3.833  13.133  1.00  0.00     0.210 HD
ENDBRANCH   9  14
TORSDOF 2
ENDMDL
MODEL 3
REMARK VINA RESULT: -5.965828022      2.265      4.073
REMARK  2 active torsions:
REMARK  status: ('A' for Active; 'I' for Inactive)
REMARK    1  A    between atoms: C2_2  and  C3_4 
REMARK    2  A    between atoms: C10_12  and  O2_14 
ROOT
HETATM    1  C3  UNL     1      -4.529   3.748  15.180  1.00  0.00     0.140 C 
HETATM    2  C4  UNL     1      -3.996   2.545  15.859  1.00  0.00     0.080 C 
HETATM    3  N1  UNL     1      -3.587   1.609  16.410  1.00  0.00    -0.196 NA
HETATM    4  C5  UNL     1      -3.443   4.800  15.251  1.00  0.00     0.036 C 
HETATM    5  C6  UNL     1      -3.291   5.371  13.858  1.00  0.00     0.014 C 
HETATM    6  C7  UNL     1      -3.759   4.265  12.935  1.00  0.00    -0.015 C 
HETATM    7  C8  UNL     1      -2.528   3.485  12.529  1.00  0.00     0.018 C 
HETATM    8  C9  UNL     1      -4.362   4.836  11.685  1.00  0.00     0.018 C 
HETATM    9  C10 UNL     1      -4.739   3.445  13.708  1.00  0.00     0.089 C 
HETATM   10  C11 UNL     1      -4.505   1.950  13.450  1.00  0.00     0.049 C 
ENDROOT
BRANCH   1  11
HETATM   11  C2  UNL     1      -5.775   4.189  15.845  1.00  0.00     0.148 C 
HETATM   12  C1  UNL     1      -6.577   3.357  16.753  1.00  0.00     0.093 C 
HETATM   13  O1  UNL     1      -6.173   5.321  15.629  1.00  0.00    -0.296 OA
ENDBRANCH   1  11
BRANCH   9  14
HETATM   14  O2  UNL     1      -6.043   3.697  13.292  1.00  0.00    -0.387 OA
ATOM     15  H2  UNL     1      -6.499   2.908  13.024  1.00  0.00     0.210 HD
ENDBRANCH   9  14
TORSDOF 2
ENDMDL
MODEL 4
REMARK VINA RESULT: -5.734898547      3.818      5.281
REMARK  2 active torsions:
REMARK  status: ('A' for Active; 'I' for Inactive)
REMARK    1  A    between atoms: C2_2  and  C3_4 
REMARK    2  A    between atoms: C10_12  and  O2_14 
ROOT
HETATM    1  C3  UNL     1      -2.932   3.384  11.480  1.00  0.00     0.140 C 
HETATM    2  C4  UNL     1      -2.697   4.012  12.799  1.00  0.00     0.080 C 
HETATM    3  N1  UNL     1      -2.501   4.519  13.825  1.00  0.00    -0.196 NA
HETATM    4  C5  UNL     1      -1.845   2.346  11.296  1.00  0.00     0.036 C 
HETATM    5  C6  UNL     1      -2.526   1.071  10.848  1.00  0.00     0.014 C 
HETATM    6  C7  UNL     1      -3.935   1.174  11.394  1.00  0.00    -0.015 C 
HETATM    7  C8  UNL     1      -3.938   0.464  12.730  1.00  0.00     0.018 C 
HETATM    8  C9  UNL     1      -4.904   0.455  10.501  1.00  0.00     0.018 C 
HETATM    9  C10 UNL     1      -4.248   2.629  11.506  1.00  0.00     0.089 C 
HETATM   10  C11 UNL     1      -4.982   2.917  12.824  1.00  0.00     0.049 C 
ENDROOT
BRANCH   1  11
HETATM   11  C2  UNL     1      -2.900   4.416  10.421  1.00  0.00     0.148 C 
HETATM   12  C1  UNL     1      -3.146   5.849  10.641  1.00  0.00     0.093 C 
HETATM   13  O1  UNL     1      -2.652   4.064   9.280  1.00  0.00    -0.296 OA
ENDBRANCH   1  11
BRANCH   9  14
HETATM   14  O2  UNL     1      -5.117   3.035  10.498  1.00  0.00    -0.387 OA
ATOM     15  H2  UNL     1      -4.663   3.435   9.765  1.00  0.00     0.210 HD
ENDBRANCH   9  14
TORSDOF 2
ENDMDL
MODEL 5
REMARK VINA RESULT: -5.627722576      2.355      4.008
REMARK  2 active torsions:
REMARK  status: ('A' for Active; 'I' for Inactive)
REMARK    1  A    between atoms: C2_2  and  C3_4 
REMARK    2  A    between atoms: C10_12  and  O2_14 
ROOT
HETATM    1  C3  UNL     1      -4.735   3.234  14.248  1.00  0.00     0.140 C 
HETATM    2  C4  UNL     1      -4.108   2.609  15.435  1.00  0.00     0.080 C 
HETATM    3  N1  UNL     1      -3.626   2.102  16.360  1.00  0.00    -0.196 NA
HETATM    4  C5  UNL     1      -6.079   3.764  14.698  1.00  0.00     0.036 C 
HETATM    5  C6  UNL     1      -6.183   5.187  14.194  1.00  0.00     0.014 C 
HETATM    6  C7  UNL     1      -4.748   5.656  14.065  1.00  0.00    -0.015 C 
HETATM    7  C8  UNL     1      -4.401   6.356  15.360  1.00  0.00     0.018 C 
HETATM    8  C9  UNL     1      -4.616   6.662  12.960  1.00  0.00     0.018 C 
HETATM    9  C10 UNL     1      -3.918   4.439  13.820  1.00  0.00     0.089 C 
HETATM   10  C11 UNL     1      -2.623   4.503  14.642  1.00  0.00     0.049 C 
ENDROOT
BRANCH   1  11
HETATM   11  C2  UNL     1      -4.866   2.233  13.166  1.00  0.00     0.148 C 
HETATM   12  C1  UNL     1      -4.229   0.909  13.170  1.00  0.00     0.093 C 
HETATM   13  O1  UNL     1      -5.549   2.519  12.197  1.00  0.00    -0.296 OA
ENDBRANCH   1  11
BRANCH   9  14
HETATM   14  O2  UNL     1      -3.515   4.366  12.491  1.00  0.00    -0.387 OA
ATOM     15  H2  UNL     1      -2.606   4.102  12.399  1.00  0.00     0.210 HD
ENDBRANCH   9  14
TORSDOF 2
ENDMDL
