MODEL 1
REMARK VINA RESULT: -10.649437203      0.000      0.000
REMARK  11 active torsions:
REMARK  status: ('A' for Active; 'I' for Inactive)
REMARK    1  A    between atoms: O1_1  and  C1_3 
REMARK    2  A    between atoms: C1_3  and  C2_4 
REMARK    3  A    between atoms: C1_3  and  N1_16 
REMARK    4  A    between atoms: C2_4  and  O2_5 
REMARK    5  A    between atoms: O2_5  and  C3_6 
REMARK    6  A    between atoms: C7_10  and  O3_11 
REMARK    7  A    between atoms: O3_11  and  C8_12 
REMARK    8  A    between atoms: N2_19  and  C12_20 
REMARK    9  A    between atoms: C13_21  and  N3_22 
REMARK   10  A    between atoms: N3_22  and  C14_24 
REMARK   11  A    between atoms: C14_24  and  C15_26 
ROOT
HETATM    1  N1  UNL     1      67.353  34.105  39.822  1.00  0.00    -0.361 N 
HETATM    2  C10 UNL     1      67.793  34.571  38.497  1.00  0.00     0.144 C 
HETATM    3  C11 UNL     1      68.799  35.650  38.795  1.00  0.00     0.143 C 
HETATM    4  N2  UNL     1      68.076  36.753  39.387  1.00  0.00    -0.372 N 
HETATM    5  C18 UNL     1      67.187  36.470  40.482  1.00  0.00     0.143 C 
HETATM    6  C19 UNL     1      67.091  35.021  40.877  1.00  0.00     0.144 C 
ENDROOT
BRANCH   4   7
HETATM    7  C12 UNL     1      68.244  38.084  38.895  1.00  0.00     0.124 A 
HETATM    8  C13 UNL     1      69.298  38.956  39.123  1.00  0.00     0.155 A 
HETATM    9  N4  UNL     1      68.961  40.076  38.432  1.00  0.00    -0.241 N 
HETATM   10  O4  UNL     1      67.837  39.955  37.831  1.00  0.00    -0.221 OA
ATOM     11  H4  UNL     1      69.537  40.916  38.396  1.00  0.00     0.196 HD
HETATM   12  C17 UNL     1      67.352  38.741  38.086  1.00  0.00     0.198 A 
HETATM   13 CL2  UNL     1      65.837  38.110  37.483  1.00  0.00    -0.052 Cl
BRANCH   8  14
HETATM   14  N3  UNL     1      70.439  38.693  39.895  1.00  0.00    -0.337 N 
ATOM     15  H3  UNL     1      70.281  38.407  40.861  1.00  0.00     0.164 HD
BRANCH  14  16
HETATM   16  C14 UNL     1      71.802  38.784  39.469  1.00  0.00     0.338 C 
HETATM   17  F3  UNL     1      72.372  37.509  39.600  1.00  0.00    -0.219 F 
BRANCH  16  18
HETATM   18  C15 UNL     1      72.022  39.233  38.095  1.00  0.00     0.197 C 
HETATM   19  F4  UNL     1      71.687  38.486  37.024  1.00  0.00    -0.202 F 
HETATM   20  C16 UNL     1      72.582  40.441  37.897  1.00  0.00     0.225 C 
HETATM   21  F5  UNL     1      72.938  41.235  38.939  1.00  0.00    -0.190 F 
HETATM   22 CL1  UNL     1      72.887  41.065  36.285  1.00  0.00    -0.049 Cl
ENDBRANCH  16  18
ENDBRANCH  14  16
ENDBRANCH   8  14
ENDBRANCH   4   7
BRANCH   1  23
HETATM   23  C1  UNL     1      67.208  32.722  39.986  1.00  0.00     0.138 C 
BRANCH  23  24
HETATM   24  O1  UNL     1      66.979  32.029  38.907  1.00  0.00    -0.348 OA
ATOM     25  H1  UNL     1      66.865  32.504  38.093  1.00  0.00     0.219 HD
ENDBRANCH  23  24
BRANCH  23  26
HETATM   26  C2  UNL     1      67.292  31.999  41.253  1.00  0.00     0.259 C 
BRANCH  26  27
HETATM   27  O2  UNL     1      66.461  30.913  41.406  1.00  0.00    -0.343 OA
BRANCH  27  28
HETATM   28  C3  UNL     1      65.175  30.981  41.886  1.00  0.00     0.071 A 
HETATM   29  C4  UNL     1      64.173  31.605  41.173  1.00  0.00     0.037 A 
HETATM   30  C5  UNL     1      62.879  31.684  41.636  1.00  0.00     0.005 A 
HETATM   31  C6  UNL     1      62.557  31.130  42.842  1.00  0.00     0.037 A 
HETATM   32  C7  UNL     1      63.529  30.489  43.602  1.00  0.00     0.077 A 
HETATM   33  C9  UNL     1      64.811  30.424  43.117  1.00  0.00     0.073 A 
BRANCH  32  34
HETATM   34  O3  UNL     1      63.132  29.958  44.799  1.00  0.00    -0.290 OA
BRANCH  34  35
HETATM   35  C8  UNL     1      63.923  29.370  45.782  1.00  0.00     0.505 C 
HETATM   36  F1  UNL     1      63.198  29.115  46.941  1.00  0.00    -0.184 F 
HETATM   37  F2  UNL     1      64.335  28.119  45.302  1.00  0.00    -0.184 F 
ENDBRANCH  34  35
ENDBRANCH  32  34
ENDBRANCH  27  28
ENDBRANCH  26  27
ENDBRANCH  23  26
ENDBRANCH   1  23
TORSDOF 11
ENDMDL
MODEL 2
REMARK VINA RESULT: -10.566237492      0.593      1.095
REMARK  11 active torsions:
REMARK  status: ('A' for Active; 'I' for Inactive)
REMARK    1  A    between atoms: O1_1  and  C1_3 
REMARK    2  A    between atoms: C1_3  and  C2_4 
REMARK    3  A    between atoms: C1_3  and  N1_16 
REMARK    4  A    between atoms: C2_4  and  O2_5 
REMARK    5  A    between atoms: O2_5  and  C3_6 
REMARK    6  A    between atoms: C7_10  and  O3_11 
REMARK    7  A    between atoms: O3_11  and  C8_12 
REMARK    8  A    between atoms: N2_19  and  C12_20 
REMARK    9  A    between atoms: C13_21  and  N3_22 
REMARK   10  A    between atoms: N3_22  and  C14_24 
REMARK   11  A    between atoms: C14_24  and  C15_26 
ROOT
HETATM    1  N1  UNL     1      67.661  34.116  40.064  1.00  0.00    -0.361 N 
HETATM    2  C10 UNL     1      67.512  35.299  40.928  1.00  0.00     0.144 C 
HETATM    3  C11 UNL     1      66.794  36.303  40.067  1.00  0.00     0.143 C 
HETATM    4  N2  UNL     1      67.707  36.690  39.015  1.00  0.00    -0.372 N 
HETATM    5  C18 UNL     1      68.359  35.647  38.268  1.00  0.00     0.143 C 
HETATM    6  C19 UNL     1      68.030  34.243  38.697  1.00  0.00     0.144 C 
ENDROOT
BRANCH   4   7
HETATM    7  C12 UNL     1      67.948  38.068  38.728  1.00  0.00     0.124 A 
HETATM    8  C13 UNL     1      69.067  38.826  39.038  1.00  0.00     0.155 A 
HETATM    9  N4  UNL     1      68.783  40.059  38.545  1.00  0.00    -0.241 N 
HETATM   10  O4  UNL     1      67.633  40.105  37.986  1.00  0.00    -0.221 OA
ATOM     11  H4  UNL     1      69.415  40.857  38.613  1.00  0.00     0.196 HD
HETATM   12  C17 UNL     1      67.075  38.899  38.072  1.00  0.00     0.198 A 
HETATM   13 CL2  UNL     1      65.500  38.466  37.450  1.00  0.00    -0.052 Cl
BRANCH   8  14
HETATM   14  N3  UNL     1      70.215  38.374  39.706  1.00  0.00    -0.337 N 
ATOM     15  H3  UNL     1      70.067  37.734  40.487  1.00  0.00     0.164 HD
BRANCH  14  16
HETATM   16  C14 UNL     1      71.571  38.716  39.409  1.00  0.00     0.338 C 
HETATM   17  F3  UNL     1      72.353  37.573  39.628  1.00  0.00    -0.219 F 
BRANCH  16  18
HETATM   18  C15 UNL     1      71.837  39.184  38.048  1.00  0.00     0.197 C 
HETATM   19  F4  UNL     1      71.406  38.525  36.955  1.00  0.00    -0.202 F 
HETATM   20  C16 UNL     1      72.541  40.321  37.889  1.00  0.00     0.225 C 
HETATM   21  F5  UNL     1      72.998  41.026  38.954  1.00  0.00    -0.190 F 
HETATM   22 CL1  UNL     1      72.911  40.961  36.297  1.00  0.00    -0.049 Cl
ENDBRANCH  16  18
ENDBRANCH  14  16
ENDBRANCH   8  14
ENDBRANCH   4   7
BRANCH   1  23
HETATM   23  C1  UNL     1      67.422  32.870  40.656  1.00  0.00     0.138 C 
BRANCH  23  24
HETATM   24  O1  UNL     1      67.956  32.670  41.827  1.00  0.00    -0.348 OA
ATOM     25  H1  UNL     1      68.525  33.347  42.174  1.00  0.00     0.219 HD
ENDBRANCH  23  24
BRANCH  23  26
HETATM   26  C2  UNL     1      66.630  31.788  40.077  1.00  0.00     0.259 C 
BRANCH  26  27
HETATM   27  O2  UNL     1      66.125  30.850  40.949  1.00  0.00    -0.343 OA
BRANCH  27  28
HETATM   28  C3  UNL     1      64.921  30.967  41.602  1.00  0.00     0.071 A 
HETATM   29  C4  UNL     1      63.859  31.641  41.039  1.00  0.00     0.037 A 
HETATM   30  C5  UNL     1      62.646  31.769  41.677  1.00  0.00     0.005 A 
HETATM   31  C6  UNL     1      62.470  31.214  42.912  1.00  0.00     0.037 A 
HETATM   32  C7  UNL     1      63.508  30.523  43.526  1.00  0.00     0.077 A 
HETATM   33  C9  UNL     1      64.707  30.410  42.868  1.00  0.00     0.073 A 
BRANCH  32  34
HETATM   34  O3  UNL     1      63.258  29.994  44.763  1.00  0.00    -0.290 OA
BRANCH  34  35
HETATM   35  C8  UNL     1      64.168  29.453  45.666  1.00  0.00     0.505 C 
HETATM   36  F1  UNL     1      63.661  29.436  46.960  1.00  0.00    -0.184 F 
HETATM   37  F2  UNL     1      64.367  28.111  45.313  1.00  0.00    -0.184 F 
ENDBRANCH  34  35
ENDBRANCH  32  34
ENDBRANCH  27  28
ENDBRANCH  26  27
ENDBRANCH  23  26
ENDBRANCH   1  23
TORSDOF 11
ENDMDL
MODEL 3
REMARK VINA RESULT: -10.510987867      2.346      2.548
REMARK  11 active torsions:
REMARK  status: ('A' for Active; 'I' for Inactive)
REMARK    1  A    between atoms: O1_1  and  C1_3 
REMARK    2  A    between atoms: C1_3  and  C2_4 
REMARK    3  A    between atoms: C1_3  and  N1_16 
REMARK    4  A    between atoms: C2_4  and  O2_5 
REMARK    5  A    between atoms: O2_5  and  C3_6 
REMARK    6  A    between atoms: C7_10  and  O3_11 
REMARK    7  A    between atoms: O3_11  and  C8_12 
REMARK    8  A    between atoms: N2_19  and  C12_20 
REMARK    9  A    between atoms: C13_21  and  N3_22 
REMARK   10  A    between atoms: N3_22  and  C14_24 
REMARK   11  A    between atoms: C14_24  and  C15_26 
ROOT
HETATM    1  N1  UNL     1      67.374  34.082  39.865  1.00  0.00    -0.361 N 
HETATM    2  C10 UNL     1      67.823  34.538  38.539  1.00  0.00     0.144 C 
HETATM    3  C11 UNL     1      68.817  35.628  38.834  1.00  0.00     0.143 C 
HETATM    4  N2  UNL     1      68.079  36.732  39.407  1.00  0.00    -0.372 N 
HETATM    5  C18 UNL     1      67.183  36.453  40.498  1.00  0.00     0.143 C 
HETATM    6  C19 UNL     1      67.095  35.008  40.908  1.00  0.00     0.144 C 
ENDROOT
BRANCH   4   7
HETATM    7  C12 UNL     1      68.241  38.058  38.902  1.00  0.00     0.124 A 
HETATM    8  C13 UNL     1      69.288  38.941  39.126  1.00  0.00     0.155 A 
HETATM    9  N4  UNL     1      68.946  40.050  38.422  1.00  0.00    -0.241 N 
HETATM   10  O4  UNL     1      67.827  39.915  37.816  1.00  0.00    -0.221 OA
ATOM     11  H4  UNL     1      69.517  40.894  38.380  1.00  0.00     0.196 HD
HETATM   12  C17 UNL     1      67.349  38.701  38.081  1.00  0.00     0.198 A 
HETATM   13 CL2  UNL     1      65.842  38.052  37.477  1.00  0.00    -0.052 Cl
BRANCH   8  14
HETATM   14  N3  UNL     1      70.426  38.694  39.907  1.00  0.00    -0.337 N 
ATOM     15  H3  UNL     1      70.265  38.424  40.878  1.00  0.00     0.164 HD
BRANCH  14  16
HETATM   16  C14 UNL     1      71.790  38.780  39.486  1.00  0.00     0.338 C 
HETATM   17  F3  UNL     1      72.355  37.503  39.619  1.00  0.00    -0.219 F 
BRANCH  16  18
HETATM   18  C15 UNL     1      72.016  39.225  38.111  1.00  0.00     0.197 C 
HETATM   19  F4  UNL     1      71.692  38.474  37.040  1.00  0.00    -0.202 F 
HETATM   20  C16 UNL     1      72.570  40.436  37.913  1.00  0.00     0.225 C 
HETATM   21  F5  UNL     1      72.914  41.236  38.955  1.00  0.00    -0.190 F 
HETATM   22 CL1  UNL     1      72.880  41.058  36.301  1.00  0.00    -0.049 Cl
ENDBRANCH  16  18
ENDBRANCH  14  16
ENDBRANCH   8  14
ENDBRANCH   4   7
BRANCH   1  23
HETATM   23  C1  UNL     1      67.239  32.700  40.043  1.00  0.00     0.138 C 
BRANCH  23  24
HETATM   24  O1  UNL     1      66.969  32.000  38.979  1.00  0.00    -0.348 OA
ATOM     25  H1  UNL     1      66.166  32.200  38.511  1.00  0.00     0.219 HD
ENDBRANCH  23  24
BRANCH  23  26
HETATM   26  C2  UNL     1      67.375  31.985  41.310  1.00  0.00     0.259 C 
BRANCH  26  27
HETATM   27  O2  UNL     1      66.267  31.306  41.764  1.00  0.00    -0.343 OA
BRANCH  27  28
HETATM   28  C3  UNL     1      65.015  31.859  41.890  1.00  0.00     0.071 A 
HETATM   29  C4  UNL     1      63.960  31.437  41.112  1.00  0.00     0.037 A 
HETATM   30  C5  UNL     1      62.699  31.978  41.223  1.00  0.00     0.005 A 
HETATM   31  C6  UNL     1      62.466  32.969  42.133  1.00  0.00     0.037 A 
HETATM   32  C7  UNL     1      63.496  33.433  42.944  1.00  0.00     0.077 A 
HETATM   33  C9  UNL     1      64.743  32.876  42.812  1.00  0.00     0.073 A 
BRANCH  32  34
HETATM   34  O3  UNL     1      63.188  34.428  43.832  1.00  0.00    -0.290 OA
BRANCH  34  35
HETATM   35  C8  UNL     1      62.669  35.690  43.560  1.00  0.00     0.505 C 
HETATM   36  F1  UNL     1      62.061  36.248  44.680  1.00  0.00    -0.184 F 
HETATM   37  F2  UNL     1      63.743  36.532  43.246  1.00  0.00    -0.184 F 
ENDBRANCH  34  35
ENDBRANCH  32  34
ENDBRANCH  27  28
ENDBRANCH  26  27
ENDBRANCH  23  26
ENDBRANCH   1  23
TORSDOF 11
ENDMDL
MODEL 4
REMARK VINA RESULT: -10.449979178      1.976      2.311
REMARK  11 active torsions:
REMARK  status: ('A' for Active; 'I' for Inactive)
REMARK    1  A    between atoms: O1_1  and  C1_3 
REMARK    2  A    between atoms: C1_3  and  C2_4 
REMARK    3  A    between atoms: C1_3  and  N1_16 
REMARK    4  A    between atoms: C2_4  and  O2_5 
REMARK    5  A    between atoms: O2_5  and  C3_6 
REMARK    6  A    between atoms: C7_10  and  O3_11 
REMARK    7  A    between atoms: O3_11  and  C8_12 
REMARK    8  A    between atoms: N2_19  and  C12_20 
REMARK    9  A    between atoms: C13_21  and  N3_22 
REMARK   10  A    between atoms: N3_22  and  C14_24 
REMARK   11  A    between atoms: C14_24  and  C15_26 
ROOT
HETATM    1  N1  UNL     1      67.263  34.082  39.890  1.00  0.00    -0.361 N 
HETATM    2  C10 UNL     1      67.840  34.515  38.607  1.00  0.00     0.144 C 
HETATM    3  C11 UNL     1      68.776  35.634  38.976  1.00  0.00     0.143 C 
HETATM    4  N2  UNL     1      67.961  36.735  39.439  1.00  0.00    -0.372 N 
HETATM    5  C18 UNL     1      66.960  36.463  40.437  1.00  0.00     0.143 C 
HETATM    6  C19 UNL     1      66.857  35.026  40.873  1.00  0.00     0.144 C 
ENDROOT
BRANCH   4   7
HETATM    7  C12 UNL     1      68.149  38.051  38.919  1.00  0.00     0.124 A 
HETATM    8  C13 UNL     1      69.215  38.914  39.129  1.00  0.00     0.155 A 
HETATM    9  N4  UNL     1      68.895  40.022  38.414  1.00  0.00    -0.241 N 
HETATM   10  O4  UNL     1      67.771  39.905  37.814  1.00  0.00    -0.221 OA
ATOM     11  H4  UNL     1      69.484  40.854  38.361  1.00  0.00     0.196 HD
HETATM   12  C17 UNL     1      67.268  38.704  38.094  1.00  0.00     0.198 A 
HETATM   13 CL2  UNL     1      65.745  38.082  37.502  1.00  0.00    -0.052 Cl
BRANCH   8  14
HETATM   14  N3  UNL     1      70.352  38.651  39.909  1.00  0.00    -0.337 N 
ATOM     15  H3  UNL     1      70.187  38.340  40.866  1.00  0.00     0.164 HD
BRANCH  14  16
HETATM   16  C14 UNL     1      71.717  38.773  39.503  1.00  0.00     0.338 C 
HETATM   17  F3  UNL     1      72.318  37.515  39.658  1.00  0.00    -0.219 F 
BRANCH  16  18
HETATM   18  C15 UNL     1      71.946  39.210  38.125  1.00  0.00     0.197 C 
HETATM   19  F4  UNL     1      71.532  38.499  37.058  1.00  0.00    -0.202 F 
HETATM   20  C16 UNL     1      72.597  40.371  37.922  1.00  0.00     0.225 C 
HETATM   21  F5  UNL     1      73.035  41.128  38.960  1.00  0.00    -0.190 F 
HETATM   22 CL1  UNL     1      72.920  40.977  36.307  1.00  0.00    -0.049 Cl
ENDBRANCH  16  18
ENDBRANCH  14  16
ENDBRANCH   8  14
ENDBRANCH   4   7
BRANCH   1  23
HETATM   23  C1  UNL     1      67.137  32.702  40.090  1.00  0.00     0.138 C 
BRANCH  23  24
HETATM   24  O1  UNL     1      66.979  31.972  39.023  1.00  0.00    -0.348 OA
ATOM     25  H1  UNL     1      67.670  31.987  38.372  1.00  0.00     0.219 HD
ENDBRANCH  23  24
BRANCH  23  26
HETATM   26  C2  UNL     1      67.168  32.020  41.381  1.00  0.00     0.259 C 
BRANCH  26  27
HETATM   27  O2  UNL     1      66.296  30.969  41.552  1.00  0.00    -0.343 OA
BRANCH  27  28
HETATM   28  C3  UNL     1      65.122  31.042  42.263  1.00  0.00     0.071 A 
HETATM   29  C4  UNL     1      64.799  30.101  43.217  1.00  0.00     0.037 A 
HETATM   30  C5  UNL     1      63.629  30.157  43.940  1.00  0.00     0.005 A 
HETATM   31  C6  UNL     1      62.744  31.173  43.718  1.00  0.00     0.037 A 
HETATM   32  C7  UNL     1      63.020  32.149  42.767  1.00  0.00     0.077 A 
HETATM   33  C9  UNL     1      64.195  32.070  42.060  1.00  0.00     0.073 A 
BRANCH  32  34
HETATM   34  O3  UNL     1      62.088  33.136  42.599  1.00  0.00    -0.290 OA
BRANCH  34  35
HETATM   35  C8  UNL     1      62.201  34.487  42.916  1.00  0.00     0.505 C 
HETATM   36  F1  UNL     1      63.081  34.694  43.973  1.00  0.00    -0.184 F 
HETATM   37  F2  UNL     1      62.765  35.136  41.810  1.00  0.00    -0.184 F 
ENDBRANCH  34  35
ENDBRANCH  32  34
ENDBRANCH  27  28
ENDBRANCH  26  27
ENDBRANCH  23  26
ENDBRANCH   1  23
TORSDOF 11
ENDMDL
MODEL 5
REMARK VINA RESULT: -10.424706211      3.984     10.443
REMARK  11 active torsions:
REMARK  status: ('A' for Active; 'I' for Inactive)
REMARK    1  A    between atoms: O1_1  and  C1_3 
REMARK    2  A    between atoms: C1_3  and  C2_4 
REMARK    3  A    between atoms: C1_3  and  N1_16 
REMARK    4  A    between atoms: C2_4  and  O2_5 
REMARK    5  A    between atoms: O2_5  and  C3_6 
REMARK    6  A    between atoms: C7_10  and  O3_11 
REMARK    7  A    between atoms: O3_11  and  C8_12 
REMARK    8  A    between atoms: N2_19  and  C12_20 
REMARK    9  A    between atoms: C13_21  and  N3_22 
REMARK   10  A    between atoms: N3_22  and  C14_24 
REMARK   11  A    between atoms: C14_24  and  C15_26 
ROOT
HETATM    1  N1  UNL     1      66.135  32.391  41.425  1.00  0.00    -0.361 N 
HETATM    2  C10 UNL     1      65.720  32.967  42.714  1.00  0.00     0.144 C 
HETATM    3  C11 UNL     1      65.846  31.829  43.691  1.00  0.00     0.143 C 
HETATM    4  N2  UNL     1      64.833  30.858  43.344  1.00  0.00    -0.372 N 
HETATM    5  C18 UNL     1      64.742  30.436  41.971  1.00  0.00     0.143 C 
HETATM    6  C19 UNL     1      65.716  31.091  41.029  1.00  0.00     0.144 C 
ENDROOT
BRANCH   4   7
HETATM    7  C12 UNL     1      63.953  30.334  44.338  1.00  0.00     0.124 A 
HETATM    8  C13 UNL     1      62.695  30.793  44.700  1.00  0.00     0.155 A 
HETATM    9  N4  UNL     1      62.300  29.946  45.685  1.00  0.00    -0.241 N 
HETATM   10  O4  UNL     1      63.179  29.050  45.937  1.00  0.00    -0.221 OA
ATOM     11  H4  UNL     1      61.404  30.016  46.169  1.00  0.00     0.196 HD
HETATM   12  C17 UNL     1      64.220  29.246  45.131  1.00  0.00     0.198 A 
HETATM   13 CL2  UNL     1      65.673  28.273  45.101  1.00  0.00    -0.052 Cl
BRANCH   8  14
HETATM   14  N3  UNL     1      62.020  31.888  44.139  1.00  0.00    -0.337 N 
ATOM     15  H3  UNL     1      61.865  32.690  44.750  1.00  0.00     0.164 HD
BRANCH  14  16
HETATM   16  C14 UNL     1      61.527  31.997  42.802  1.00  0.00     0.338 C 
HETATM   17  F3  UNL     1      60.186  32.403  42.877  1.00  0.00    -0.219 F 
BRANCH  16  18
HETATM   18  C15 UNL     1      62.228  32.936  41.927  1.00  0.00     0.197 C 
HETATM   19  F4  UNL     1      62.674  32.596  40.702  1.00  0.00    -0.202 F 
HETATM   20  C16 UNL     1      62.434  34.191  42.369  1.00  0.00     0.225 C 
HETATM   21  F5  UNL     1      62.005  34.589  43.594  1.00  0.00    -0.190 F 
HETATM   22 CL1  UNL     1      63.266  35.389  41.393  1.00  0.00    -0.049 Cl
ENDBRANCH  16  18
ENDBRANCH  14  16
ENDBRANCH   8  14
ENDBRANCH   4   7
BRANCH   1  23
HETATM   23  C1  UNL     1      66.958  33.184  40.616  1.00  0.00     0.138 C 
BRANCH  23  24
HETATM   24  O1  UNL     1      67.349  32.659  39.491  1.00  0.00    -0.348 OA
ATOM     25  H1  UNL     1      67.898  31.885  39.532  1.00  0.00     0.219 HD
ENDBRANCH  23  24
BRANCH  23  26
HETATM   26  C2  UNL     1      67.409  34.539  40.927  1.00  0.00     0.259 C 
BRANCH  26  27
HETATM   27  O2  UNL     1      66.813  35.568  40.233  1.00  0.00    -0.343 OA
BRANCH  27  28
HETATM   28  C3  UNL     1      67.488  36.457  39.431  1.00  0.00     0.071 A 
HETATM   29  C4  UNL     1      67.116  36.671  38.122  1.00  0.00     0.037 A 
HETATM   30  C5  UNL     1      67.779  37.557  37.303  1.00  0.00     0.005 A 
HETATM   31  C6  UNL     1      68.846  38.258  37.788  1.00  0.00     0.037 A 
HETATM   32  C7  UNL     1      69.264  38.080  39.102  1.00  0.00     0.077 A 
HETATM   33  C9  UNL     1      68.584  37.191  39.897  1.00  0.00     0.073 A 
BRANCH  32  34
HETATM   34  O3  UNL     1      70.339  38.817  39.518  1.00  0.00    -0.290 OA
BRANCH  34  35
HETATM   35  C8  UNL     1      71.641  38.786  39.028  1.00  0.00     0.505 C 
HETATM   36  F1  UNL     1      72.387  39.869  39.482  1.00  0.00    -0.184 F 
HETATM   37  F2  UNL     1      72.264  37.644  39.551  1.00  0.00    -0.184 F 
ENDBRANCH  34  35
ENDBRANCH  32  34
ENDBRANCH  27  28
ENDBRANCH  26  27
ENDBRANCH  23  26
ENDBRANCH   1  23
TORSDOF 11
ENDMDL
