MODEL 1
REMARK VINA RESULT: -6.819262882      0.000      0.000
REMARK  3 active torsions:
REMARK  status: ('A' for Active; 'I' for Inactive)
REMARK       I    between atoms: C1_2  and  N1_3 
REMARK    1  A    between atoms: C1_2  and  C7_11 
REMARK    2  A    between atoms: N1_3  and  C2_5 
REMARK    3  A    between atoms: N3_15  and  C9_16 
ROOT
HETATM    1  C7  UNL     1      -3.103   1.972  12.472  1.00  0.00     0.134 A 
HETATM    2  C8  UNL     1      -2.573   1.271  11.419  1.00  0.00     0.145 A 
HETATM    3  N2  UNL     1      -1.727   2.050  10.735  1.00  0.00    -0.293 N 
ATOM      4  H2  UNL     1      -1.189   1.796   9.906  1.00  0.00     0.187 HD
HETATM    5  N3  UNL     1      -1.734   3.214  11.355  1.00  0.00    -0.229 N 
HETATM    6  N4  UNL     1      -2.540   3.201  12.392  1.00  0.00    -0.277 N 
ATOM      7  H4  UNL     1      -2.712   3.981  13.026  1.00  0.00     0.189 HD
ENDROOT
BRANCH   1   8
HETATM    8  C1  UNL     1      -4.064   1.522  13.481  1.00  0.00     0.271 C 
HETATM    9  O1  UNL     1      -4.454   0.313  13.374  1.00  0.00    -0.266 OA
HETATM   10  N1  UNL     1      -4.532   2.370  14.506  1.00  0.00    -0.351 N 
ATOM     11  H1  UNL     1      -4.200   3.333  14.563  1.00  0.00     0.163 HD
BRANCH  10  12
HETATM   12  C2  UNL     1      -5.473   1.882  15.468  1.00  0.00     0.088 C 
HETATM   13  C3  UNL     1      -4.785   1.525  16.793  1.00  0.00     0.051 C 
HETATM   14  C4  UNL     1      -5.864   0.908  17.670  1.00  0.00     0.169 C 
HETATM   15  O2  UNL     1      -7.118   0.989  17.107  1.00  0.00    -0.391 OA
HETATM   16  C5  UNL     1      -7.498   2.269  16.761  1.00  0.00     0.169 C 
HETATM   17  C6  UNL     1      -6.509   2.951  15.835  1.00  0.00     0.051 C 
ENDBRANCH  10  12
ENDBRANCH   1   8
BRANCH   5  18
HETATM   18  C9  UNL     1      -0.954   4.347  10.943  1.00  0.00     0.127 C 
HETATM   19  C10 UNL     1      -0.580   5.281  12.089  1.00  0.00     0.029 C 
HETATM   20  C11 UNL     1       0.786   5.417  11.454  1.00  0.00     0.004 C 
HETATM   21  C12 UNL     1       0.522   4.080  10.763  1.00  0.00     0.029 C 
ENDBRANCH   5  18
TORSDOF 3
ENDMDL
MODEL 2
REMARK VINA RESULT: -6.753380444      2.965      3.535
REMARK  3 active torsions:
REMARK  status: ('A' for Active; 'I' for Inactive)
REMARK       I    between atoms: C1_2  and  N1_3 
REMARK    1  A    between atoms: C1_2  and  C7_11 
REMARK    2  A    between atoms: N1_3  and  C2_5 
REMARK    3  A    between atoms: N3_15  and  C9_16 
ROOT
HETATM    1  C7  UNL     1      -2.860   4.889  14.167  1.00  0.00     0.134 A 
HETATM    2  C8  UNL     1      -1.757   4.875  13.352  1.00  0.00     0.145 A 
HETATM    3  N2  UNL     1      -1.302   6.122  13.182  1.00  0.00    -0.293 N 
ATOM      4  H2  UNL     1      -0.497   6.414  12.627  1.00  0.00     0.187 HD
HETATM    5  N3  UNL     1      -2.112   6.895  13.880  1.00  0.00    -0.229 N 
HETATM    6  N4  UNL     1      -3.047   6.193  14.478  1.00  0.00    -0.277 N 
ATOM      7  H4  UNL     1      -3.787   6.567  15.073  1.00  0.00     0.189 HD
ENDROOT
BRANCH   1   8
HETATM    8  C1  UNL     1      -3.678   3.763  14.622  1.00  0.00     0.271 C 
HETATM    9  O1  UNL     1      -3.295   2.609  14.235  1.00  0.00    -0.266 OA
HETATM   10  N1  UNL     1      -4.817   3.938  15.435  1.00  0.00    -0.351 N 
ATOM     11  H1  UNL     1      -5.095   4.875  15.726  1.00  0.00     0.163 HD
BRANCH  10  12
HETATM   12  C2  UNL     1      -5.582   2.803  15.853  1.00  0.00     0.088 C 
HETATM   13  C3  UNL     1      -4.891   2.053  16.998  1.00  0.00     0.051 C 
HETATM   14  C4  UNL     1      -5.737   0.814  17.255  1.00  0.00     0.169 C 
HETATM   15  O2  UNL     1      -6.905   0.808  16.528  1.00  0.00    -0.391 OA
HETATM   16  C5  UNL     1      -7.686   1.931  16.708  1.00  0.00     0.169 C 
HETATM   17  C6  UNL     1      -6.946   3.222  16.418  1.00  0.00     0.051 C 
ENDBRANCH  10  12
ENDBRANCH   1   8
BRANCH   5  18
HETATM   18  C9  UNL     1      -1.978   8.322  13.971  1.00  0.00     0.127 C 
HETATM   19  C10 UNL     1      -1.989   8.847  15.402  1.00  0.00     0.029 C 
HETATM   20  C11 UNL     1      -0.895   9.808  14.994  1.00  0.00     0.004 C 
HETATM   21  C12 UNL     1      -0.565   8.844  13.856  1.00  0.00     0.029 C 
ENDBRANCH   5  18
TORSDOF 3
ENDMDL
MODEL 3
REMARK VINA RESULT: -6.593109350      3.504      4.012
REMARK  3 active torsions:
REMARK  status: ('A' for Active; 'I' for Inactive)
REMARK       I    between atoms: C1_2  and  N1_3 
REMARK    1  A    between atoms: C1_2  and  C7_11 
REMARK    2  A    between atoms: N1_3  and  C2_5 
REMARK    3  A    between atoms: N3_15  and  C9_16 
ROOT
HETATM    1  C7  UNL     1      -4.219   5.762  13.584  1.00  0.00     0.134 A 
HETATM    2  C8  UNL     1      -4.424   6.501  12.448  1.00  0.00     0.145 A 
HETATM    3  N2  UNL     1      -3.559   7.520  12.405  1.00  0.00    -0.293 N 
ATOM      4  H2  UNL     1      -3.479   8.232  11.679  1.00  0.00     0.187 HD
HETATM    5  N3  UNL     1      -2.830   7.414  13.500  1.00  0.00    -0.229 N 
HETATM    6  N4  UNL     1      -3.196   6.379  14.222  1.00  0.00    -0.277 N 
ATOM      7  H4  UNL     1      -2.781   6.091  15.108  1.00  0.00     0.189 HD
ENDROOT
BRANCH   1   8
HETATM    8  C1  UNL     1      -4.927   4.564  14.040  1.00  0.00     0.271 C 
HETATM    9  O1  UNL     1      -5.556   3.917  13.138  1.00  0.00    -0.266 OA
HETATM   10  N1  UNL     1      -4.919   4.150  15.388  1.00  0.00    -0.351 N 
ATOM     11  H1  UNL     1      -4.406   4.691  16.084  1.00  0.00     0.163 HD
BRANCH  10  12
HETATM   12  C2  UNL     1      -5.629   2.971  15.781  1.00  0.00     0.088 C 
HETATM   13  C3  UNL     1      -4.801   2.117  16.750  1.00  0.00     0.051 C 
HETATM   14  C4  UNL     1      -5.611   0.849  16.985  1.00  0.00     0.169 C 
HETATM   15  O2  UNL     1      -6.861   0.905  16.412  1.00  0.00    -0.391 OA
HETATM   16  C5  UNL     1      -7.611   1.995  16.801  1.00  0.00     0.169 C 
HETATM   17  C6  UNL     1      -6.909   3.316  16.552  1.00  0.00     0.051 C 
ENDBRANCH  10  12
ENDBRANCH   1   8
BRANCH   5  18
HETATM   18  C9  UNL     1      -1.771   8.318  13.850  1.00  0.00     0.127 C 
HETATM   19  C10 UNL     1      -1.933   9.711  13.251  1.00  0.00     0.029 C 
HETATM   20  C11 UNL     1      -1.448  10.270  14.570  1.00  0.00     0.004 C 
HETATM   21  C12 UNL     1      -1.896   8.958  15.213  1.00  0.00     0.029 C 
ENDBRANCH   5  18
TORSDOF 3
ENDMDL
MODEL 4
REMARK VINA RESULT: -6.540394483      2.935      7.126
REMARK  3 active torsions:
REMARK  status: ('A' for Active; 'I' for Inactive)
REMARK       I    between atoms: C1_2  and  N1_3 
REMARK    1  A    between atoms: C1_2  and  C7_11 
REMARK    2  A    between atoms: N1_3  and  C2_5 
REMARK    3  A    between atoms: N3_15  and  C9_16 
ROOT
HETATM    1  C7  UNL     1      -4.649   2.425  13.199  1.00  0.00     0.134 A 
HETATM    2  C8  UNL     1      -4.180   1.166  13.476  1.00  0.00     0.145 A 
HETATM    3  N2  UNL     1      -4.309   0.910  14.783  1.00  0.00    -0.293 N 
ATOM      4  H2  UNL     1      -4.045   0.055  15.273  1.00  0.00     0.187 HD
HETATM    5  N3  UNL     1      -4.848   1.995  15.306  1.00  0.00    -0.229 N 
HETATM    6  N4  UNL     1      -5.063   2.913  14.392  1.00  0.00    -0.277 N 
ATOM      7  H4  UNL     1      -5.472   3.833  14.553  1.00  0.00     0.189 HD
ENDROOT
BRANCH   1   8
HETATM    8  C1  UNL     1      -4.705   3.119  11.911  1.00  0.00     0.271 C 
HETATM    9  O1  UNL     1      -5.583   2.692  11.091  1.00  0.00    -0.266 OA
HETATM   10  N1  UNL     1      -3.845   4.191  11.594  1.00  0.00    -0.351 N 
ATOM     11  H1  UNL     1      -3.153   4.507  12.274  1.00  0.00     0.163 HD
BRANCH  10  12
HETATM   12  C2  UNL     1      -3.941   4.836  10.320  1.00  0.00     0.088 C 
HETATM   13  C3  UNL     1      -4.611   6.211  10.438  1.00  0.00     0.051 C 
HETATM   14  C4  UNL     1      -4.762   6.725   9.014  1.00  0.00     0.169 C 
HETATM   15  O2  UNL     1      -4.143   5.916   8.088  1.00  0.00    -0.391 OA
HETATM   16  C5  UNL     1      -2.806   5.689   8.344  1.00  0.00     0.169 C 
HETATM   17  C6  UNL     1      -2.555   5.119   9.727  1.00  0.00     0.051 C 
ENDBRANCH  10  12
ENDBRANCH   1   8
BRANCH   5  18
HETATM   18  C9  UNL     1      -5.160   2.143  16.700  1.00  0.00     0.127 C 
HETATM   19  C10 UNL     1      -6.485   2.851  16.959  1.00  0.00     0.029 C 
HETATM   20  C11 UNL     1      -6.730   1.858  18.072  1.00  0.00     0.004 C 
HETATM   21  C12 UNL     1      -5.756   0.922  17.360  1.00  0.00     0.029 C 
ENDBRANCH   5  18
TORSDOF 3
ENDMDL
MODEL 5
REMARK VINA RESULT: -6.522661846      1.525      2.044
REMARK  3 active torsions:
REMARK  status: ('A' for Active; 'I' for Inactive)
REMARK       I    between atoms: C1_2  and  N1_3 
REMARK    1  A    between atoms: C1_2  and  C7_11 
REMARK    2  A    between atoms: N1_3  and  C2_5 
REMARK    3  A    between atoms: N3_15  and  C9_16 
ROOT
HETATM    1  C7  UNL     1      -2.616   4.122  13.662  1.00  0.00     0.134 A 
HETATM    2  C8  UNL     1      -2.253   5.367  14.109  1.00  0.00     0.145 A 
HETATM    3  N2  UNL     1      -1.349   5.901  13.280  1.00  0.00    -0.293 N 
ATOM      4  H2  UNL     1      -0.902   6.815  13.361  1.00  0.00     0.187 HD
HETATM    5  N3  UNL     1      -1.156   5.001  12.335  1.00  0.00    -0.229 N 
HETATM    6  N4  UNL     1      -1.894   3.932  12.532  1.00  0.00    -0.277 N 
ATOM      7  H4  UNL     1      -1.919   3.104  11.938  1.00  0.00     0.189 HD
ENDROOT
BRANCH   1   8
HETATM    8  C1  UNL     1      -3.571   3.179  14.250  1.00  0.00     0.271 C 
HETATM    9  O1  UNL     1      -3.466   1.970  13.858  1.00  0.00    -0.266 OA
HETATM   10  N1  UNL     1      -4.545   3.579  15.187  1.00  0.00    -0.351 N 
ATOM     11  H1  UNL     1      -4.601   4.555  15.479  1.00  0.00     0.163 HD
BRANCH  10  12
HETATM   12  C2  UNL     1      -5.455   2.618  15.731  1.00  0.00     0.088 C 
HETATM   13  C3  UNL     1      -4.861   1.916  16.958  1.00  0.00     0.051 C 
HETATM   14  C4  UNL     1      -5.866   0.845  17.355  1.00  0.00     0.169 C 
HETATM   15  O2  UNL     1      -7.033   0.918  16.628  1.00  0.00    -0.391 OA
HETATM   16  C5  UNL     1      -7.649   2.151  16.675  1.00  0.00     0.169 C 
HETATM   17  C6  UNL     1      -6.740   3.284  16.239  1.00  0.00     0.051 C 
ENDBRANCH  10  12
ENDBRANCH   1   8
BRANCH   5  18
HETATM   18  C9  UNL     1      -0.252   5.175  11.233  1.00  0.00     0.127 C 
HETATM   19  C10 UNL     1       1.171   5.520  11.657  1.00  0.00     0.029 C 
HETATM   20  C11 UNL     1       1.658   4.593  10.566  1.00  0.00     0.004 C 
HETATM   21  C12 UNL     1       0.300   3.897  10.646  1.00  0.00     0.029 C 
ENDBRANCH   5  18
TORSDOF 3
ENDMDL
