MODEL 1
REMARK VINA RESULT: -6.411757547      0.000      0.000
REMARK  5 active torsions:
REMARK  status: ('A' for Active; 'I' for Inactive)
REMARK    1  A    between atoms: C4_6  and  C5_7 
REMARK    2  A    between atoms: C5_7  and  N2_8 
REMARK    3  A    between atoms: C5_7  and  C6_12 
REMARK    4  A    between atoms: C6_12  and  N3_13 
REMARK    5  A    between atoms: C9_16  and  N4_17 
ROOT
HETATM    1  C5  UNL     1      -2.549   4.132  12.016  1.00  0.00     0.280 C 
ENDROOT
BRANCH   1   2
HETATM    2  C4  UNL     1      -3.361   2.979  11.659  1.00  0.00     0.105 A 
HETATM    3  C3  UNL     1      -4.437   2.924  10.804  1.00  0.00     0.125 A 
HETATM    4  N1  UNL     1      -4.864   1.654  10.784  1.00  0.00    -0.348 N 
HETATM    5  C2  UNL     1      -4.057   0.969  11.610  1.00  0.00     0.119 A 
ATOM      6  H1  UNL     1      -5.647   1.282  10.247  1.00  0.00     0.167 HD
HETATM    7  C1  UNL     1      -4.112  -0.495  11.939  1.00  0.00     0.098 C 
HETATM    8  O1  UNL     1      -3.158   1.772  12.130  1.00  0.00    -0.299 OA
ENDBRANCH   1   2
BRANCH   1   9
HETATM    9  N2  UNL     1      -1.901   4.650  10.817  1.00  0.00    -0.065 N 
ATOM     10  H23 UNL     1      -0.886   4.550  10.850  1.00  0.00     0.275 HD
ATOM     11  H22 UNL     1      -2.076   4.066   9.999  1.00  0.00     0.275 HD
ATOM     12  H21 UNL     1      -2.191   5.617  10.672  1.00  0.00     0.275 HD
ENDBRANCH   1   9
BRANCH   1  13
HETATM   13  C6  UNL     1      -3.225   5.281  12.676  1.00  0.00     0.102 C 
BRANCH  13  14
HETATM   14  N3  UNL     1      -3.784   5.098  13.942  1.00  0.00    -0.371 N 
HETATM   15  C7  UNL     1      -3.141   4.322  14.907  1.00  0.00     0.065 C 
HETATM   16  C8  UNL     1      -4.128   3.652  15.838  1.00  0.00     0.080 C 
HETATM   17  C9  UNL     1      -5.234   2.940  15.110  1.00  0.00     0.229 C 
HETATM   18  C13 UNL     1      -5.882   3.854  14.141  1.00  0.00     0.056 C 
HETATM   19  C14 UNL     1      -5.204   5.208  14.015  1.00  0.00     0.129 C 
BRANCH  17  20
HETATM   20  N4  UNL     1      -6.131   2.431  16.125  1.00  0.00     0.093 N 
HETATM   21  C10 UNL     1      -5.503   1.541  17.087  1.00  0.00     0.274 C 
HETATM   22  C11 UNL     1      -6.393   2.157  18.145  1.00  0.00     0.060 C 
HETATM   23  C12 UNL     1      -6.551   3.311  17.160  1.00  0.00     0.274 C 
ENDBRANCH  17  20
ENDBRANCH  13  14
ENDBRANCH   1  13
TORSDOF 5
ENDMDL
MODEL 2
REMARK VINA RESULT: -6.342993122      0.757      1.009
REMARK  5 active torsions:
REMARK  status: ('A' for Active; 'I' for Inactive)
REMARK    1  A    between atoms: C4_6  and  C5_7 
REMARK    2  A    between atoms: C5_7  and  N2_8 
REMARK    3  A    between atoms: C5_7  and  C6_12 
REMARK    4  A    between atoms: C6_12  and  N3_13 
REMARK    5  A    between atoms: C9_16  and  N4_17 
ROOT
HETATM    1  C5  UNL     1      -2.801   3.685  11.506  1.00  0.00     0.280 C 
ENDROOT
BRANCH   1   2
HETATM    2  C4  UNL     1      -3.475   2.411  11.306  1.00  0.00     0.105 A 
HETATM    3  C3  UNL     1      -4.765   2.184  10.886  1.00  0.00     0.125 A 
HETATM    4  N1  UNL     1      -4.941   0.857  10.847  1.00  0.00    -0.348 N 
HETATM    5  C2  UNL     1      -3.779   0.307  11.235  1.00  0.00     0.119 A 
ATOM      6  H1  UNL     1      -5.791   0.361  10.575  1.00  0.00     0.167 HD
HETATM    7  C1  UNL     1      -3.454  -1.153  11.361  1.00  0.00     0.098 C 
HETATM    8  O1  UNL     1      -2.905   1.248  11.508  1.00  0.00    -0.299 OA
ENDBRANCH   1   2
BRANCH   1   9
HETATM    9  N2  UNL     1      -2.184   4.102  10.251  1.00  0.00    -0.065 N 
ATOM     10  H23 UNL     1      -1.242   4.468  10.384  1.00  0.00     0.275 HD
ATOM     11  H22 UNL     1      -1.947   3.309   9.654  1.00  0.00     0.275 HD
ATOM     12  H21 UNL     1      -2.797   4.769   9.783  1.00  0.00     0.275 HD
ENDBRANCH   1   9
BRANCH   1  13
HETATM   13  C6  UNL     1      -3.612   4.832  11.993  1.00  0.00     0.102 C 
BRANCH  13  14
HETATM   14  N3  UNL     1      -3.905   4.921  13.355  1.00  0.00    -0.371 N 
HETATM   15  C7  UNL     1      -2.957   4.573  14.319  1.00  0.00     0.065 C 
HETATM   16  C8  UNL     1      -3.605   4.033  15.575  1.00  0.00     0.080 C 
HETATM   17  C9  UNL     1      -4.624   2.964  15.299  1.00  0.00     0.229 C 
HETATM   18  C13 UNL     1      -5.609   3.440  14.298  1.00  0.00     0.056 C 
HETATM   19  C14 UNL     1      -5.282   4.799  13.704  1.00  0.00     0.129 C 
BRANCH  17  20
HETATM   20  N4  UNL     1      -5.209   2.615  16.576  1.00  0.00     0.093 N 
HETATM   21  C10 UNL     1      -6.565   3.102  16.767  1.00  0.00     0.274 C 
HETATM   22  C11 UNL     1      -6.859   1.811  17.499  1.00  0.00     0.060 C 
HETATM   23  C12 UNL     1      -5.624   1.271  16.784  1.00  0.00     0.274 C 
ENDBRANCH  17  20
ENDBRANCH  13  14
ENDBRANCH   1  13
TORSDOF 5
ENDMDL
MODEL 3
REMARK VINA RESULT: -6.072580438      1.058      1.347
REMARK  5 active torsions:
REMARK  status: ('A' for Active; 'I' for Inactive)
REMARK    1  A    between atoms: C4_6  and  C5_7 
REMARK    2  A    between atoms: C5_7  and  N2_8 
REMARK    3  A    between atoms: C5_7  and  C6_12 
REMARK    4  A    between atoms: C6_12  and  N3_13 
REMARK    5  A    between atoms: C9_16  and  N4_17 
ROOT
HETATM    1  C5  UNL     1      -2.536   4.495  11.570  1.00  0.00     0.280 C 
ENDROOT
BRANCH   1   2
HETATM    2  C4  UNL     1      -2.531   3.044  11.467  1.00  0.00     0.105 A 
HETATM    3  C3  UNL     1      -1.509   2.220  11.055  1.00  0.00     0.125 A 
HETATM    4  N1  UNL     1      -1.960   0.961  11.127  1.00  0.00    -0.348 N 
HETATM    5  C2  UNL     1      -3.225   1.036  11.574  1.00  0.00     0.119 A 
ATOM      6  H1  UNL     1      -1.445   0.113  10.890  1.00  0.00     0.167 HD
HETATM    7  C1  UNL     1      -4.175  -0.099  11.830  1.00  0.00     0.098 C 
HETATM    8  O1  UNL     1      -3.558   2.290  11.776  1.00  0.00    -0.299 OA
ENDBRANCH   1   2
BRANCH   1   9
HETATM    9  N2  UNL     1      -2.290   5.069  10.251  1.00  0.00    -0.065 N 
ATOM     10  H23 UNL     1      -1.663   4.494   9.689  1.00  0.00     0.275 HD
ATOM     11  H22 UNL     1      -3.110   5.018   9.648  1.00  0.00     0.275 HD
ATOM     12  H21 UNL     1      -1.948   6.023  10.361  1.00  0.00     0.275 HD
ENDBRANCH   1   9
BRANCH   1  13
HETATM   13  C6  UNL     1      -3.760   5.150  12.106  1.00  0.00     0.102 C 
BRANCH  13  14
HETATM   14  N3  UNL     1      -3.995   5.114  13.482  1.00  0.00    -0.371 N 
HETATM   15  C7  UNL     1      -3.026   4.638  14.366  1.00  0.00     0.065 C 
HETATM   16  C8  UNL     1      -3.647   4.000  15.590  1.00  0.00     0.080 C 
HETATM   17  C9  UNL     1      -4.718   3.001  15.254  1.00  0.00     0.229 C 
HETATM   18  C13 UNL     1      -5.720   3.609  14.347  1.00  0.00     0.056 C 
HETATM   19  C14 UNL     1      -5.362   5.008  13.875  1.00  0.00     0.129 C 
BRANCH  17  20
HETATM   20  N4  UNL     1      -5.266   2.548  16.515  1.00  0.00     0.093 N 
HETATM   21  C10 UNL     1      -6.610   3.028  16.789  1.00  0.00     0.274 C 
HETATM   22  C11 UNL     1      -6.895   1.682  17.417  1.00  0.00     0.060 C 
HETATM   23  C12 UNL     1      -5.689   1.195  16.620  1.00  0.00     0.274 C 
ENDBRANCH  17  20
ENDBRANCH  13  14
ENDBRANCH   1  13
TORSDOF 5
ENDMDL
MODEL 4
REMARK VINA RESULT: -6.056938220      1.932      3.358
REMARK  5 active torsions:
REMARK  status: ('A' for Active; 'I' for Inactive)
REMARK    1  A    between atoms: C4_6  and  C5_7 
REMARK    2  A    between atoms: C5_7  and  N2_8 
REMARK    3  A    between atoms: C5_7  and  C6_12 
REMARK    4  A    between atoms: C6_12  and  N3_13 
REMARK    5  A    between atoms: C9_16  and  N4_17 
ROOT
HETATM    1  C5  UNL     1      -3.824   1.060  10.708  1.00  0.00     0.280 C 
ENDROOT
BRANCH   1   2
HETATM    2  C4  UNL     1      -2.738   2.017  10.565  1.00  0.00     0.105 A 
HETATM    3  C3  UNL     1      -1.445   1.918  11.025  1.00  0.00     0.125 A 
HETATM    4  N1  UNL     1      -0.806   3.035  10.656  1.00  0.00    -0.348 N 
HETATM    5  C2  UNL     1      -1.701   3.783   9.990  1.00  0.00     0.119 A 
ATOM      6  H1  UNL     1       0.169   3.271  10.843  1.00  0.00     0.167 HD
HETATM    7  C1  UNL     1      -1.485   5.133   9.368  1.00  0.00     0.098 C 
HETATM    8  O1  UNL     1      -2.857   3.164   9.941  1.00  0.00    -0.299 OA
ENDBRANCH   1   2
BRANCH   1   9
HETATM    9  N2  UNL     1      -3.265  -0.281  10.841  1.00  0.00    -0.065 N 
ATOM     10  H23 UNL     1      -2.264  -0.267  11.032  1.00  0.00     0.275 HD
ATOM     11  H22 UNL     1      -3.568  -0.744  11.697  1.00  0.00     0.275 HD
ATOM     12  H21 UNL     1      -3.493  -0.822  10.006  1.00  0.00     0.275 HD
ENDBRANCH   1   9
BRANCH   1  13
HETATM   13  C6  UNL     1      -4.773   1.248  11.838  1.00  0.00     0.102 C 
BRANCH  13  14
HETATM   14  N3  UNL     1      -4.261   1.484  13.116  1.00  0.00    -0.371 N 
HETATM   15  C7  UNL     1      -4.310   0.500  14.104  1.00  0.00     0.065 C 
HETATM   16  C8  UNL     1      -4.423   1.099  15.489  1.00  0.00     0.080 C 
HETATM   17  C9  UNL     1      -5.507   2.134  15.596  1.00  0.00     0.229 C 
HETATM   18  C13 UNL     1      -5.348   3.156  14.535  1.00  0.00     0.056 C 
HETATM   19  C14 UNL     1      -4.246   2.847  13.536  1.00  0.00     0.129 C 
BRANCH  17  20
HETATM   20  N4  UNL     1      -5.433   2.668  16.939  1.00  0.00     0.093 N 
HETATM   21  C10 UNL     1      -6.517   3.573  17.284  1.00  0.00     0.274 C 
HETATM   22  C11 UNL     1      -6.484   2.982  18.677  1.00  0.00     0.060 C 
HETATM   23  C12 UNL     1      -5.756   1.809  18.026  1.00  0.00     0.274 C 
ENDBRANCH  17  20
ENDBRANCH  13  14
ENDBRANCH   1  13
TORSDOF 5
ENDMDL
MODEL 5
REMARK VINA RESULT: -5.982085487      2.065      4.576
REMARK  5 active torsions:
REMARK  status: ('A' for Active; 'I' for Inactive)
REMARK    1  A    between atoms: C4_6  and  C5_7 
REMARK    2  A    between atoms: C5_7  and  N2_8 
REMARK    3  A    between atoms: C5_7  and  C6_12 
REMARK    4  A    between atoms: C6_12  and  N3_13 
REMARK    5  A    between atoms: C9_16  and  N4_17 
ROOT
HETATM    1  C5  UNL     1      -4.800   2.037  15.052  1.00  0.00     0.280 C 
ENDROOT
BRANCH   1   2
HETATM    2  C4  UNL     1      -4.409   1.529  13.746  1.00  0.00     0.105 A 
HETATM    3  C3  UNL     1      -3.986   2.237  12.645  1.00  0.00     0.125 A 
HETATM    4  N1  UNL     1      -3.734   1.349  11.674  1.00  0.00    -0.348 N 
HETATM    5  C2  UNL     1      -4.001   0.138  12.189  1.00  0.00     0.119 A 
ATOM      6  H1  UNL     1      -3.404   1.553  10.731  1.00  0.00     0.167 HD
HETATM    7  C1  UNL     1      -3.880  -1.194  11.507  1.00  0.00     0.098 C 
HETATM    8  O1  UNL     1      -4.405   0.256  13.433  1.00  0.00    -0.299 OA
ENDBRANCH   1   2
BRANCH   1   9
HETATM    9  N2  UNL     1      -4.690   0.964  16.034  1.00  0.00    -0.065 N 
ATOM     10  H23 UNL     1      -5.250   0.149  15.783  1.00  0.00     0.275 HD
ATOM     11  H22 UNL     1      -3.773   0.518  16.020  1.00  0.00     0.275 HD
ATOM     12  H21 UNL     1      -4.930   1.329  16.956  1.00  0.00     0.275 HD
ENDBRANCH   1   9
BRANCH   1  13
HETATM   13  C6  UNL     1      -4.052   3.202  15.597  1.00  0.00     0.102 C 
BRANCH  13  14
HETATM   14  N3  UNL     1      -4.539   4.488  15.355  1.00  0.00    -0.371 N 
HETATM   15  C7  UNL     1      -5.868   4.697  14.984  1.00  0.00     0.065 C 
HETATM   16  C8  UNL     1      -6.019   5.913  14.096  1.00  0.00     0.080 C 
HETATM   17  C9  UNL     1      -5.050   5.928  12.948  1.00  0.00     0.229 C 
HETATM   18  C13 UNL     1      -3.666   5.742  13.443  1.00  0.00     0.056 C 
HETATM   19  C14 UNL     1      -3.572   5.447  14.931  1.00  0.00     0.129 C 
BRANCH  17  20
HETATM   20  N4  UNL     1      -5.260   7.179  12.251  1.00  0.00     0.093 N 
HETATM   21  C10 UNL     1      -4.806   7.178  10.871  1.00  0.00     0.274 C 
HETATM   22  C11 UNL     1      -6.006   8.038  10.540  1.00  0.00     0.060 C 
HETATM   23  C12 UNL     1      -6.583   7.517  11.853  1.00  0.00     0.274 C 
ENDBRANCH  17  20
ENDBRANCH  13  14
ENDBRANCH   1  13
TORSDOF 5
ENDMDL
