MODEL 1
REMARK VINA RESULT: -6.683697247      0.000      0.000
REMARK  4 active torsions:
REMARK  status: ('A' for Active; 'I' for Inactive)
REMARK    1  A    between atoms: C2_2  and  O2_4 
REMARK    2  A    between atoms: O2_4  and  C3_5 
REMARK    3  A    between atoms: C14_17  and  O4_18 
REMARK    4  A    between atoms: O4_18  and  C15_19 
ROOT
HETATM    1  C3  UNL     1     -16.089   2.100   5.473  1.00  0.00     0.110 A 
HETATM    2  C4  UNL     1     -15.853   1.457   4.275  1.00  0.00     0.180 A 
HETATM    3  O3  UNL     1     -14.574   1.251   4.210  1.00  0.00    -0.323 OA
HETATM    4  C5  UNL     1     -13.944   1.721   5.296  1.00  0.00     0.070 A 
HETATM    5  C6  UNL     1     -14.891   2.272   6.126  1.00  0.00     0.013 A 
HETATM    6  C7  UNL     1     -14.876   2.936   7.457  1.00  0.00     0.028 C 
HETATM    7  C8  UNL     1     -15.466   4.342   7.401  1.00  0.00     0.016 C 
HETATM    8  C9  UNL     1     -13.487   3.124   8.016  1.00  0.00     0.024 C 
HETATM    9  C10 UNL     1     -12.778   4.100   7.148  1.00  0.00    -0.024 C 
HETATM   10  C11 UNL     1     -11.910   3.618   6.276  1.00  0.00    -0.024 C 
HETATM   11  C12 UNL     1     -11.623   2.199   6.131  1.00  0.00     0.033 C 
HETATM   12  C13 UNL     1     -12.485   1.465   5.184  1.00  0.00     0.089 C 
HETATM   13  C14 UNL     1     -12.154   0.017   5.504  1.00  0.00     0.212 C 
HETATM   14  C17 UNL     1     -12.092   0.018   6.986  1.00  0.00     0.162 C 
HETATM   15  O6  UNL     1     -12.287  -0.956   7.675  1.00  0.00    -0.295 OA
HETATM   16  C18 UNL     1     -11.756   1.401   7.395  1.00  0.00     0.075 C 
HETATM   17  C19 UNL     1     -12.740   1.901   8.366  1.00  0.00    -0.029 C 
HETATM   18  C20 UNL     1     -13.737   0.874   8.876  1.00  0.00     0.016 C 
HETATM   19  C21 UNL     1     -11.922   2.244   9.642  1.00  0.00     0.016 C 
ENDROOT
BRANCH   1  20
HETATM   20  O2  UNL     1     -17.345   2.487   5.906  1.00  0.00    -0.277 OA
BRANCH  20  21
HETATM   21  C2  UNL     1     -18.226   3.236   5.172  1.00  0.00     0.260 C 
HETATM   22  C1  UNL     1     -19.361   2.664   4.401  1.00  0.00     0.126 C 
HETATM   23  O1  UNL     1     -18.046   4.465   5.164  1.00  0.00    -0.265 OA
ENDBRANCH  20  21
ENDBRANCH   1  20
BRANCH  13  24
HETATM   24  O4  UNL     1     -13.090  -0.872   4.980  1.00  0.00    -0.308 OA
BRANCH  24  25
HETATM   25  C15 UNL     1     -12.815  -2.028   4.296  1.00  0.00     0.255 C 
HETATM   26  C16 UNL     1     -11.751  -2.993   4.681  1.00  0.00     0.126 C 
HETATM   27  O5  UNL     1     -13.507  -2.293   3.276  1.00  0.00    -0.266 OA
ENDBRANCH  24  25
ENDBRANCH  13  24
TORSDOF 4
ENDMDL
MODEL 2
REMARK VINA RESULT: -6.537761825      2.131      5.074
REMARK  4 active torsions:
REMARK  status: ('A' for Active; 'I' for Inactive)
REMARK    1  A    between atoms: C2_2  and  O2_4 
REMARK    2  A    between atoms: O2_4  and  C3_5 
REMARK    3  A    between atoms: C14_17  and  O4_18 
REMARK    4  A    between atoms: O4_18  and  C15_19 
ROOT
HETATM    1  C3  UNL     1     -15.216   1.785   5.177  1.00  0.00     0.110 A 
HETATM    2  C4  UNL     1     -16.373   2.123   5.849  1.00  0.00     0.180 A 
HETATM    3  O3  UNL     1     -16.041   2.306   7.090  1.00  0.00    -0.323 OA
HETATM    4  C5  UNL     1     -14.730   2.109   7.283  1.00  0.00     0.070 A 
HETATM    5  C6  UNL     1     -14.172   1.773   6.073  1.00  0.00     0.013 A 
HETATM    6  C7  UNL     1     -12.804   1.447   5.591  1.00  0.00     0.028 C 
HETATM    7  C8  UNL     1     -12.740   0.069   4.939  1.00  0.00     0.016 C 
HETATM    8  C9  UNL     1     -11.777   1.397   6.696  1.00  0.00     0.024 C 
HETATM    9  C10 UNL     1     -12.107   0.241   7.569  1.00  0.00    -0.024 C 
HETATM   10  C11 UNL     1     -12.715   0.500   8.713  1.00  0.00    -0.024 C 
HETATM   11  C12 UNL     1     -13.068   1.842   9.148  1.00  0.00     0.033 C 
HETATM   12  C13 UNL     1     -14.391   2.329   8.713  1.00  0.00     0.089 C 
HETATM   13  C14 UNL     1     -14.311   3.811   9.037  1.00  0.00     0.212 C 
HETATM   14  C17 UNL     1     -12.937   4.165   8.604  1.00  0.00     0.162 C 
HETATM   15  O6  UNL     1     -12.593   5.275   8.272  1.00  0.00    -0.295 OA
HETATM   16  C18 UNL     1     -12.139   2.920   8.670  1.00  0.00     0.075 C 
HETATM   17  C19 UNL     1     -11.476   2.667   7.382  1.00  0.00    -0.029 C 
HETATM   18  C20 UNL     1     -11.581   3.787   6.361  1.00  0.00     0.016 C 
HETATM   19  C21 UNL     1      -9.956   2.639   7.700  1.00  0.00     0.016 C 
ENDROOT
BRANCH   1  20
HETATM   20  O2  UNL     1     -15.163   1.514   3.822  1.00  0.00    -0.277 OA
BRANCH  20  21
HETATM   21  C2  UNL     1     -16.215   1.048   3.078  1.00  0.00     0.260 C 
HETATM   22  C1  UNL     1     -17.011   1.889   2.147  1.00  0.00     0.126 C 
HETATM   23  O1  UNL     1     -16.502  -0.154   3.205  1.00  0.00    -0.265 OA
ENDBRANCH  20  21
ENDBRANCH   1  20
BRANCH  13  24
HETATM   24  O4  UNL     1     -15.309   4.550   8.404  1.00  0.00    -0.308 OA
BRANCH  24  25
HETATM   25  C15 UNL     1     -16.113   5.493   8.990  1.00  0.00     0.255 C 
HETATM   26  C16 UNL     1     -15.758   6.932   9.117  1.00  0.00     0.126 C 
HETATM   27  O5  UNL     1     -17.226   5.120   9.452  1.00  0.00    -0.266 OA
ENDBRANCH  24  25
ENDBRANCH  13  24
TORSDOF 4
ENDMDL
MODEL 3
REMARK VINA RESULT: -6.309855752      1.513      2.125
REMARK  4 active torsions:
REMARK  status: ('A' for Active; 'I' for Inactive)
REMARK    1  A    between atoms: C2_2  and  O2_4 
REMARK    2  A    between atoms: O2_4  and  C3_5 
REMARK    3  A    between atoms: C14_17  and  O4_18 
REMARK    4  A    between atoms: O4_18  and  C15_19 
ROOT
HETATM    1  C3  UNL     1     -15.835   1.704   5.211  1.00  0.00     0.110 A 
HETATM    2  C4  UNL     1     -14.867   1.136   4.409  1.00  0.00     0.180 A 
HETATM    3  O3  UNL     1     -13.728   1.354   4.992  1.00  0.00    -0.323 OA
HETATM    4  C5  UNL     1     -13.882   2.034   6.135  1.00  0.00     0.070 A 
HETATM    5  C6  UNL     1     -15.224   2.275   6.304  1.00  0.00     0.013 A 
HETATM    6  C7  UNL     1     -16.059   2.949   7.334  1.00  0.00     0.028 C 
HETATM    7  C8  UNL     1     -16.889   4.086   6.745  1.00  0.00     0.016 C 
HETATM    8  C9  UNL     1     -15.249   3.593   8.433  1.00  0.00     0.024 C 
HETATM    9  C10 UNL     1     -14.487   4.719   7.832  1.00  0.00    -0.024 C 
HETATM   10  C11 UNL     1     -13.207   4.517   7.577  1.00  0.00    -0.024 C 
HETATM   11  C12 UNL     1     -12.522   3.264   7.854  1.00  0.00     0.033 C 
HETATM   12  C13 UNL     1     -12.559   2.262   6.771  1.00  0.00     0.089 C 
HETATM   13  C14 UNL     1     -12.065   1.009   7.475  1.00  0.00     0.212 C 
HETATM   14  C17 UNL     1     -12.761   1.076   8.783  1.00  0.00     0.162 C 
HETATM   15  O6  UNL     1     -13.011   0.113   9.469  1.00  0.00    -0.295 OA
HETATM   16  C18 UNL     1     -13.057   2.505   9.032  1.00  0.00     0.075 C 
HETATM   17  C19 UNL     1     -14.488   2.689   9.315  1.00  0.00    -0.029 C 
HETATM   18  C20 UNL     1     -15.292   1.411   9.482  1.00  0.00     0.016 C 
HETATM   19  C21 UNL     1     -14.549   3.317  10.735  1.00  0.00     0.016 C 
ENDROOT
BRANCH   1  20
HETATM   20  O2  UNL     1     -17.188   1.678   4.924  1.00  0.00    -0.277 OA
BRANCH  20  21
HETATM   21  C2  UNL     1     -17.784   2.385   3.913  1.00  0.00     0.260 C 
HETATM   22  C1  UNL     1     -17.134   2.678   2.609  1.00  0.00     0.126 C 
HETATM   23  O1  UNL     1     -18.938   2.797   4.121  1.00  0.00    -0.265 OA
ENDBRANCH  20  21
ENDBRANCH   1  20
BRANCH  13  24
HETATM   24  O4  UNL     1     -12.334  -0.151   6.751  1.00  0.00    -0.308 OA
BRANCH  24  25
HETATM   25  C15 UNL     1     -11.538  -1.265   6.681  1.00  0.00     0.255 C 
HETATM   26  C16 UNL     1     -11.810  -2.431   5.799  1.00  0.00     0.126 C 
HETATM   27  O5  UNL     1     -10.510  -1.306   7.410  1.00  0.00    -0.266 OA
ENDBRANCH  24  25
ENDBRANCH  13  24
TORSDOF 4
ENDMDL
MODEL 4
REMARK VINA RESULT: -6.201986602      2.811      5.667
REMARK  4 active torsions:
REMARK  status: ('A' for Active; 'I' for Inactive)
REMARK    1  A    between atoms: C2_2  and  O2_4 
REMARK    2  A    between atoms: O2_4  and  C3_5 
REMARK    3  A    between atoms: C14_17  and  O4_18 
REMARK    4  A    between atoms: O4_18  and  C15_19 
ROOT
HETATM    1  C3  UNL     1     -16.448   3.506   6.330  1.00  0.00     0.110 A 
HETATM    2  C4  UNL     1     -17.291   4.206   7.169  1.00  0.00     0.180 A 
HETATM    3  O3  UNL     1     -16.656   4.357   8.291  1.00  0.00    -0.323 OA
HETATM    4  C5  UNL     1     -15.441   3.797   8.248  1.00  0.00     0.070 A 
HETATM    5  C6  UNL     1     -15.277   3.241   7.001  1.00  0.00     0.013 A 
HETATM    6  C7  UNL     1     -14.191   2.501   6.305  1.00  0.00     0.028 C 
HETATM    7  C8  UNL     1     -14.653   1.128   5.823  1.00  0.00     0.016 C 
HETATM    8  C9  UNL     1     -13.000   2.217   7.188  1.00  0.00     0.024 C 
HETATM    9  C10 UNL     1     -13.433   1.263   8.241  1.00  0.00    -0.024 C 
HETATM   10  C11 UNL     1     -13.679   1.755   9.441  1.00  0.00    -0.024 C 
HETATM   11  C12 UNL     1     -13.546   3.165   9.773  1.00  0.00     0.033 C 
HETATM   12  C13 UNL     1     -14.747   3.992   9.547  1.00  0.00     0.089 C 
HETATM   13  C14 UNL     1     -14.195   5.402   9.670  1.00  0.00     0.212 C 
HETATM   14  C17 UNL     1     -12.908   5.311   8.939  1.00  0.00     0.162 C 
HETATM   15  O6  UNL     1     -12.355   6.251   8.417  1.00  0.00    -0.295 OA
HETATM   16  C18 UNL     1     -12.487   3.893   8.998  1.00  0.00     0.075 C 
HETATM   17  C19 UNL     1     -12.220   3.382   7.646  1.00  0.00    -0.029 C 
HETATM   18  C20 UNL     1     -12.236   4.421   6.538  1.00  0.00     0.016 C 
HETATM   19  C21 UNL     1     -10.734   2.928   7.663  1.00  0.00     0.016 C 
ENDROOT
BRANCH   1  20
HETATM   20  O2  UNL     1     -16.772   3.152   5.033  1.00  0.00    -0.277 OA
BRANCH  20  21
HETATM   21  C2  UNL     1     -17.963   3.438   4.420  1.00  0.00     0.260 C 
HETATM   22  C1  UNL     1     -19.089   2.475   4.301  1.00  0.00     0.126 C 
HETATM   23  O1  UNL     1     -18.089   4.579   3.944  1.00  0.00    -0.265 OA
ENDBRANCH  20  21
ENDBRANCH   1  20
BRANCH  13  24
HETATM   24  O4  UNL     1     -15.067   6.362   9.160  1.00  0.00    -0.308 OA
BRANCH  24  25
HETATM   25  C15 UNL     1     -15.402   7.551   9.755  1.00  0.00     0.255 C 
HETATM   26  C16 UNL     1     -14.415   8.507  10.323  1.00  0.00     0.126 C 
HETATM   27  O5  UNL     1     -16.623   7.854   9.827  1.00  0.00    -0.266 OA
ENDBRANCH  24  25
ENDBRANCH  13  24
TORSDOF 4
ENDMDL
MODEL 5
REMARK VINA RESULT: -6.137243792      2.017      3.191
REMARK  4 active torsions:
REMARK  status: ('A' for Active; 'I' for Inactive)
REMARK    1  A    between atoms: C2_2  and  O2_4 
REMARK    2  A    between atoms: O2_4  and  C3_5 
REMARK    3  A    between atoms: C14_17  and  O4_18 
REMARK    4  A    between atoms: O4_18  and  C15_19 
ROOT
HETATM    1  C3  UNL     1     -15.089   1.736   5.284  1.00  0.00     0.110 A 
HETATM    2  C4  UNL     1     -13.852   1.398   4.775  1.00  0.00     0.180 A 
HETATM    3  O3  UNL     1     -12.971   1.837   5.620  1.00  0.00    -0.323 OA
HETATM    4  C5  UNL     1     -13.550   2.449   6.661  1.00  0.00     0.070 A 
HETATM    5  C6  UNL     1     -14.910   2.402   6.475  1.00  0.00     0.013 A 
HETATM    6  C7  UNL     1     -16.102   2.867   7.233  1.00  0.00     0.028 C 
HETATM    7  C8  UNL     1     -16.968   3.817   6.411  1.00  0.00     0.016 C 
HETATM    8  C9  UNL     1     -15.751   3.646   8.478  1.00  0.00     0.024 C 
HETATM    9  C10 UNL     1     -15.109   4.917   8.051  1.00  0.00    -0.024 C 
HETATM   10  C11 UNL     1     -13.794   4.991   8.137  1.00  0.00    -0.024 C 
HETATM   11  C12 UNL     1     -12.959   3.904   8.624  1.00  0.00     0.033 C 
HETATM   12  C13 UNL     1     -12.510   2.936   7.604  1.00  0.00     0.089 C 
HETATM   13  C14 UNL     1     -11.966   1.801   8.455  1.00  0.00     0.212 C 
HETATM   14  C17 UNL     1     -12.972   1.697   9.540  1.00  0.00     0.162 C 
HETATM   15  O6  UNL     1     -13.185   0.691  10.175  1.00  0.00    -0.295 OA
HETATM   16  C18 UNL     1     -13.610   3.028   9.654  1.00  0.00     0.075 C 
HETATM   17  C19 UNL     1     -15.072   2.905   9.557  1.00  0.00    -0.029 C 
HETATM   18  C20 UNL     1     -15.611   1.484   9.560  1.00  0.00     0.016 C 
HETATM   19  C21 UNL     1     -15.623   3.480  10.891  1.00  0.00     0.016 C 
ENDROOT
BRANCH   1  20
HETATM   20  O2  UNL     1     -16.287   1.434   4.662  1.00  0.00    -0.277 OA
BRANCH  20  21
HETATM   21  C2  UNL     1     -16.406   0.995   3.370  1.00  0.00     0.260 C 
HETATM   22  C1  UNL     1     -16.492   1.897   2.191  1.00  0.00     0.126 C 
HETATM   23  O1  UNL     1     -16.442  -0.234   3.195  1.00  0.00    -0.265 OA
ENDBRANCH  20  21
ENDBRANCH   1  20
BRANCH  13  24
HETATM   24  O4  UNL     1     -11.795   0.624   7.729  1.00  0.00    -0.308 OA
BRANCH  24  25
HETATM   25  C15 UNL     1     -10.690  -0.187   7.748  1.00  0.00     0.255 C 
HETATM   26  C16 UNL     1     -10.708  -1.631   7.395  1.00  0.00     0.126 C 
HETATM   27  O5  UNL     1      -9.587   0.322   8.087  1.00  0.00    -0.266 OA
ENDBRANCH  24  25
ENDBRANCH  13  24
TORSDOF 4
ENDMDL
