MODEL 1
REMARK VINA RESULT: -5.988003552      0.000      0.000
REMARK  5 active torsions:
REMARK  status: ('A' for Active; 'I' for Inactive)
REMARK    1  A    between atoms: C2_2  and  C4_4 
REMARK    2  A    between atoms: C4_4  and  C5_5 
REMARK    3  A    between atoms: C5_5  and  C6_6 
REMARK    4  A    between atoms: C6_6  and  O1_7 
REMARK    5  A    between atoms: C11_13  and  O2_14 
ROOT
HETATM    1  C4  UNL     1     -21.411   0.206 -24.346  1.00  0.00    -0.035 C 
HETATM    2  C7  UNL     1     -20.343  -0.676 -25.023  1.00  0.00     0.011 C 
HETATM    3  C8  UNL     1     -20.951  -1.393 -26.202  1.00  0.00     0.013 C 
HETATM    4  C9  UNL     1     -21.108  -0.407 -27.336  1.00  0.00    -0.014 C 
HETATM    5  C10 UNL     1     -19.865  -0.455 -28.173  1.00  0.00     0.018 C 
HETATM    6  C11 UNL     1     -22.356  -0.644 -28.136  1.00  0.00     0.126 C 
HETATM    7  C12 UNL     1     -23.054   0.677 -28.284  1.00  0.00     0.033 C 
HETATM    8  C13 UNL     1     -22.041   1.718 -27.803  1.00  0.00     0.008 C 
HETATM    9  C14 UNL     1     -21.344   0.946 -26.701  1.00  0.00    -0.003 C 
HETATM   10  C15 UNL     1     -22.234   0.772 -25.499  1.00  0.00     0.015 C 
ENDROOT
BRANCH   1  11
HETATM   11  C2  UNL     1     -22.241  -0.686 -23.508  1.00  0.00    -0.014 C 
HETATM   12  C1  UNL     1     -23.685  -0.288 -23.332  1.00  0.00     0.010 C 
HETATM   13  C3  UNL     1     -21.611  -0.999 -22.166  1.00  0.00     0.010 C 
ENDBRANCH   1  11
BRANCH   1  14
HETATM   14  C5  UNL     1     -20.686   1.322 -23.714  1.00  0.00     0.036 C 
BRANCH  14  15
HETATM   15  C6  UNL     1     -21.451   2.477 -23.188  1.00  0.00     0.165 C 
BRANCH  15  16
HETATM   16  O1  UNL     1     -20.559   3.276 -22.416  1.00  0.00    -0.401 OA
ATOM     17  H1  UNL     1     -20.087   2.700 -21.827  1.00  0.00     0.209 HD
ENDBRANCH  15  16
ENDBRANCH  14  15
ENDBRANCH   1  14
BRANCH   6  18
HETATM   18  O2  UNL     1     -23.163  -1.639 -27.637  1.00  0.00    -0.395 OA
ATOM     19  H2  UNL     1     -23.428  -2.284 -28.282  1.00  0.00     0.210 HD
ENDBRANCH   6  18
TORSDOF 5
ENDMDL
MODEL 2
REMARK VINA RESULT: -5.976762569      2.036      3.397
REMARK  5 active torsions:
REMARK  status: ('A' for Active; 'I' for Inactive)
REMARK    1  A    between atoms: C2_2  and  C4_4 
REMARK    2  A    between atoms: C4_4  and  C5_5 
REMARK    3  A    between atoms: C5_5  and  C6_6 
REMARK    4  A    between atoms: C6_6  and  O1_7 
REMARK    5  A    between atoms: C11_13  and  O2_14 
ROOT
HETATM    1  C4  UNL     1     -21.632  -0.232 -24.370  1.00  0.00    -0.035 C 
HETATM    2  C7  UNL     1     -22.706   0.647 -25.042  1.00  0.00     0.011 C 
HETATM    3  C8  UNL     1     -22.103   1.371 -26.219  1.00  0.00     0.013 C 
HETATM    4  C9  UNL     1     -21.944   0.389 -27.357  1.00  0.00    -0.014 C 
HETATM    5  C10 UNL     1     -23.188   0.434 -28.192  1.00  0.00     0.018 C 
HETATM    6  C11 UNL     1     -20.698   0.635 -28.159  1.00  0.00     0.126 C 
HETATM    7  C12 UNL     1     -19.994  -0.682 -28.312  1.00  0.00     0.033 C 
HETATM    8  C13 UNL     1     -21.001  -1.730 -27.834  1.00  0.00     0.008 C 
HETATM    9  C14 UNL     1     -21.700  -0.965 -26.728  1.00  0.00    -0.003 C 
HETATM   10  C15 UNL     1     -20.809  -0.791 -25.526  1.00  0.00     0.015 C 
ENDROOT
BRANCH   1  11
HETATM   11  C2  UNL     1     -20.805   0.660 -23.530  1.00  0.00    -0.014 C 
HETATM   12  C1  UNL     1     -19.374   0.237 -23.310  1.00  0.00     0.010 C 
HETATM   13  C3  UNL     1     -21.461   1.015 -22.211  1.00  0.00     0.010 C 
ENDBRANCH   1  11
BRANCH   1  14
HETATM   14  C5  UNL     1     -22.351  -1.354 -23.741  1.00  0.00     0.036 C 
BRANCH  14  15
HETATM   15  C6  UNL     1     -21.579  -2.498 -23.201  1.00  0.00     0.165 C 
BRANCH  15  16
HETATM   16  O1  UNL     1     -22.463  -3.288 -22.412  1.00  0.00    -0.401 OA
ATOM     17  H1  UNL     1     -22.194  -4.196 -22.494  1.00  0.00     0.209 HD
ENDBRANCH  15  16
ENDBRANCH  14  15
ENDBRANCH   1  14
BRANCH   6  18
HETATM   18  O2  UNL     1     -19.895   1.631 -27.658  1.00  0.00    -0.395 OA
ATOM     19  H2  UNL     1     -19.154   1.317 -27.152  1.00  0.00     0.210 HD
ENDBRANCH   6  18
TORSDOF 5
ENDMDL
MODEL 3
REMARK VINA RESULT: -5.691136544      1.927      4.957
REMARK  5 active torsions:
REMARK  status: ('A' for Active; 'I' for Inactive)
REMARK    1  A    between atoms: C2_2  and  C4_4 
REMARK    2  A    between atoms: C4_4  and  C5_5 
REMARK    3  A    between atoms: C5_5  and  C6_6 
REMARK    4  A    between atoms: C6_6  and  O1_7 
REMARK    5  A    between atoms: C11_13  and  O2_14 
ROOT
HETATM    1  C4  UNL     1     -21.250  -0.845 -26.517  1.00  0.00    -0.035 C 
HETATM    2  C7  UNL     1     -20.638   0.450 -25.947  1.00  0.00     0.011 C 
HETATM    3  C8  UNL     1     -21.515   0.981 -24.842  1.00  0.00     0.013 C 
HETATM    4  C9  UNL     1     -21.305   0.131 -23.610  1.00  0.00    -0.014 C 
HETATM    5  C10 UNL     1     -20.208   0.750 -22.797  1.00  0.00     0.018 C 
HETATM    6  C11 UNL     1     -22.569  -0.066 -22.825  1.00  0.00     0.126 C 
HETATM    7  C12 UNL     1     -22.694  -1.533 -22.533  1.00  0.00     0.033 C 
HETATM    8  C13 UNL     1     -21.338  -2.131 -22.915  1.00  0.00     0.008 C 
HETATM    9  C14 UNL     1     -20.968  -1.260 -24.099  1.00  0.00    -0.003 C 
HETATM   10  C15 UNL     1     -21.818  -1.573 -25.303  1.00  0.00     0.015 C 
ENDROOT
BRANCH   1  11
HETATM   11  C2  UNL     1     -22.339  -0.443 -27.434  1.00  0.00    -0.014 C 
HETATM   12  C1  UNL     1     -23.017  -1.552 -28.198  1.00  0.00     0.010 C 
HETATM   13  C3  UNL     1     -21.945   0.681 -28.370  1.00  0.00     0.010 C 
ENDBRANCH   1  11
BRANCH   1  14
HETATM   14  C5  UNL     1     -20.125  -1.640 -27.038  1.00  0.00     0.036 C 
BRANCH  14  15
HETATM   15  C6  UNL     1     -20.163  -3.117 -26.915  1.00  0.00     0.165 C 
BRANCH  15  16
HETATM   16  O1  UNL     1     -19.079  -3.514 -26.080  1.00  0.00    -0.401 OA
ATOM     17  H1  UNL     1     -18.748  -4.342 -26.406  1.00  0.00     0.209 HD
ENDBRANCH  15  16
ENDBRANCH  14  15
ENDBRANCH   1  14
BRANCH   6  18
HETATM   18  O2  UNL     1     -23.687   0.473 -23.415  1.00  0.00    -0.395 OA
ATOM     19  H2  UNL     1     -24.075  -0.075 -24.088  1.00  0.00     0.210 HD
ENDBRANCH   6  18
TORSDOF 5
ENDMDL
MODEL 4
REMARK VINA RESULT: -5.686317766      1.914      4.528
REMARK  5 active torsions:
REMARK  status: ('A' for Active; 'I' for Inactive)
REMARK    1  A    between atoms: C2_2  and  C4_4 
REMARK    2  A    between atoms: C4_4  and  C5_5 
REMARK    3  A    between atoms: C5_5  and  C6_6 
REMARK    4  A    between atoms: C6_6  and  O1_7 
REMARK    5  A    between atoms: C11_13  and  O2_14 
ROOT
HETATM    1  C4  UNL     1     -21.454   0.850 -27.137  1.00  0.00    -0.035 C 
HETATM    2  C7  UNL     1     -22.671   0.043 -26.642  1.00  0.00     0.011 C 
HETATM    3  C8  UNL     1     -22.210  -1.045 -25.706  1.00  0.00     0.013 C 
HETATM    4  C9  UNL     1     -21.862  -0.419 -24.375  1.00  0.00    -0.014 C 
HETATM    5  C10 UNL     1     -23.089  -0.441 -23.513  1.00  0.00     0.018 C 
HETATM    6  C11 UNL     1     -20.681  -1.078 -23.721  1.00  0.00     0.126 C 
HETATM    7  C12 UNL     1     -19.740   0.011 -23.291  1.00  0.00     0.033 C 
HETATM    8  C13 UNL     1     -20.534   1.309 -23.452  1.00  0.00     0.008 C 
HETATM    9  C14 UNL     1     -21.370   0.980 -24.672  1.00  0.00    -0.003 C 
HETATM   10  C15 UNL     1     -20.534   0.947 -25.924  1.00  0.00     0.015 C 
ENDROOT
BRANCH   1  11
HETATM   11  C2  UNL     1     -20.814   0.056 -28.208  1.00  0.00    -0.014 C 
HETATM   12  C1  UNL     1     -19.634   0.691 -28.899  1.00  0.00     0.010 C 
HETATM   13  C3  UNL     1     -21.802  -0.475 -29.227  1.00  0.00     0.010 C 
ENDBRANCH   1  11
BRANCH   1  14
HETATM   14  C5  UNL     1     -21.950   2.203 -27.440  1.00  0.00     0.036 C 
BRANCH  14  15
HETATM   15  C6  UNL     1     -23.370   2.531 -27.173  1.00  0.00     0.165 C 
BRANCH  15  16
HETATM   16  O1  UNL     1     -23.405   3.545 -26.172  1.00  0.00    -0.401 OA
ATOM     17  H1  UNL     1     -23.511   3.119 -25.330  1.00  0.00     0.209 HD
ENDBRANCH  15  16
ENDBRANCH  14  15
ENDBRANCH   1  14
BRANCH   6  18
HETATM   18  O2  UNL     1     -20.084  -2.049 -24.487  1.00  0.00    -0.395 OA
ATOM     19  H2  UNL     1     -19.234  -2.330 -24.166  1.00  0.00     0.210 HD
ENDBRANCH   6  18
TORSDOF 5
ENDMDL
MODEL 5
REMARK VINA RESULT: -5.669938538      1.328      5.072
REMARK  5 active torsions:
REMARK  status: ('A' for Active; 'I' for Inactive)
REMARK    1  A    between atoms: C2_2  and  C4_4 
REMARK    2  A    between atoms: C4_4  and  C5_5 
REMARK    3  A    between atoms: C5_5  and  C6_6 
REMARK    4  A    between atoms: C6_6  and  O1_7 
REMARK    5  A    between atoms: C11_13  and  O2_14 
ROOT
HETATM    1  C4  UNL     1     -21.683  -0.209 -26.961  1.00  0.00    -0.035 C 
HETATM    2  C7  UNL     1     -20.962  -1.495 -26.511  1.00  0.00     0.011 C 
HETATM    3  C8  UNL     1     -20.189  -1.225 -25.245  1.00  0.00     0.013 C 
HETATM    4  C9  UNL     1     -21.162  -1.158 -24.091  1.00  0.00    -0.014 C 
HETATM    5  C10 UNL     1     -21.293  -2.533 -23.509  1.00  0.00     0.018 C 
HETATM    6  C11 UNL     1     -20.772  -0.129 -23.069  1.00  0.00     0.126 C 
HETATM    7  C12 UNL     1     -21.991   0.698 -22.776  1.00  0.00     0.033 C 
HETATM    8  C13 UNL     1     -23.151  -0.055 -23.431  1.00  0.00     0.008 C 
HETATM    9  C14 UNL     1     -22.462  -0.626 -24.654  1.00  0.00    -0.003 C 
HETATM   10  C15 UNL     1     -22.152   0.446 -25.666  1.00  0.00     0.015 C 
ENDROOT
BRANCH   1  11
HETATM   11  C2  UNL     1     -20.676   0.640 -27.634  1.00  0.00    -0.014 C 
HETATM   12  C1  UNL     1     -21.169   1.951 -28.193  1.00  0.00     0.010 C 
HETATM   13  C3  UNL     1     -19.866  -0.108 -28.673  1.00  0.00     0.010 C 
ENDBRANCH   1  11
BRANCH   1  14
HETATM   14  C5  UNL     1     -22.877  -0.643 -27.707  1.00  0.00     0.036 C 
BRANCH  14  15
HETATM   15  C6  UNL     1     -22.827  -1.905 -28.483  1.00  0.00     0.165 C 
BRANCH  15  16
HETATM   16  O1  UNL     1     -24.163  -2.377 -28.635  1.00  0.00    -0.401 OA
ATOM     17  H1  UNL     1     -24.183  -3.287 -28.362  1.00  0.00     0.209 HD
ENDBRANCH  15  16
ENDBRANCH  14  15
ENDBRANCH   1  14
BRANCH   6  18
HETATM   18  O2  UNL     1     -19.672   0.618 -23.415  1.00  0.00    -0.395 OA
ATOM     19  H2  UNL     1     -19.866   1.360 -23.976  1.00  0.00     0.210 HD
ENDBRANCH   6  18
TORSDOF 5
ENDMDL
