MODEL 1
REMARK VINA RESULT: -7.762784636      0.000      0.000
REMARK  3 active torsions:
REMARK  status: ('A' for Active; 'I' for Inactive)
REMARK    1  A    between atoms: C2_7  and  C3_8 
REMARK    2  A    between atoms: C3_8  and  C4_11 
REMARK    3  A    between atoms: C4_11  and  N3_13 
ROOT
HETATM    1  N3  UNL     1      -4.617 -19.345 -21.304  1.00  0.00    -0.331 N 
HETATM    2  C5  UNL     1      -4.761 -20.798 -21.139  1.00  0.00     0.200 C 
HETATM    3  S1  UNL     1      -3.786 -21.323 -19.672  1.00  0.00    -0.148 SA
HETATM    4  C6  UNL     1      -4.757 -21.199 -18.149  1.00  0.00     0.093 C 
HETATM    5  C7  UNL     1      -4.251 -19.960 -17.394  1.00  0.00     0.084 C 
HETATM    6  C8  UNL     1      -2.910 -20.317 -16.812  1.00  0.00     0.193 C 
HETATM    7  O1  UNL     1      -2.551 -19.664 -15.653  1.00  0.00    -0.334 OA
HETATM    8  C9  UNL     1      -3.102 -18.660 -14.934  1.00  0.00     0.150 A 
HETATM    9  N4  UNL     1      -3.785 -18.783 -13.767  1.00  0.00    -0.346 N 
ATOM     10  H4  UNL     1      -3.898 -19.725 -13.391  1.00  0.00     0.167 HD
HETATM   11  C10 UNL     1      -4.318 -17.795 -13.074  1.00  0.00     0.090 A 
HETATM   12  C11 UNL     1      -4.203 -16.505 -13.526  1.00  0.00     0.018 A 
HETATM   13  C12 UNL     1      -3.527 -16.286 -14.702  1.00  0.00     0.015 A 
HETATM   14  C13 UNL     1      -2.979 -17.359 -15.402  1.00  0.00     0.017 A 
HETATM   15  C14 UNL     1      -2.260 -17.017 -16.646  1.00  0.00     0.219 C 
HETATM   16  O2  UNL     1      -3.241 -16.519 -17.570  1.00  0.00    -0.340 OA
HETATM   17  C15 UNL     1      -3.608 -17.202 -18.711  1.00  0.00     0.105 A 
HETATM   18  S2  UNL     1      -4.046 -18.710 -18.608  1.00  0.00    -0.105 SA
HETATM   19  C16 UNL     1      -4.191 -18.379 -20.337  1.00  0.00     0.071 A 
HETATM   20  C17 UNL     1      -3.785 -17.103 -20.176  1.00  0.00     0.080 A 
ENDROOT
BRANCH   1  21
HETATM   21  C4  UNL     1      -4.939 -18.828 -22.606  1.00  0.00     0.348 C 
HETATM   22  F3  UNL     1      -4.250 -19.497 -23.628  1.00  0.00    -0.220 F 
BRANCH  21  23
HETATM   23  C3  UNL     1      -6.396 -18.910 -22.963  1.00  0.00     0.311 C 
HETATM   24  F1  UNL     1      -7.081 -19.801 -22.178  1.00  0.00    -0.199 F 
HETATM   25  F2  UNL     1      -6.548 -19.372 -24.277  1.00  0.00    -0.199 F 
BRANCH  23  26
HETATM   26  C2  UNL     1      -6.991 -17.534 -22.930  1.00  0.00     0.170 C 
HETATM   27  N2  UNL     1      -6.038 -16.571 -23.377  1.00  0.00    -0.360 N 
HETATM   28  C1  UNL     1      -6.459 -15.229 -23.171  1.00  0.00     0.134 C 
ATOM     29  H2  UNL     1      -5.145 -16.821 -23.802  1.00  0.00     0.162 HD
HETATM   30  N1  UNL     1      -6.174 -14.157 -23.823  1.00  0.00    -0.380 N 
HETATM   31  S3  UNL     1      -7.539 -15.345 -21.720  1.00  0.00    -0.092 SA
ATOM     32  H12 UNL     1      -5.566 -14.092 -24.640  1.00  0.00     0.158 HD
ATOM     33  H11 UNL     1      -6.476 -13.194 -23.675  1.00  0.00     0.158 HD
HETATM   34  C18 UNL     1      -7.428 -17.173 -21.523  1.00  0.00     0.113 C 
ENDBRANCH  23  26
ENDBRANCH  21  23
ENDBRANCH   1  21
TORSDOF 3
ENDMDL
MODEL 2
REMARK VINA RESULT: -7.673600091      4.312      8.738
REMARK  3 active torsions:
REMARK  status: ('A' for Active; 'I' for Inactive)
REMARK    1  A    between atoms: C2_7  and  C3_8 
REMARK    2  A    between atoms: C3_8  and  C4_11 
REMARK    3  A    between atoms: C4_11  and  N3_13 
ROOT
HETATM    1  N3  UNL     1      -4.064 -17.134 -14.886  1.00  0.00    -0.331 N 
HETATM    2  C5  UNL     1      -4.012 -15.739 -15.342  1.00  0.00     0.200 C 
HETATM    3  S1  UNL     1      -3.551 -15.719 -17.122  1.00  0.00    -0.148 SA
HETATM    4  C6  UNL     1      -5.007 -15.861 -18.187  1.00  0.00     0.093 C 
HETATM    5  C7  UNL     1      -5.021 -17.295 -18.740  1.00  0.00     0.084 C 
HETATM    6  C8  UNL     1      -3.936 -17.375 -19.781  1.00  0.00     0.193 C 
HETATM    7  O1  UNL     1      -4.130 -18.280 -20.801  1.00  0.00    -0.334 OA
HETATM    8  C9  UNL     1      -5.061 -19.229 -21.047  1.00  0.00     0.150 A 
HETATM    9  N4  UNL     1      -6.085 -19.144 -21.935  1.00  0.00    -0.346 N 
ATOM     10  H4  UNL     1      -6.164 -18.281 -22.472  1.00  0.00     0.167 HD
HETATM   11  C10 UNL     1      -6.988 -20.078 -22.167  1.00  0.00     0.090 A 
HETATM   12  C11 UNL     1      -6.938 -21.262 -21.476  1.00  0.00     0.018 A 
HETATM   13  C12 UNL     1      -5.933 -21.435 -20.555  1.00  0.00     0.015 A 
HETATM   14  C13 UNL     1      -5.000 -20.424 -20.342  1.00  0.00     0.017 A 
HETATM   15  C14 UNL     1      -3.952 -20.713 -19.341  1.00  0.00     0.219 C 
HETATM   16  O2  UNL     1      -4.608 -20.797 -18.066  1.00  0.00    -0.340 OA
HETATM   17  C15 UNL     1      -4.422 -19.864 -17.067  1.00  0.00     0.105 A 
HETATM   18  S2  UNL     1      -4.609 -18.334 -17.388  1.00  0.00    -0.105 SA
HETATM   19  C16 UNL     1      -4.180 -18.323 -15.674  1.00  0.00     0.071 A 
HETATM   20  C17 UNL     1      -4.079 -19.668 -15.642  1.00  0.00     0.080 A 
ENDROOT
BRANCH   1  21
HETATM   21  C4  UNL     1      -3.982 -17.332 -13.464  1.00  0.00     0.348 C 
HETATM   22  F3  UNL     1      -4.932 -18.255 -13.001  1.00  0.00    -0.220 F 
BRANCH  21  23
HETATM   23  C3  UNL     1      -2.649 -17.827 -12.982  1.00  0.00     0.311 C 
HETATM   24  F1  UNL     1      -1.695 -17.813 -13.965  1.00  0.00    -0.199 F 
HETATM   25  F2  UNL     1      -2.748 -19.165 -12.573  1.00  0.00    -0.199 F 
BRANCH  23  26
HETATM   26  C2  UNL     1      -2.241 -17.047 -11.768  1.00  0.00     0.170 C 
HETATM   27  N2  UNL     1      -2.431 -15.650 -11.990  1.00  0.00    -0.360 N 
HETATM   28  C1  UNL     1      -1.868 -14.839 -10.968  1.00  0.00     0.134 C 
ATOM     29  H2  UNL     1      -2.923 -15.273 -12.800  1.00  0.00     0.162 HD
HETATM   30  N1  UNL     1      -2.215 -13.676 -10.541  1.00  0.00    -0.380 N 
HETATM   31  S3  UNL     1      -0.481 -15.834 -10.357  1.00  0.00    -0.092 SA
ATOM     32  H12 UNL     1      -2.995 -13.116 -10.885  1.00  0.00     0.158 HD
ATOM     33  H11 UNL     1      -1.810 -13.094  -9.808  1.00  0.00     0.158 HD
HETATM   34  C18 UNL     1      -0.780 -17.295 -11.439  1.00  0.00     0.113 C 
ENDBRANCH  23  26
ENDBRANCH  21  23
ENDBRANCH   1  21
TORSDOF 3
ENDMDL
MODEL 3
REMARK VINA RESULT: -7.658247888      4.598      8.945
REMARK  3 active torsions:
REMARK  status: ('A' for Active; 'I' for Inactive)
REMARK    1  A    between atoms: C2_7  and  C3_8 
REMARK    2  A    between atoms: C3_8  and  C4_11 
REMARK    3  A    between atoms: C4_11  and  N3_13 
ROOT
HETATM    1  N3  UNL     1      -3.106 -18.395 -14.494  1.00  0.00    -0.331 N 
HETATM    2  C5  UNL     1      -3.042 -16.942 -14.705  1.00  0.00     0.200 C 
HETATM    3  S1  UNL     1      -2.787 -16.619 -16.497  1.00  0.00    -0.148 SA
HETATM    4  C6  UNL     1      -4.360 -16.535 -17.388  1.00  0.00     0.093 C 
HETATM    5  C7  UNL     1      -4.501 -17.847 -18.175  1.00  0.00     0.084 C 
HETATM    6  C8  UNL     1      -3.547 -17.769 -19.337  1.00  0.00     0.193 C 
HETATM    7  O1  UNL     1      -3.896 -18.475 -20.467  1.00  0.00    -0.334 OA
HETATM    8  C9  UNL     1      -4.892 -19.341 -20.760  1.00  0.00     0.150 A 
HETATM    9  N4  UNL     1      -6.006 -19.075 -21.490  1.00  0.00    -0.346 N 
ATOM     10  H4  UNL     1      -6.106 -18.128 -21.856  1.00  0.00     0.167 HD
HETATM   11  C10 UNL     1      -6.971 -19.930 -21.769  1.00  0.00     0.090 A 
HETATM   12  C11 UNL     1      -6.896 -21.219 -21.305  1.00  0.00     0.018 A 
HETATM   13  C12 UNL     1      -5.802 -21.577 -20.555  1.00  0.00     0.015 A 
HETATM   14  C13 UNL     1      -4.806 -20.643 -20.284  1.00  0.00     0.017 A 
HETATM   15  C14 UNL     1      -3.666 -21.130 -19.481  1.00  0.00     0.219 C 
HETATM   16  O2  UNL     1      -4.175 -21.423 -18.170  1.00  0.00    -0.340 OA
HETATM   17  C15 UNL     1      -3.835 -20.686 -17.055  1.00  0.00     0.105 A 
HETATM   18  S2  UNL     1      -3.986 -19.119 -17.082  1.00  0.00    -0.105 SA
HETATM   19  C16 UNL     1      -3.365 -19.422 -15.456  1.00  0.00     0.071 A 
HETATM   20  C17 UNL     1      -3.323 -20.754 -15.669  1.00  0.00     0.080 A 
ENDROOT
BRANCH   1  21
HETATM   21  C4  UNL     1      -2.872 -18.842 -13.148  1.00  0.00     0.348 C 
HETATM   22  F3  UNL     1      -3.620 -19.987 -12.832  1.00  0.00    -0.220 F 
BRANCH  21  23
HETATM   23  C3  UNL     1      -1.441 -19.184 -12.847  1.00  0.00     0.311 C 
HETATM   24  F1  UNL     1      -0.885 -20.003 -13.795  1.00  0.00    -0.199 F 
HETATM   25  F2  UNL     1      -1.355 -19.892 -11.640  1.00  0.00    -0.199 F 
BRANCH  23  26
HETATM   26  C2  UNL     1      -0.662 -17.918 -12.647  1.00  0.00     0.170 C 
HETATM   27  N2  UNL     1       0.691 -18.217 -12.305  1.00  0.00    -0.360 N 
HETATM   28  C1  UNL     1       1.430 -17.074 -11.894  1.00  0.00     0.134 C 
ATOM     29  H2  UNL     1       1.087 -19.156 -12.352  1.00  0.00     0.162 HD
HETATM   30  N1  UNL     1       2.687 -16.820 -11.982  1.00  0.00    -0.380 N 
HETATM   31  S3  UNL     1       0.165 -15.991 -11.178  1.00  0.00    -0.092 SA
ATOM     32  H12 UNL     1       3.399 -17.429 -12.385  1.00  0.00     0.158 HD
ATOM     33  H11 UNL     1       3.217 -16.000 -11.686  1.00  0.00     0.158 HD
HETATM   34  C18 UNL     1      -1.274 -17.083 -11.537  1.00  0.00     0.113 C 
ENDBRANCH  23  26
ENDBRANCH  21  23
ENDBRANCH   1  21
TORSDOF 3
ENDMDL
MODEL 4
REMARK VINA RESULT: -7.636221964      2.883      3.795
REMARK  3 active torsions:
REMARK  status: ('A' for Active; 'I' for Inactive)
REMARK    1  A    between atoms: C2_7  and  C3_8 
REMARK    2  A    between atoms: C3_8  and  C4_11 
REMARK    3  A    between atoms: C4_11  and  N3_13 
ROOT
HETATM    1  N3  UNL     1      -3.473 -19.567 -17.573  1.00  0.00    -0.331 N 
HETATM    2  C5  UNL     1      -3.654 -20.855 -16.889  1.00  0.00     0.200 C 
HETATM    3  S1  UNL     1      -2.569 -20.890 -15.405  1.00  0.00    -0.148 SA
HETATM    4  C6  UNL     1      -3.393 -20.172 -13.962  1.00  0.00     0.093 C 
HETATM    5  C7  UNL     1      -2.778 -18.781 -13.739  1.00  0.00     0.084 C 
HETATM    6  C8  UNL     1      -1.403 -18.996 -13.166  1.00  0.00     0.193 C 
HETATM    7  O1  UNL     1      -0.918 -18.000 -12.346  1.00  0.00    -0.334 OA
HETATM    8  C9  UNL     1      -1.366 -16.773 -11.996  1.00  0.00     0.150 A 
HETATM    9  N4  UNL     1      -1.946 -16.431 -10.817  1.00  0.00    -0.346 N 
ATOM     10  H4  UNL     1      -2.057 -17.169 -10.122  1.00  0.00     0.167 HD
HETATM   11  C10 UNL     1      -2.379 -15.228 -10.488  1.00  0.00     0.090 A 
HETATM   12  C11 UNL     1      -2.260 -14.193 -11.379  1.00  0.00     0.018 A 
HETATM   13  C12 UNL     1      -1.685 -14.449 -12.600  1.00  0.00     0.015 A 
HETATM   14  C13 UNL     1      -1.241 -15.732 -12.907  1.00  0.00     0.017 A 
HETATM   15  C14 UNL     1      -0.626 -15.901 -14.240  1.00  0.00     0.219 C 
HETATM   16  O2  UNL     1      -1.668 -15.699 -15.207  1.00  0.00    -0.340 OA
HETATM   17  C15 UNL     1      -2.159 -16.716 -15.999  1.00  0.00     0.105 A 
HETATM   18  S2  UNL     1      -2.640 -18.058 -15.331  1.00  0.00    -0.105 SA
HETATM   19  C16 UNL     1      -2.928 -18.352 -17.049  1.00  0.00     0.071 A 
HETATM   20  C17 UNL     1      -2.465 -17.130 -17.385  1.00  0.00     0.080 A 
ENDROOT
BRANCH   1  21
HETATM   21  C4  UNL     1      -3.894 -19.524 -18.947  1.00  0.00     0.348 C 
HETATM   22  F3  UNL     1      -3.818 -20.782 -19.565  1.00  0.00    -0.220 F 
BRANCH  21  23
HETATM   23  C3  UNL     1      -5.303 -19.044 -19.150  1.00  0.00     0.311 C 
HETATM   24  F1  UNL     1      -5.938 -18.762 -17.969  1.00  0.00    -0.199 F 
HETATM   25  F2  UNL     1      -6.072 -20.043 -19.762  1.00  0.00    -0.199 F 
BRANCH  23  26
HETATM   26  C2  UNL     1      -5.297 -17.880 -20.097  1.00  0.00     0.170 C 
HETATM   27  N2  UNL     1      -4.043 -17.800 -20.774  1.00  0.00    -0.360 N 
HETATM   28  C1  UNL     1      -3.889 -16.602 -21.524  1.00  0.00     0.134 C 
ATOM     29  H2  UNL     1      -3.331 -18.528 -20.726  1.00  0.00     0.162 HD
HETATM   30  N1  UNL     1      -3.208 -16.368 -22.590  1.00  0.00    -0.380 N 
HETATM   31  S3  UNL     1      -4.906 -15.404 -20.619  1.00  0.00    -0.092 SA
ATOM     32  H12 UNL     1      -2.636 -17.042 -23.100  1.00  0.00     0.158 HD
ATOM     33  H11 UNL     1      -3.097 -15.509 -23.128  1.00  0.00     0.158 HD
HETATM   34  C18 UNL     1      -5.533 -16.582 -19.349  1.00  0.00     0.113 C 
ENDBRANCH  23  26
ENDBRANCH  21  23
ENDBRANCH   1  21
TORSDOF 3
ENDMDL
MODEL 5
REMARK VINA RESULT: -7.555799802      4.274      6.691
REMARK  3 active torsions:
REMARK  status: ('A' for Active; 'I' for Inactive)
REMARK    1  A    between atoms: C2_7  and  C3_8 
REMARK    2  A    between atoms: C3_8  and  C4_11 
REMARK    3  A    between atoms: C4_11  and  N3_13 
ROOT
HETATM    1  N3  UNL     1      -3.800 -17.531 -17.262  1.00  0.00    -0.331 N 
HETATM    2  C5  UNL     1      -4.121 -17.516 -15.828  1.00  0.00     0.200 C 
HETATM    3  S1  UNL     1      -3.774 -15.836 -15.166  1.00  0.00    -0.148 SA
HETATM    4  C6  UNL     1      -5.202 -14.740 -15.351  1.00  0.00     0.093 C 
HETATM    5  C7  UNL     1      -4.887 -13.783 -16.511  1.00  0.00     0.084 C 
HETATM    6  C8  UNL     1      -3.873 -12.794 -16.001  1.00  0.00     0.193 C 
HETATM    7  O1  UNL     1      -3.887 -11.545 -16.582  1.00  0.00    -0.334 OA
HETATM    8  C9  UNL     1      -4.564 -11.002 -17.619  1.00  0.00     0.150 A 
HETATM    9  N4  UNL     1      -5.622 -10.154 -17.538  1.00  0.00    -0.346 N 
ATOM     10  H4  UNL     1      -5.942  -9.899 -16.603  1.00  0.00     0.167 HD
HETATM   11  C10 UNL     1      -6.274  -9.630 -18.558  1.00  0.00     0.090 A 
HETATM   12  C11 UNL     1      -5.894  -9.935 -19.840  1.00  0.00     0.018 A 
HETATM   13  C12 UNL     1      -4.831 -10.788 -20.017  1.00  0.00     0.015 A 
HETATM   14  C13 UNL     1      -4.170 -11.318 -18.912  1.00  0.00     0.017 A 
HETATM   15  C14 UNL     1      -3.032 -12.213 -19.209  1.00  0.00     0.219 C 
HETATM   16  O2  UNL     1      -3.578 -13.387 -19.831  1.00  0.00    -0.340 OA
HETATM   17  C15 UNL     1      -3.579 -14.624 -19.220  1.00  0.00     0.105 A 
HETATM   18  S2  UNL     1      -4.158 -14.771 -17.764  1.00  0.00    -0.105 SA
HETATM   19  C16 UNL     1      -3.657 -16.420 -18.153  1.00  0.00     0.071 A 
HETATM   20  C17 UNL     1      -3.222 -16.050 -19.375  1.00  0.00     0.080 A 
ENDROOT
BRANCH   1  21
HETATM   21  C4  UNL     1      -3.597 -18.830 -17.844  1.00  0.00     0.348 C 
HETATM   22  F3  UNL     1      -2.888 -19.689 -16.990  1.00  0.00    -0.220 F 
BRANCH  21  23
HETATM   23  C3  UNL     1      -4.864 -19.553 -18.204  1.00  0.00     0.311 C 
HETATM   24  F1  UNL     1      -5.933 -18.706 -18.338  1.00  0.00    -0.199 F 
HETATM   25  F2  UNL     1      -5.218 -20.448 -17.185  1.00  0.00    -0.199 F 
BRANCH  23  26
HETATM   26  C2  UNL     1      -4.627 -20.385 -19.430  1.00  0.00     0.170 C 
HETATM   27  N2  UNL     1      -3.763 -21.479 -19.126  1.00  0.00    -0.360 N 
HETATM   28  C1  UNL     1      -3.326 -22.183 -20.281  1.00  0.00     0.134 C 
ATOM     29  H2  UNL     1      -3.489 -21.731 -18.176  1.00  0.00     0.162 HD
HETATM   30  N1  UNL     1      -2.990 -23.417 -20.427  1.00  0.00    -0.380 N 
HETATM   31  S3  UNL     1      -3.336 -20.915 -21.576  1.00  0.00    -0.092 SA
ATOM     32  H12 UNL     1      -2.984 -24.130 -19.698  1.00  0.00     0.158 HD
ATOM     33  H11 UNL     1      -2.676 -23.922 -21.255  1.00  0.00     0.158 HD
HETATM   34  C18 UNL     1      -3.993 -19.551 -20.527  1.00  0.00     0.113 C 
ENDBRANCH  23  26
ENDBRANCH  21  23
ENDBRANCH   1  21
TORSDOF 3
ENDMDL
