MODEL 1
REMARK VINA RESULT: -10.473041434      0.000      0.000
REMARK  5 active torsions:
REMARK  status: ('A' for Active; 'I' for Inactive)
REMARK    1  A    between atoms: N3_8  and  C3_10 
REMARK    2  A    between atoms: C3_10  and  C4_11 
REMARK    3  A    between atoms: N5_27  and  N6_29 
REMARK       I    between atoms: N6_29  and  C17_31 
REMARK    4  A    between atoms: C17_31  and  C18_33 
REMARK    5  A    between atoms: C18_33  and  C19_34 
ROOT
HETATM    1  N1  UNL     1      -9.663  20.472 -52.886  1.00  0.00    -0.234 N 
ATOM      2  H11 UNL     1      -8.794  20.503 -53.418  1.00  0.00     0.174 HD
ATOM      3  H12 UNL     1     -10.530  20.987 -53.039  1.00  0.00     0.174 HD
HETATM    4  C1  UNL     1      -9.713  19.681 -51.868  1.00  0.00     0.692 C 
HETATM    5  N2  UNL     1     -10.934  19.638 -51.121  1.00  0.00    -0.023 N 
ATOM      6  H2  UNL     1     -11.761  20.026 -51.575  1.00  0.00     0.203 HD
HETATM    7  C2  UNL     1     -11.115  19.104 -49.798  1.00  0.00     0.693 C 
HETATM    8  N3  UNL     1     -12.080  19.662 -49.154  1.00  0.00    -0.225 N 
ATOM      9  H3  UNL     1     -12.597  20.398 -49.634  1.00  0.00     0.177 HD
HETATM   10  N4  UNL     1     -10.389  18.088 -49.157  1.00  0.00    -0.185 N 
ATOM     11  H4  UNL     1     -10.828  17.668 -48.338  1.00  0.00     0.184 HD
HETATM   12  C14 UNL     1      -9.108  17.575 -49.521  1.00  0.00     0.121 C 
HETATM   13  C15 UNL     1      -8.607  16.677 -48.694  1.00  0.00     0.222 C 
HETATM   14  F1  UNL     1      -7.400  16.119 -48.932  1.00  0.00    -0.217 F 
HETATM   15  C16 UNL     1      -8.309  17.930 -50.688  1.00  0.00     0.165 C 
HETATM   16  N5  UNL     1      -7.274  17.180 -50.849  1.00  0.00    -0.281 N 
ATOM     17  H5  UNL     1      -7.107  16.433 -50.176  1.00  0.00     0.188 HD
HETATM   18  N8  UNL     1      -8.498  18.960 -51.654  1.00  0.00    -0.173 N 
ATOM     19  H8  UNL     1      -7.700  19.202 -52.243  1.00  0.00     0.186 HD
ENDROOT
BRANCH  16  20
HETATM   20  N6  UNL     1      -6.371  17.341 -51.899  1.00  0.00    -0.268 N 
HETATM   21  C17 UNL     1      -5.078  17.844 -51.586  1.00  0.00     0.236 C 
HETATM   22  O1  UNL     1      -4.775  18.129 -50.406  1.00  0.00    -0.272 OA
ATOM     23  H6  UNL     1      -6.628  17.107 -52.859  1.00  0.00     0.190 HD
BRANCH  21  24
HETATM   24  C18 UNL     1      -4.149  17.999 -52.731  1.00  0.00     0.109 C 
BRANCH  24  25
HETATM   25  C19 UNL     1      -3.158  19.087 -52.387  1.00  0.00    -0.003 C 
HETATM   26  C20 UNL     1      -1.931  18.499 -51.740  1.00  0.00     0.032 C 
HETATM   27  C21 UNL     1      -0.810  19.476 -51.572  1.00  0.00     0.232 C 
HETATM   28  N7  UNL     1      -0.815  20.497 -52.609  1.00  0.00    -0.075 N 
HETATM   29  C22 UNL     1      -1.389  19.974 -53.836  1.00  0.00     0.232 C 
ATOM     30  H72 UNL     1      -1.287  21.347 -52.302  1.00  0.00     0.277 HD
ATOM     31  H71 UNL     1       0.116  20.887 -52.761  1.00  0.00     0.277 HD
HETATM   32  C23 UNL     1      -2.887  19.907 -53.588  1.00  0.00     0.032 C 
ENDBRANCH  24  25
ENDBRANCH  21  24
ENDBRANCH  16  20
BRANCH   8  33
HETATM   33  C3  UNL     1     -12.488  19.339 -47.827  1.00  0.00     0.147 C 
BRANCH  33  34
HETATM   34  C4  UNL     1     -13.912  18.822 -47.888  1.00  0.00    -0.023 C 
HETATM   35  C5  UNL     1     -13.943  17.416 -48.469  1.00  0.00     0.015 C 
HETATM   36  C6  UNL     1     -15.376  16.946 -48.507  1.00  0.00    -0.013 C 
HETATM   37  C7  UNL     1     -15.988  16.925 -47.114  1.00  0.00     0.009 C 
HETATM   38  C11 UNL     1     -16.234  17.876 -49.340  1.00  0.00     0.009 C 
HETATM   39  C8  UNL     1     -15.920  18.307 -46.536  1.00  0.00    -0.013 C 
HETATM   40  C9  UNL     1     -16.670  19.328 -47.357  1.00  0.00     0.009 C 
HETATM   41  C13 UNL     1     -14.475  18.732 -46.493  1.00  0.00     0.015 C 
HETATM   42  C10 UNL     1     -16.170  19.272 -48.770  1.00  0.00    -0.013 C 
HETATM   43  C12 UNL     1     -14.728  19.708 -48.786  1.00  0.00     0.015 C 
ENDBRANCH  33  34
ENDBRANCH   8  33
TORSDOF 5
ENDMDL
MODEL 2
REMARK VINA RESULT: -10.424601765      0.755      1.519
REMARK  5 active torsions:
REMARK  status: ('A' for Active; 'I' for Inactive)
REMARK    1  A    between atoms: N3_8  and  C3_10 
REMARK    2  A    between atoms: C3_10  and  C4_11 
REMARK    3  A    between atoms: N5_27  and  N6_29 
REMARK       I    between atoms: N6_29  and  C17_31 
REMARK    4  A    between atoms: C17_31  and  C18_33 
REMARK    5  A    between atoms: C18_33  and  C19_34 
ROOT
HETATM    1  N1  UNL     1      -9.440  20.103 -53.359  1.00  0.00    -0.234 N 
ATOM      2  H11 UNL     1      -8.588  20.160 -53.916  1.00  0.00     0.174 HD
ATOM      3  H12 UNL     1     -10.355  20.519 -53.536  1.00  0.00     0.174 HD
HETATM    4  C1  UNL     1      -9.395  19.415 -52.268  1.00  0.00     0.692 C 
HETATM    5  N2  UNL     1     -10.592  19.335 -51.486  1.00  0.00    -0.023 N 
ATOM      6  H2  UNL     1     -11.461  19.598 -51.952  1.00  0.00     0.203 HD
HETATM    7  C2  UNL     1     -10.697  18.921 -50.113  1.00  0.00     0.693 C 
HETATM    8  N3  UNL     1     -11.697  19.450 -49.498  1.00  0.00    -0.225 N 
ATOM      9  H3  UNL     1     -12.291  20.084 -50.032  1.00  0.00     0.177 HD
HETATM   10  N4  UNL     1      -9.867  18.044 -49.397  1.00  0.00    -0.185 N 
ATOM     11  H4  UNL     1     -10.248  17.670 -48.529  1.00  0.00     0.184 HD
HETATM   12  C14 UNL     1      -8.550  17.617 -49.746  1.00  0.00     0.121 C 
HETATM   13  C15 UNL     1      -7.951  16.856 -48.851  1.00  0.00     0.222 C 
HETATM   14  F1  UNL     1      -6.702  16.389 -49.068  1.00  0.00    -0.217 F 
HETATM   15  C16 UNL     1      -7.811  17.927 -50.964  1.00  0.00     0.165 C 
HETATM   16  N5  UNL     1      -6.714  17.262 -51.082  1.00  0.00    -0.281 N 
ATOM     17  H5  UNL     1      -6.464  16.604 -50.344  1.00  0.00     0.188 HD
HETATM   18  N8  UNL     1      -8.115  18.833 -52.020  1.00  0.00    -0.173 N 
ATOM     19  H8  UNL     1      -7.355  19.088 -52.652  1.00  0.00     0.186 HD
ENDROOT
BRANCH  16  20
HETATM   20  N6  UNL     1      -5.850  17.400 -52.168  1.00  0.00    -0.268 N 
HETATM   21  C17 UNL     1      -4.565  17.958 -51.922  1.00  0.00     0.236 C 
HETATM   22  O1  UNL     1      -4.234  18.309 -50.768  1.00  0.00    -0.272 OA
ATOM     23  H6  UNL     1      -6.129  17.111 -53.106  1.00  0.00     0.190 HD
BRANCH  21  24
HETATM   24  C18 UNL     1      -3.679  18.086 -53.103  1.00  0.00     0.109 C 
BRANCH  24  25
HETATM   25  C19 UNL     1      -3.035  19.453 -53.060  1.00  0.00    -0.003 C 
HETATM   26  C20 UNL     1      -1.537  19.328 -52.955  1.00  0.00     0.032 C 
HETATM   27  C21 UNL     1      -0.810  20.624 -53.132  1.00  0.00     0.232 C 
HETATM   28  N7  UNL     1      -1.525  21.537 -54.011  1.00  0.00    -0.075 N 
HETATM   29  C22 UNL     1      -2.312  20.797 -54.981  1.00  0.00     0.232 C 
ATOM     30  H72 UNL     1      -2.094  22.201 -53.487  1.00  0.00     0.277 HD
ATOM     31  H71 UNL     1      -0.894  22.201 -54.462  1.00  0.00     0.277 HD
HETATM   32  C23 UNL     1      -3.505  20.258 -54.209  1.00  0.00     0.032 C 
ENDBRANCH  24  25
ENDBRANCH  21  24
ENDBRANCH  16  20
BRANCH   8  33
HETATM   33  C3  UNL     1     -12.048  19.224 -48.135  1.00  0.00     0.147 C 
BRANCH  33  34
HETATM   34  C4  UNL     1     -13.521  18.871 -48.083  1.00  0.00    -0.023 C 
HETATM   35  C5  UNL     1     -14.330  19.836 -48.937  1.00  0.00     0.015 C 
HETATM   36  C6  UNL     1     -15.784  19.444 -48.854  1.00  0.00    -0.013 C 
HETATM   37  C7  UNL     1     -16.004  18.025 -49.359  1.00  0.00     0.009 C 
HETATM   38  C11 UNL     1     -16.278  19.472 -47.421  1.00  0.00     0.009 C 
HETATM   39  C8  UNL     1     -15.174  17.086 -48.534  1.00  0.00    -0.013 C 
HETATM   40  C9  UNL     1     -15.530  17.117 -47.068  1.00  0.00     0.009 C 
HETATM   41  C13 UNL     1     -13.730  17.495 -48.660  1.00  0.00     0.015 C 
HETATM   42  C10 UNL     1     -15.447  18.533 -46.581  1.00  0.00    -0.013 C 
HETATM   43  C12 UNL     1     -14.013  18.986 -46.667  1.00  0.00     0.015 C 
ENDBRANCH  33  34
ENDBRANCH   8  33
TORSDOF 5
ENDMDL
MODEL 3
REMARK VINA RESULT: -10.417730913      0.780      1.547
REMARK  5 active torsions:
REMARK  status: ('A' for Active; 'I' for Inactive)
REMARK    1  A    between atoms: N3_8  and  C3_10 
REMARK    2  A    between atoms: C3_10  and  C4_11 
REMARK    3  A    between atoms: N5_27  and  N6_29 
REMARK       I    between atoms: N6_29  and  C17_31 
REMARK    4  A    between atoms: C17_31  and  C18_33 
REMARK    5  A    between atoms: C18_33  and  C19_34 
ROOT
HETATM    1  N1  UNL     1      -9.437  20.103 -53.389  1.00  0.00    -0.234 N 
ATOM      2  H11 UNL     1      -8.587  20.155 -53.950  1.00  0.00     0.174 HD
ATOM      3  H12 UNL     1     -10.353  20.516 -53.565  1.00  0.00     0.174 HD
HETATM    4  C1  UNL     1      -9.385  19.425 -52.291  1.00  0.00     0.692 C 
HETATM    5  N2  UNL     1     -10.579  19.351 -51.503  1.00  0.00    -0.023 N 
ATOM      6  H2  UNL     1     -11.450  19.609 -51.967  1.00  0.00     0.203 HD
HETATM    7  C2  UNL     1     -10.676  18.950 -50.125  1.00  0.00     0.693 C 
HETATM    8  N3  UNL     1     -11.674  19.483 -49.511  1.00  0.00    -0.225 N 
ATOM      9  H3  UNL     1     -12.270  20.112 -50.048  1.00  0.00     0.177 HD
HETATM   10  N4  UNL     1      -9.841  18.080 -49.405  1.00  0.00    -0.185 N 
ATOM     11  H4  UNL     1     -10.217  17.713 -48.531  1.00  0.00     0.184 HD
HETATM   12  C14 UNL     1      -8.525  17.652 -49.756  1.00  0.00     0.121 C 
HETATM   13  C15 UNL     1      -7.921  16.899 -48.857  1.00  0.00     0.222 C 
HETATM   14  F1  UNL     1      -6.673  16.432 -49.077  1.00  0.00    -0.217 F 
HETATM   15  C16 UNL     1      -7.793  17.951 -50.982  1.00  0.00     0.165 C 
HETATM   16  N5  UNL     1      -6.695  17.286 -51.098  1.00  0.00    -0.281 N 
ATOM     17  H5  UNL     1      -6.441  16.635 -50.355  1.00  0.00     0.188 HD
HETATM   18  N8  UNL     1      -8.103  18.847 -52.044  1.00  0.00    -0.173 N 
ATOM     19  H8  UNL     1      -7.346  19.096 -52.682  1.00  0.00     0.186 HD
ENDROOT
BRANCH  16  20
HETATM   20  N6  UNL     1      -5.837  17.415 -52.190  1.00  0.00    -0.268 N 
HETATM   21  C17 UNL     1      -4.547  17.966 -51.953  1.00  0.00     0.236 C 
HETATM   22  O1  UNL     1      -4.208  18.319 -50.803  1.00  0.00    -0.272 OA
ATOM     23  H6  UNL     1      -6.124  17.124 -53.125  1.00  0.00     0.190 HD
BRANCH  21  24
HETATM   24  C18 UNL     1      -3.668  18.084 -53.141  1.00  0.00     0.109 C 
BRANCH  24  25
HETATM   25  C19 UNL     1      -3.030  19.455 -53.116  1.00  0.00    -0.003 C 
HETATM   26  C20 UNL     1      -1.532  19.338 -53.000  1.00  0.00     0.032 C 
HETATM   27  C21 UNL     1      -0.810  20.634 -53.194  1.00  0.00     0.232 C 
HETATM   28  N7  UNL     1      -1.523  21.529 -54.093  1.00  0.00    -0.075 N 
HETATM   29  C22 UNL     1      -2.301  20.770 -55.055  1.00  0.00     0.232 C 
ATOM     30  H72 UNL     1      -2.098  22.199 -53.583  1.00  0.00     0.277 HD
ATOM     31  H71 UNL     1      -0.892  22.188 -54.551  1.00  0.00     0.277 HD
HETATM   32  C23 UNL     1      -3.497  20.238 -54.282  1.00  0.00     0.032 C 
ENDBRANCH  24  25
ENDBRANCH  21  24
ENDBRANCH  16  20
BRANCH   8  33
HETATM   33  C3  UNL     1     -12.017  19.269 -48.144  1.00  0.00     0.147 C 
BRANCH  33  34
HETATM   34  C4  UNL     1     -13.479  18.873 -48.085  1.00  0.00    -0.023 C 
HETATM   35  C5  UNL     1     -13.990  18.933 -46.653  1.00  0.00     0.015 C 
HETATM   36  C6  UNL     1     -15.444  18.533 -46.647  1.00  0.00    -0.013 C 
HETATM   37  C7  UNL     1     -16.278  19.465 -47.515  1.00  0.00     0.009 C 
HETATM   38  C11 UNL     1     -15.630  17.139 -47.211  1.00  0.00     0.009 C 
HETATM   39  C8  UNL     1     -15.743  19.426 -48.916  1.00  0.00    -0.013 C 
HETATM   40  C9  UNL     1     -15.798  18.048 -49.530  1.00  0.00     0.009 C 
HETATM   41  C13 UNL     1     -14.299  19.853 -48.884  1.00  0.00     0.015 C 
HETATM   42  C10 UNL     1     -15.093  17.087 -48.620  1.00  0.00    -0.013 C 
HETATM   43  C12 UNL     1     -13.634  17.458 -48.569  1.00  0.00     0.015 C 
ENDBRANCH  33  34
ENDBRANCH   8  33
TORSDOF 5
ENDMDL
MODEL 4
REMARK VINA RESULT: -9.862302101      1.573      1.828
REMARK  5 active torsions:
REMARK  status: ('A' for Active; 'I' for Inactive)
REMARK    1  A    between atoms: N3_8  and  C3_10 
REMARK    2  A    between atoms: C3_10  and  C4_11 
REMARK    3  A    between atoms: N5_27  and  N6_29 
REMARK       I    between atoms: N6_29  and  C17_31 
REMARK    4  A    between atoms: C17_31  and  C18_33 
REMARK    5  A    between atoms: C18_33  and  C19_34 
ROOT
HETATM    1  N1  UNL     1      -9.220  18.706 -53.882  1.00  0.00    -0.234 N 
ATOM      2  H11 UNL     1      -8.406  18.909 -54.461  1.00  0.00     0.174 HD
ATOM      3  H12 UNL     1     -10.210  18.768 -54.117  1.00  0.00     0.174 HD
HETATM    4  C1  UNL     1      -9.007  18.311 -52.671  1.00  0.00     0.692 C 
HETATM    5  N2  UNL     1     -10.151  18.025 -51.857  1.00  0.00    -0.023 N 
ATOM      6  H2  UNL     1     -11.038  17.900 -52.345  1.00  0.00     0.203 HD
HETATM    7  C2  UNL     1     -10.177  17.896 -50.426  1.00  0.00     0.693 C 
HETATM    8  N3  UNL     1     -11.317  18.200 -49.910  1.00  0.00    -0.225 N 
ATOM      9  H3  UNL     1     -12.056  18.491 -50.549  1.00  0.00     0.177 HD
HETATM   10  N4  UNL     1      -9.145  17.493 -49.563  1.00  0.00    -0.185 N 
ATOM     11  H4  UNL     1      -9.425  17.208 -48.626  1.00  0.00     0.184 HD
HETATM   12  C14 UNL     1      -7.747  17.437 -49.850  1.00  0.00     0.121 C 
HETATM   13  C15 UNL     1      -6.978  17.106 -48.831  1.00  0.00     0.222 C 
HETATM   14  F1  UNL     1      -5.638  17.020 -48.979  1.00  0.00    -0.217 F 
HETATM   15  C16 UNL     1      -7.093  17.701 -51.126  1.00  0.00     0.165 C 
HETATM   16  N5  UNL     1      -5.839  17.405 -51.130  1.00  0.00    -0.281 N 
ATOM     17  H5  UNL     1      -5.427  17.027 -50.277  1.00  0.00     0.188 HD
HETATM   18  N8  UNL     1      -7.620  18.225 -52.341  1.00  0.00    -0.173 N 
ATOM     19  H8  UNL     1      -6.953  18.567 -53.033  1.00  0.00     0.186 HD
ENDROOT
BRANCH  16  20
HETATM   20  N6  UNL     1      -5.017  17.576 -52.244  1.00  0.00    -0.268 N 
HETATM   21  C17 UNL     1      -3.709  18.089 -52.026  1.00  0.00     0.236 C 
HETATM   22  O1  UNL     1      -3.322  18.374 -50.871  1.00  0.00    -0.272 OA
ATOM     23  H6  UNL     1      -5.343  17.341 -53.183  1.00  0.00     0.190 HD
BRANCH  21  24
HETATM   24  C18 UNL     1      -2.870  18.255 -53.236  1.00  0.00     0.109 C 
BRANCH  24  25
HETATM   25  C19 UNL     1      -3.398  19.439 -54.015  1.00  0.00    -0.003 C 
HETATM   26  C20 UNL     1      -2.954  20.730 -53.380  1.00  0.00     0.032 C 
HETATM   27  C21 UNL     1      -3.244  21.941 -54.209  1.00  0.00     0.232 C 
HETATM   28  N7  UNL     1      -3.223  21.647 -55.634  1.00  0.00    -0.075 N 
HETATM   29  C22 UNL     1      -2.313  20.550 -55.913  1.00  0.00     0.232 C 
ATOM     30  H72 UNL     1      -4.158  21.466 -55.997  1.00  0.00     0.277 HD
ATOM     31  H71 UNL     1      -3.002  22.474 -56.188  1.00  0.00     0.277 HD
HETATM   32  C23 UNL     1      -3.030  19.296 -55.441  1.00  0.00     0.032 C 
ENDBRANCH  24  25
ENDBRANCH  21  24
ENDBRANCH  16  20
BRANCH   8  33
HETATM   33  C3  UNL     1     -11.635  18.166 -48.520  1.00  0.00     0.147 C 
BRANCH  33  34
HETATM   34  C4  UNL     1     -13.144  18.138 -48.386  1.00  0.00    -0.023 C 
HETATM   35  C5  UNL     1     -13.730  16.992 -49.197  1.00  0.00     0.015 C 
HETATM   36  C6  UNL     1     -15.229  17.005 -49.030  1.00  0.00    -0.013 C 
HETATM   37  C7  UNL     1     -15.624  16.838 -47.569  1.00  0.00     0.009 C 
HETATM   38  C11 UNL     1     -15.818  18.324 -49.487  1.00  0.00     0.009 C 
HETATM   39  C8  UNL     1     -15.012  17.953 -46.774  1.00  0.00    -0.013 C 
HETATM   40  C9  UNL     1     -15.469  19.319 -47.225  1.00  0.00     0.009 C 
HETATM   41  C13 UNL     1     -13.517  17.892 -46.947  1.00  0.00     0.015 C 
HETATM   42  C10 UNL     1     -15.207  19.454 -48.695  1.00  0.00    -0.013 C 
HETATM   43  C12 UNL     1     -13.718  19.420 -48.922  1.00  0.00     0.015 C 
ENDBRANCH  33  34
ENDBRANCH   8  33
TORSDOF 5
ENDMDL
MODEL 5
REMARK VINA RESULT: -9.845310774      1.700      2.774
REMARK  5 active torsions:
REMARK  status: ('A' for Active; 'I' for Inactive)
REMARK    1  A    between atoms: N3_8  and  C3_10 
REMARK    2  A    between atoms: C3_10  and  C4_11 
REMARK    3  A    between atoms: N5_27  and  N6_29 
REMARK       I    between atoms: N6_29  and  C17_31 
REMARK    4  A    between atoms: C17_31  and  C18_33 
REMARK    5  A    between atoms: C18_33  and  C19_34 
ROOT
HETATM    1  N1  UNL     1      -8.536  16.194 -48.137  1.00  0.00    -0.234 N 
ATOM      2  H11 UNL     1      -7.703  15.727 -48.493  1.00  0.00     0.174 HD
ATOM      3  H12 UNL     1      -9.025  16.056 -47.252  1.00  0.00     0.174 HD
HETATM    4  C1  UNL     1      -9.079  17.097 -48.884  1.00  0.00     0.692 C 
HETATM    5  N2  UNL     1     -10.249  17.754 -48.384  1.00  0.00    -0.023 N 
ATOM      6  H2  UNL     1     -10.432  17.663 -47.385  1.00  0.00     0.203 HD
HETATM    7  C2  UNL     1     -11.192  18.527 -49.145  1.00  0.00     0.693 C 
HETATM    8  N3  UNL     1     -12.377  18.523 -48.641  1.00  0.00    -0.225 N 
ATOM      9  H3  UNL     1     -12.517  17.990 -47.783  1.00  0.00     0.177 HD
HETATM   10  N4  UNL     1     -10.977  19.255 -50.326  1.00  0.00    -0.185 N 
ATOM     11  H4  UNL     1     -11.687  19.947 -50.566  1.00  0.00     0.184 HD
HETATM   12  C14 UNL     1      -9.878  19.138 -51.230  1.00  0.00     0.121 C 
HETATM   13  C15 UNL     1      -9.963  19.881 -52.316  1.00  0.00     0.222 C 
HETATM   14  F1  UNL     1      -8.983  19.856 -53.246  1.00  0.00    -0.217 F 
HETATM   15  C16 UNL     1      -8.694  18.300 -51.081  1.00  0.00     0.165 C 
HETATM   16  N5  UNL     1      -7.788  18.530 -51.968  1.00  0.00    -0.281 N 
ATOM     17  H5  UNL     1      -7.969  19.247 -52.671  1.00  0.00     0.188 HD
HETATM   18  N8  UNL     1      -8.395  17.290 -50.123  1.00  0.00    -0.173 N 
ATOM     19  H8  UNL     1      -7.629  16.651 -50.339  1.00  0.00     0.186 HD
ENDROOT
BRANCH  16  20
HETATM   20  N6  UNL     1      -6.575  17.845 -52.016  1.00  0.00    -0.268 N 
HETATM   21  C17 UNL     1      -5.691  18.143 -53.089  1.00  0.00     0.236 C 
HETATM   22  O1  UNL     1      -6.003  18.991 -53.954  1.00  0.00    -0.272 OA
ATOM     23  H6  UNL     1      -6.329  17.154 -51.306  1.00  0.00     0.190 HD
BRANCH  21  24
HETATM   24  C18 UNL     1      -4.412  17.393 -53.102  1.00  0.00     0.109 C 
BRANCH  24  25
HETATM   25  C19 UNL     1      -3.310  18.337 -52.678  1.00  0.00    -0.003 C 
HETATM   26  C20 UNL     1      -3.178  18.354 -51.178  1.00  0.00     0.032 C 
HETATM   27  C21 UNL     1      -1.969  19.087 -50.688  1.00  0.00     0.232 C 
HETATM   28  N7  UNL     1      -0.866  19.020 -51.635  1.00  0.00    -0.075 N 
HETATM   29  C22 UNL     1      -0.934  17.792 -52.407  1.00  0.00     0.232 C 
ATOM     30  H72 UNL     1      -0.831  19.844 -52.235  1.00  0.00     0.277 HD
ATOM     31  H71 UNL     1       0.037  19.128 -51.173  1.00  0.00     0.277 HD
HETATM   32  C23 UNL     1      -2.065  17.999 -53.402  1.00  0.00     0.032 C 
ENDBRANCH  24  25
ENDBRANCH  21  24
ENDBRANCH  16  20
BRANCH   8  33
HETATM   33  C3  UNL     1     -13.511  19.201 -49.177  1.00  0.00     0.147 C 
BRANCH  33  34
HETATM   34  C4  UNL     1     -14.755  18.583 -48.571  1.00  0.00    -0.023 C 
HETATM   35  C5  UNL     1     -14.783  18.808 -47.067  1.00  0.00     0.015 C 
HETATM   36  C6  UNL     1     -16.037  18.180 -46.512  1.00  0.00    -0.013 C 
HETATM   37  C7  UNL     1     -17.284  18.793 -47.132  1.00  0.00     0.009 C 
HETATM   38  C11 UNL     1     -16.088  16.697 -46.821  1.00  0.00     0.009 C 
HETATM   39  C8  UNL     1     -17.229  18.598 -48.619  1.00  0.00    -0.013 C 
HETATM   40  C9  UNL     1     -17.179  17.145 -49.022  1.00  0.00     0.009 C 
HETATM   41  C13 UNL     1     -15.978  19.258 -49.137  1.00  0.00     0.015 C 
HETATM   42  C10 UNL     1     -16.030  16.488 -48.315  1.00  0.00    -0.013 C 
HETATM   43  C12 UNL     1     -14.747  17.100 -48.815  1.00  0.00     0.015 C 
ENDBRANCH  33  34
ENDBRANCH   8  33
TORSDOF 5
ENDMDL
