MODEL 1
REMARK VINA RESULT: -7.167357727      0.000      0.000
REMARK  7 active torsions:
REMARK  status: ('A' for Active; 'I' for Inactive)
REMARK    1  A    between atoms: N1_1  and  S1_4 
REMARK    2  A    between atoms: S1_4  and  C1_6 
REMARK    3  A    between atoms: S1_4  and  C13_24 
REMARK    4  A    between atoms: C4_9  and  N2_10 
REMARK    5  A    between atoms: N3_12  and  C5_14 
REMARK    6  A    between atoms: C8_17  and  O2_18 
REMARK    7  A    between atoms: C16_27  and  N4_28 
ROOT
HETATM    1  C1  UNL     1      48.431  66.084  45.535  1.00  0.00     0.045 A 
HETATM    2  C2  UNL     1      49.604  66.539  44.967  1.00  0.00     0.024 A 
HETATM    3  C3  UNL     1      49.994  67.862  45.046  1.00  0.00     0.032 A 
HETATM    4  C4  UNL     1      49.223  68.796  45.704  1.00  0.00     0.048 A 
HETATM    5  C11 UNL     1      48.050  68.348  46.274  1.00  0.00     0.032 A 
HETATM    6  C12 UNL     1      47.662  67.022  46.192  1.00  0.00     0.024 A 
ENDROOT
BRANCH   1   7
HETATM    7  S1  UNL     1      47.941  64.409  45.431  1.00  0.00     0.104 S 
HETATM    8  O1  UNL     1      46.648  64.215  46.189  1.00  0.00    -0.238 OA
BRANCH   7   9
HETATM    9  N1  UNL     1      48.989  63.463  46.096  1.00  0.00    -0.351 N 
ATOM     10  H12 UNL     1      48.833  62.493  46.369  1.00  0.00     0.166 HD
ATOM     11  H11 UNL     1      49.846  64.007  46.198  1.00  0.00     0.166 HD
ENDBRANCH   7   9
BRANCH   7  12
HETATM   12  C13 UNL     1      47.706  63.957  43.750  1.00  0.00     0.156 A 
HETATM   13  C14 UNL     1      47.828  64.813  42.671  1.00  0.00     0.053 A 
HETATM   14  C15 UNL     1      47.566  64.078  41.535  1.00  0.00     0.066 A 
HETATM   15  C16 UNL     1      47.291  62.781  41.969  1.00  0.00     0.215 A 
HETATM   16  O5  UNL     1      47.392  62.797  43.257  1.00  0.00    -0.278 OA
BRANCH  15  17
HETATM   17  N4  UNL     1      46.968  61.702  41.092  1.00  0.00    -0.090 N 
HETATM   18  O3  UNL     1      47.152  61.845  39.872  1.00  0.00    -0.530 OA
HETATM   19  O4  UNL     1      46.462  60.514  41.546  1.00  0.00    -0.530 OA
ENDBRANCH  15  17
ENDBRANCH   7  12
ENDBRANCH   1   7
BRANCH   4  20
HETATM   20  N2  UNL     1      49.614  70.165  45.794  1.00  0.00    -0.300 N 
HETATM   21  N3  UNL     1      50.307  70.646  46.718  1.00  0.00    -0.300 N 
ATOM     22  H3  UNL     1      50.559  71.635  46.733  1.00  0.00     0.187 HD
ATOM     23  H2  UNL     1      49.307  70.795  45.053  1.00  0.00     0.187 HD
BRANCH  21  24
HETATM   24  C5  UNL     1      50.733  69.758  47.751  1.00  0.00     0.048 A 
HETATM   25  C6  UNL     1      49.983  69.707  48.905  1.00  0.00     0.034 A 
HETATM   26  C7  UNL     1      50.365  68.868  49.909  1.00  0.00     0.039 A 
HETATM   27  C8  UNL     1      51.507  68.075  49.749  1.00  0.00     0.065 A 
HETATM   28  C9  UNL     1      52.264  68.114  48.604  1.00  0.00     0.039 A 
HETATM   29  C10 UNL     1      51.870  68.966  47.594  1.00  0.00     0.034 A 
BRANCH  27  30
HETATM   30  O2  UNL     1      51.874  67.229  50.787  1.00  0.00    -0.361 OA
ATOM     31  H2  UNL     1      52.799  67.069  50.934  1.00  0.00     0.217 HD
ENDBRANCH  27  30
ENDBRANCH  21  24
ENDBRANCH   4  20
TORSDOF 7
ENDMDL
MODEL 2
REMARK VINA RESULT: -6.937807627      9.091     11.713
REMARK  7 active torsions:
REMARK  status: ('A' for Active; 'I' for Inactive)
REMARK    1  A    between atoms: N1_1  and  S1_4 
REMARK    2  A    between atoms: S1_4  and  C1_6 
REMARK    3  A    between atoms: S1_4  and  C13_24 
REMARK    4  A    between atoms: C4_9  and  N2_10 
REMARK    5  A    between atoms: N3_12  and  C5_14 
REMARK    6  A    between atoms: C8_17  and  O2_18 
REMARK    7  A    between atoms: C16_27  and  N4_28 
ROOT
HETATM    1  C1  UNL     1      49.679  60.262  34.906  1.00  0.00     0.045 A 
HETATM    2  C2  UNL     1      50.311  60.977  35.904  1.00  0.00     0.024 A 
HETATM    3  C3  UNL     1      49.809  62.172  36.383  1.00  0.00     0.032 A 
HETATM    4  C4  UNL     1      48.642  62.709  35.882  1.00  0.00     0.048 A 
HETATM    5  C11 UNL     1      48.006  61.999  34.886  1.00  0.00     0.032 A 
HETATM    6  C12 UNL     1      48.512  60.803  34.408  1.00  0.00     0.024 A 
ENDROOT
BRANCH   1   7
HETATM    7  S1  UNL     1      50.318  58.752  34.303  1.00  0.00     0.104 S 
HETATM    8  O1  UNL     1      51.818  58.730  34.488  1.00  0.00    -0.238 OA
BRANCH   7   9
HETATM    9  N1  UNL     1      50.059  58.590  32.773  1.00  0.00    -0.351 N 
ATOM     10  H12 UNL     1      50.729  58.779  32.028  1.00  0.00     0.166 HD
ATOM     11  H11 UNL     1      49.098  58.262  32.675  1.00  0.00     0.166 HD
ENDBRANCH   7   9
BRANCH   7  12
HETATM   12  C13 UNL     1      49.603  57.407  35.178  1.00  0.00     0.156 A 
HETATM   13  C14 UNL     1      49.751  56.073  34.847  1.00  0.00     0.053 A 
HETATM   14  C15 UNL     1      49.041  55.341  35.773  1.00  0.00     0.066 A 
HETATM   15  C16 UNL     1      48.477  56.269  36.649  1.00  0.00     0.215 A 
HETATM   16  O5  UNL     1      48.850  57.435  36.236  1.00  0.00    -0.278 OA
BRANCH  15  17
HETATM   17  N4  UNL     1      47.659  55.914  37.763  1.00  0.00    -0.090 N 
HETATM   18  O3  UNL     1      47.424  54.713  37.977  1.00  0.00    -0.530 OA
HETATM   19  O4  UNL     1      47.122  56.848  38.607  1.00  0.00    -0.530 OA
ENDBRANCH  15  17
ENDBRANCH   7  12
ENDBRANCH   1   7
BRANCH   4  20
HETATM   20  N2  UNL     1      48.113  63.941  36.368  1.00  0.00    -0.300 N 
HETATM   21  N3  UNL     1      47.382  64.050  37.379  1.00  0.00    -0.300 N 
ATOM     22  H3  UNL     1      47.030  64.959  37.683  1.00  0.00     0.187 HD
ATOM     23  H2  UNL     1      48.345  64.792  35.856  1.00  0.00     0.187 HD
BRANCH  21  24
HETATM   24  C5  UNL     1      47.060  62.856  38.089  1.00  0.00     0.048 A 
HETATM   25  C6  UNL     1      47.855  62.510  39.160  1.00  0.00     0.034 A 
HETATM   26  C7  UNL     1      47.572  61.375  39.859  1.00  0.00     0.039 A 
HETATM   27  C8  UNL     1      46.482  60.583  39.478  1.00  0.00     0.065 A 
HETATM   28  C9  UNL     1      45.681  60.915  38.413  1.00  0.00     0.039 A 
HETATM   29  C10 UNL     1      45.975  62.066  37.713  1.00  0.00     0.034 A 
BRANCH  27  30
HETATM   30  O2  UNL     1      46.216  59.431  40.206  1.00  0.00    -0.361 OA
ATOM     31  H2  UNL     1      45.613  59.489  40.938  1.00  0.00     0.217 HD
ENDBRANCH  27  30
ENDBRANCH  21  24
ENDBRANCH   4  20
TORSDOF 7
ENDMDL
MODEL 3
REMARK VINA RESULT: -6.907626740      9.772     13.977
REMARK  7 active torsions:
REMARK  status: ('A' for Active; 'I' for Inactive)
REMARK    1  A    between atoms: N1_1  and  S1_4 
REMARK    2  A    between atoms: S1_4  and  C1_6 
REMARK    3  A    between atoms: S1_4  and  C13_24 
REMARK    4  A    between atoms: C4_9  and  N2_10 
REMARK    5  A    between atoms: N3_12  and  C5_14 
REMARK    6  A    between atoms: C8_17  and  O2_18 
REMARK    7  A    between atoms: C16_27  and  N4_28 
ROOT
HETATM    1  C1  UNL     1      50.046  59.812  34.898  1.00  0.00     0.045 A 
HETATM    2  C2  UNL     1      48.835  59.412  34.370  1.00  0.00     0.024 A 
HETATM    3  C3  UNL     1      48.676  58.195  33.735  1.00  0.00     0.032 A 
HETATM    4  C4  UNL     1      49.730  57.316  33.600  1.00  0.00     0.048 A 
HETATM    5  C11 UNL     1      50.942  57.709  34.126  1.00  0.00     0.032 A 
HETATM    6  C12 UNL     1      51.098  58.929  34.761  1.00  0.00     0.024 A 
ENDROOT
BRANCH   1   7
HETATM    7  S1  UNL     1      50.243  61.352  35.700  1.00  0.00     0.104 S 
HETATM    8  O1  UNL     1      50.502  62.427  34.669  1.00  0.00    -0.238 OA
BRANCH   7   9
HETATM    9  N1  UNL     1      51.477  61.348  36.654  1.00  0.00    -0.351 N 
ATOM     10  H12 UNL     1      51.715  62.074  37.330  1.00  0.00     0.166 HD
ATOM     11  H11 UNL     1      51.987  60.485  36.465  1.00  0.00     0.166 HD
ENDBRANCH   7   9
BRANCH   7  12
HETATM   12  C13 UNL     1      48.788  61.747  36.603  1.00  0.00     0.156 A 
HETATM   13  C14 UNL     1      47.996  62.860  36.387  1.00  0.00     0.053 A 
HETATM   14  C15 UNL     1      46.960  62.805  37.295  1.00  0.00     0.066 A 
HETATM   15  C16 UNL     1      47.162  61.643  38.041  1.00  0.00     0.215 A 
HETATM   16  O5  UNL     1      48.235  61.093  37.579  1.00  0.00    -0.278 OA
BRANCH  15  17
HETATM   17  N4  UNL     1      46.298  61.217  39.095  1.00  0.00    -0.090 N 
HETATM   18  O3  UNL     1      45.303  60.529  38.814  1.00  0.00    -0.530 OA
HETATM   19  O4  UNL     1      46.527  61.538  40.406  1.00  0.00    -0.530 OA
ENDBRANCH  15  17
ENDBRANCH   7  12
ENDBRANCH   1   7
BRANCH   4  20
HETATM   20  N2  UNL     1      49.579  56.057  32.947  1.00  0.00    -0.300 N 
HETATM   21  N3  UNL     1      49.073  55.040  33.474  1.00  0.00    -0.300 N 
ATOM     22  H3  UNL     1      48.989  54.163  32.959  1.00  0.00     0.187 HD
ATOM     23  H2  UNL     1      49.907  55.980  31.985  1.00  0.00     0.187 HD
BRANCH  21  24
HETATM   24  C5  UNL     1      48.616  55.156  34.820  1.00  0.00     0.048 A 
HETATM   25  C6  UNL     1      47.310  54.808  35.089  1.00  0.00     0.034 A 
HETATM   26  C7  UNL     1      46.846  54.909  36.367  1.00  0.00     0.039 A 
HETATM   27  C8  UNL     1      47.701  55.359  37.379  1.00  0.00     0.065 A 
HETATM   28  C9  UNL     1      49.004  55.709  37.127  1.00  0.00     0.039 A 
HETATM   29  C10 UNL     1      49.465  55.604  35.831  1.00  0.00     0.034 A 
BRANCH  27  30
HETATM   30  O2  UNL     1      47.202  55.452  38.672  1.00  0.00    -0.361 OA
ATOM     31  H2  UNL     1      46.466  56.031  38.831  1.00  0.00     0.217 HD
ENDBRANCH  27  30
ENDBRANCH  21  24
ENDBRANCH   4  20
TORSDOF 7
ENDMDL
MODEL 4
REMARK VINA RESULT: -6.827814141      9.723     13.942
REMARK  7 active torsions:
REMARK  status: ('A' for Active; 'I' for Inactive)
REMARK    1  A    between atoms: N1_1  and  S1_4 
REMARK    2  A    between atoms: S1_4  and  C1_6 
REMARK    3  A    between atoms: S1_4  and  C13_24 
REMARK    4  A    between atoms: C4_9  and  N2_10 
REMARK    5  A    between atoms: N3_12  and  C5_14 
REMARK    6  A    between atoms: C8_17  and  O2_18 
REMARK    7  A    between atoms: C16_27  and  N4_28 
ROOT
HETATM    1  C1  UNL     1      49.430  59.979  34.656  1.00  0.00     0.045 A 
HETATM    2  C2  UNL     1      50.637  59.319  34.776  1.00  0.00     0.024 A 
HETATM    3  C3  UNL     1      50.825  58.038  34.294  1.00  0.00     0.032 A 
HETATM    4  C4  UNL     1      49.807  57.355  33.664  1.00  0.00     0.048 A 
HETATM    5  C11 UNL     1      48.599  58.008  33.540  1.00  0.00     0.032 A 
HETATM    6  C12 UNL     1      48.413  59.292  34.025  1.00  0.00     0.024 A 
ENDROOT
BRANCH   1   7
HETATM    7  S1  UNL     1      49.196  61.599  35.268  1.00  0.00     0.104 S 
HETATM    8  O1  UNL     1      48.585  62.462  34.188  1.00  0.00    -0.238 OA
BRANCH   7   9
HETATM    9  N1  UNL     1      50.552  62.268  35.654  1.00  0.00    -0.351 N 
ATOM     10  H12 UNL     1      50.952  63.103  35.226  1.00  0.00     0.166 HD
ATOM     11  H11 UNL     1      50.947  61.706  36.408  1.00  0.00     0.166 HD
ENDBRANCH   7   9
BRANCH   7  12
HETATM   12  C13 UNL     1      48.126  61.564  36.661  1.00  0.00     0.156 A 
HETATM   13  C14 UNL     1      47.616  62.679  37.301  1.00  0.00     0.053 A 
HETATM   14  C15 UNL     1      46.827  62.229  38.337  1.00  0.00     0.066 A 
HETATM   15  C16 UNL     1      46.884  60.836  38.290  1.00  0.00     0.215 A 
HETATM   16  O5  UNL     1      47.653  60.535  37.297  1.00  0.00    -0.278 OA
BRANCH  15  17
HETATM   17  N4  UNL     1      46.195  59.982  39.203  1.00  0.00    -0.090 N 
HETATM   18  O3  UNL     1      45.493  60.494  40.091  1.00  0.00    -0.530 OA
HETATM   19  O4  UNL     1      46.278  58.617  39.136  1.00  0.00    -0.530 OA
ENDBRANCH  15  17
ENDBRANCH   7  12
ENDBRANCH   1   7
BRANCH   4  20
HETATM   20  N2  UNL     1      49.988  56.032  33.161  1.00  0.00    -0.300 N 
HETATM   21  N3  UNL     1      49.593  54.993  33.737  1.00  0.00    -0.300 N 
ATOM     22  H3  UNL     1      49.750  54.070  33.332  1.00  0.00     0.187 HD
ATOM     23  H2  UNL     1      50.473  55.926  32.271  1.00  0.00     0.187 HD
BRANCH  21  24
HETATM   24  C5  UNL     1      48.915  55.150  34.983  1.00  0.00     0.048 A 
HETATM   25  C6  UNL     1      47.591  54.775  35.047  1.00  0.00     0.034 A 
HETATM   26  C7  UNL     1      46.917  54.913  36.223  1.00  0.00     0.039 A 
HETATM   27  C8  UNL     1      47.581  55.429  37.343  1.00  0.00     0.065 A 
HETATM   28  C9  UNL     1      48.900  55.807  37.295  1.00  0.00     0.039 A 
HETATM   29  C10 UNL     1      49.574  55.663  36.100  1.00  0.00     0.034 A 
BRANCH  27  30
HETATM   30  O2  UNL     1      46.872  55.560  38.529  1.00  0.00    -0.361 OA
ATOM     31  H2  UNL     1      47.223  55.152  39.312  1.00  0.00     0.217 HD
ENDBRANCH  27  30
ENDBRANCH  21  24
ENDBRANCH   4  20
TORSDOF 7
ENDMDL
MODEL 5
REMARK VINA RESULT: -6.800404871      8.231     13.232
REMARK  7 active torsions:
REMARK  status: ('A' for Active; 'I' for Inactive)
REMARK    1  A    between atoms: N1_1  and  S1_4 
REMARK    2  A    between atoms: S1_4  and  C1_6 
REMARK    3  A    between atoms: S1_4  and  C13_24 
REMARK    4  A    between atoms: C4_9  and  N2_10 
REMARK    5  A    between atoms: N3_12  and  C5_14 
REMARK    6  A    between atoms: C8_17  and  O2_18 
REMARK    7  A    between atoms: C16_27  and  N4_28 
ROOT
HETATM    1  C1  UNL     1      48.795  60.702  35.580  1.00  0.00     0.045 A 
HETATM    2  C2  UNL     1      48.158  59.866  34.684  1.00  0.00     0.024 A 
HETATM    3  C3  UNL     1      48.778  58.754  34.148  1.00  0.00     0.032 A 
HETATM    4  C4  UNL     1      50.073  58.424  34.489  1.00  0.00     0.048 A 
HETATM    5  C11 UNL     1      50.714  59.254  35.384  1.00  0.00     0.032 A 
HETATM    6  C12 UNL     1      50.090  60.368  35.918  1.00  0.00     0.024 A 
ENDROOT
BRANCH   1   7
HETATM    7  S1  UNL     1      48.007  62.109  36.254  1.00  0.00     0.104 S 
HETATM    8  O1  UNL     1      46.833  62.495  35.382  1.00  0.00    -0.238 OA
BRANCH   7   9
HETATM    9  N1  UNL     1      48.962  63.342  36.282  1.00  0.00    -0.351 N 
ATOM     10  H12 UNL     1      48.676  64.321  36.301  1.00  0.00     0.166 HD
ATOM     11  H11 UNL     1      49.912  62.973  36.277  1.00  0.00     0.166 HD
ENDBRANCH   7   9
BRANCH   7  12
HETATM   12  C13 UNL     1      47.436  61.755  37.877  1.00  0.00     0.156 A 
HETATM   13  C14 UNL     1      46.615  60.696  38.219  1.00  0.00     0.053 A 
HETATM   14  C15 UNL     1      46.400  60.768  39.578  1.00  0.00     0.066 A 
HETATM   15  C16 UNL     1      47.108  61.886  40.022  1.00  0.00     0.215 A 
HETATM   16  O5  UNL     1      47.675  62.397  38.981  1.00  0.00    -0.278 OA
BRANCH  15  17
HETATM   17  N4  UNL     1      47.144  62.312  41.384  1.00  0.00    -0.090 N 
HETATM   18  O3  UNL     1      46.130  62.165  42.086  1.00  0.00    -0.530 OA
HETATM   19  O4  UNL     1      48.257  62.878  41.946  1.00  0.00    -0.530 OA
ENDBRANCH  15  17
ENDBRANCH   7  12
ENDBRANCH   1   7
BRANCH   4  20
HETATM   20  N2  UNL     1      50.724  57.278  33.944  1.00  0.00    -0.300 N 
HETATM   21  N3  UNL     1      50.514  56.099  34.312  1.00  0.00    -0.300 N 
ATOM     22  H3  UNL     1      51.010  55.315  33.887  1.00  0.00     0.187 HD
ATOM     23  H2  UNL     1      51.409  57.429  33.204  1.00  0.00     0.187 HD
BRANCH  21  24
HETATM   24  C5  UNL     1      49.556  55.896  35.349  1.00  0.00     0.048 A 
HETATM   25  C6  UNL     1      48.388  55.241  35.026  1.00  0.00     0.034 A 
HETATM   26  C7  UNL     1      47.453  55.031  35.996  1.00  0.00     0.039 A 
HETATM   27  C8  UNL     1      47.696  55.483  37.298  1.00  0.00     0.065 A 
HETATM   28  C9  UNL     1      48.855  56.137  37.635  1.00  0.00     0.039 A 
HETATM   29  C10 UNL     1      49.795  56.344  36.647  1.00  0.00     0.034 A 
BRANCH  27  30
HETATM   30  O2  UNL     1      46.727  55.257  38.267  1.00  0.00    -0.361 OA
ATOM     31  H2  UNL     1      46.909  54.620  38.947  1.00  0.00     0.217 HD
ENDBRANCH  27  30
ENDBRANCH  21  24
ENDBRANCH   4  20
TORSDOF 7
ENDMDL
