MODEL 1
REMARK VINA RESULT: -7.469196070      0.000      0.000
REMARK  5 active torsions:
REMARK  status: ('A' for Active; 'I' for Inactive)
REMARK    1  A    between atoms: C4_4  and  O1_5 
REMARK    2  A    between atoms: C18_21  and  S1_22 
REMARK    3  A    between atoms: S1_22  and  S2_23 
REMARK    4  A    between atoms: S2_23  and  C19_24 
REMARK    5  A    between atoms: C19_24  and  N1_25 
ROOT
HETATM    1  C1  UNL     1      11.416  11.052  20.583  1.00  0.00     0.018 C 
HETATM    2  C2  UNL     1      11.440  12.121  19.548  1.00  0.00    -0.018 C 
HETATM    3  C3  UNL     1      11.791  13.470  20.182  1.00  0.00     0.018 C 
HETATM    4  C4  UNL     1      12.518  11.802  18.556  1.00  0.00     0.126 C 
HETATM    5  C5  UNL     1      12.161  12.192  17.149  1.00  0.00     0.033 C 
HETATM    6  C6  UNL     1      10.898  11.529  16.702  1.00  0.00     0.008 C 
HETATM    7  C7  UNL     1       9.928  11.262  17.851  1.00  0.00    -0.002 C 
HETATM    8  C8  UNL     1      10.074  12.326  18.875  1.00  0.00     0.000 C 
HETATM    9  C9  UNL     1       9.022  12.367  19.912  1.00  0.00     0.007 C 
HETATM   10  C10 UNL     1       7.702  11.764  19.524  1.00  0.00     0.011 C 
HETATM   11  C11 UNL     1       7.471  11.808  18.019  1.00  0.00    -0.030 C 
HETATM   12  C12 UNL     1       7.545  13.295  17.642  1.00  0.00     0.016 C 
HETATM   13  C13 UNL     1       8.557  11.102  17.267  1.00  0.00     0.033 C 
HETATM   14  C14 UNL     1       8.340   9.613  17.107  1.00  0.00     0.175 C 
HETATM   15  F1  UNL     1       8.497   8.924  18.283  1.00  0.00    -0.249 F 
HETATM   16  C15 UNL     1       7.010   9.301  16.521  1.00  0.00     0.043 C 
HETATM   17  C16 UNL     1       5.972   9.846  17.508  1.00  0.00    -0.002 C 
HETATM   18  C17 UNL     1       4.636   9.438  17.027  1.00  0.00     0.021 C 
HETATM   19  C18 UNL     1       3.495  10.338  17.337  1.00  0.00     0.059 C 
HETATM   20  C21 UNL     1       3.697  11.331  18.403  1.00  0.00     0.017 C 
HETATM   21  C22 UNL     1       5.097  11.739  18.704  1.00  0.00     0.011 C 
HETATM   22  C23 UNL     1       6.108  11.334  17.661  1.00  0.00    -0.033 C 
HETATM   23  C24 UNL     1       5.758  11.943  16.299  1.00  0.00     0.016 C 
ENDROOT
BRANCH  19  24
HETATM   24  S1  UNL     1       2.104   9.228  17.809  1.00  0.00    -0.087 SA
BRANCH  24  25
HETATM   25  S2  UNL     1       2.489   7.313  16.971  1.00  0.00    -0.009 SA
BRANCH  25  26
HETATM   26  C19 UNL     1       2.917   6.250  18.368  1.00  0.00     0.387 C 
HETATM   27  N2  UNL     1       2.817   7.049  19.565  1.00  0.00    -0.058 NA
HETATM   28  N3  UNL     1       4.088   7.247  20.058  1.00  0.00    -0.254 N 
HETATM   29  C20 UNL     1       4.923   6.537  19.344  1.00  0.00     0.321 C 
ATOM     30  H3  UNL     1       4.336   7.846  20.846  1.00  0.00     0.187 HD
HETATM   31  F2  UNL     1       6.272   6.510  19.573  1.00  0.00    -0.156 F 
HETATM   32  O2  UNL     1       4.247   5.844  18.356  1.00  0.00    -0.247 OA
BRANCH  26  33
HETATM   33  N1  UNL     1       1.985   5.147  18.514  1.00  0.00    -0.018 N 
ATOM     34  H13 UNL     1       1.391   5.051  17.690  1.00  0.00     0.280 HD
ATOM     35  H12 UNL     1       2.464   4.248  18.471  1.00  0.00     0.280 HD
ATOM     36  H11 UNL     1       1.428   5.230  19.364  1.00  0.00     0.280 HD
ENDBRANCH  26  33
ENDBRANCH  25  26
ENDBRANCH  24  25
ENDBRANCH  19  24
BRANCH   4  37
HETATM   37  O1  UNL     1      13.702  12.492  18.888  1.00  0.00    -0.395 OA
ATOM     38  H1  UNL     1      14.455  11.924  18.772  1.00  0.00     0.210 HD
ENDBRANCH   4  37
TORSDOF 5
ENDMDL
MODEL 2
REMARK VINA RESULT: -7.394714449      1.080      1.157
REMARK  5 active torsions:
REMARK  status: ('A' for Active; 'I' for Inactive)
REMARK    1  A    between atoms: C4_4  and  O1_5 
REMARK    2  A    between atoms: C18_21  and  S1_22 
REMARK    3  A    between atoms: S1_22  and  S2_23 
REMARK    4  A    between atoms: S2_23  and  C19_24 
REMARK    5  A    between atoms: C19_24  and  N1_25 
ROOT
HETATM    1  C1  UNL     1      11.439  11.024  20.513  1.00  0.00     0.018 C 
HETATM    2  C2  UNL     1      11.462  12.132  19.520  1.00  0.00    -0.018 C 
HETATM    3  C3  UNL     1      11.777  13.462  20.211  1.00  0.00     0.018 C 
HETATM    4  C4  UNL     1      12.564  11.870  18.536  1.00  0.00     0.126 C 
HETATM    5  C5  UNL     1      12.224  12.307  17.139  1.00  0.00     0.033 C 
HETATM    6  C6  UNL     1      10.982  11.640  16.644  1.00  0.00     0.008 C 
HETATM    7  C7  UNL     1       9.997  11.313  17.764  1.00  0.00    -0.002 C 
HETATM    8  C8  UNL     1      10.105  12.339  18.829  1.00  0.00     0.000 C 
HETATM    9  C9  UNL     1       9.034  12.322  19.848  1.00  0.00     0.007 C 
HETATM   10  C10 UNL     1       7.732  11.711  19.413  1.00  0.00     0.011 C 
HETATM   11  C11 UNL     1       7.528  11.808  17.907  1.00  0.00    -0.030 C 
HETATM   12  C12 UNL     1       7.581  13.310  17.588  1.00  0.00     0.016 C 
HETATM   13  C13 UNL     1       8.640  11.150  17.149  1.00  0.00     0.033 C 
HETATM   14  C14 UNL     1       8.453   9.665  16.928  1.00  0.00     0.175 C 
HETATM   15  F1  UNL     1       8.601   8.935  18.080  1.00  0.00    -0.249 F 
HETATM   16  C15 UNL     1       7.139   9.352  16.307  1.00  0.00     0.043 C 
HETATM   17  C16 UNL     1       6.074   9.841  17.294  1.00  0.00    -0.002 C 
HETATM   18  C17 UNL     1       4.754   9.428  16.773  1.00  0.00     0.021 C 
HETATM   19  C18 UNL     1       3.592  10.296  17.096  1.00  0.00     0.059 C 
HETATM   20  C21 UNL     1       3.756  11.250  18.203  1.00  0.00     0.017 C 
HETATM   21  C22 UNL     1       5.144  11.671  18.545  1.00  0.00     0.011 C 
HETATM   22  C23 UNL     1       6.180  11.325  17.505  1.00  0.00    -0.033 C 
HETATM   23  C24 UNL     1       5.843  11.978  16.161  1.00  0.00     0.016 C 
ENDROOT
BRANCH  19  24
HETATM   24  S1  UNL     1       2.213   9.144  17.500  1.00  0.00    -0.087 SA
BRANCH  24  25
HETATM   25  S2  UNL     1       3.044   7.207  17.774  1.00  0.00    -0.009 SA
BRANCH  25  26
HETATM   26  C19 UNL     1       3.560   7.141  19.504  1.00  0.00     0.387 C 
HETATM   27  N2  UNL     1       5.001   7.203  19.527  1.00  0.00    -0.058 NA
HETATM   28  N3  UNL     1       5.479   5.974  19.929  1.00  0.00    -0.254 N 
HETATM   29  C20 UNL     1       4.460   5.228  20.269  1.00  0.00     0.321 C 
ATOM     30  H3  UNL     1       6.460   5.695  19.956  1.00  0.00     0.187 HD
HETATM   31  F2  UNL     1       4.590   3.940  20.717  1.00  0.00    -0.156 F 
HETATM   32  O2  UNL     1       3.275   5.922  20.111  1.00  0.00    -0.247 OA
BRANCH  26  33
HETATM   33  N1  UNL     1       3.073   8.282  20.258  1.00  0.00    -0.018 N 
ATOM     34  H13 UNL     1       2.226   8.669  19.841  1.00  0.00     0.280 HD
ATOM     35  H12 UNL     1       2.690   7.995  21.159  1.00  0.00     0.280 HD
ATOM     36  H11 UNL     1       3.790   8.997  20.372  1.00  0.00     0.280 HD
ENDBRANCH  26  33
ENDBRANCH  25  26
ENDBRANCH  24  25
ENDBRANCH  19  24
BRANCH   4  37
HETATM   37  O1  UNL     1      13.729  12.569  18.916  1.00  0.00    -0.395 OA
ATOM     38  H1  UNL     1      13.498  13.417  19.275  1.00  0.00     0.210 HD
ENDBRANCH   4  37
TORSDOF 5
ENDMDL
MODEL 3
REMARK VINA RESULT: -7.250970345      5.666      8.867
REMARK  5 active torsions:
REMARK  status: ('A' for Active; 'I' for Inactive)
REMARK    1  A    between atoms: C4_4  and  O1_5 
REMARK    2  A    between atoms: C18_21  and  S1_22 
REMARK    3  A    between atoms: S1_22  and  S2_23 
REMARK    4  A    between atoms: S2_23  and  C19_24 
REMARK    5  A    between atoms: C19_24  and  N1_25 
ROOT
HETATM    1  C1  UNL     1       2.842  13.450  16.567  1.00  0.00     0.018 C 
HETATM    2  C2  UNL     1       2.687  12.039  17.011  1.00  0.00    -0.018 C 
HETATM    3  C3  UNL     1       1.618  11.937  18.102  1.00  0.00     0.018 C 
HETATM    4  C4  UNL     1       2.212  11.221  15.846  1.00  0.00     0.126 C 
HETATM    5  C5  UNL     1       2.785   9.832  15.827  1.00  0.00     0.033 C 
HETATM    6  C6  UNL     1       4.279   9.856  15.807  1.00  0.00     0.008 C 
HETATM    7  C7  UNL     1       4.862  11.076  16.518  1.00  0.00    -0.002 C 
HETATM    8  C8  UNL     1       3.969  11.468  17.636  1.00  0.00     0.000 C 
HETATM    9  C9  UNL     1       4.526  12.453  18.587  1.00  0.00     0.007 C 
HETATM   10  C10 UNL     1       6.025  12.506  18.665  1.00  0.00     0.011 C 
HETATM   11  C11 UNL     1       6.667  11.181  18.277  1.00  0.00    -0.030 C 
HETATM   12  C12 UNL     1       6.088  10.149  19.256  1.00  0.00     0.016 C 
HETATM   13  C13 UNL     1       6.277  10.755  16.895  1.00  0.00     0.033 C 
HETATM   14  C14 UNL     1       7.145  11.328  15.796  1.00  0.00     0.175 C 
HETATM   15  F1  UNL     1       6.941  12.671  15.604  1.00  0.00    -0.249 F 
HETATM   16  C15 UNL     1       8.590  11.073  16.033  1.00  0.00     0.043 C 
HETATM   17  C16 UNL     1       8.936  11.776  17.350  1.00  0.00    -0.002 C 
HETATM   18  C17 UNL     1      10.394  11.658  17.554  1.00  0.00     0.021 C 
HETATM   19  C18 UNL     1      10.885  11.610  18.956  1.00  0.00     0.059 C 
HETATM   20  C21 UNL     1       9.962  12.067  20.004  1.00  0.00     0.017 C 
HETATM   21  C22 UNL     1       8.504  12.021  19.702  1.00  0.00     0.011 C 
HETATM   22  C23 UNL     1       8.139  11.204  18.488  1.00  0.00    -0.033 C 
HETATM   23  C24 UNL     1       8.598   9.752  18.651  1.00  0.00     0.016 C 
ENDROOT
BRANCH  19  24
HETATM   24  S1  UNL     1      12.395  12.663  18.987  1.00  0.00    -0.087 SA
BRANCH  24  25
HETATM   25  S2  UNL     1      13.131  12.802  16.998  1.00  0.00    -0.009 SA
BRANCH  25  26
HETATM   26  C19 UNL     1      14.908  12.499  17.116  1.00  0.00     0.387 C 
HETATM   27  N2  UNL     1      15.542  13.236  16.050  1.00  0.00    -0.058 NA
HETATM   28  N3  UNL     1      16.024  12.331  15.129  1.00  0.00    -0.254 N 
HETATM   29  C20 UNL     1      15.851  11.125  15.605  1.00  0.00     0.321 C 
ATOM     30  H3  UNL     1      16.444  12.562  14.228  1.00  0.00     0.187 HD
HETATM   31  F2  UNL     1      16.224   9.991  14.934  1.00  0.00    -0.156 F 
HETATM   32  O2  UNL     1      15.254  11.178  16.852  1.00  0.00    -0.247 OA
BRANCH  26  33
HETATM   33  N1  UNL     1      15.460  12.995  18.363  1.00  0.00    -0.018 N 
ATOM     34  H13 UNL     1      15.541  14.012  18.355  1.00  0.00     0.280 HD
ATOM     35  H12 UNL     1      14.795  12.894  19.129  1.00  0.00     0.280 HD
ATOM     36  H11 UNL     1      16.352  12.554  18.586  1.00  0.00     0.280 HD
ENDBRANCH  26  33
ENDBRANCH  25  26
ENDBRANCH  24  25
ENDBRANCH  19  24
BRANCH   4  37
HETATM   37  O1  UNL     1       0.808  11.089  15.886  1.00  0.00    -0.395 OA
ATOM     38  H1  UNL     1       0.558  10.198  15.672  1.00  0.00     0.210 HD
ENDBRANCH   4  37
TORSDOF 5
ENDMDL
MODEL 4
REMARK VINA RESULT: -7.198424040      5.118      8.714
REMARK  5 active torsions:
REMARK  status: ('A' for Active; 'I' for Inactive)
REMARK    1  A    between atoms: C4_4  and  O1_5 
REMARK    2  A    between atoms: C18_21  and  S1_22 
REMARK    3  A    between atoms: S1_22  and  S2_23 
REMARK    4  A    between atoms: S2_23  and  C19_24 
REMARK    5  A    between atoms: C19_24  and  N1_25 
ROOT
HETATM    1  C1  UNL     1       3.674  11.234  13.292  1.00  0.00     0.018 C 
HETATM    2  C2  UNL     1       2.870  10.940  14.509  1.00  0.00    -0.018 C 
HETATM    3  C3  UNL     1       1.723  11.945  14.648  1.00  0.00     0.018 C 
HETATM    4  C4  UNL     1       2.254   9.581  14.358  1.00  0.00     0.126 C 
HETATM    5  C5  UNL     1       2.173   8.821  15.652  1.00  0.00     0.033 C 
HETATM    6  C6  UNL     1       3.521   8.660  16.277  1.00  0.00     0.008 C 
HETATM    7  C7  UNL     1       4.468   9.814  15.952  1.00  0.00    -0.002 C 
HETATM    8  C8  UNL     1       3.686  11.066  15.805  1.00  0.00     0.000 C 
HETATM    9  C9  UNL     1       4.476  12.315  15.763  1.00  0.00     0.007 C 
HETATM   10  C10 UNL     1       5.827  12.252  16.416  1.00  0.00     0.011 C 
HETATM   11  C11 UNL     1       5.886  11.198  17.513  1.00  0.00    -0.030 C 
HETATM   12  C12 UNL     1       4.794  11.597  18.516  1.00  0.00     0.016 C 
HETATM   13  C13 UNL     1       5.543   9.834  16.996  1.00  0.00     0.033 C 
HETATM   14  C14 UNL     1       6.713   9.075  16.410  1.00  0.00     0.175 C 
HETATM   15  F1  UNL     1       7.133   9.591  15.210  1.00  0.00    -0.249 F 
HETATM   16  C15 UNL     1       7.863   9.005  17.350  1.00  0.00     0.043 C 
HETATM   17  C16 UNL     1       8.294  10.453  17.605  1.00  0.00    -0.002 C 
HETATM   18  C17 UNL     1       9.518  10.419  18.431  1.00  0.00     0.021 C 
HETATM   19  C18 UNL     1       9.745  11.556  19.361  1.00  0.00     0.059 C 
HETATM   20  C21 UNL     1       8.974  12.784  19.118  1.00  0.00     0.017 C 
HETATM   21  C22 UNL     1       7.693  12.652  18.369  1.00  0.00     0.011 C 
HETATM   22  C23 UNL     1       7.182  11.238  18.241  1.00  0.00    -0.033 C 
HETATM   23  C24 UNL     1       6.948  10.617  19.622  1.00  0.00     0.016 C 
ENDROOT
BRANCH  19  24
HETATM   24  S1  UNL     1      11.541  11.944  19.238  1.00  0.00    -0.087 SA
BRANCH  24  25
HETATM   25  S2  UNL     1      12.035  12.083  17.175  1.00  0.00    -0.009 SA
BRANCH  25  26
HETATM   26  C19 UNL     1      13.805  11.733  17.076  1.00  0.00     0.387 C 
HETATM   27  N2  UNL     1      14.415  12.253  18.275  1.00  0.00    -0.058 NA
HETATM   28  N3  UNL     1      15.188  13.339  17.929  1.00  0.00    -0.254 N 
HETATM   29  C20 UNL     1      15.199  13.438  16.625  1.00  0.00     0.321 C 
ATOM     30  H3  UNL     1      15.670  13.961  18.579  1.00  0.00     0.187 HD
HETATM   31  F2  UNL     1      15.879  14.418  15.952  1.00  0.00    -0.156 F 
HETATM   32  O2  UNL     1      14.442  12.431  16.055  1.00  0.00    -0.247 OA
BRANCH  26  33
HETATM   33  N1  UNL     1      14.073  10.306  17.046  1.00  0.00    -0.018 N 
ATOM     34  H13 UNL     1      13.842   9.866  17.936  1.00  0.00     0.280 HD
ATOM     35  H12 UNL     1      13.409   9.817  16.448  1.00  0.00     0.280 HD
ATOM     36  H11 UNL     1      15.035  10.106  16.773  1.00  0.00     0.280 HD
ENDBRANCH  26  33
ENDBRANCH  25  26
ENDBRANCH  24  25
ENDBRANCH  19  24
BRANCH   4  37
HETATM   37  O1  UNL     1       0.938   9.697  13.864  1.00  0.00    -0.395 OA
ATOM     38  H1  UNL     1       0.401  10.183  14.478  1.00  0.00     0.210 HD
ENDBRANCH   4  37
TORSDOF 5
ENDMDL
MODEL 5
REMARK VINA RESULT: -7.155837231      5.124      8.999
REMARK  5 active torsions:
REMARK  status: ('A' for Active; 'I' for Inactive)
REMARK    1  A    between atoms: C4_4  and  O1_5 
REMARK    2  A    between atoms: C18_21  and  S1_22 
REMARK    3  A    between atoms: S1_22  and  S2_23 
REMARK    4  A    between atoms: S2_23  and  C19_24 
REMARK    5  A    between atoms: C19_24  and  N1_25 
ROOT
HETATM    1  C1  UNL     1       4.150   6.135  18.718  1.00  0.00     0.018 C 
HETATM    2  C2  UNL     1       3.621   6.994  17.624  1.00  0.00    -0.018 C 
HETATM    3  C3  UNL     1       3.470   6.184  16.334  1.00  0.00     0.018 C 
HETATM    4  C4  UNL     1       2.253   7.472  18.012  1.00  0.00     0.126 C 
HETATM    5  C5  UNL     1       1.962   8.871  17.547  1.00  0.00     0.033 C 
HETATM    6  C6  UNL     1       2.967   9.843  18.076  1.00  0.00     0.008 C 
HETATM    7  C7  UNL     1       4.344   9.216  18.287  1.00  0.00    -0.002 C 
HETATM    8  C8  UNL     1       4.562   8.156  17.273  1.00  0.00     0.000 C 
HETATM    9  C9  UNL     1       5.946   7.645  17.166  1.00  0.00     0.007 C 
HETATM   10  C10 UNL     1       7.023   8.583  17.631  1.00  0.00     0.011 C 
HETATM   11  C11 UNL     1       6.601  10.042  17.521  1.00  0.00    -0.030 C 
HETATM   12  C12 UNL     1       6.271  10.256  16.036  1.00  0.00     0.016 C 
HETATM   13  C13 UNL     1       5.354  10.324  18.301  1.00  0.00     0.033 C 
HETATM   14  C14 UNL     1       5.591  10.658  19.758  1.00  0.00     0.175 C 
HETATM   15  F1  UNL     1       5.989   9.570  20.494  1.00  0.00    -0.249 F 
HETATM   16  C15 UNL     1       6.575  11.759  19.927  1.00  0.00     0.043 C 
HETATM   17  C16 UNL     1       7.888  11.256  19.318  1.00  0.00    -0.002 C 
HETATM   18  C17 UNL     1       8.927  12.271  19.586  1.00  0.00     0.021 C 
HETATM   19  C18 UNL     1      10.025  12.400  18.594  1.00  0.00     0.059 C 
HETATM   20  C21 UNL     1      10.216  11.283  17.657  1.00  0.00     0.017 C 
HETATM   21  C22 UNL     1       9.043  10.404  17.390  1.00  0.00     0.011 C 
HETATM   22  C23 UNL     1       7.721  10.962  17.854  1.00  0.00    -0.033 C 
HETATM   23  C24 UNL     1       7.427  12.303  17.175  1.00  0.00     0.016 C 
ENDROOT
BRANCH  19  24
HETATM   24  S1  UNL     1      11.562  12.619  19.583  1.00  0.00    -0.087 SA
BRANCH  24  25
HETATM   25  S2  UNL     1      13.161  11.723  18.507  1.00  0.00    -0.009 SA
BRANCH  25  26
HETATM   26  C19 UNL     1      14.397  13.025  18.300  1.00  0.00     0.387 C 
HETATM   27  N2  UNL     1      13.797  14.065  17.499  1.00  0.00    -0.058 NA
HETATM   28  N3  UNL     1      14.415  14.068  16.267  1.00  0.00    -0.254 N 
HETATM   29  C20 UNL     1      15.408  13.219  16.301  1.00  0.00     0.321 C 
ATOM     30  H3  UNL     1      14.143  14.637  15.464  1.00  0.00     0.187 HD
HETATM   31  F2  UNL     1      16.231  12.981  15.232  1.00  0.00    -0.156 F 
HETATM   32  O2  UNL     1      15.493  12.622  17.546  1.00  0.00    -0.247 OA
BRANCH  26  33
HETATM   33  N1  UNL     1      14.766  13.627  19.569  1.00  0.00    -0.018 N 
ATOM     34  H13 UNL     1      15.382  13.015  20.104  1.00  0.00     0.280 HD
ATOM     35  H12 UNL     1      15.400  14.414  19.435  1.00  0.00     0.280 HD
ATOM     36  H11 UNL     1      13.948  13.898  20.114  1.00  0.00     0.280 HD
ENDBRANCH  26  33
ENDBRANCH  25  26
ENDBRANCH  24  25
ENDBRANCH  19  24
BRANCH   4  37
HETATM   37  O1  UNL     1       1.269   6.636  17.444  1.00  0.00    -0.395 OA
ATOM     38  H1  UNL     1       0.485   6.643  17.981  1.00  0.00     0.210 HD
ENDBRANCH   4  37
TORSDOF 5
ENDMDL
