MODEL 1
REMARK VINA RESULT: -6.621429840      0.000      0.000
REMARK  5 active torsions:
REMARK  status: ('A' for Active; 'I' for Inactive)
REMARK    1  A    between atoms: C2_2  and  C3_3 
REMARK    2  A    between atoms: C3_3  and  C4_4 
REMARK    3  A    between atoms: C4_4  and  N1_5 
REMARK       I    between atoms: N2_7  and  C6_8 
REMARK    4  A    between atoms: C6_8  and  C7_10 
REMARK    5  A    between atoms: C7_10  and  C8_11 
ROOT
HETATM    1  N1  UNL     1      12.417  11.727  -0.578  1.00  0.00    -0.349 N 
HETATM    2  C5  UNL     1      13.597  10.953  -0.264  1.00  0.00     0.254 C 
HETATM    3  N2  UNL     1      14.825  11.667  -0.522  1.00  0.00    -0.326 N 
HETATM    4  C6  UNL     1      15.992  11.214   0.219  1.00  0.00     0.222 C 
HETATM    5  O1  UNL     1      15.887  10.248   1.011  1.00  0.00    -0.273 OA
HETATM    6  C12 UNL     1      14.968  12.736  -1.456  1.00  0.00     0.139 C 
HETATM    7  C13 UNL     1      15.585  12.221  -2.770  1.00  0.00     0.039 C 
HETATM    8  C14 UNL     1      13.667  13.433  -1.778  1.00  0.00     0.084 A 
HETATM    9  N3  UNL     1      13.627  14.574  -2.510  1.00  0.00    -0.311 N 
ATOM     10  H3  UNL     1      14.412  15.088  -2.909  1.00  0.00     0.175 HD
HETATM   11  S1  UNL     1      12.006  14.946  -2.610  1.00  0.00     0.069 SA
HETATM   12  N4  UNL     1      11.398  13.659  -1.727  1.00  0.00    -0.297 N 
ATOM     13  H4  UNL     1      10.422  13.454  -1.510  1.00  0.00     0.177 HD
HETATM   14  C15 UNL     1      12.485  12.957  -1.369  1.00  0.00     0.137 A 
ENDROOT
BRANCH   4  15
HETATM   15  C7  UNL     1      17.292  11.867   0.056  1.00  0.00     0.111 C 
BRANCH  15  16
HETATM   16  C8  UNL     1      18.401  10.994  -0.437  1.00  0.00    -0.043 C 
HETATM   17  C9  UNL     1      19.337  11.852  -1.319  1.00  0.00     0.015 C 
HETATM   18  C10 UNL     1      19.305  10.451   0.644  1.00  0.00     0.015 C 
HETATM   19  C11 UNL     1      17.923   9.859  -1.293  1.00  0.00     0.015 C 
ENDBRANCH  15  16
ENDBRANCH   4  15
BRANCH   1  20
HETATM   20  C4  UNL     1      11.164  11.240  -0.099  1.00  0.00     0.126 C 
BRANCH  20  21
HETATM   21  C3  UNL     1      11.124  10.193   0.928  1.00  0.00     0.020 C 
BRANCH  21  22
HETATM   22  C2  UNL     1      10.569  10.458   2.268  1.00  0.00    -0.003 C 
HETATM   23  C1  UNL     1      10.662   9.116   3.047  1.00  0.00     0.005 C 
ENDBRANCH  21  22
ENDBRANCH  20  21
ENDBRANCH   1  20
TORSDOF 5
ENDMDL
MODEL 2
REMARK VINA RESULT: -6.264633062      1.024      1.338
REMARK  5 active torsions:
REMARK  status: ('A' for Active; 'I' for Inactive)
REMARK    1  A    between atoms: C2_2  and  C3_3 
REMARK    2  A    between atoms: C3_3  and  C4_4 
REMARK    3  A    between atoms: C4_4  and  N1_5 
REMARK       I    between atoms: N2_7  and  C6_8 
REMARK    4  A    between atoms: C6_8  and  C7_10 
REMARK    5  A    between atoms: C7_10  and  C8_11 
ROOT
HETATM    1  N1  UNL     1      12.730  11.709  -0.257  1.00  0.00    -0.349 N 
HETATM    2  C5  UNL     1      13.802  10.749  -0.121  1.00  0.00     0.254 C 
HETATM    3  N2  UNL     1      14.862  10.946  -1.081  1.00  0.00    -0.326 N 
HETATM    4  C6  UNL     1      16.162  10.410  -0.713  1.00  0.00     0.222 C 
HETATM    5  O1  UNL     1      16.299   9.807   0.379  1.00  0.00    -0.273 OA
HETATM    6  C12 UNL     1      14.709  11.586  -2.347  1.00  0.00     0.139 C 
HETATM    7  C13 UNL     1      14.577  10.537  -3.466  1.00  0.00     0.039 C 
HETATM    8  C14 UNL     1      13.515  12.512  -2.414  1.00  0.00     0.084 A 
HETATM    9  N3  UNL     1      13.304  13.333  -3.471  1.00  0.00    -0.311 N 
ATOM     10  H3  UNL     1      13.882  13.440  -4.304  1.00  0.00     0.175 HD
HETATM   11  S1  UNL     1      11.887  14.128  -3.102  1.00  0.00     0.069 SA
HETATM   12  N4  UNL     1      11.578  13.415  -1.618  1.00  0.00    -0.297 N 
ATOM     13  H4  UNL     1      10.792  13.590  -0.992  1.00  0.00     0.177 HD
HETATM   14  C15 UNL     1      12.599  12.561  -1.439  1.00  0.00     0.137 A 
ENDROOT
BRANCH   4  15
HETATM   15  C7  UNL     1      17.320  10.558  -1.596  1.00  0.00     0.111 C 
BRANCH  15  16
HETATM   16  C8  UNL     1      18.316  11.598  -1.194  1.00  0.00    -0.043 C 
HETATM   17  C9  UNL     1      18.916  12.215  -2.479  1.00  0.00     0.015 C 
HETATM   18  C10 UNL     1      17.734  12.778  -0.454  1.00  0.00     0.015 C 
HETATM   19  C11 UNL     1      19.465  11.042  -0.406  1.00  0.00     0.015 C 
ENDBRANCH  15  16
ENDBRANCH   4  15
BRANCH   1  20
HETATM   20  C4  UNL     1      11.782  11.791   0.806  1.00  0.00     0.126 C 
BRANCH  20  21
HETATM   21  C3  UNL     1      10.951  10.630   1.145  1.00  0.00     0.020 C 
BRANCH  21  22
HETATM   22  C2  UNL     1      10.396  10.457   2.501  1.00  0.00    -0.003 C 
HETATM   23  C1  UNL     1      10.799   9.026   2.953  1.00  0.00     0.005 C 
ENDBRANCH  21  22
ENDBRANCH  20  21
ENDBRANCH   1  20
TORSDOF 5
ENDMDL
MODEL 3
REMARK VINA RESULT: -6.146906618      1.174      1.526
REMARK  5 active torsions:
REMARK  status: ('A' for Active; 'I' for Inactive)
REMARK    1  A    between atoms: C2_2  and  C3_3 
REMARK    2  A    between atoms: C3_3  and  C4_4 
REMARK    3  A    between atoms: C4_4  and  N1_5 
REMARK       I    between atoms: N2_7  and  C6_8 
REMARK    4  A    between atoms: C6_8  and  C7_10 
REMARK    5  A    between atoms: C7_10  and  C8_11 
ROOT
HETATM    1  N1  UNL     1      12.606  11.701  -1.065  1.00  0.00    -0.349 N 
HETATM    2  C5  UNL     1      13.709  10.799  -1.313  1.00  0.00     0.254 C 
HETATM    3  N2  UNL     1      14.833  11.444  -1.948  1.00  0.00    -0.326 N 
HETATM    4  C6  UNL     1      16.123  10.799  -1.766  1.00  0.00     0.222 C 
HETATM    5  O1  UNL     1      16.199   9.739  -1.100  1.00  0.00    -0.273 OA
HETATM    6  C12 UNL     1      14.753  12.622  -2.749  1.00  0.00     0.139 C 
HETATM    7  C13 UNL     1      14.765  12.256  -4.245  1.00  0.00     0.039 C 
HETATM    8  C14 UNL     1      13.526  13.459  -2.470  1.00  0.00     0.084 A 
HETATM    9  N3  UNL     1      13.363  14.693  -3.007  1.00  0.00    -0.311 N 
ATOM     10  H3  UNL     1      14.001  15.196  -3.623  1.00  0.00     0.175 HD
HETATM   11  S1  UNL     1      11.883  15.202  -2.435  1.00  0.00     0.069 SA
HETATM   12  N4  UNL     1      11.488  13.852  -1.524  1.00  0.00    -0.297 N 
ATOM     13  H4  UNL     1      10.646  13.696  -0.970  1.00  0.00     0.177 HD
HETATM   14  C15 UNL     1      12.531  13.022  -1.688  1.00  0.00     0.137 A 
ENDROOT
BRANCH   4  15
HETATM   15  C7  UNL     1      17.342  11.364  -2.350  1.00  0.00     0.111 C 
BRANCH  15  16
HETATM   16  C8  UNL     1      18.236  12.099  -1.404  1.00  0.00    -0.043 C 
HETATM   17  C9  UNL     1      18.825  13.321  -2.146  1.00  0.00     0.015 C 
HETATM   18  C10 UNL     1      17.536  12.695  -0.207  1.00  0.00     0.015 C 
HETATM   19  C11 UNL     1      19.400  11.278  -0.934  1.00  0.00     0.015 C 
ENDBRANCH  15  16
ENDBRANCH   4  15
BRANCH   1  20
HETATM   20  C4  UNL     1      11.571  11.249  -0.193  1.00  0.00     0.126 C 
BRANCH  20  21
HETATM   21  C3  UNL     1      11.650   9.917   0.418  1.00  0.00     0.020 C 
BRANCH  21  22
HETATM   22  C2  UNL     1      11.060   9.649   1.743  1.00  0.00    -0.003 C 
HETATM   23  C1  UNL     1      10.320  10.950   2.158  1.00  0.00     0.005 C 
ENDBRANCH  21  22
ENDBRANCH  20  21
ENDBRANCH   1  20
TORSDOF 5
ENDMDL
MODEL 4
REMARK VINA RESULT: -6.128004697      1.664      2.001
REMARK  5 active torsions:
REMARK  status: ('A' for Active; 'I' for Inactive)
REMARK    1  A    between atoms: C2_2  and  C3_3 
REMARK    2  A    between atoms: C3_3  and  C4_4 
REMARK    3  A    between atoms: C4_4  and  N1_5 
REMARK       I    between atoms: N2_7  and  C6_8 
REMARK    4  A    between atoms: C6_8  and  C7_10 
REMARK    5  A    between atoms: C7_10  and  C8_11 
ROOT
HETATM    1  N1  UNL     1      12.149  12.821  -0.921  1.00  0.00    -0.349 N 
HETATM    2  C5  UNL     1      12.936  11.611  -0.995  1.00  0.00     0.254 C 
HETATM    3  N2  UNL     1      13.942  11.655  -2.029  1.00  0.00    -0.326 N 
HETATM    4  C6  UNL     1      15.077  10.764  -1.852  1.00  0.00     0.222 C 
HETATM    5  O1  UNL     1      15.124  10.010  -0.850  1.00  0.00    -0.273 OA
HETATM    6  C12 UNL     1      13.877  12.471  -3.198  1.00  0.00     0.139 C 
HETATM    7  C13 UNL     1      13.397  11.643  -4.404  1.00  0.00     0.039 C 
HETATM    8  C14 UNL     1      12.968  13.670  -3.047  1.00  0.00     0.084 A 
HETATM    9  N3  UNL     1      12.910  14.647  -3.984  1.00  0.00    -0.311 N 
ATOM     10  H3  UNL     1      13.437  14.710  -4.855  1.00  0.00     0.175 HD
HETATM   11  S1  UNL     1      11.781  15.721  -3.393  1.00  0.00     0.069 SA
HETATM   12  N4  UNL     1      11.397  14.924  -1.970  1.00  0.00    -0.297 N 
ATOM     13  H4  UNL     1      10.730  15.210  -1.254  1.00  0.00     0.177 HD
HETATM   14  C15 UNL     1      12.166  13.823  -1.986  1.00  0.00     0.137 A 
ENDROOT
BRANCH   4  15
HETATM   15  C7  UNL     1      16.170  10.726  -2.826  1.00  0.00     0.111 C 
BRANCH  15  16
HETATM   16  C8  UNL     1      17.439  11.395  -2.406  1.00  0.00    -0.043 C 
HETATM   17  C9  UNL     1      18.169  11.890  -3.676  1.00  0.00     0.015 C 
HETATM   18  C10 UNL     1      17.251  12.642  -1.576  1.00  0.00     0.015 C 
HETATM   19  C11 UNL     1      18.386  10.472  -1.696  1.00  0.00     0.015 C 
ENDBRANCH  15  16
ENDBRANCH   4  15
BRANCH   1  20
HETATM   20  C4  UNL     1      11.330  13.003   0.235  1.00  0.00     0.126 C 
BRANCH  20  21
HETATM   21  C3  UNL     1      11.436  12.076   1.366  1.00  0.00     0.020 C 
BRANCH  21  22
HETATM   22  C2  UNL     1      10.338  11.148   1.698  1.00  0.00    -0.003 C 
HETATM   23  C1  UNL     1      10.957   9.723   1.678  1.00  0.00     0.005 C 
ENDBRANCH  21  22
ENDBRANCH  20  21
ENDBRANCH   1  20
TORSDOF 5
ENDMDL
MODEL 5
REMARK VINA RESULT: -6.120875071      0.954      1.147
REMARK  5 active torsions:
REMARK  status: ('A' for Active; 'I' for Inactive)
REMARK    1  A    between atoms: C2_2  and  C3_3 
REMARK    2  A    between atoms: C3_3  and  C4_4 
REMARK    3  A    between atoms: C4_4  and  N1_5 
REMARK       I    between atoms: N2_7  and  C6_8 
REMARK    4  A    between atoms: C6_8  and  C7_10 
REMARK    5  A    between atoms: C7_10  and  C8_11 
ROOT
HETATM    1  N1  UNL     1      13.029  12.440  -0.302  1.00  0.00    -0.349 N 
HETATM    2  C5  UNL     1      14.301  11.787  -0.090  1.00  0.00     0.254 C 
HETATM    3  N2  UNL     1      15.379  12.399  -0.829  1.00  0.00    -0.326 N 
HETATM    4  C6  UNL     1      16.717  12.175  -0.306  1.00  0.00     0.222 C 
HETATM    5  O1  UNL     1      16.872  11.471   0.720  1.00  0.00    -0.273 OA
HETATM    6  C12 UNL     1      15.221  13.161  -2.026  1.00  0.00     0.139 C 
HETATM    7  C13 UNL     1      15.542  12.296  -3.258  1.00  0.00     0.039 C 
HETATM    8  C14 UNL     1      13.834  13.739  -2.193  1.00  0.00     0.084 A 
HETATM    9  N3  UNL     1      13.542  14.626  -3.175  1.00  0.00    -0.311 N 
ATOM     10  H3  UNL     1      14.171  15.006  -3.882  1.00  0.00     0.175 HD
HETATM   11  S1  UNL     1      11.921  14.955  -2.968  1.00  0.00     0.069 SA
HETATM   12  N4  UNL     1      11.632  13.969  -1.644  1.00  0.00    -0.297 N 
ATOM     13  H4  UNL     1      10.753  13.834  -1.146  1.00  0.00     0.177 HD
HETATM   14  C15 UNL     1      12.820  13.397  -1.389  1.00  0.00     0.137 A 
ENDROOT
BRANCH   4  15
HETATM   15  C7  UNL     1      17.892  12.755  -0.959  1.00  0.00     0.111 C 
BRANCH  15  16
HETATM   16  C8  UNL     1      18.848  11.779  -1.566  1.00  0.00    -0.043 C 
HETATM   17  C9  UNL     1      19.327  12.349  -2.921  1.00  0.00     0.015 C 
HETATM   18  C10 UNL     1      20.121  11.570  -0.781  1.00  0.00     0.015 C 
HETATM   19  C11 UNL     1      18.226  10.445  -1.855  1.00  0.00     0.015 C 
ENDBRANCH  15  16
ENDBRANCH   4  15
BRANCH   1  20
HETATM   20  C4  UNL     1      11.963  12.108   0.588  1.00  0.00     0.126 C 
BRANCH  20  21
HETATM   21  C3  UNL     1      11.121  10.936   0.324  1.00  0.00     0.020 C 
BRANCH  21  22
HETATM   22  C2  UNL     1      11.304   9.680   1.075  1.00  0.00    -0.003 C 
HETATM   23  C1  UNL     1      10.645   9.907   2.464  1.00  0.00     0.005 C 
ENDBRANCH  21  22
ENDBRANCH  20  21
ENDBRANCH   1  20
TORSDOF 5
ENDMDL
