MODEL 1
REMARK VINA RESULT: -5.788813957      0.000      0.000
REMARK  3 active torsions:
REMARK  status: ('A' for Active; 'I' for Inactive)
REMARK    1  A    between atoms: C2_2  and  C3_3 
REMARK    2  A    between atoms: C6_6  and  C7_7 
REMARK    3  A    between atoms: C10_13  and  O1_14 
ROOT
HETATM    1  C3  UNL     1     -11.516  10.846  -1.582  1.00  0.00     0.124 C 
HETATM    2  C4  UNL     1     -11.619   9.784  -0.481  1.00  0.00     0.033 C 
HETATM    3  C5  UNL     1     -13.005   9.975   0.081  1.00  0.00     0.019 C 
HETATM    4  C6  UNL     1     -13.067  11.353   0.683  1.00  0.00     0.098 C 
HETATM    5  C10 UNL     1     -12.087  12.322   0.125  1.00  0.00     0.267 C 
HETATM    6  O2  UNL     1     -11.590  12.097  -1.103  1.00  0.00    -0.355 OA
ENDROOT
BRANCH   4   7
HETATM    7  C7  UNL     1     -14.451  11.846   0.664  1.00  0.00     0.055 C 
HETATM    8  N1  UNL     1     -15.448  11.341   0.117  1.00  0.00    -0.366 N 
HETATM    9  C8  UNL     1     -16.692  11.936   0.196  1.00  0.00     0.072 C 
ATOM     10  H1  UNL     1     -15.346  10.468  -0.401  1.00  0.00     0.165 HD
HETATM   11  C9  UNL     1     -16.612  13.411   0.523  1.00  0.00     0.125 C 
HETATM   12  S1  UNL     1     -15.012  13.350   1.446  1.00  0.00    -0.111 SA
ENDBRANCH   4   7
BRANCH   5  13
HETATM   13  O1  UNL     1     -11.003  12.534   0.998  1.00  0.00    -0.370 OA
ATOM     14  H1  UNL     1     -10.733  11.731   1.429  1.00  0.00     0.212 HD
ENDBRANCH   5  13
BRANCH   1  15
HETATM   15  C2  UNL     1     -10.233  10.550  -2.328  1.00  0.00     0.027 C 
HETATM   16  C1  UNL     1     -10.339   9.332  -3.192  1.00  0.00     0.007 C 
ENDBRANCH   1  15
TORSDOF 3
ENDMDL
MODEL 2
REMARK VINA RESULT: -5.764669694      0.964      1.091
REMARK  3 active torsions:
REMARK  status: ('A' for Active; 'I' for Inactive)
REMARK    1  A    between atoms: C2_2  and  C3_3 
REMARK    2  A    between atoms: C6_6  and  C7_7 
REMARK    3  A    between atoms: C10_13  and  O1_14 
ROOT
HETATM    1  C3  UNL     1     -11.531  10.894  -1.566  1.00  0.00     0.124 C 
HETATM    2  C4  UNL     1     -11.698   9.863  -0.444  1.00  0.00     0.033 C 
HETATM    3  C5  UNL     1     -13.089  10.115   0.078  1.00  0.00     0.019 C 
HETATM    4  C6  UNL     1     -13.117  11.509   0.647  1.00  0.00     0.098 C 
HETATM    5  C10 UNL     1     -12.091  12.429   0.091  1.00  0.00     0.267 C 
HETATM    6  O2  UNL     1     -11.572  12.159  -1.119  1.00  0.00    -0.355 OA
ENDROOT
BRANCH   4   7
HETATM    7  C7  UNL     1     -14.483  12.048   0.581  1.00  0.00     0.055 C 
HETATM    8  N1  UNL     1     -14.878  13.199   0.841  1.00  0.00    -0.366 N 
HETATM    9  C8  UNL     1     -16.209  13.547   0.725  1.00  0.00     0.072 C 
ATOM     10  H1  UNL     1     -14.204  13.901   1.146  1.00  0.00     0.165 HD
HETATM   11  C9  UNL     1     -17.130  12.348   0.773  1.00  0.00     0.125 C 
HETATM   12  S1  UNL     1     -15.928  11.113   0.104  1.00  0.00    -0.111 SA
ENDBRANCH   4   7
BRANCH   5  13
HETATM   13  O1  UNL     1     -11.021  12.625   0.985  1.00  0.00    -0.370 OA
ATOM     14  H1  UNL     1     -11.175  12.199   1.820  1.00  0.00     0.212 HD
ENDBRANCH   5  13
BRANCH   1  15
HETATM   15  C2  UNL     1     -10.241  10.536  -2.274  1.00  0.00     0.027 C 
HETATM   16  C1  UNL     1     -10.380   9.326  -3.144  1.00  0.00     0.007 C 
ENDBRANCH   1  15
TORSDOF 3
ENDMDL
MODEL 3
REMARK VINA RESULT: -5.629148214      2.527      3.258
REMARK  3 active torsions:
REMARK  status: ('A' for Active; 'I' for Inactive)
REMARK    1  A    between atoms: C2_2  and  C3_3 
REMARK    2  A    between atoms: C6_6  and  C7_7 
REMARK    3  A    between atoms: C10_13  and  O1_14 
ROOT
HETATM    1  C3  UNL     1     -11.148  11.169  -0.476  1.00  0.00     0.124 C 
HETATM    2  C4  UNL     1     -12.084  12.347  -0.770  1.00  0.00     0.033 C 
HETATM    3  C5  UNL     1     -12.708  12.658   0.567  1.00  0.00     0.019 C 
HETATM    4  C6  UNL     1     -13.508  11.453   0.987  1.00  0.00     0.098 C 
HETATM    5  C10 UNL     1     -13.068  10.170   0.379  1.00  0.00     0.267 C 
HETATM    6  O2  UNL     1     -11.806  10.071  -0.073  1.00  0.00    -0.355 OA
ENDROOT
BRANCH   4   7
HETATM    7  C7  UNL     1     -13.601  11.403   2.453  1.00  0.00     0.055 C 
HETATM    8  N1  UNL     1     -12.888  11.975   3.298  1.00  0.00    -0.366 N 
HETATM    9  C8  UNL     1     -13.113  11.822   4.652  1.00  0.00     0.072 C 
ATOM     10  H1  UNL     1     -12.121  12.569   2.984  1.00  0.00     0.165 HD
HETATM   11  C9  UNL     1     -13.898  10.570   4.974  1.00  0.00     0.125 C 
HETATM   12  S1  UNL     1     -14.806  10.454   3.368  1.00  0.00    -0.111 SA
ENDBRANCH   4   7
BRANCH   5  13
HETATM   13  O1  UNL     1     -13.930   9.757  -0.655  1.00  0.00    -0.370 OA
ATOM     14  H1  UNL     1     -13.859  10.316  -1.420  1.00  0.00     0.212 HD
ENDBRANCH   5  13
BRANCH   1  15
HETATM   15  C2  UNL     1     -10.328  10.964  -1.733  1.00  0.00     0.027 C 
HETATM   16  C1  UNL     1     -10.684   9.699  -2.449  1.00  0.00     0.007 C 
ENDBRANCH   1  15
TORSDOF 3
ENDMDL
MODEL 4
REMARK VINA RESULT: -5.569278639      2.493      3.124
REMARK  3 active torsions:
REMARK  status: ('A' for Active; 'I' for Inactive)
REMARK    1  A    between atoms: C2_2  and  C3_3 
REMARK    2  A    between atoms: C6_6  and  C7_7 
REMARK    3  A    between atoms: C10_13  and  O1_14 
ROOT
HETATM    1  C3  UNL     1     -11.224  10.964  -0.457  1.00  0.00     0.124 C 
HETATM    2  C4  UNL     1     -12.039  12.248  -0.651  1.00  0.00     0.033 C 
HETATM    3  C5  UNL     1     -12.598  12.535   0.719  1.00  0.00     0.019 C 
HETATM    4  C6  UNL     1     -13.508  11.395   1.089  1.00  0.00     0.098 C 
HETATM    5  C10 UNL     1     -13.219  10.115   0.392  1.00  0.00     0.267 C 
HETATM    6  O2  UNL     1     -11.985   9.916  -0.102  1.00  0.00    -0.355 OA
ENDROOT
BRANCH   4   7
HETATM    7  C7  UNL     1     -13.573  11.262   2.551  1.00  0.00     0.055 C 
HETATM    8  N1  UNL     1     -14.133  10.380   3.228  1.00  0.00    -0.366 N 
HETATM    9  C8  UNL     1     -14.098  10.401   4.608  1.00  0.00     0.072 C 
ATOM     10  H1  UNL     1     -14.628   9.626   2.753  1.00  0.00     0.165 HD
HETATM   11  C9  UNL     1     -13.802  11.777   5.163  1.00  0.00     0.125 C 
HETATM   12  S1  UNL     1     -12.838  12.401   3.714  1.00  0.00    -0.111 SA
ENDBRANCH   4   7
BRANCH   5  13
HETATM   13  O1  UNL     1     -14.142   9.859  -0.640  1.00  0.00    -0.370 OA
ATOM     14  H1  UNL     1     -14.589   9.029  -0.517  1.00  0.00     0.212 HD
ENDBRANCH   5  13
BRANCH   1  15
HETATM   15  C2  UNL     1     -10.459  10.756  -1.747  1.00  0.00     0.027 C 
HETATM   16  C1  UNL     1     -10.771   9.443  -2.393  1.00  0.00     0.007 C 
ENDBRANCH   1  15
TORSDOF 3
ENDMDL
MODEL 5
REMARK VINA RESULT: -5.549381601      2.640      5.281
REMARK  3 active torsions:
REMARK  status: ('A' for Active; 'I' for Inactive)
REMARK    1  A    between atoms: C2_2  and  C3_3 
REMARK    2  A    between atoms: C6_6  and  C7_7 
REMARK    3  A    between atoms: C10_13  and  O1_14 
ROOT
HETATM    1  C3  UNL     1     -14.704  13.084   0.821  1.00  0.00     0.124 C 
HETATM    2  C4  UNL     1     -13.573  13.588   1.725  1.00  0.00     0.033 C 
HETATM    3  C5  UNL     1     -12.317  13.140   1.022  1.00  0.00     0.019 C 
HETATM    4  C6  UNL     1     -12.324  11.635   0.991  1.00  0.00     0.098 C 
HETATM    5  C10 UNL     1     -13.672  11.016   1.092  1.00  0.00     0.267 C 
HETATM    6  O2  UNL     1     -14.743  11.745   0.737  1.00  0.00    -0.355 OA
ENDROOT
BRANCH   4   7
HETATM    7  C7  UNL     1     -11.546  11.155  -0.160  1.00  0.00     0.055 C 
HETATM    8  N1  UNL     1     -10.836  11.809  -0.945  1.00  0.00    -0.366 N 
HETATM    9  C8  UNL     1     -10.163  11.199  -1.985  1.00  0.00     0.072 C 
ATOM     10  H1  UNL     1     -10.750  12.818  -0.819  1.00  0.00     0.165 HD
HETATM   11  C9  UNL     1     -10.761   9.862  -2.362  1.00  0.00     0.125 C 
HETATM   12  S1  UNL     1     -11.465   9.455  -0.702  1.00  0.00    -0.111 SA
ENDBRANCH   4   7
BRANCH   5  13
HETATM   13  O1  UNL     1     -13.913  10.491   2.376  1.00  0.00    -0.370 OA
ATOM     14  H1  UNL     1     -13.639   9.584   2.445  1.00  0.00     0.212 HD
ENDBRANCH   5  13
BRANCH   1  15
HETATM   15  C2  UNL     1     -15.977  13.701   1.361  1.00  0.00     0.027 C 
HETATM   16  C1  UNL     1     -17.163  13.423   0.491  1.00  0.00     0.007 C 
ENDBRANCH   1  15
TORSDOF 3
ENDMDL
