MODEL 1
REMARK VINA RESULT: -7.985926407      0.000      0.000
REMARK  5 active torsions:
REMARK  status: ('A' for Active; 'I' for Inactive)
REMARK    1  A    between atoms: N1_2  and  O1_3 
REMARK       I    between atoms: N1_2  and  C2_5 
REMARK       I    between atoms: C2_5  and  N3_22 
REMARK    2  A    between atoms: N2_6  and  O2_8 
REMARK    3  A    between atoms: O2_8  and  C3_9 
REMARK    4  A    between atoms: C3_9  and  C4_11 
REMARK    5  A    between atoms: N3_22  and  N4_24 
ROOT
HETATM    1  O2  UNL     1      22.833  -0.039 -11.148  1.00  0.00    -0.180 OA
ENDROOT
BRANCH   1   2
HETATM    2  N2  UNL     1      21.692   0.607 -10.806  1.00  0.00    -0.084 N 
HETATM    3  C2  UNL     1      20.528   0.063 -10.903  1.00  0.00     0.747 C 
HETATM    4  N1  UNL     1      19.404   0.845 -10.513  1.00  0.00    -0.071 N 
HETATM    5  N3  UNL     1      20.354  -1.256 -11.378  1.00  0.00    -0.068 N 
HETATM    6  C1  UNL     1      18.935   0.814  -9.327  1.00  0.00     0.176 C 
ATOM      7  H3  UNL     1      20.902  -1.591 -12.170  1.00  0.00     0.212 HD
ATOM      8  H2  UNL     1      21.757   1.564 -10.458  1.00  0.00     0.214 HD
BRANCH   4   9
HETATM    9  O1  UNL     1      18.815   1.659 -11.459  1.00  0.00    -0.270 OA
ATOM     10  H1  UNL     1      18.156   2.289 -11.191  1.00  0.00     0.245 HD
ENDBRANCH   4   9
BRANCH   5  11
HETATM   11  N4  UNL     1      19.432  -2.101 -10.758  1.00  0.00    -0.024 N 
HETATM   12  O4  UNL     1      19.670  -2.608  -9.644  1.00  0.00    -0.516 OA
HETATM   13  O5  UNL     1      18.229  -2.413 -11.337  1.00  0.00    -0.516 OA
ENDBRANCH   5  11
ENDBRANCH   1   2
BRANCH   1  14
HETATM   14  C3  UNL     1      23.635  -0.755 -10.273  1.00  0.00     0.319 C 
HETATM   15  O3  UNL     1      23.108  -1.687  -9.629  1.00  0.00    -0.257 OA
BRANCH  14  16
HETATM   16  C4  UNL     1      25.046  -0.411 -10.125  1.00  0.00     0.088 A 
HETATM   17  C5  UNL     1      25.799  -0.034 -11.216  1.00  0.00     0.075 A 
HETATM   18 CL1  UNL     1      25.079   0.041 -12.819  1.00  0.00    -0.081 Cl
HETATM   19  C6  UNL     1      27.124   0.279 -11.014  1.00  0.00     0.080 A 
HETATM   20 CL2  UNL     1      28.133   0.764 -12.362  1.00  0.00    -0.081 Cl
HETATM   21  C7  UNL     1      27.702   0.224  -9.764  1.00  0.00     0.081 A 
HETATM   22 CL3  UNL     1      29.392   0.620  -9.486  1.00  0.00    -0.081 Cl
HETATM   23  C8  UNL     1      26.961  -0.150  -8.663  1.00  0.00     0.080 A 
HETATM   24 CL4  UNL     1      27.673  -0.230  -7.048  1.00  0.00    -0.081 Cl
HETATM   25  C9  UNL     1      25.636  -0.461  -8.879  1.00  0.00     0.075 A 
HETATM   26 CL5  UNL     1      24.699  -0.939  -7.466  1.00  0.00    -0.081 Cl
ENDBRANCH  14  16
ENDBRANCH   1  14
TORSDOF 5
ENDMDL
MODEL 2
REMARK VINA RESULT: -7.954060209      0.068      2.479
REMARK  5 active torsions:
REMARK  status: ('A' for Active; 'I' for Inactive)
REMARK    1  A    between atoms: N1_2  and  O1_3 
REMARK       I    between atoms: N1_2  and  C2_5 
REMARK       I    between atoms: C2_5  and  N3_22 
REMARK    2  A    between atoms: N2_6  and  O2_8 
REMARK    3  A    between atoms: O2_8  and  C3_9 
REMARK    4  A    between atoms: C3_9  and  C4_11 
REMARK    5  A    between atoms: N3_22  and  N4_24 
ROOT
HETATM    1  O2  UNL     1      22.831  -0.050 -11.122  1.00  0.00    -0.180 OA
ENDROOT
BRANCH   1   2
HETATM    2  N2  UNL     1      21.690   0.597 -10.782  1.00  0.00    -0.084 N 
HETATM    3  C2  UNL     1      20.525   0.056 -10.885  1.00  0.00     0.747 C 
HETATM    4  N1  UNL     1      19.402   0.838 -10.496  1.00  0.00    -0.071 N 
HETATM    5  N3  UNL     1      20.351  -1.262 -11.365  1.00  0.00    -0.068 N 
HETATM    6  C1  UNL     1      18.928   0.804  -9.312  1.00  0.00     0.176 C 
ATOM      7  H3  UNL     1      20.901  -1.595 -12.157  1.00  0.00     0.212 HD
ATOM      8  H2  UNL     1      21.756   1.552 -10.430  1.00  0.00     0.214 HD
BRANCH   4   9
HETATM    9  O1  UNL     1      18.818   1.657 -11.441  1.00  0.00    -0.270 OA
ATOM     10  H1  UNL     1      18.866   1.422 -12.360  1.00  0.00     0.245 HD
ENDBRANCH   4   9
BRANCH   5  11
HETATM   11  N4  UNL     1      19.425  -2.107 -10.751  1.00  0.00    -0.024 N 
HETATM   12  O4  UNL     1      19.652  -2.606  -9.632  1.00  0.00    -0.516 OA
HETATM   13  O5  UNL     1      18.230  -2.427 -11.342  1.00  0.00    -0.516 OA
ENDBRANCH   5  11
ENDBRANCH   1   2
BRANCH   1  14
HETATM   14  C3  UNL     1      23.621  -0.783 -10.250  1.00  0.00     0.319 C 
HETATM   15  O3  UNL     1      23.089  -1.736  -9.641  1.00  0.00    -0.257 OA
BRANCH  14  16
HETATM   16  C4  UNL     1      25.026  -0.433 -10.064  1.00  0.00     0.088 A 
HETATM   17  C5  UNL     1      25.605  -0.480  -8.814  1.00  0.00     0.075 A 
HETATM   18 CL1  UNL     1      24.665  -0.961  -7.407  1.00  0.00    -0.081 Cl
HETATM   19  C6  UNL     1      26.934  -0.139  -8.701  1.00  0.00     0.080 A 
HETATM   20 CL2  UNL     1      27.727  -0.178  -7.138  1.00  0.00    -0.081 Cl
HETATM   21  C7  UNL     1      27.683   0.241  -9.793  1.00  0.00     0.081 A 
HETATM   22 CL3  UNL     1      29.381   0.679  -9.669  1.00  0.00    -0.081 Cl
HETATM   23  C8  UNL     1      27.118   0.291 -11.051  1.00  0.00     0.080 A 
HETATM   24 CL4  UNL     1      28.051   0.774 -12.470  1.00  0.00    -0.081 Cl
HETATM   25  C9  UNL     1      25.786  -0.052 -11.150  1.00  0.00     0.075 A 
HETATM   26 CL5  UNL     1      25.074   0.016 -12.759  1.00  0.00    -0.081 Cl
ENDBRANCH  14  16
ENDBRANCH   1  14
TORSDOF 5
ENDMDL
MODEL 3
REMARK VINA RESULT: -6.463977905      1.051      2.630
REMARK  5 active torsions:
REMARK  status: ('A' for Active; 'I' for Inactive)
REMARK    1  A    between atoms: N1_2  and  O1_3 
REMARK       I    between atoms: N1_2  and  C2_5 
REMARK       I    between atoms: C2_5  and  N3_22 
REMARK    2  A    between atoms: N2_6  and  O2_8 
REMARK    3  A    between atoms: O2_8  and  C3_9 
REMARK    4  A    between atoms: C3_9  and  C4_11 
REMARK    5  A    between atoms: N3_22  and  N4_24 
ROOT
HETATM    1  O2  UNL     1      22.824  -0.153  -9.027  1.00  0.00    -0.180 OA
ENDROOT
BRANCH   1   2
HETATM    2  N2  UNL     1      21.860   0.442  -9.770  1.00  0.00    -0.084 N 
HETATM    3  C2  UNL     1      21.028  -0.225 -10.493  1.00  0.00     0.747 C 
HETATM    4  N1  UNL     1      20.060   0.514 -11.229  1.00  0.00    -0.071 N 
HETATM    5  N3  UNL     1      21.061  -1.636 -10.566  1.00  0.00    -0.068 N 
HETATM    6  C1  UNL     1      18.903   0.776 -10.759  1.00  0.00     0.176 C 
ATOM      7  H3  UNL     1      21.954  -2.124 -10.620  1.00  0.00     0.212 HD
ATOM      8  H2  UNL     1      21.790   1.459  -9.756  1.00  0.00     0.214 HD
BRANCH   4   9
HETATM    9  O1  UNL     1      20.399   0.958 -12.491  1.00  0.00    -0.270 OA
ATOM     10  H1  UNL     1      21.137   0.567 -12.944  1.00  0.00     0.245 HD
ENDBRANCH   4   9
BRANCH   5  11
HETATM   11  N4  UNL     1      19.867  -2.360 -10.563  1.00  0.00    -0.024 N 
HETATM   12  O4  UNL     1      19.123  -2.369  -9.562  1.00  0.00    -0.516 OA
HETATM   13  O5  UNL     1      19.455  -3.088 -11.648  1.00  0.00    -0.516 OA
ENDBRANCH   5  11
ENDBRANCH   1   2
BRANCH   1  14
HETATM   14  C3  UNL     1      23.796  -1.008  -9.521  1.00  0.00     0.319 C 
HETATM   15  O3  UNL     1      23.466  -2.188  -9.767  1.00  0.00    -0.257 OA
BRANCH  14  16
HETATM   16  C4  UNL     1      25.156  -0.523  -9.738  1.00  0.00     0.088 A 
HETATM   17  C5  UNL     1      26.087  -0.554  -8.721  1.00  0.00     0.075 A 
HETATM   18 CL1  UNL     1      25.658  -1.176  -7.132  1.00  0.00    -0.081 Cl
HETATM   19  C6  UNL     1      27.353  -0.084  -8.985  1.00  0.00     0.080 A 
HETATM   20 CL2  UNL     1      28.579  -0.095  -7.733  1.00  0.00    -0.081 Cl
HETATM   21  C7  UNL     1      27.703   0.407 -10.224  1.00  0.00     0.081 A 
HETATM   22 CL3  UNL     1      29.315   1.012 -10.580  1.00  0.00    -0.081 Cl
HETATM   23  C8  UNL     1      26.784   0.443 -11.252  1.00  0.00     0.080 A 
HETATM   24 CL4  UNL     1      27.202   1.066 -12.850  1.00  0.00    -0.081 Cl
HETATM   25  C9  UNL     1      25.519  -0.031 -10.974  1.00  0.00     0.075 A 
HETATM   26 CL5  UNL     1      24.353   0.020 -12.292  1.00  0.00    -0.081 Cl
ENDBRANCH  14  16
ENDBRANCH   1  14
TORSDOF 5
ENDMDL
MODEL 4
REMARK VINA RESULT: -6.353666691      0.788      1.031
REMARK  5 active torsions:
REMARK  status: ('A' for Active; 'I' for Inactive)
REMARK    1  A    between atoms: N1_2  and  O1_3 
REMARK       I    between atoms: N1_2  and  C2_5 
REMARK       I    between atoms: C2_5  and  N3_22 
REMARK    2  A    between atoms: N2_6  and  O2_8 
REMARK    3  A    between atoms: O2_8  and  C3_9 
REMARK    4  A    between atoms: C3_9  and  C4_11 
REMARK    5  A    between atoms: N3_22  and  N4_24 
ROOT
HETATM    1  O2  UNL     1      22.857  -0.515 -10.713  1.00  0.00    -0.180 OA
ENDROOT
BRANCH   1   2
HETATM    2  N2  UNL     1      21.759   0.253 -10.507  1.00  0.00    -0.084 N 
HETATM    3  C2  UNL     1      20.563  -0.168 -10.736  1.00  0.00     0.747 C 
HETATM    4  N1  UNL     1      19.491   0.733 -10.480  1.00  0.00    -0.071 N 
HETATM    5  N3  UNL     1      20.306  -1.469 -11.222  1.00  0.00    -0.068 N 
HETATM    6  C1  UNL     1      18.889   0.771  -9.356  1.00  0.00     0.176 C 
ATOM      7  H3  UNL     1      20.902  -1.872 -11.945  1.00  0.00     0.212 HD
ATOM      8  H2  UNL     1      21.885   1.202 -10.157  1.00  0.00     0.214 HD
BRANCH   4   9
HETATM    9  O1  UNL     1      19.104   1.590 -11.491  1.00  0.00    -0.270 OA
ATOM     10  H1  UNL     1      18.665   1.242 -12.259  1.00  0.00     0.245 HD
ENDBRANCH   4   9
BRANCH   5  11
HETATM   11  N4  UNL     1      19.234  -2.203 -10.710  1.00  0.00    -0.024 N 
HETATM   12  O4  UNL     1      19.303  -2.747  -9.590  1.00  0.00    -0.516 OA
HETATM   13  O5  UNL     1      18.063  -2.360 -11.404  1.00  0.00    -0.516 OA
ENDBRANCH   5  11
ENDBRANCH   1   2
BRANCH   1  14
HETATM   14  C3  UNL     1      23.946  -0.154 -11.490  1.00  0.00     0.319 C 
HETATM   15  O3  UNL     1      23.743   0.107 -12.695  1.00  0.00    -0.257 OA
BRANCH  14  16
HETATM   16  C4  UNL     1      25.279  -0.089 -10.897  1.00  0.00     0.088 A 
HETATM   17  C5  UNL     1      26.377   0.237 -11.664  1.00  0.00     0.075 A 
HETATM   18 CL1  UNL     1      26.201   0.583 -13.380  1.00  0.00    -0.081 Cl
HETATM   19  C6  UNL     1      27.608   0.283 -11.050  1.00  0.00     0.080 A 
HETATM   20 CL2  UNL     1      29.042   0.691 -11.972  1.00  0.00    -0.081 Cl
HETATM   21  C7  UNL     1      27.761   0.013  -9.707  1.00  0.00     0.081 A 
HETATM   22 CL3  UNL     1      29.324   0.067  -8.905  1.00  0.00    -0.081 Cl
HETATM   23  C8  UNL     1      26.672  -0.314  -8.927  1.00  0.00     0.080 A 
HETATM   24 CL4  UNL     1      26.836  -0.664  -7.203  1.00  0.00    -0.081 Cl
HETATM   25  C9  UNL     1      25.445  -0.356  -9.554  1.00  0.00     0.075 A 
HETATM   26 CL5  UNL     1      24.061  -0.775  -8.550  1.00  0.00    -0.081 Cl
ENDBRANCH  14  16
ENDBRANCH   1  14
TORSDOF 5
ENDMDL
MODEL 5
REMARK VINA RESULT: -6.347792624      1.045      2.256
REMARK  5 active torsions:
REMARK  status: ('A' for Active; 'I' for Inactive)
REMARK    1  A    between atoms: N1_2  and  O1_3 
REMARK       I    between atoms: N1_2  and  C2_5 
REMARK       I    between atoms: C2_5  and  N3_22 
REMARK    2  A    between atoms: N2_6  and  O2_8 
REMARK    3  A    between atoms: O2_8  and  C3_9 
REMARK    4  A    between atoms: C3_9  and  C4_11 
REMARK    5  A    between atoms: N3_22  and  N4_24 
ROOT
HETATM    1  O2  UNL     1      23.004  -1.458  -9.877  1.00  0.00    -0.180 OA
ENDROOT
BRANCH   1   2
HETATM    2  N2  UNL     1      21.843  -2.067 -10.222  1.00  0.00    -0.084 N 
HETATM    3  C2  UNL     1      20.699  -1.479 -10.145  1.00  0.00     0.747 C 
HETATM    4  N1  UNL     1      19.552  -2.224 -10.537  1.00  0.00    -0.071 N 
HETATM    5  N3  UNL     1      20.570  -0.147  -9.690  1.00  0.00    -0.068 N 
HETATM    6  C1  UNL     1      19.096  -2.193 -11.728  1.00  0.00     0.176 C 
ATOM      7  H3  UNL     1      21.121   0.178  -8.896  1.00  0.00     0.212 HD
ATOM      8  H2  UNL     1      21.877  -3.029 -10.557  1.00  0.00     0.214 HD
BRANCH   4   9
HETATM    9  O1  UNL     1      18.923  -3.003  -9.586  1.00  0.00    -0.270 OA
ATOM     10  H1  UNL     1      19.239  -2.996  -8.690  1.00  0.00     0.245 HD
ENDBRANCH   4   9
BRANCH   5  11
HETATM   11  N4  UNL     1      19.685   0.722 -10.331  1.00  0.00    -0.024 N 
HETATM   12  O4  UNL     1      19.840   1.030 -11.529  1.00  0.00    -0.516 OA
HETATM   13  O5  UNL     1      18.611   1.275  -9.683  1.00  0.00    -0.516 OA
ENDBRANCH   5  11
ENDBRANCH   1   2
BRANCH   1  14
HETATM   14  C3  UNL     1      23.687  -0.542 -10.662  1.00  0.00     0.319 C 
HETATM   15  O3  UNL     1      23.056   0.025 -11.580  1.00  0.00    -0.257 OA
BRANCH  14  16
HETATM   16  C4  UNL     1      25.098  -0.268 -10.408  1.00  0.00     0.088 A 
HETATM   17  C5  UNL     1      25.953   0.049 -11.442  1.00  0.00     0.075 A 
HETATM   18 CL1  UNL     1      25.365   0.130 -13.098  1.00  0.00    -0.081 Cl
HETATM   19  C6  UNL     1      27.272   0.298 -11.140  1.00  0.00     0.080 A 
HETATM   20 CL2  UNL     1      28.408   0.705 -12.412  1.00  0.00    -0.081 Cl
HETATM   21  C7  UNL     1      27.747   0.238  -9.849  1.00  0.00     0.081 A 
HETATM   22 CL3  UNL     1      29.429   0.552  -9.444  1.00  0.00    -0.081 Cl
HETATM   23  C8  UNL     1      26.904  -0.077  -8.803  1.00  0.00     0.080 A 
HETATM   24 CL4  UNL     1      27.482  -0.162  -7.137  1.00  0.00    -0.081 Cl
HETATM   25  C9  UNL     1      25.585  -0.324  -9.119  1.00  0.00     0.075 A 
HETATM   26 CL5  UNL     1      24.517  -0.726  -7.778  1.00  0.00    -0.081 Cl
ENDBRANCH  14  16
ENDBRANCH   1  14
TORSDOF 5
ENDMDL
