MODEL 1
REMARK VINA RESULT: -3.828761847      0.000      0.000
REMARK  4 active torsions:
REMARK  status: ('A' for Active; 'I' for Inactive)
REMARK    1  A    between atoms: O1_2  and  C2_3 
REMARK    2  A    between atoms: C2_3  and  C3_4 
REMARK    3  A    between atoms: C3_4  and  C4_5 
REMARK       I    between atoms: N3_11  and  C6_13 
REMARK    4  A    between atoms: C6_13  and  C7_15 
ROOT
HETATM    1  C4  UNL     1      19.714  -1.127 -10.766  1.00  0.00     0.071 A 
HETATM    2  N1  UNL     1      20.589  -2.078 -10.458  1.00  0.00    -0.296 N 
ATOM      3  H1  UNL     1      20.330  -3.060 -10.556  1.00  0.00     0.187 HD
HETATM    4  N2  UNL     1      21.746  -1.767 -10.043  1.00  0.00    -0.279 N 
ATOM      5  H2  UNL     1      22.423  -2.492  -9.805  1.00  0.00     0.189 HD
HETATM    6  C5  UNL     1      22.066  -0.476  -9.921  1.00  0.00     0.168 A 
HETATM    7  N3  UNL     1      23.162   0.095  -9.526  1.00  0.00    -0.302 N 
ATOM      8  H3  UNL     1      23.188   1.114  -9.511  1.00  0.00     0.171 HD
HETATM    9  C6  UNL     1      24.304  -0.590  -9.122  1.00  0.00     0.262 C 
HETATM   10  O2  UNL     1      24.213  -1.546  -8.322  1.00  0.00    -0.267 OA
HETATM   11  S1  UNL     1      20.623   0.283 -10.433  1.00  0.00    -0.038 SA
ENDROOT
BRANCH   9  12
HETATM   12  C7  UNL     1      25.615  -0.215  -9.614  1.00  0.00     0.096 A 
HETATM   13  C8  UNL     1      26.706  -0.162  -8.749  1.00  0.00     0.157 A 
HETATM   14  F1  UNL     1      26.470  -0.473  -7.458  1.00  0.00    -0.203 F 
HETATM   15  C9  UNL     1      27.954   0.195  -9.220  1.00  0.00     0.097 A 
HETATM   16 CL1  UNL     1      29.298   0.247  -8.089  1.00  0.00    -0.079 Cl
HETATM   17  C10 UNL     1      28.179   0.507 -10.527  1.00  0.00     0.082 A 
HETATM   18 CL2  UNL     1      29.793   0.949 -11.040  1.00  0.00    -0.081 Cl
HETATM   19  C11 UNL     1      27.107   0.458 -11.395  1.00  0.00     0.080 A 
HETATM   20 CL3  UNL     1      27.350   0.851 -13.087  1.00  0.00    -0.081 Cl
HETATM   21  C12 UNL     1      25.847   0.102 -10.942  1.00  0.00     0.076 A 
HETATM   22 CL4  UNL     1      24.517   0.057 -12.099  1.00  0.00    -0.081 Cl
ENDBRANCH   9  12
BRANCH   1  23
HETATM   23  C3  UNL     1      18.305  -1.275 -11.269  1.00  0.00     0.092 C 
BRANCH  23  24
HETATM   24  C2  UNL     1      17.873  -2.717 -11.215  1.00  0.00     0.173 C 
BRANCH  24  25
HETATM   25  O1  UNL     1      18.807  -3.454 -11.940  1.00  0.00    -0.396 OA
HETATM   26  C1  UNL     1      18.254  -3.879 -13.152  1.00  0.00     0.201 C 
ENDBRANCH  24  25
ENDBRANCH  23  24
ENDBRANCH   1  23
TORSDOF 4
ENDMDL
MODEL 2
REMARK VINA RESULT: -3.450243994      1.333      2.445
REMARK  4 active torsions:
REMARK  status: ('A' for Active; 'I' for Inactive)
REMARK    1  A    between atoms: O1_2  and  C2_3 
REMARK    2  A    between atoms: C2_3  and  C3_4 
REMARK    3  A    between atoms: C3_4  and  C4_5 
REMARK       I    between atoms: N3_11  and  C6_13 
REMARK    4  A    between atoms: C6_13  and  C7_15 
ROOT
HETATM    1  C4  UNL     1      19.504  -1.283 -10.690  1.00  0.00     0.071 A 
HETATM    2  N1  UNL     1      20.397  -2.162 -10.250  1.00  0.00    -0.296 N 
ATOM      3  H1  UNL     1      20.138  -3.143 -10.147  1.00  0.00     0.187 HD
HETATM    4  N2  UNL     1      21.571  -1.783  -9.960  1.00  0.00    -0.279 N 
ATOM      5  H2  UNL     1      22.263  -2.453  -9.621  1.00  0.00     0.189 HD
HETATM    6  C5  UNL     1      21.891  -0.494 -10.102  1.00  0.00     0.168 A 
HETATM    7  N3  UNL     1      23.003   0.136  -9.878  1.00  0.00    -0.302 N 
ATOM      8  H3  UNL     1      23.025   1.140 -10.059  1.00  0.00     0.171 HD
HETATM    9  C6  UNL     1      24.166  -0.464  -9.408  1.00  0.00     0.262 C 
HETATM   10  O2  UNL     1      24.120  -1.250  -8.437  1.00  0.00    -0.267 OA
HETATM   11  S1  UNL     1      20.421   0.161 -10.677  1.00  0.00    -0.038 SA
ENDROOT
BRANCH   9  12
HETATM   12  C7  UNL     1      25.450  -0.197 -10.027  1.00  0.00     0.096 A 
HETATM   13  C8  UNL     1      25.552  -0.054 -11.409  1.00  0.00     0.157 A 
HETATM   14  F1  UNL     1      24.410  -0.176 -12.116  1.00  0.00    -0.203 F 
HETATM   15  C9  UNL     1      26.776   0.201 -11.996  1.00  0.00     0.097 A 
HETATM   16 CL1  UNL     1      26.852   0.374 -13.743  1.00  0.00    -0.079 Cl
HETATM   17  C10 UNL     1      27.923   0.322 -11.270  1.00  0.00     0.082 A 
HETATM   18 CL2  UNL     1      29.432   0.646 -12.095  1.00  0.00    -0.081 Cl
HETATM   19  C11 UNL     1      27.836   0.183  -9.900  1.00  0.00     0.080 A 
HETATM   20 CL3  UNL     1      29.286   0.331  -8.925  1.00  0.00    -0.081 Cl
HETATM   21  C12 UNL     1      26.617  -0.073  -9.292  1.00  0.00     0.076 A 
HETATM   22 CL4  UNL     1      26.570  -0.241  -7.537  1.00  0.00    -0.081 Cl
ENDBRANCH   9  12
BRANCH   1  23
HETATM   23  C3  UNL     1      18.072  -1.517 -11.086  1.00  0.00     0.092 C 
BRANCH  23  24
HETATM   24  C2  UNL     1      17.844  -2.971 -11.408  1.00  0.00     0.173 C 
BRANCH  24  25
HETATM   25  O1  UNL     1      18.894  -3.381 -12.226  1.00  0.00    -0.396 OA
HETATM   26  C1  UNL     1      18.403  -4.079 -13.333  1.00  0.00     0.201 C 
ENDBRANCH  24  25
ENDBRANCH  23  24
ENDBRANCH   1  23
TORSDOF 4
ENDMDL
MODEL 3
REMARK VINA RESULT: -3.223673201      1.694      2.021
REMARK  4 active torsions:
REMARK  status: ('A' for Active; 'I' for Inactive)
REMARK    1  A    between atoms: O1_2  and  C2_3 
REMARK    2  A    between atoms: C2_3  and  C3_4 
REMARK    3  A    between atoms: C3_4  and  C4_5 
REMARK       I    between atoms: N3_11  and  C6_13 
REMARK    4  A    between atoms: C6_13  and  C7_15 
ROOT
HETATM    1  C4  UNL     1      19.796  -0.823 -10.432  1.00  0.00     0.071 A 
HETATM    2  N1  UNL     1      20.351   0.381 -10.502  1.00  0.00    -0.296 N 
ATOM      3  H1  UNL     1      19.785   1.213 -10.339  1.00  0.00     0.187 HD
HETATM    4  N2  UNL     1      21.585   0.497 -10.770  1.00  0.00    -0.279 N 
ATOM      5  H2  UNL     1      22.018   1.419 -10.825  1.00  0.00     0.189 HD
HETATM    6  C5  UNL     1      22.310  -0.605 -10.979  1.00  0.00     0.168 A 
HETATM    7  N3  UNL     1      23.567  -0.755 -11.264  1.00  0.00    -0.302 N 
ATOM      8  H3  UNL     1      23.917  -1.705 -11.384  1.00  0.00     0.171 HD
HETATM    9  C6  UNL     1      24.469   0.293 -11.417  1.00  0.00     0.262 C 
HETATM   10  O2  UNL     1      24.168   1.285 -12.114  1.00  0.00    -0.267 OA
HETATM   11  S1  UNL     1      21.136  -1.830 -10.774  1.00  0.00    -0.038 SA
ENDROOT
BRANCH   9  12
HETATM   12  C7  UNL     1      25.770   0.261 -10.776  1.00  0.00     0.096 A 
HETATM   13  C8  UNL     1      25.877   0.037  -9.405  1.00  0.00     0.157 A 
HETATM   14  F1  UNL     1      24.723  -0.145  -8.730  1.00  0.00    -0.203 F 
HETATM   15  C9  UNL     1      27.116   0.007  -8.797  1.00  0.00     0.097 A 
HETATM   16 CL1  UNL     1      27.198  -0.281  -7.066  1.00  0.00    -0.079 Cl
HETATM   17  C10 UNL     1      28.274   0.193  -9.491  1.00  0.00     0.082 A 
HETATM   18 CL2  UNL     1      29.803   0.139  -8.642  1.00  0.00    -0.081 Cl
HETATM   19  C11 UNL     1      28.182   0.416 -10.850  1.00  0.00     0.080 A 
HETATM   20 CL3  UNL     1      29.646   0.661 -11.783  1.00  0.00    -0.081 Cl
HETATM   21  C12 UNL     1      26.948   0.450 -11.478  1.00  0.00     0.076 A 
HETATM   22 CL4  UNL     1      26.895   0.740 -13.218  1.00  0.00    -0.081 Cl
ENDBRANCH   9  12
BRANCH   1  23
HETATM   23  C3  UNL     1      18.366  -1.182 -10.133  1.00  0.00     0.092 C 
BRANCH  23  24
HETATM   24  C2  UNL     1      18.100  -2.624 -10.479  1.00  0.00     0.173 C 
BRANCH  24  25
HETATM   25  O1  UNL     1      17.676  -2.656 -11.806  1.00  0.00    -0.396 OA
HETATM   26  C1  UNL     1      18.438  -3.573 -12.536  1.00  0.00     0.201 C 
ENDBRANCH  24  25
ENDBRANCH  23  24
ENDBRANCH   1  23
TORSDOF 4
ENDMDL
MODEL 4
REMARK VINA RESULT: -2.890600357      0.891      1.288
REMARK  4 active torsions:
REMARK  status: ('A' for Active; 'I' for Inactive)
REMARK    1  A    between atoms: O1_2  and  C2_3 
REMARK    2  A    between atoms: C2_3  and  C3_4 
REMARK    3  A    between atoms: C3_4  and  C4_5 
REMARK       I    between atoms: N3_11  and  C6_13 
REMARK    4  A    between atoms: C6_13  and  C7_15 
ROOT
HETATM    1  C4  UNL     1      20.069  -1.993 -11.295  1.00  0.00     0.071 A 
HETATM    2  N1  UNL     1      20.933  -2.675 -10.551  1.00  0.00    -0.296 N 
ATOM      3  H1  UNL     1      20.749  -3.652 -10.324  1.00  0.00     0.187 HD
HETATM    4  N2  UNL     1      21.985  -2.111 -10.123  1.00  0.00    -0.279 N 
ATOM      5  H2  UNL     1      22.653  -2.629  -9.551  1.00  0.00     0.189 HD
HETATM    6  C5  UNL     1      22.207  -0.831 -10.432  1.00  0.00     0.168 A 
HETATM    7  N3  UNL     1      23.188  -0.040 -10.124  1.00  0.00    -0.302 N 
ATOM      8  H3  UNL     1      23.154   0.917 -10.472  1.00  0.00     0.171 HD
HETATM    9  C6  UNL     1      24.284  -0.410  -9.350  1.00  0.00     0.262 C 
HETATM   10  O2  UNL     1      24.116  -1.034  -8.280  1.00  0.00    -0.267 OA
HETATM   11  S1  UNL     1      20.829  -0.463 -11.372  1.00  0.00    -0.038 SA
ENDROOT
BRANCH   9  12
HETATM   12  C7  UNL     1      25.636  -0.085  -9.762  1.00  0.00     0.096 A 
HETATM   13  C8  UNL     1      26.672  -0.063  -8.831  1.00  0.00     0.157 A 
HETATM   14  F1  UNL     1      26.345  -0.356  -7.555  1.00  0.00    -0.203 F 
HETATM   15  C9  UNL     1      27.958   0.247  -9.225  1.00  0.00     0.097 A 
HETATM   16 CL1  UNL     1      29.231   0.260  -8.013  1.00  0.00    -0.079 Cl
HETATM   17  C10 UNL     1      28.275   0.541 -10.517  1.00  0.00     0.082 A 
HETATM   18 CL2  UNL     1      29.932   0.923 -10.931  1.00  0.00    -0.081 Cl
HETATM   19  C11 UNL     1      27.258   0.523 -11.450  1.00  0.00     0.080 A 
HETATM   20 CL3  UNL     1      27.618   0.896 -13.125  1.00  0.00    -0.081 Cl
HETATM   21  C12 UNL     1      25.961   0.215 -11.074  1.00  0.00     0.076 A 
HETATM   22 CL4  UNL     1      24.703   0.208 -12.312  1.00  0.00    -0.081 Cl
ENDBRANCH   9  12
BRANCH   1  23
HETATM   23  C3  UNL     1      18.774  -2.463 -11.898  1.00  0.00     0.092 C 
BRANCH  23  24
HETATM   24  C2  UNL     1      17.656  -2.363 -10.893  1.00  0.00     0.173 C 
BRANCH  24  25
HETATM   25  O1  UNL     1      18.231  -2.461  -9.627  1.00  0.00    -0.396 OA
HETATM   26  C1  UNL     1      18.251  -1.209  -9.005  1.00  0.00     0.201 C 
ENDBRANCH  24  25
ENDBRANCH  23  24
ENDBRANCH   1  23
TORSDOF 4
ENDMDL
MODEL 5
REMARK VINA RESULT: -2.828803757      1.966      2.621
REMARK  4 active torsions:
REMARK  status: ('A' for Active; 'I' for Inactive)
REMARK    1  A    between atoms: O1_2  and  C2_3 
REMARK    2  A    between atoms: C2_3  and  C3_4 
REMARK    3  A    between atoms: C3_4  and  C4_5 
REMARK       I    between atoms: N3_11  and  C6_13 
REMARK    4  A    between atoms: C6_13  and  C7_15 
ROOT
HETATM    1  C4  UNL     1      19.977  -1.458 -11.261  1.00  0.00     0.071 A 
HETATM    2  N1  UNL     1      20.425  -0.212 -11.167  1.00  0.00    -0.296 N 
ATOM      3  H1  UNL     1      19.769   0.554 -11.011  1.00  0.00     0.187 HD
HETATM    4  N2  UNL     1      21.666   0.028 -11.271  1.00  0.00    -0.279 N 
ATOM      5  H2  UNL     1      22.016   0.983 -11.200  1.00  0.00     0.189 HD
HETATM    6  C5  UNL     1      22.507  -0.989 -11.474  1.00  0.00     0.168 A 
HETATM    7  N3  UNL     1      23.797  -1.010 -11.613  1.00  0.00    -0.302 N 
ATOM      8  H3  UNL     1      24.244  -1.914 -11.762  1.00  0.00     0.171 HD
HETATM    9  C6  UNL     1      24.611   0.117 -11.570  1.00  0.00     0.262 C 
HETATM   10  O2  UNL     1      24.304   1.140 -12.220  1.00  0.00    -0.267 OA
HETATM   11  S1  UNL     1      21.435  -2.318 -11.512  1.00  0.00    -0.038 SA
ENDROOT
BRANCH   9  12
HETATM   12  C7  UNL     1      25.826   0.135 -10.779  1.00  0.00     0.096 A 
HETATM   13  C8  UNL     1      25.792  -0.195  -9.425  1.00  0.00     0.157 A 
HETATM   14  F1  UNL     1      24.589  -0.524  -8.913  1.00  0.00    -0.203 F 
HETATM   15  C9  UNL     1      26.950  -0.177  -8.673  1.00  0.00     0.097 A 
HETATM   16 CL1  UNL     1      26.856  -0.602  -6.971  1.00  0.00    -0.079 Cl
HETATM   17  C10 UNL     1      28.160   0.158  -9.204  1.00  0.00     0.082 A 
HETATM   18 CL2  UNL     1      29.579   0.154  -8.179  1.00  0.00    -0.081 Cl
HETATM   19  C11 UNL     1      28.208   0.487 -10.543  1.00  0.00     0.080 A 
HETATM   20 CL3  UNL     1      29.743   0.924 -11.268  1.00  0.00    -0.081 Cl
HETATM   21  C12 UNL     1      27.057   0.475 -11.314  1.00  0.00     0.076 A 
HETATM   22 CL4  UNL     1      27.181   0.905 -13.021  1.00  0.00    -0.081 Cl
ENDBRANCH   9  12
BRANCH   1  23
HETATM   23  C3  UNL     1      18.562  -1.957 -11.169  1.00  0.00     0.092 C 
BRANCH  23  24
HETATM   24  C2  UNL     1      18.097  -1.969  -9.737  1.00  0.00     0.173 C 
BRANCH  24  25
HETATM   25  O1  UNL     1      19.066  -1.308  -8.984  1.00  0.00    -0.396 OA
HETATM   26  C1  UNL     1      18.592  -0.059  -8.573  1.00  0.00     0.201 C 
ENDBRANCH  24  25
ENDBRANCH  23  24
ENDBRANCH   1  23
TORSDOF 4
ENDMDL
