MODEL 1
REMARK VINA RESULT: -6.345218262      0.000      0.000
REMARK  5 active torsions:
REMARK  status: ('A' for Active; 'I' for Inactive)
REMARK    1  A    between atoms: O1_2  and  C2_3 
REMARK    2  A    between atoms: C5_6  and  C6_7 
REMARK    3  A    between atoms: C6_7  and  C7_8 
REMARK    4  A    between atoms: C7_8  and  C8_9 
REMARK    5  A    between atoms: C8_9  and  C9_10 
ROOT
HETATM    1  C7  UNL     1      10.388  -6.680  -1.575  1.00  0.00     0.011 C 
ENDROOT
BRANCH   1   2
HETATM    2  C6  UNL     1      10.702  -7.947  -2.238  1.00  0.00     0.039 C 
BRANCH   2   3
HETATM    3  C5  UNL     1       9.931  -8.272  -3.453  1.00  0.00    -0.057 A 
HETATM    4  C4  UNL     1      10.374  -8.042  -4.704  1.00  0.00     0.010 A 
HETATM    5  C3  UNL     1       9.616  -8.350  -5.850  1.00  0.00     0.039 A 
HETATM    6  C2  UNL     1       8.368  -8.910  -5.726  1.00  0.00     0.085 A 
HETATM    7  C13 UNL     1       7.907  -9.149  -4.454  1.00  0.00     0.044 A 
HETATM    8  C12 UNL     1       8.651  -8.846  -3.341  1.00  0.00     0.029 A 
HETATM    9 BR1  UNL     1       6.184  -9.922  -4.246  1.00  0.00    -0.048 Br
BRANCH   6  10
HETATM   10  O1  UNL     1       7.615  -9.217  -6.841  1.00  0.00    -0.355 OA
HETATM   11  C1  UNL     1       7.898 -10.323  -7.676  1.00  0.00     0.210 C 
ENDBRANCH   6  10
ENDBRANCH   2   3
ENDBRANCH   1   2
BRANCH   1  12
HETATM   12  C8  UNL     1       9.450  -5.692  -2.075  1.00  0.00     0.058 C 
BRANCH  12  13
HETATM   13  C9  UNL     1       8.911  -4.627  -1.167  1.00  0.00     0.018 C 
HETATM   14  C10 UNL     1       9.790  -3.955  -0.232  1.00  0.00     0.082 C 
HETATM   15  S1  UNL     1       9.532  -4.334   1.537  1.00  0.00    -0.059 SA
HETATM   16  S2  UNL     1       7.431  -3.907   1.800  1.00  0.00    -0.017 SA
HETATM   17  C11 UNL     1       6.762  -4.485   0.240  1.00  0.00     0.149 C 
HETATM   18  N1  UNL     1       5.497  -4.333   0.022  1.00  0.00    -0.379 N 
HETATM   19  N2  UNL     1       7.633  -5.089  -0.682  1.00  0.00    -0.340 N 
ATOM     20  H12 UNL     1       4.864  -3.895   0.691  1.00  0.00     0.158 HD
ATOM     21  H11 UNL     1       5.116  -4.661  -0.865  1.00  0.00     0.158 HD
ATOM     22  H2  UNL     1       7.317  -5.980  -1.063  1.00  0.00     0.168 HD
ENDBRANCH  12  13
ENDBRANCH   1  12
TORSDOF 5
ENDMDL
MODEL 2
REMARK VINA RESULT: -6.217682222      1.743      2.208
REMARK  5 active torsions:
REMARK  status: ('A' for Active; 'I' for Inactive)
REMARK    1  A    between atoms: O1_2  and  C2_3 
REMARK    2  A    between atoms: C5_6  and  C6_7 
REMARK    3  A    between atoms: C6_7  and  C7_8 
REMARK    4  A    between atoms: C7_8  and  C8_9 
REMARK    5  A    between atoms: C8_9  and  C9_10 
ROOT
HETATM    1  C7  UNL     1      10.064  -7.271  -2.044  1.00  0.00     0.011 C 
ENDROOT
BRANCH   1   2
HETATM    2  C6  UNL     1       9.879  -7.444  -3.486  1.00  0.00     0.039 C 
BRANCH   2   3
HETATM    3  C5  UNL     1       8.958  -8.513  -3.916  1.00  0.00    -0.057 A 
HETATM    4  C4  UNL     1       8.047  -9.086  -3.106  1.00  0.00     0.010 A 
HETATM    5  C3  UNL     1       7.186 -10.113  -3.534  1.00  0.00     0.039 A 
HETATM    6  C2  UNL     1       7.247 -10.577  -4.826  1.00  0.00     0.085 A 
HETATM    7  C13 UNL     1       8.174  -9.999  -5.660  1.00  0.00     0.044 A 
HETATM    8  C12 UNL     1       9.010  -8.997  -5.237  1.00  0.00     0.029 A 
HETATM    9 BR1  UNL     1       8.286 -10.616  -7.454  1.00  0.00    -0.048 Br
BRANCH   6  10
HETATM   10  O1  UNL     1       6.408 -11.584  -5.259  1.00  0.00    -0.355 OA
HETATM   11  C1  UNL     1       5.723 -12.445  -4.371  1.00  0.00     0.210 C 
ENDBRANCH   6  10
ENDBRANCH   2   3
ENDBRANCH   1   2
BRANCH   1  12
HETATM   12  C8  UNL     1      10.373  -6.012  -1.392  1.00  0.00     0.058 C 
BRANCH  12  13
HETATM   13  C9  UNL     1       9.289  -5.014  -1.113  1.00  0.00     0.018 C 
HETATM   14  C10 UNL     1       9.559  -3.862  -0.276  1.00  0.00     0.082 C 
HETATM   15  S1  UNL     1       8.756  -3.850   1.365  1.00  0.00    -0.059 SA
HETATM   16  S2  UNL     1       6.675  -4.141   0.865  1.00  0.00    -0.017 SA
HETATM   17  C11 UNL     1       6.805  -5.290  -0.504  1.00  0.00     0.149 C 
HETATM   18  N1  UNL     1       5.719  -5.655  -1.103  1.00  0.00    -0.379 N 
HETATM   19  N2  UNL     1       8.078  -5.759  -0.869  1.00  0.00    -0.340 N 
ATOM     20  H12 UNL     1       4.795  -5.315  -0.838  1.00  0.00     0.158 HD
ATOM     21  H11 UNL     1       5.793  -6.309  -1.882  1.00  0.00     0.158 HD
ATOM     22  H2  UNL     1       8.157  -6.770  -0.977  1.00  0.00     0.168 HD
ENDBRANCH  12  13
ENDBRANCH   1  12
TORSDOF 5
ENDMDL
MODEL 3
REMARK VINA RESULT: -6.192984422      1.283      1.453
REMARK  5 active torsions:
REMARK  status: ('A' for Active; 'I' for Inactive)
REMARK    1  A    between atoms: O1_2  and  C2_3 
REMARK    2  A    between atoms: C5_6  and  C6_7 
REMARK    3  A    between atoms: C6_7  and  C7_8 
REMARK    4  A    between atoms: C7_8  and  C8_9 
REMARK    5  A    between atoms: C8_9  and  C9_10 
ROOT
HETATM    1  C7  UNL     1       9.780  -7.331  -2.564  1.00  0.00     0.011 C 
ENDROOT
BRANCH   1   2
HETATM    2  C6  UNL     1      10.070  -7.329  -3.999  1.00  0.00     0.039 C 
BRANCH   2   3
HETATM    3  C5  UNL     1       9.506  -8.436  -4.795  1.00  0.00    -0.057 A 
HETATM    4  C4  UNL     1      10.049  -8.884  -5.943  1.00  0.00     0.010 A 
HETATM    5  C3  UNL     1       9.487  -9.934  -6.694  1.00  0.00     0.039 A 
HETATM    6  C2  UNL     1       8.337 -10.552  -6.268  1.00  0.00     0.085 A 
HETATM    7  C13 UNL     1       7.775 -10.103  -5.097  1.00  0.00     0.044 A 
HETATM    8  C12 UNL     1       8.328  -9.079  -4.371  1.00  0.00     0.029 A 
HETATM    9 BR1  UNL     1       6.183 -10.936  -4.479  1.00  0.00    -0.048 Br
BRANCH   6  10
HETATM   10  O1  UNL     1       7.775 -11.583  -6.994  1.00  0.00    -0.355 OA
HETATM   11  C1  UNL     1       8.354 -12.872  -7.068  1.00  0.00     0.210 C 
ENDBRANCH   6  10
ENDBRANCH   2   3
ENDBRANCH   1   2
BRANCH   1  12
HETATM   12  C8  UNL     1      10.168  -6.285  -1.638  1.00  0.00     0.058 C 
BRANCH  12  13
HETATM   13  C9  UNL     1       9.208  -5.188  -1.284  1.00  0.00     0.018 C 
HETATM   14  C10 UNL     1       9.648  -4.069  -0.477  1.00  0.00     0.082 C 
HETATM   15  S1  UNL     1       8.975  -3.981   1.220  1.00  0.00    -0.059 SA
HETATM   16  S2  UNL     1       6.845  -4.071   0.879  1.00  0.00    -0.017 SA
HETATM   17  C11 UNL     1       6.761  -5.226  -0.490  1.00  0.00     0.149 C 
HETATM   18  N1  UNL     1       5.604  -5.485  -1.004  1.00  0.00    -0.379 N 
HETATM   19  N2  UNL     1       7.953  -5.814  -0.946  1.00  0.00    -0.340 N 
ATOM     20  H12 UNL     1       4.739  -5.058  -0.673  1.00  0.00     0.158 HD
ATOM     21  H11 UNL     1       5.556  -6.142  -1.782  1.00  0.00     0.158 HD
ATOM     22  H2  UNL     1       7.927  -6.828  -1.054  1.00  0.00     0.168 HD
ENDBRANCH  12  13
ENDBRANCH   1  12
TORSDOF 5
ENDMDL
MODEL 4
REMARK VINA RESULT: -6.179127731      4.688      5.776
REMARK  5 active torsions:
REMARK  status: ('A' for Active; 'I' for Inactive)
REMARK    1  A    between atoms: O1_2  and  C2_3 
REMARK    2  A    between atoms: C5_6  and  C6_7 
REMARK    3  A    between atoms: C6_7  and  C7_8 
REMARK    4  A    between atoms: C7_8  and  C8_9 
REMARK    5  A    between atoms: C8_9  and  C9_10 
ROOT
HETATM    1  C7  UNL     1      11.625  -7.810  -1.573  1.00  0.00     0.011 C 
ENDROOT
BRANCH   1   2
HETATM    2  C6  UNL     1      10.409  -7.178  -2.088  1.00  0.00     0.039 C 
BRANCH   2   3
HETATM    3  C5  UNL     1       9.793  -7.791  -3.280  1.00  0.00    -0.057 A 
HETATM    4  C4  UNL     1      10.253  -7.615  -4.534  1.00  0.00     0.010 A 
HETATM    5  C3  UNL     1       9.643  -8.201  -5.659  1.00  0.00     0.039 A 
HETATM    6  C2  UNL     1       8.530  -8.992  -5.511  1.00  0.00     0.085 A 
HETATM    7  C13 UNL     1       8.052  -9.178  -4.236  1.00  0.00     0.044 A 
HETATM    8  C12 UNL     1       8.652  -8.604  -3.144  1.00  0.00     0.029 A 
HETATM    9 BR1  UNL     1       6.513 -10.266  -3.995  1.00  0.00    -0.048 Br
BRANCH   6  10
HETATM   10  O1  UNL     1       7.921  -9.572  -6.606  1.00  0.00    -0.355 OA
HETATM   11  C1  UNL     1       8.509 -10.629  -7.338  1.00  0.00     0.210 C 
ENDBRANCH   6  10
ENDBRANCH   2   3
ENDBRANCH   1   2
BRANCH   1  12
HETATM   12  C8  UNL     1      12.847  -7.105  -1.236  1.00  0.00     0.058 C 
BRANCH  12  13
HETATM   13  C9  UNL     1      13.979  -7.033  -2.218  1.00  0.00     0.018 C 
HETATM   14  C10 UNL     1      13.808  -7.545  -3.562  1.00  0.00     0.082 C 
HETATM   15  S1  UNL     1      14.735  -9.065  -3.973  1.00  0.00    -0.059 SA
HETATM   16  S2  UNL     1      16.762  -8.525  -3.458  1.00  0.00    -0.017 SA
HETATM   17  C11 UNL     1      16.493  -7.527  -1.993  1.00  0.00     0.149 C 
HETATM   18  N1  UNL     1      17.519  -6.978  -1.429  1.00  0.00    -0.379 N 
HETATM   19  N2  UNL     1      15.183  -7.387  -1.506  1.00  0.00    -0.340 N 
ATOM     20  H12 UNL     1      18.470  -7.080  -1.781  1.00  0.00     0.158 HD
ATOM     21  H11 UNL     1      17.366  -6.411  -0.595  1.00  0.00     0.158 HD
ATOM     22  H2  UNL     1      15.066  -7.561  -0.508  1.00  0.00     0.168 HD
ENDBRANCH  12  13
ENDBRANCH   1  12
TORSDOF 5
ENDMDL
MODEL 5
REMARK VINA RESULT: -6.178176765      4.674      6.766
REMARK  5 active torsions:
REMARK  status: ('A' for Active; 'I' for Inactive)
REMARK    1  A    between atoms: O1_2  and  C2_3 
REMARK    2  A    between atoms: C5_6  and  C6_7 
REMARK    3  A    between atoms: C6_7  and  C7_8 
REMARK    4  A    between atoms: C7_8  and  C8_9 
REMARK    5  A    between atoms: C8_9  and  C9_10 
ROOT
HETATM    1  C7  UNL     1      11.344  -7.520  -4.752  1.00  0.00     0.011 C 
ENDROOT
BRANCH   1   2
HETATM    2  C6  UNL     1      11.526  -8.144  -3.441  1.00  0.00     0.039 C 
BRANCH   2   3
HETATM    3  C5  UNL     1      11.284  -7.295  -2.259  1.00  0.00    -0.057 A 
HETATM    4  C4  UNL     1      12.182  -7.115  -1.271  1.00  0.00     0.010 A 
HETATM    5  C3  UNL     1      11.925  -6.310  -0.145  1.00  0.00     0.039 A 
HETATM    6  C2  UNL     1      10.719  -5.664  -0.015  1.00  0.00     0.085 A 
HETATM    7  C13 UNL     1       9.797  -5.841  -1.018  1.00  0.00     0.044 A 
HETATM    8  C12 UNL     1      10.053  -6.627  -2.112  1.00  0.00     0.029 A 
HETATM    9 BR1  UNL     1       8.119  -4.962  -0.870  1.00  0.00    -0.048 Br
BRANCH   6  10
HETATM   10  O1  UNL     1      10.454  -4.871   1.083  1.00  0.00    -0.355 OA
HETATM   11  C1  UNL     1      11.463  -4.428   1.970  1.00  0.00     0.210 C 
ENDBRANCH   6  10
ENDBRANCH   2   3
ENDBRANCH   1   2
BRANCH   1  12
HETATM   12  C8  UNL     1      10.329  -7.899  -5.718  1.00  0.00     0.058 C 
BRANCH  12  13
HETATM   13  C9  UNL     1       9.381  -9.023  -5.422  1.00  0.00     0.018 C 
HETATM   14  C10 UNL     1       9.133 -10.046  -6.417  1.00  0.00     0.082 C 
HETATM   15  S1  UNL     1       7.475 -10.042  -7.186  1.00  0.00    -0.059 SA
HETATM   16  S2  UNL     1       6.169 -10.112  -5.468  1.00  0.00    -0.017 SA
HETATM   17  C11 UNL     1       7.062  -9.075  -4.310  1.00  0.00     0.149 C 
HETATM   18  N1  UNL     1       6.580  -8.930  -3.119  1.00  0.00    -0.379 N 
HETATM   19  N2  UNL     1       8.245  -8.451  -4.741  1.00  0.00    -0.340 N 
ATOM     20  H12 UNL     1       5.722  -9.383  -2.806  1.00  0.00     0.158 HD
ATOM     21  H11 UNL     1       7.088  -8.340  -2.460  1.00  0.00     0.158 HD
ATOM     22  H2  UNL     1       8.309  -7.453  -4.545  1.00  0.00     0.168 HD
ENDBRANCH  12  13
ENDBRANCH   1  12
TORSDOF 5
ENDMDL
