MODEL 1
REMARK VINA RESULT: -5.865944469      0.000      0.000
REMARK  11 active torsions:
REMARK  status: ('A' for Active; 'I' for Inactive)
REMARK    1  A    between atoms: C2_2  and  O1_3 
REMARK    2  A    between atoms: O1_3  and  C3_4 
REMARK    3  A    between atoms: C4_6  and  O3_7 
REMARK    4  A    between atoms: O3_7  and  C5_8 
REMARK    5  A    between atoms: C8_11  and  C10_13 
REMARK    6  A    between atoms: C12_16  and  C13_17 
REMARK    7  A    between atoms: C13_17  and  O5_18 
REMARK    8  A    between atoms: C14_20  and  O6_21 
REMARK    9  A    between atoms: C15_23  and  O7_24 
REMARK   10  A    between atoms: C16_26  and  O8_27 
REMARK   11  A    between atoms: C17_29  and  O9_30 
ROOT
HETATM    1  O3  UNL     1      30.430  -1.421 163.762  1.00  0.00    -0.351 OA
ENDROOT
BRANCH   1   2
HETATM    2  C4  UNL     1      30.188  -0.501 164.758  1.00  0.00     0.294 C 
HETATM    3  O2  UNL     1      31.334  -0.049 165.385  1.00  0.00    -0.326 OA
HETATM    4  C3  UNL     1      31.103   0.730 166.486  1.00  0.00     0.299 C 
HETATM    5  C17 UNL     1      29.681   1.124 166.697  1.00  0.00     0.205 C 
HETATM    6  C16 UNL     1      28.846  -0.133 166.826  1.00  0.00     0.185 C 
HETATM    7  C15 UNL     1      29.199  -1.119 165.744  1.00  0.00     0.204 C 
BRANCH   4   8
HETATM    8  O1  UNL     1      31.929   1.878 166.447  1.00  0.00    -0.330 OA
BRANCH   8   9
HETATM    9  C2  UNL     1      33.271   1.836 166.143  1.00  0.00     0.128 C 
HETATM   10  C1  UNL     1      34.124   1.519 167.101  1.00  0.00     0.037 C 
ENDBRANCH   8   9
ENDBRANCH   4   8
BRANCH   5  11
HETATM   11  O9  UNL     1      29.617   1.814 167.926  1.00  0.00    -0.388 OA
ATOM     12  H9  UNL     1      30.253   1.412 168.507  1.00  0.00     0.210 HD
ENDBRANCH   5  11
BRANCH   6  13
HETATM   13  O8  UNL     1      27.492   0.232 166.787  1.00  0.00    -0.390 OA
ATOM     14  H8  UNL     1      27.371   1.169 166.886  1.00  0.00     0.210 HD
ENDBRANCH   6  13
BRANCH   7  15
HETATM   15  O7  UNL     1      28.018  -1.420 165.072  1.00  0.00    -0.388 OA
ATOM     16  H7  UNL     1      27.849  -2.352 165.145  1.00  0.00     0.210 HD
ENDBRANCH   7  15
ENDBRANCH   1   2
BRANCH   1  17
HETATM   17  C5  UNL     1      30.329  -0.938 162.480  1.00  0.00     0.154 C 
HETATM   18  C6  UNL     1      29.737   0.426 162.520  1.00  0.00     0.035 C 
HETATM   19  C7  UNL     1      28.458   0.506 161.721  1.00  0.00     0.015 C 
HETATM   20  C8  UNL     1      28.769   0.035 160.318  1.00  0.00    -0.008 C 
HETATM   21  C9  UNL     1      27.611   0.424 159.429  1.00  0.00     0.018 C 
HETATM   22  C12 UNL     1      29.046  -1.420 160.362  1.00  0.00     0.051 C 
HETATM   23  C14 UNL     1      29.529  -1.932 161.685  1.00  0.00     0.154 C 
BRANCH  20  24
HETATM   24  C10 UNL     1      29.999   0.789 159.794  1.00  0.00     0.154 A 
HETATM   25  C11 UNL     1      30.275   0.766 158.322  1.00  0.00     0.201 A 
HETATM   26  O4  UNL     1      31.023   0.032 159.210  1.00  0.00    -0.380 OA
ENDBRANCH  20  24
BRANCH  22  27
HETATM   27  C13 UNL     1      27.878  -2.283 159.941  1.00  0.00     0.172 C 
BRANCH  27  28
HETATM   28  O5  UNL     1      28.196  -3.586 159.663  1.00  0.00    -0.400 OA
ATOM     29  H5  UNL     1      28.843  -3.700 158.977  1.00  0.00     0.209 HD
ENDBRANCH  27  28
ENDBRANCH  22  27
BRANCH  23  30
HETATM   30  O6  UNL     1      28.467  -2.472 162.408  1.00  0.00    -0.393 OA
ATOM     31  H6  UNL     1      28.624  -3.369 162.678  1.00  0.00     0.210 HD
ENDBRANCH  23  30
ENDBRANCH   1  17
TORSDOF 11
ENDMDL
MODEL 2
REMARK VINA RESULT: -5.847437900      0.952      1.037
REMARK  11 active torsions:
REMARK  status: ('A' for Active; 'I' for Inactive)
REMARK    1  A    between atoms: C2_2  and  O1_3 
REMARK    2  A    between atoms: O1_3  and  C3_4 
REMARK    3  A    between atoms: C4_6  and  O3_7 
REMARK    4  A    between atoms: O3_7  and  C5_8 
REMARK    5  A    between atoms: C8_11  and  C10_13 
REMARK    6  A    between atoms: C12_16  and  C13_17 
REMARK    7  A    between atoms: C13_17  and  O5_18 
REMARK    8  A    between atoms: C14_20  and  O6_21 
REMARK    9  A    between atoms: C15_23  and  O7_24 
REMARK   10  A    between atoms: C16_26  and  O8_27 
REMARK   11  A    between atoms: C17_29  and  O9_30 
ROOT
HETATM    1  O3  UNL     1      29.332  -2.075 163.747  1.00  0.00    -0.351 OA
ENDROOT
BRANCH   1   2
HETATM    2  C4  UNL     1      29.316  -1.242 164.843  1.00  0.00     0.294 C 
HETATM    3  O2  UNL     1      30.493  -1.255 165.566  1.00  0.00    -0.326 OA
HETATM    4  C3  UNL     1      30.434  -0.570 166.750  1.00  0.00     0.299 C 
HETATM    5  C17 UNL     1      29.197   0.235 166.956  1.00  0.00     0.205 C 
HETATM    6  C16 UNL     1      28.002  -0.693 166.889  1.00  0.00     0.185 C 
HETATM    7  C15 UNL     1      28.109  -1.615 165.702  1.00  0.00     0.204 C 
BRANCH   4   8
HETATM    8  O1  UNL     1      31.580   0.249 166.891  1.00  0.00    -0.330 OA
BRANCH   8   9
HETATM    9  C2  UNL     1      31.906   1.255 166.010  1.00  0.00     0.128 C 
HETATM   10  C1  UNL     1      33.185   1.505 165.786  1.00  0.00     0.037 C 
ENDBRANCH   8   9
ENDBRANCH   4   8
BRANCH   5  11
HETATM   11  O9  UNL     1      29.259   0.769 168.260  1.00  0.00    -0.388 OA
ATOM     12  H9  UNL     1      28.549   1.394 168.341  1.00  0.00     0.210 HD
ENDBRANCH   5  11
BRANCH   6  13
HETATM   13  O8  UNL     1      26.838   0.090 166.847  1.00  0.00    -0.390 OA
ATOM     14  H8  UNL     1      26.055  -0.426 166.998  1.00  0.00     0.210 HD
ENDBRANCH   6  13
BRANCH   7  15
HETATM   15  O7  UNL     1      26.949  -1.443 164.953  1.00  0.00    -0.388 OA
ATOM     16  H7  UNL     1      26.200  -1.690 165.482  1.00  0.00     0.210 HD
ENDBRANCH   7  15
ENDBRANCH   1   2
BRANCH   1  17
HETATM   17  C5  UNL     1      29.543  -1.453 162.540  1.00  0.00     0.154 C 
HETATM   18  C6  UNL     1      29.274   0.002 162.690  1.00  0.00     0.035 C 
HETATM   19  C7  UNL     1      28.187   0.471 161.753  1.00  0.00     0.015 C 
HETATM   20  C8  UNL     1      28.598   0.085 160.351  1.00  0.00    -0.008 C 
HETATM   21  C9  UNL     1      27.711   0.832 159.383  1.00  0.00     0.018 C 
HETATM   22  C12 UNL     1      28.531  -1.390 160.230  1.00  0.00     0.051 C 
HETATM   23  C14 UNL     1      28.675  -2.137 161.522  1.00  0.00     0.154 C 
BRANCH  20  24
HETATM   24  C10 UNL     1      30.033   0.569 160.095  1.00  0.00     0.154 A 
HETATM   25  C11 UNL     1      30.514   0.654 158.679  1.00  0.00     0.201 A 
HETATM   26  O4  UNL     1      30.933  -0.342 159.527  1.00  0.00    -0.380 OA
ENDBRANCH  20  24
BRANCH  22  27
HETATM   27  C13 UNL     1      27.279  -1.897 159.550  1.00  0.00     0.172 C 
BRANCH  27  28
HETATM   28  O5  UNL     1      27.322  -3.212 159.173  1.00  0.00    -0.400 OA
ATOM     29  H5  UNL     1      27.750  -3.374 158.340  1.00  0.00     0.209 HD
ENDBRANCH  27  28
ENDBRANCH  22  27
BRANCH  23  30
HETATM   30  O6  UNL     1      27.419  -2.475 162.024  1.00  0.00    -0.393 OA
ATOM     31  H6  UNL     1      27.452  -3.190 162.649  1.00  0.00     0.210 HD
ENDBRANCH  23  30
ENDBRANCH   1  17
TORSDOF 11
ENDMDL
MODEL 3
REMARK VINA RESULT: -5.553514938      2.033      6.977
REMARK  11 active torsions:
REMARK  status: ('A' for Active; 'I' for Inactive)
REMARK    1  A    between atoms: C2_2  and  O1_3 
REMARK    2  A    between atoms: O1_3  and  C3_4 
REMARK    3  A    between atoms: C4_6  and  O3_7 
REMARK    4  A    between atoms: O3_7  and  C5_8 
REMARK    5  A    between atoms: C8_11  and  C10_13 
REMARK    6  A    between atoms: C12_16  and  C13_17 
REMARK    7  A    between atoms: C13_17  and  O5_18 
REMARK    8  A    between atoms: C14_20  and  O6_21 
REMARK    9  A    between atoms: C15_23  and  O7_24 
REMARK   10  A    between atoms: C16_26  and  O8_27 
REMARK   11  A    between atoms: C17_29  and  O9_30 
ROOT
HETATM    1  O3  UNL     1      29.746   0.453 163.447  1.00  0.00    -0.351 OA
ENDROOT
BRANCH   1   2
HETATM    2  C4  UNL     1      29.222  -0.340 162.450  1.00  0.00     0.294 C 
HETATM    3  O2  UNL     1      30.165  -0.786 161.544  1.00  0.00    -0.326 OA
HETATM    4  C3  UNL     1      29.640  -1.427 160.454  1.00  0.00     0.299 C 
HETATM    5  C17 UNL     1      28.180  -1.714 160.531  1.00  0.00     0.205 C 
HETATM    6  C16 UNL     1      27.440  -0.405 160.709  1.00  0.00     0.185 C 
HETATM    7  C15 UNL     1      28.096   0.437 161.771  1.00  0.00     0.204 C 
BRANCH   4   8
HETATM    8  O1  UNL     1      30.361  -2.618 160.202  1.00  0.00    -0.330 OA
BRANCH   8   9
HETATM    9  C2  UNL     1      31.693  -2.778 160.512  1.00  0.00     0.128 C 
HETATM   10  C1  UNL     1      32.551  -2.964 159.524  1.00  0.00     0.037 C 
ENDBRANCH   8   9
ENDBRANCH   4   8
BRANCH   5  11
HETATM   11  O9  UNL     1      27.797  -2.263 159.289  1.00  0.00    -0.388 OA
ATOM     12  H9  UNL     1      28.400  -1.927 158.636  1.00  0.00     0.210 HD
ENDBRANCH   5  11
BRANCH   6  13
HETATM   13  O8  UNL     1      26.101  -0.694 161.015  1.00  0.00    -0.390 OA
ATOM     14  H8  UNL     1      25.511  -0.437 160.316  1.00  0.00     0.210 HD
ENDBRANCH   6  13
BRANCH   7  15
HETATM   15  O7  UNL     1      27.116   0.731 162.715  1.00  0.00    -0.388 OA
ATOM     16  H7  UNL     1      26.349   0.198 162.541  1.00  0.00     0.210 HD
ENDBRANCH   7  15
ENDBRANCH   1   2
BRANCH   1  17
HETATM   17  C5  UNL     1      30.035  -0.198 164.622  1.00  0.00     0.154 C 
HETATM   18  C6  UNL     1      28.763  -0.570 165.298  1.00  0.00     0.035 C 
HETATM   19  C7  UNL     1      28.661   0.040 166.675  1.00  0.00     0.015 C 
HETATM   20  C8  UNL     1      29.889  -0.380 167.450  1.00  0.00    -0.008 C 
HETATM   21  C9  UNL     1      29.646  -0.073 168.909  1.00  0.00     0.018 C 
HETATM   22  C12 UNL     1      31.068   0.303 166.868  1.00  0.00     0.051 C 
HETATM   23  C14 UNL     1      30.920   0.707 165.433  1.00  0.00     0.154 C 
BRANCH  20  24
HETATM   24  C10 UNL     1      30.057  -1.902 167.343  1.00  0.00     0.154 A 
HETATM   25  C11 UNL     1      30.308  -2.681 168.597  1.00  0.00     0.201 A 
HETATM   26  O4  UNL     1      31.304  -2.442 167.681  1.00  0.00    -0.380 OA
ENDBRANCH  20  24
BRANCH  22  27
HETATM   27  C13 UNL     1      31.516   1.526 167.639  1.00  0.00     0.172 C 
BRANCH  27  28
HETATM   28  O5  UNL     1      32.792   1.940 167.369  1.00  0.00    -0.400 OA
ATOM     29  H5  UNL     1      33.184   2.487 168.039  1.00  0.00     0.209 HD
ENDBRANCH  27  28
ENDBRANCH  22  27
BRANCH  23  30
HETATM   30  O6  UNL     1      30.545   2.047 165.347  1.00  0.00    -0.393 OA
ATOM     31  H6  UNL     1      30.990   2.595 165.982  1.00  0.00     0.210 HD
ENDBRANCH  23  30
ENDBRANCH   1  17
TORSDOF 11
ENDMDL
MODEL 4
REMARK VINA RESULT: -5.552215191      2.419      4.064
REMARK  11 active torsions:
REMARK  status: ('A' for Active; 'I' for Inactive)
REMARK    1  A    between atoms: C2_2  and  O1_3 
REMARK    2  A    between atoms: O1_3  and  C3_4 
REMARK    3  A    between atoms: C4_6  and  O3_7 
REMARK    4  A    between atoms: O3_7  and  C5_8 
REMARK    5  A    between atoms: C8_11  and  C10_13 
REMARK    6  A    between atoms: C12_16  and  C13_17 
REMARK    7  A    between atoms: C13_17  and  O5_18 
REMARK    8  A    between atoms: C14_20  and  O6_21 
REMARK    9  A    between atoms: C15_23  and  O7_24 
REMARK   10  A    between atoms: C16_26  and  O8_27 
REMARK   11  A    between atoms: C17_29  and  O9_30 
ROOT
HETATM    1  O3  UNL     1      27.794  -0.536 164.799  1.00  0.00    -0.351 OA
ENDROOT
BRANCH   1   2
HETATM    2  C4  UNL     1      28.189  -1.244 165.912  1.00  0.00     0.294 C 
HETATM    3  O2  UNL     1      27.566  -2.470 166.040  1.00  0.00    -0.326 OA
HETATM    4  C3  UNL     1      27.816  -3.108 167.225  1.00  0.00     0.299 C 
HETATM    5  C17 UNL     1      28.866  -2.477 168.075  1.00  0.00     0.205 C 
HETATM    6  C16 UNL     1      28.446  -1.056 168.385  1.00  0.00     0.185 C 
HETATM    7  C15 UNL     1      27.971  -0.358 167.137  1.00  0.00     0.204 C 
BRANCH   4   8
HETATM    8  O1  UNL     1      28.130  -4.467 166.985  1.00  0.00    -0.330 OA
BRANCH   8   9
HETATM    9  C2  UNL     1      28.922  -4.889 165.943  1.00  0.00     0.128 C 
HETATM   10  C1  UNL     1      28.512  -5.913 165.214  1.00  0.00     0.037 C 
ENDBRANCH   8   9
ENDBRANCH   4   8
BRANCH   5  11
HETATM   11  O9  UNL     1      28.903  -3.193 169.291  1.00  0.00    -0.388 OA
ATOM     12  H9  UNL     1      29.817  -3.344 169.499  1.00  0.00     0.210 HD
ENDBRANCH   5  11
BRANCH   6  13
HETATM   13  O8  UNL     1      29.532  -0.396 168.979  1.00  0.00    -0.390 OA
ATOM     14  H8  UNL     1      30.050  -0.978 169.523  1.00  0.00     0.210 HD
ENDBRANCH   6  13
BRANCH   7  15
HETATM   15  O7  UNL     1      28.738   0.796 167.004  1.00  0.00    -0.388 OA
ATOM     16  H7  UNL     1      28.173   1.555 167.088  1.00  0.00     0.210 HD
ENDBRANCH   7  15
ENDBRANCH   1   2
BRANCH   1  17
HETATM   17  C5  UNL     1      28.447  -0.861 163.635  1.00  0.00     0.154 C 
HETATM   18  C6  UNL     1      29.753  -0.149 163.596  1.00  0.00     0.035 C 
HETATM   19  C7  UNL     1      29.868   0.747 162.387  1.00  0.00     0.015 C 
HETATM   20  C8  UNL     1      29.621  -0.107 161.164  1.00  0.00    -0.008 C 
HETATM   21  C9  UNL     1      30.062   0.679 159.951  1.00  0.00     0.018 C 
HETATM   22  C12 UNL     1      28.195  -0.507 161.150  1.00  0.00     0.051 C 
HETATM   23  C14 UNL     1      27.530  -0.524 162.493  1.00  0.00     0.154 C 
BRANCH  20  24
HETATM   24  C10 UNL     1      30.516  -1.353 161.230  1.00  0.00     0.154 A 
HETATM   25  C11 UNL     1      30.847  -2.060 159.951  1.00  0.00     0.201 A 
HETATM   26  O4  UNL     1      29.950  -2.578 160.855  1.00  0.00    -0.380 OA
ENDBRANCH  20  24
BRANCH  22  27
HETATM   27  C13 UNL     1      27.330   0.323 160.227  1.00  0.00     0.172 C 
BRANCH  27  28
HETATM   28  O5  UNL     1      26.084  -0.193 159.988  1.00  0.00    -0.400 OA
ATOM     29  H5  UNL     1      25.434   0.445 159.718  1.00  0.00     0.209 HD
ENDBRANCH  27  28
ENDBRANCH  22  27
BRANCH  23  30
HETATM   30  O6  UNL     1      26.829   0.663 162.697  1.00  0.00    -0.393 OA
ATOM     31  H6  UNL     1      26.371   0.683 163.530  1.00  0.00     0.210 HD
ENDBRANCH  23  30
ENDBRANCH   1  17
TORSDOF 11
ENDMDL
MODEL 5
REMARK VINA RESULT: -5.500411522      1.567      2.022
REMARK  11 active torsions:
REMARK  status: ('A' for Active; 'I' for Inactive)
REMARK    1  A    between atoms: C2_2  and  O1_3 
REMARK    2  A    between atoms: O1_3  and  C3_4 
REMARK    3  A    between atoms: C4_6  and  O3_7 
REMARK    4  A    between atoms: O3_7  and  C5_8 
REMARK    5  A    between atoms: C8_11  and  C10_13 
REMARK    6  A    between atoms: C12_16  and  C13_17 
REMARK    7  A    between atoms: C13_17  and  O5_18 
REMARK    8  A    between atoms: C14_20  and  O6_21 
REMARK    9  A    between atoms: C15_23  and  O7_24 
REMARK   10  A    between atoms: C16_26  and  O8_27 
REMARK   11  A    between atoms: C17_29  and  O9_30 
ROOT
HETATM    1  O3  UNL     1      30.094  -1.161 164.584  1.00  0.00    -0.351 OA
ENDROOT
BRANCH   1   2
HETATM    2  C4  UNL     1      30.426  -0.126 165.430  1.00  0.00     0.294 C 
HETATM    3  O2  UNL     1      31.728   0.312 165.284  1.00  0.00    -0.326 OA
HETATM    4  C3  UNL     1      32.127   1.217 166.231  1.00  0.00     0.299 C 
HETATM    5  C17 UNL     1      31.042   1.725 167.118  1.00  0.00     0.205 C 
HETATM    6  C16 UNL     1      30.410   0.548 167.829  1.00  0.00     0.185 C 
HETATM    7  C15 UNL     1      30.125  -0.569 166.860  1.00  0.00     0.204 C 
BRANCH   4   8
HETATM    8  O1  UNL     1      32.801   2.297 165.613  1.00  0.00    -0.330 OA
BRANCH   8   9
HETATM    9  C2  UNL     1      34.166   2.464 165.657  1.00  0.00     0.128 C 
HETATM   10  C1  UNL     1      34.848   1.826 166.593  1.00  0.00     0.037 C 
ENDBRANCH   8   9
ENDBRANCH   4   8
BRANCH   5  11
HETATM   11  O9  UNL     1      31.650   2.544 168.093  1.00  0.00    -0.388 OA
ATOM     12  H9  UNL     1      31.673   2.048 168.902  1.00  0.00     0.210 HD
ENDBRANCH   5  11
BRANCH   6  13
HETATM   13  O8  UNL     1      29.248   0.995 168.476  1.00  0.00    -0.390 OA
ATOM     14  H8  UNL     1      28.678   1.481 167.890  1.00  0.00     0.210 HD
ENDBRANCH   6  13
BRANCH   7  15
HETATM   15  O7  UNL     1      28.768  -0.860 166.967  1.00  0.00    -0.388 OA
ATOM     16  H7  UNL     1      28.302  -0.073 167.221  1.00  0.00     0.210 HD
ENDBRANCH   7  15
ENDBRANCH   1   2
BRANCH   1  17
HETATM   17  C5  UNL     1      29.979  -0.820 163.258  1.00  0.00     0.154 C 
HETATM   18  C6  UNL     1      28.559  -0.976 162.838  1.00  0.00     0.035 C 
HETATM   19  C7  UNL     1      28.415  -1.957 161.700  1.00  0.00     0.015 C 
HETATM   20  C8  UNL     1      29.317  -1.489 160.580  1.00  0.00    -0.008 C 
HETATM   21  C9  UNL     1      28.937  -2.246 159.330  1.00  0.00     0.018 C 
HETATM   22  C12 UNL     1      30.725  -1.671 161.004  1.00  0.00     0.051 C 
HETATM   23  C14 UNL     1      30.944  -1.675 162.486  1.00  0.00     0.154 C 
BRANCH  20  24
HETATM   24  C10 UNL     1      29.041  -0.006 160.297  1.00  0.00     0.154 A 
HETATM   25  C11 UNL     1      29.452   0.555 158.970  1.00  0.00     0.201 A 
HETATM   26  O4  UNL     1      30.146   0.837 160.122  1.00  0.00    -0.380 OA
ENDBRANCH  20  24
BRANCH  22  27
HETATM   27  C13 UNL     1      31.381  -2.915 160.445  1.00  0.00     0.172 C 
BRANCH  27  28
HETATM   28  O5  UNL     1      32.748  -2.925 160.516  1.00  0.00    -0.400 OA
ATOM     29  H5  UNL     1      33.131  -2.166 160.940  1.00  0.00     0.209 HD
ENDBRANCH  27  28
ENDBRANCH  22  27
BRANCH  23  30
HETATM   30  O6  UNL     1      31.003  -2.984 162.960  1.00  0.00    -0.393 OA
ATOM     31  H6  UNL     1      31.864  -3.374 162.859  1.00  0.00     0.210 HD
ENDBRANCH  23  30
ENDBRANCH   1  17
TORSDOF 11
ENDMDL
