MODEL 1
REMARK VINA RESULT: -5.472178135      0.000      0.000
REMARK  10 active torsions:
REMARK  status: ('A' for Active; 'I' for Inactive)
REMARK    1  A    between atoms: N1_1  and  N2_4 
REMARK    2  A    between atoms: N3_6  and  C1_8 
REMARK    3  A    between atoms: C2_9  and  O1_10 
REMARK    4  A    between atoms: C3_13  and  C4_14 
REMARK    5  A    between atoms: C4_14  and  O3_15 
REMARK    6  A    between atoms: C5_17  and  O4_18 
REMARK    7  A    between atoms: O4_18  and  C6_19 
REMARK    8  A    between atoms: C7_20  and  O5_21 
REMARK    9  A    between atoms: C8_23  and  O6_24 
REMARK   10  A    between atoms: C15_33  and  O7_34 
ROOT
HETATM    1  C1  UNL     1      10.363 -11.485   6.166  1.00  0.00     0.187 C 
HETATM    2  C2  UNL     1       9.050 -11.515   6.848  1.00  0.00     0.284 C 
HETATM    3  O2  UNL     1       8.291 -10.377   6.743  1.00  0.00    -0.349 OA
HETATM    4  C3  UNL     1       8.169  -9.887   5.444  1.00  0.00     0.179 C 
HETATM    5  C5  UNL     1       9.515  -9.409   5.030  1.00  0.00     0.184 C 
HETATM    6  C15 UNL     1      10.433 -10.611   4.951  1.00  0.00     0.178 C 
ENDROOT
BRANCH   5   7
HETATM    7  O4  UNL     1       9.628  -8.730   3.876  1.00  0.00    -0.370 OA
BRANCH   7   8
HETATM    8  C6  UNL     1       9.733  -7.374   3.894  1.00  0.00     0.188 C 
HETATM    9  C7  UNL     1      10.921  -7.019   3.004  1.00  0.00     0.208 C 
HETATM   10  C8  UNL     1      12.010  -6.560   3.945  1.00  0.00     0.388 C 
HETATM   11  N4  UNL     1      11.309  -6.101   5.098  1.00  0.00     0.127 N 
HETATM   12  C9  UNL     1      12.126  -6.029   6.264  1.00  0.00     0.276 C 
HETATM   13  C14 UNL     1      10.081  -6.801   5.245  1.00  0.00     0.257 C 
HETATM   14  C10 UNL     1      11.352  -6.042   7.558  1.00  0.00     0.030 C 
HETATM   15  C11 UNL     1      10.323  -4.966   7.644  1.00  0.00     0.002 C 
HETATM   16  C12 UNL     1       9.743  -4.570   6.312  1.00  0.00     0.002 C 
HETATM   17  C13 UNL     1       9.042  -5.747   5.657  1.00  0.00     0.038 C 
BRANCH   9  18
HETATM   18  O5  UNL     1      11.406  -8.129   2.316  1.00  0.00    -0.388 OA
ATOM     19  H5  UNL     1      11.989  -7.881   1.608  1.00  0.00     0.210 HD
ENDBRANCH   9  18
BRANCH  10  20
HETATM   20  O6  UNL     1      12.881  -7.602   4.291  1.00  0.00    -0.366 OA
ATOM     21  H6  UNL     1      13.290  -7.460   5.136  1.00  0.00     0.212 HD
ENDBRANCH  10  20
ENDBRANCH   7   8
ENDBRANCH   5   7
BRANCH   4  22
HETATM   22  C4  UNL     1       7.619 -10.992   4.582  1.00  0.00     0.198 C 
BRANCH  22  23
HETATM   23  O3  UNL     1       7.423 -10.578   3.260  1.00  0.00    -0.398 OA
ATOM     24  H3  UNL     1       7.625 -11.266   2.638  1.00  0.00     0.209 HD
ENDBRANCH  22  23
ENDBRANCH   4  22
BRANCH   6  25
HETATM   25  O7  UNL     1      11.729 -10.112   4.827  1.00  0.00    -0.391 OA
ATOM     26  H7  UNL     1      12.117 -10.453   4.030  1.00  0.00     0.210 HD
ENDBRANCH   6  25
BRANCH   1  27
HETATM   27  N3  UNL     1      11.456 -11.119   7.063  1.00  0.00    -0.310 N 
HETATM   28  N2  UNL     1      11.385 -10.093   7.734  1.00  0.00    -0.253 N 
ATOM     29  H2  UNL     1      11.167  -9.417   7.003  1.00  0.00     0.207 HD
ATOM     30  H3  UNL     1      12.280 -11.717   7.132  1.00  0.00     0.182 HD
BRANCH  28  31
HETATM   31  N1  UNL     1      11.407  -9.352   8.715  1.00  0.00    -0.331 N 
ATOM     32  H12 UNL     1      12.309  -9.656   9.079  1.00  0.00     0.178 HD
ATOM     33  H11 UNL     1      11.111  -8.643   9.386  1.00  0.00     0.178 HD
ENDBRANCH  28  31
ENDBRANCH   1  27
BRANCH   2  34
HETATM   34  O1  UNL     1       9.277 -11.718   8.215  1.00  0.00    -0.369 OA
ATOM     35  H1  UNL     1       8.861 -11.007   8.691  1.00  0.00     0.212 HD
ENDBRANCH   2  34
TORSDOF 10
ENDMDL
MODEL 2
REMARK VINA RESULT: -5.411193330      1.869      2.614
REMARK  10 active torsions:
REMARK  status: ('A' for Active; 'I' for Inactive)
REMARK    1  A    between atoms: N1_1  and  N2_4 
REMARK    2  A    between atoms: N3_6  and  C1_8 
REMARK    3  A    between atoms: C2_9  and  O1_10 
REMARK    4  A    between atoms: C3_13  and  C4_14 
REMARK    5  A    between atoms: C4_14  and  O3_15 
REMARK    6  A    between atoms: C5_17  and  O4_18 
REMARK    7  A    between atoms: O4_18  and  C6_19 
REMARK    8  A    between atoms: C7_20  and  O5_21 
REMARK    9  A    between atoms: C8_23  and  O6_24 
REMARK   10  A    between atoms: C15_33  and  O7_34 
ROOT
HETATM    1  C1  UNL     1       9.770 -11.339   5.848  1.00  0.00     0.187 C 
HETATM    2  C2  UNL     1       8.578 -10.824   5.139  1.00  0.00     0.284 C 
HETATM    3  O2  UNL     1       8.390  -9.466   5.185  1.00  0.00    -0.349 OA
HETATM    4  C3  UNL     1       9.524  -8.720   4.866  1.00  0.00     0.179 C 
HETATM    5  C5  UNL     1      10.512  -8.939   5.955  1.00  0.00     0.184 C 
HETATM    6  C15 UNL     1      10.931 -10.394   5.918  1.00  0.00     0.178 C 
ENDROOT
BRANCH   5   7
HETATM    7  O4  UNL     1      11.627  -8.191   5.970  1.00  0.00    -0.370 OA
BRANCH   7   8
HETATM    8  C6  UNL     1      11.535  -6.834   5.931  1.00  0.00     0.188 C 
HETATM    9  C7  UNL     1      12.747  -6.340   5.145  1.00  0.00     0.208 C 
HETATM   10  C8  UNL     1      13.655  -5.694   6.166  1.00  0.00     0.388 C 
HETATM   11  N4  UNL     1      12.780  -5.303   7.220  1.00  0.00     0.127 N 
HETATM   12  C9  UNL     1      13.452  -5.072   8.456  1.00  0.00     0.276 C 
HETATM   13  C14 UNL     1      11.656  -6.170   7.280  1.00  0.00     0.257 C 
HETATM   14  C10 UNL     1      12.557  -5.155   9.667  1.00  0.00     0.030 C 
HETATM   15  C11 UNL     1      11.382  -4.239   9.599  1.00  0.00     0.002 C 
HETATM   16  C12 UNL     1      10.894  -3.978   8.198  1.00  0.00     0.002 C 
HETATM   17  C13 UNL     1      10.440  -5.267   7.536  1.00  0.00     0.038 C 
BRANCH   9  18
HETATM   18  O5  UNL     1      13.455  -7.389   4.563  1.00  0.00    -0.388 OA
ATOM     19  H5  UNL     1      13.650  -7.222   3.649  1.00  0.00     0.210 HD
ENDBRANCH   9  18
BRANCH  10  20
HETATM   20  O6  UNL     1      14.625  -6.585   6.645  1.00  0.00    -0.366 OA
ATOM     21  H6  UNL     1      15.329  -6.136   7.098  1.00  0.00     0.212 HD
ENDBRANCH  10  20
ENDBRANCH   7   8
ENDBRANCH   5   7
BRANCH   4  22
HETATM   22  C4  UNL     1      10.001  -9.161   3.507  1.00  0.00     0.198 C 
BRANCH  22  23
HETATM   23  O3  UNL     1      10.911  -8.255   2.952  1.00  0.00    -0.398 OA
ATOM     24  H3  UNL     1      11.716  -8.207   3.454  1.00  0.00     0.209 HD
ENDBRANCH  22  23
ENDBRANCH   4  22
BRANCH   6  25
HETATM   25  O7  UNL     1      11.638 -10.632   7.096  1.00  0.00    -0.391 OA
ATOM     26  H7  UNL     1      11.675  -9.828   7.601  1.00  0.00     0.210 HD
ENDBRANCH   6  25
BRANCH   1  27
HETATM   27  N3  UNL     1       9.466 -11.800   7.200  1.00  0.00    -0.310 N 
HETATM   28  N2  UNL     1       8.968 -11.029   8.016  1.00  0.00    -0.253 N 
ATOM     29  H2  UNL     1       9.624 -10.251   7.950  1.00  0.00     0.207 HD
ATOM     30  H3  UNL     1       9.669 -12.763   7.468  1.00  0.00     0.182 HD
BRANCH  28  31
HETATM   31  N1  UNL     1       8.192 -10.586   8.861  1.00  0.00    -0.331 N 
ATOM     32  H12 UNL     1       7.430 -10.363   8.222  1.00  0.00     0.178 HD
ATOM     33  H11 UNL     1       7.825 -10.304   9.770  1.00  0.00     0.178 HD
ENDBRANCH  28  31
ENDBRANCH   1  27
BRANCH   2  34
HETATM   34  O1  UNL     1       7.443 -11.403   5.723  1.00  0.00    -0.369 OA
ATOM     35  H1  UNL     1       7.690 -12.256   6.061  1.00  0.00     0.212 HD
ENDBRANCH   2  34
TORSDOF 10
ENDMDL
MODEL 3
REMARK VINA RESULT: -5.389194607      2.846      5.474
REMARK  10 active torsions:
REMARK  status: ('A' for Active; 'I' for Inactive)
REMARK    1  A    between atoms: N1_1  and  N2_4 
REMARK    2  A    between atoms: N3_6  and  C1_8 
REMARK    3  A    between atoms: C2_9  and  O1_10 
REMARK    4  A    between atoms: C3_13  and  C4_14 
REMARK    5  A    between atoms: C4_14  and  O3_15 
REMARK    6  A    between atoms: C5_17  and  O4_18 
REMARK    7  A    between atoms: O4_18  and  C6_19 
REMARK    8  A    between atoms: C7_20  and  O5_21 
REMARK    9  A    between atoms: C8_23  and  O6_24 
REMARK   10  A    between atoms: C15_33  and  O7_34 
ROOT
HETATM    1  C1  UNL     1      10.211  -7.142   1.555  1.00  0.00     0.187 C 
HETATM    2  C2  UNL     1      11.298  -6.303   1.001  1.00  0.00     0.284 C 
HETATM    3  O2  UNL     1      12.264  -5.906   1.892  1.00  0.00    -0.349 OA
HETATM    4  C3  UNL     1      12.777  -6.936   2.678  1.00  0.00     0.179 C 
HETATM    5  C5  UNL     1      11.683  -7.385   3.579  1.00  0.00     0.184 C 
HETATM    6  C15 UNL     1      10.596  -8.000   2.721  1.00  0.00     0.178 C 
ENDROOT
BRANCH   5   7
HETATM    7  O4  UNL     1      11.975  -8.255   4.559  1.00  0.00    -0.370 OA
BRANCH   7   8
HETATM    8  C6  UNL     1      12.979  -7.981   5.435  1.00  0.00     0.188 C 
HETATM    9  C7  UNL     1      13.190  -9.245   6.263  1.00  0.00     0.208 C 
HETATM   10  C8  UNL     1      12.651  -8.923   7.638  1.00  0.00     0.388 C 
HETATM   11  N4  UNL     1      12.747  -7.505   7.732  1.00  0.00     0.127 N 
HETATM   12  C9  UNL     1      11.914  -6.947   8.745  1.00  0.00     0.276 C 
HETATM   13  C14 UNL     1      12.638  -6.912   6.445  1.00  0.00     0.257 C 
HETATM   14  C10 UNL     1      11.606  -5.484   8.551  1.00  0.00     0.030 C 
HETATM   15  C11 UNL     1      12.824  -4.632   8.432  1.00  0.00     0.002 C 
HETATM   16  C12 UNL     1      14.004  -5.341   7.820  1.00  0.00     0.002 C 
HETATM   17  C13 UNL     1      13.688  -5.792   6.405  1.00  0.00     0.038 C 
BRANCH   9  18
HETATM   18  O5  UNL     1      12.455 -10.320   5.770  1.00  0.00    -0.388 OA
ATOM     19  H5  UNL     1      12.948 -11.131   5.797  1.00  0.00     0.210 HD
ENDBRANCH   9  18
BRANCH  10  20
HETATM   20  O6  UNL     1      11.319  -9.329   7.790  1.00  0.00    -0.366 OA
ATOM     21  H6  UNL     1      11.144  -9.661   8.663  1.00  0.00     0.212 HD
ENDBRANCH  10  20
ENDBRANCH   7   8
ENDBRANCH   5   7
BRANCH   4  22
HETATM   22  C4  UNL     1      13.292  -8.010   1.756  1.00  0.00     0.198 C 
BRANCH  22  23
HETATM   23  O3  UNL     1      14.009  -8.993   2.445  1.00  0.00    -0.398 OA
ATOM     24  H3  UNL     1      14.744  -9.319   1.938  1.00  0.00     0.209 HD
ENDBRANCH  22  23
ENDBRANCH   4  22
BRANCH   6  25
HETATM   25  O7  UNL     1       9.485  -8.162   3.549  1.00  0.00    -0.391 OA
ATOM     26  H7  UNL     1       9.535  -7.534   4.259  1.00  0.00     0.210 HD
ENDBRANCH   6  25
BRANCH   1  27
HETATM   27  N3  UNL     1       9.030  -6.365   1.920  1.00  0.00    -0.310 N 
HETATM   28  N2  UNL     1       9.128  -5.430   2.710  1.00  0.00    -0.253 N 
ATOM     29  H2  UNL     1       9.607  -5.897   3.480  1.00  0.00     0.207 HD
ATOM     30  H3  UNL     1       8.122  -6.600   1.519  1.00  0.00     0.182 HD
BRANCH  28  31
HETATM   31  N1  UNL     1       9.023  -4.297   3.177  1.00  0.00    -0.331 N 
ATOM     32  H12 UNL     1       9.892  -3.926   2.792  1.00  0.00     0.178 HD
ATOM     33  H11 UNL     1       8.638  -3.504   3.689  1.00  0.00     0.178 HD
ENDBRANCH  28  31
ENDBRANCH   1  27
BRANCH   2  34
HETATM   34  O1  UNL     1      10.724  -5.133   0.489  1.00  0.00    -0.369 OA
ATOM     35  H1  UNL     1      11.266  -4.399   0.754  1.00  0.00     0.212 HD
ENDBRANCH   2  34
TORSDOF 10
ENDMDL
MODEL 4
REMARK VINA RESULT: -5.362016229      2.234      5.459
REMARK  10 active torsions:
REMARK  status: ('A' for Active; 'I' for Inactive)
REMARK    1  A    between atoms: N1_1  and  N2_4 
REMARK    2  A    between atoms: N3_6  and  C1_8 
REMARK    3  A    between atoms: C2_9  and  O1_10 
REMARK    4  A    between atoms: C3_13  and  C4_14 
REMARK    5  A    between atoms: C4_14  and  O3_15 
REMARK    6  A    between atoms: C5_17  and  O4_18 
REMARK    7  A    between atoms: O4_18  and  C6_19 
REMARK    8  A    between atoms: C7_20  and  O5_21 
REMARK    9  A    between atoms: C8_23  and  O6_24 
REMARK   10  A    between atoms: C15_33  and  O7_34 
ROOT
HETATM    1  C1  UNL     1      10.696  -6.100   1.236  1.00  0.00     0.187 C 
HETATM    2  C2  UNL     1      12.034  -5.497   1.428  1.00  0.00     0.284 C 
HETATM    3  O2  UNL     1      12.725  -5.908   2.540  1.00  0.00    -0.349 OA
HETATM    4  C3  UNL     1      12.771  -7.290   2.708  1.00  0.00     0.179 C 
HETATM    5  C5  UNL     1      11.387  -7.740   3.013  1.00  0.00     0.184 C 
HETATM    6  C15 UNL     1      10.533  -7.484   1.788  1.00  0.00     0.178 C 
ENDROOT
BRANCH   5   7
HETATM    7  O4  UNL     1      11.194  -9.014   3.389  1.00  0.00    -0.370 OA
BRANCH   7   8
HETATM    8  C6  UNL     1      11.209  -9.343   4.709  1.00  0.00     0.188 C 
HETATM    9  C7  UNL     1       9.762  -9.623   5.103  1.00  0.00     0.208 C 
HETATM   10  C8  UNL     1       9.344  -8.457   5.969  1.00  0.00     0.388 C 
HETATM   11  N4  UNL     1      10.566  -7.963   6.509  1.00  0.00     0.127 N 
HETATM   12  C9  UNL     1      10.469  -6.627   6.997  1.00  0.00     0.276 C 
HETATM   13  C14 UNL     1      11.643  -8.219   5.618  1.00  0.00     0.257 C 
HETATM   14  C10 UNL     1      11.793  -5.913   7.102  1.00  0.00     0.030 C 
HETATM   15  C11 UNL     1      12.794  -6.640   7.934  1.00  0.00     0.002 C 
HETATM   16  C12 UNL     1      12.637  -8.138   7.906  1.00  0.00     0.002 C 
HETATM   17  C13 UNL     1      12.819  -8.674   6.497  1.00  0.00     0.038 C 
BRANCH   9  18
HETATM   18  O5  UNL     1       8.915  -9.645   3.997  1.00  0.00    -0.388 OA
ATOM     19  H5  UNL     1       8.562 -10.511   3.836  1.00  0.00     0.210 HD
ENDBRANCH   9  18
BRANCH  10  20
HETATM   20  O6  UNL     1       8.701  -7.456   5.228  1.00  0.00    -0.366 OA
ATOM     21  H6  UNL     1       8.639  -6.640   5.711  1.00  0.00     0.212 HD
ENDBRANCH  10  20
ENDBRANCH   7   8
ENDBRANCH   5   7
BRANCH   4  22
HETATM   22  C4  UNL     1      13.348  -7.891   1.453  1.00  0.00     0.198 C 
BRANCH  22  23
HETATM   23  O3  UNL     1      13.664  -9.244   1.616  1.00  0.00    -0.398 OA
ATOM     24  H3  UNL     1      14.594  -9.406   1.517  1.00  0.00     0.209 HD
ENDBRANCH  22  23
ENDBRANCH   4  22
BRANCH   6  25
HETATM   25  O7  UNL     1       9.208  -7.658   2.186  1.00  0.00    -0.391 OA
ATOM     26  H7  UNL     1       9.166  -7.638   3.135  1.00  0.00     0.210 HD
ENDBRANCH   6  25
BRANCH   1  27
HETATM   27  N3  UNL     1       9.620  -5.263   1.758  1.00  0.00    -0.310 N 
HETATM   28  N2  UNL     1       9.366  -5.265   2.960  1.00  0.00    -0.253 N 
ATOM     29  H2  UNL     1       9.265  -6.268   3.119  1.00  0.00     0.207 HD
ATOM     30  H3  UNL     1       9.078  -4.676   1.124  1.00  0.00     0.182 HD
BRANCH  28  31
HETATM   31  N1  UNL     1       9.154  -4.844   4.095  1.00  0.00    -0.331 N 
ATOM     32  H12 UNL     1       8.791  -3.931   3.822  1.00  0.00     0.178 HD
ATOM     33  H11 UNL     1       9.107  -4.818   5.114  1.00  0.00     0.178 HD
ENDBRANCH  28  31
ENDBRANCH   1  27
BRANCH   2  34
HETATM   34  O1  UNL     1      11.870  -4.111   1.550  1.00  0.00    -0.369 OA
ATOM     35  H1  UNL     1      12.718  -3.732   1.753  1.00  0.00     0.212 HD
ENDBRANCH   2  34
TORSDOF 10
ENDMDL
MODEL 5
REMARK VINA RESULT: -5.359844350     11.269     13.569
REMARK  10 active torsions:
REMARK  status: ('A' for Active; 'I' for Inactive)
REMARK    1  A    between atoms: N1_1  and  N2_4 
REMARK    2  A    between atoms: N3_6  and  C1_8 
REMARK    3  A    between atoms: C2_9  and  O1_10 
REMARK    4  A    between atoms: C3_13  and  C4_14 
REMARK    5  A    between atoms: C4_14  and  O3_15 
REMARK    6  A    between atoms: C5_17  and  O4_18 
REMARK    7  A    between atoms: O4_18  and  C6_19 
REMARK    8  A    between atoms: C7_20  and  O5_21 
REMARK    9  A    between atoms: C8_23  and  O6_24 
REMARK   10  A    between atoms: C15_33  and  O7_34 
ROOT
HETATM    1  C1  UNL     1       4.442   0.123   5.177  1.00  0.00     0.187 C 
HETATM    2  C2  UNL     1       5.600   0.968   5.546  1.00  0.00     0.284 C 
HETATM    3  O2  UNL     1       5.563   2.266   5.102  1.00  0.00    -0.349 OA
HETATM    4  C3  UNL     1       4.361   2.924   5.357  1.00  0.00     0.179 C 
HETATM    5  C5  UNL     1       3.320   2.274   4.518  1.00  0.00     0.184 C 
HETATM    6  C15 UNL     1       3.144   0.853   5.012  1.00  0.00     0.178 C 
ENDROOT
BRANCH   5   7
HETATM    7  O4  UNL     1       2.103   2.839   4.453  1.00  0.00    -0.370 OA
BRANCH   7   8
HETATM    8  C6  UNL     1       1.850   3.801   3.524  1.00  0.00     0.188 C 
HETATM    9  C7  UNL     1       0.639   3.326   2.727  1.00  0.00     0.208 C 
HETATM   10  C8  UNL     1       1.174   2.938   1.368  1.00  0.00     0.388 C 
HETATM   11  N4  UNL     1       2.366   3.706   1.226  1.00  0.00     0.127 N 
HETATM   12  C9  UNL     1       3.253   3.195   0.235  1.00  0.00     0.276 C 
HETATM   13  C14 UNL     1       2.944   3.968   2.497  1.00  0.00     0.257 C 
HETATM   14  C10 UNL     1       4.682   3.647   0.396  1.00  0.00     0.030 C 
HETATM   15  C11 UNL     1       4.834   5.131   0.434  1.00  0.00     0.002 C 
HETATM   16  C12 UNL     1       3.644   5.849   1.015  1.00  0.00     0.002 C 
HETATM   17  C13 UNL     1       3.411   5.431   2.456  1.00  0.00     0.038 C 
BRANCH   9  18
HETATM   18  O5  UNL     1       0.059   2.189   3.286  1.00  0.00    -0.388 OA
ATOM     19  H5  UNL     1      -0.777   2.379   3.693  1.00  0.00     0.210 HD
ENDBRANCH   9  18
BRANCH  10  20
HETATM   20  O6  UNL     1       1.467   1.570   1.289  1.00  0.00    -0.366 OA
ATOM     21  H6  UNL     1       0.748   1.073   0.916  1.00  0.00     0.212 HD
ENDBRANCH  10  20
ENDBRANCH   7   8
ENDBRANCH   5   7
BRANCH   4  22
HETATM   22  C4  UNL     1       4.094   2.844   6.837  1.00  0.00     0.198 C 
BRANCH  22  23
HETATM   23  O3  UNL     1       2.983   3.607   7.212  1.00  0.00    -0.398 OA
ATOM     24  H3  UNL     1       2.421   3.142   7.820  1.00  0.00     0.209 HD
ENDBRANCH  22  23
ENDBRANCH   4  22
BRANCH   6  25
HETATM   25  O7  UNL     1       2.373   0.194   4.055  1.00  0.00    -0.391 OA
ATOM     26  H7  UNL     1       2.935  -0.070   3.336  1.00  0.00     0.210 HD
ENDBRANCH   6  25
BRANCH   1  27
HETATM   27  N3  UNL     1       4.682  -0.671   3.976  1.00  0.00    -0.310 N 
HETATM   28  N2  UNL     1       5.011  -1.851   4.072  1.00  0.00    -0.253 N 
ATOM     29  H2  UNL     1       5.802  -1.764   4.711  1.00  0.00     0.207 HD
ATOM     30  H3  UNL     1       4.577  -0.245   3.055  1.00  0.00     0.182 HD
BRANCH  28  31
HETATM   31  N1  UNL     1       5.007  -3.068   3.898  1.00  0.00    -0.331 N 
ATOM     32  H12 UNL     1       4.518  -3.062   3.004  1.00  0.00     0.178 HD
ATOM     33  H11 UNL     1       5.174  -4.060   4.067  1.00  0.00     0.178 HD
ENDBRANCH  28  31
ENDBRANCH   1  27
BRANCH   2  34
HETATM   34  O1  UNL     1       6.750   0.390   4.992  1.00  0.00    -0.369 OA
ATOM     35  H1  UNL     1       7.436   1.048   4.990  1.00  0.00     0.212 HD
ENDBRANCH   2  34
TORSDOF 10
ENDMDL
