MODEL 1
REMARK VINA RESULT: -7.566096056      0.000      0.000
REMARK  10 active torsions:
REMARK  status: ('A' for Active; 'I' for Inactive)
REMARK    1  A    between atoms: O1_1  and  C1_3 
REMARK    2  A    between atoms: C3_5  and  O2_6 
REMARK    3  A    between atoms: C4_8  and  O3_9 
REMARK    4  A    between atoms: C5_11  and  O4_12 
REMARK    5  A    between atoms: O4_12  and  C6_13 
REMARK    6  A    between atoms: C8_16  and  C9_17 
REMARK    7  A    between atoms: C9_17  and  O6_18 
REMARK    8  A    between atoms: O6_18  and  C10_19 
REMARK    9  A    between atoms: C16_25  and  O7_26 
REMARK   10  A    between atoms: C17_28  and  O8_29 
ROOT
HETATM    1  C6  UNL     1      11.961  -5.342   7.807  1.00  0.00     0.179 C 
HETATM    2  C7  UNL     1      10.564  -5.565   7.281  1.00  0.00     0.203 C 
HETATM    3  O5  UNL     1      10.562  -6.056   5.980  1.00  0.00    -0.378 OA
HETATM    4  C8  UNL     1      11.235  -7.294   5.914  1.00  0.00     0.176 C 
HETATM    5  C16 UNL     1      12.709  -6.969   6.059  1.00  0.00     0.180 C 
HETATM    6  C17 UNL     1      12.918  -6.430   7.446  1.00  0.00     0.180 C 
ENDROOT
BRANCH   1   7
HETATM    7  O4  UNL     1      11.868  -5.178   9.186  1.00  0.00    -0.348 OA
BRANCH   7   8
HETATM    8  C5  UNL     1      12.047  -3.852   9.580  1.00  0.00     0.294 C 
HETATM    9  C4  UNL     1      10.752  -3.251  10.084  1.00  0.00     0.202 C 
HETATM   10  C3  UNL     1      10.936  -2.374  11.280  1.00  0.00     0.156 C 
HETATM   11  C2  UNL     1      11.794  -2.991  12.344  1.00  0.00     0.095 C 
HETATM   12  C1  UNL     1      12.813  -3.935  11.758  1.00  0.00     0.262 C 
HETATM   13  O9  UNL     1      13.104  -3.673  10.439  1.00  0.00    -0.329 OA
BRANCH   9  14
HETATM   14  O3  UNL     1      10.108  -2.503   9.096  1.00  0.00    -0.388 OA
ATOM     15  H3  UNL     1      10.637  -2.541   8.308  1.00  0.00     0.210 HD
ENDBRANCH   9  14
BRANCH  10  16
HETATM   16  O2  UNL     1       9.659  -2.134  11.820  1.00  0.00    -0.393 OA
ATOM     17  H2  UNL     1       9.107  -1.770  11.138  1.00  0.00     0.210 HD
ENDBRANCH  10  16
BRANCH  12  18
HETATM   18  O1  UNL     1      12.438  -5.249  11.998  1.00  0.00    -0.371 OA
ATOM     19  H1  UNL     1      12.639  -5.487  12.896  1.00  0.00     0.212 HD
ENDBRANCH  12  18
ENDBRANCH   7   8
ENDBRANCH   1   7
BRANCH   6  20
HETATM   20  O8  UNL     1      14.219  -5.897   7.595  1.00  0.00    -0.390 OA
ATOM     21  H8  UNL     1      14.826  -6.622   7.505  1.00  0.00     0.210 HD
ENDBRANCH   6  20
BRANCH   5  22
HETATM   22  O7  UNL     1      13.023  -6.024   5.079  1.00  0.00    -0.390 OA
ATOM     23  H7  UNL     1      13.153  -5.193   5.520  1.00  0.00     0.210 HD
ENDBRANCH   5  22
BRANCH   4  24
HETATM   24  C9  UNL     1      10.921  -7.868   4.550  1.00  0.00     0.202 C 
BRANCH  24  25
HETATM   25  O6  UNL     1       9.821  -7.281   3.957  1.00  0.00    -0.383 OA
BRANCH  25  26
HETATM   26  C10 UNL     1      10.212  -6.612   2.831  1.00  0.00     0.121 C 
HETATM   27  C11 UNL     1       9.704  -7.287   1.551  1.00  0.00     0.032 C 
HETATM   28  C12 UNL     1      10.476  -6.647   0.436  1.00  0.00     0.002 C 
HETATM   29  C13 UNL     1      10.572  -5.178   0.498  1.00  0.00     0.000 C 
HETATM   30  C14 UNL     1       9.845  -4.476   1.567  1.00  0.00     0.002 C 
HETATM   31  C15 UNL     1       9.586  -5.238   2.822  1.00  0.00     0.032 C 
ENDBRANCH  25  26
ENDBRANCH  24  25
ENDBRANCH   4  24
TORSDOF 10
ENDMDL
MODEL 2
REMARK VINA RESULT: -7.399160186      4.325      7.325
REMARK  10 active torsions:
REMARK  status: ('A' for Active; 'I' for Inactive)
REMARK    1  A    between atoms: O1_1  and  C1_3 
REMARK    2  A    between atoms: C3_5  and  O2_6 
REMARK    3  A    between atoms: C4_8  and  O3_9 
REMARK    4  A    between atoms: C5_11  and  O4_12 
REMARK    5  A    between atoms: O4_12  and  C6_13 
REMARK    6  A    between atoms: C8_16  and  C9_17 
REMARK    7  A    between atoms: C9_17  and  O6_18 
REMARK    8  A    between atoms: O6_18  and  C10_19 
REMARK    9  A    between atoms: C16_25  and  O7_26 
REMARK   10  A    between atoms: C17_28  and  O8_29 
ROOT
HETATM    1  C6  UNL     1       7.924  -3.452   5.491  1.00  0.00     0.179 C 
HETATM    2  C7  UNL     1       8.784  -3.364   6.727  1.00  0.00     0.203 C 
HETATM    3  O5  UNL     1       9.332  -4.594   7.077  1.00  0.00    -0.378 OA
HETATM    4  C8  UNL     1      10.146  -5.091   6.038  1.00  0.00     0.176 C 
HETATM    5  C16 UNL     1       9.191  -5.540   4.948  1.00  0.00     0.180 C 
HETATM    6  C17 UNL     1       8.502  -4.314   4.418  1.00  0.00     0.180 C 
ENDROOT
BRANCH   1   7
HETATM    7  O4  UNL     1       7.705  -2.153   5.040  1.00  0.00    -0.348 OA
BRANCH   7   8
HETATM    8  C5  UNL     1       6.704  -1.499   5.760  1.00  0.00     0.294 C 
HETATM    9  C4  UNL     1       6.887   0.002   5.712  1.00  0.00     0.202 C 
HETATM   10  C3  UNL     1       5.600   0.748   5.563  1.00  0.00     0.156 C 
HETATM   11  C2  UNL     1       4.711   0.192   4.491  1.00  0.00     0.095 C 
HETATM   12  C1  UNL     1       4.915  -1.291   4.314  1.00  0.00     0.262 C 
HETATM   13  O9  UNL     1       5.435  -1.907   5.429  1.00  0.00    -0.329 OA
BRANCH   9  14
HETATM   14  O3  UNL     1       7.534   0.483   6.852  1.00  0.00    -0.388 OA
ATOM     15  H3  UNL     1       8.232  -0.123   7.070  1.00  0.00     0.210 HD
ENDBRANCH   9  14
BRANCH  10  16
HETATM   16  O2  UNL     1       5.925   2.076   5.230  1.00  0.00    -0.393 OA
ATOM     17  H2  UNL     1       5.624   2.644   5.929  1.00  0.00     0.210 HD
ENDBRANCH  10  16
BRANCH  12  18
HETATM   18  O1  UNL     1       5.632  -1.537   3.152  1.00  0.00    -0.371 OA
ATOM     19  H1  UNL     1       6.169  -0.784   2.934  1.00  0.00     0.212 HD
ENDBRANCH  12  18
ENDBRANCH   7   8
ENDBRANCH   1   7
BRANCH   6  20
HETATM   20  O8  UNL     1       7.438  -4.662   3.553  1.00  0.00    -0.390 OA
ATOM     21  H8  UNL     1       7.768  -5.332   2.966  1.00  0.00     0.210 HD
ENDBRANCH   6  20
BRANCH   5  22
HETATM   22  O7  UNL     1       8.290  -6.435   5.530  1.00  0.00    -0.390 OA
ATOM     23  H7  UNL     1       8.459  -7.290   5.153  1.00  0.00     0.210 HD
ENDBRANCH   5  22
BRANCH   4  24
HETATM   24  C9  UNL     1      10.910  -6.256   6.626  1.00  0.00     0.202 C 
BRANCH  24  25
HETATM   25  O6  UNL     1      12.270  -6.032   6.692  1.00  0.00    -0.383 OA
BRANCH  25  26
HETATM   26  C10 UNL     1      12.544  -5.188   7.732  1.00  0.00     0.121 C 
HETATM   27  C11 UNL     1      12.063  -5.751   9.076  1.00  0.00     0.032 C 
HETATM   28  C12 UNL     1      12.129  -4.597  10.032  1.00  0.00     0.002 C 
HETATM   29  C13 UNL     1      13.367  -3.801   9.975  1.00  0.00     0.000 C 
HETATM   30  C14 UNL     1      14.442  -4.247   9.075  1.00  0.00     0.002 C 
HETATM   31  C15 UNL     1      14.039  -5.045   7.883  1.00  0.00     0.032 C 
ENDBRANCH  25  26
ENDBRANCH  24  25
ENDBRANCH   4  24
TORSDOF 10
ENDMDL
MODEL 3
REMARK VINA RESULT: -7.167087341      1.378      1.753
REMARK  10 active torsions:
REMARK  status: ('A' for Active; 'I' for Inactive)
REMARK    1  A    between atoms: O1_1  and  C1_3 
REMARK    2  A    between atoms: C3_5  and  O2_6 
REMARK    3  A    between atoms: C4_8  and  O3_9 
REMARK    4  A    between atoms: C5_11  and  O4_12 
REMARK    5  A    between atoms: O4_12  and  C6_13 
REMARK    6  A    between atoms: C8_16  and  C9_17 
REMARK    7  A    between atoms: C9_17  and  O6_18 
REMARK    8  A    between atoms: O6_18  and  C10_19 
REMARK    9  A    between atoms: C16_25  and  O7_26 
REMARK   10  A    between atoms: C17_28  and  O8_29 
ROOT
HETATM    1  C6  UNL     1      12.707  -6.492   8.430  1.00  0.00     0.179 C 
HETATM    2  C7  UNL     1      13.371  -5.370   7.671  1.00  0.00     0.203 C 
HETATM    3  O5  UNL     1      13.748  -5.752   6.387  1.00  0.00    -0.378 OA
HETATM    4  C8  UNL     1      12.624  -6.154   5.637  1.00  0.00     0.176 C 
HETATM    5  C16 UNL     1      12.220  -7.505   6.195  1.00  0.00     0.180 C 
HETATM    6  C17 UNL     1      11.751  -7.290   7.606  1.00  0.00     0.180 C 
ENDROOT
BRANCH   1   7
HETATM    7  O4  UNL     1      12.082  -5.933   9.541  1.00  0.00    -0.348 OA
BRANCH   7   8
HETATM    8  C5  UNL     1      12.377  -4.578   9.695  1.00  0.00     0.294 C 
HETATM    9  C4  UNL     1      11.126  -3.773   9.971  1.00  0.00     0.202 C 
HETATM   10  C3  UNL     1      11.328  -2.703  10.994  1.00  0.00     0.156 C 
HETATM   11  C2  UNL     1      12.048  -3.179  12.221  1.00  0.00     0.095 C 
HETATM   12  C1  UNL     1      12.994  -4.310  11.905  1.00  0.00     0.262 C 
HETATM   13  O9  UNL     1      13.392  -4.336  10.588  1.00  0.00    -0.329 OA
BRANCH   9  14
HETATM   14  O3  UNL     1      10.628  -3.173   8.813  1.00  0.00    -0.388 OA
ATOM     15  H3  UNL     1       9.865  -3.665   8.533  1.00  0.00     0.210 HD
ENDBRANCH   9  14
BRANCH  10  16
HETATM   16  O2  UNL     1      10.053  -2.244  11.375  1.00  0.00    -0.393 OA
ATOM     17  H2  UNL     1       9.533  -2.115  10.590  1.00  0.00     0.210 HD
ENDBRANCH  10  16
BRANCH  12  18
HETATM   18  O1  UNL     1      12.466  -5.512  12.354  1.00  0.00    -0.371 OA
ATOM     19  H1  UNL     1      12.650  -6.203  11.729  1.00  0.00     0.212 HD
ENDBRANCH  12  18
ENDBRANCH   7   8
ENDBRANCH   1   7
BRANCH   6  20
HETATM   20  O8  UNL     1      11.564  -8.522   8.274  1.00  0.00    -0.390 OA
ATOM     21  H8  UNL     1      10.663  -8.783   8.122  1.00  0.00     0.210 HD
ENDBRANCH   6  20
BRANCH   5  22
HETATM   22  O7  UNL     1      13.347  -8.330   6.139  1.00  0.00    -0.390 OA
ATOM     23  H7  UNL     1      13.234  -9.006   6.796  1.00  0.00     0.210 HD
ENDBRANCH   5  22
BRANCH   4  24
HETATM   24  C9  UNL     1      13.094  -6.259   4.203  1.00  0.00     0.202 C 
BRANCH  24  25
HETATM   25  O6  UNL     1      12.531  -7.322   3.526  1.00  0.00    -0.383 OA
BRANCH  25  26
HETATM   26  C10 UNL     1      11.896  -6.866   2.405  1.00  0.00     0.121 C 
HETATM   27  C11 UNL     1      10.404  -7.223   2.399  1.00  0.00     0.032 C 
HETATM   28  C12 UNL     1       9.943  -6.959   0.996  1.00  0.00     0.002 C 
HETATM   29  C13 UNL     1      10.390  -5.681   0.416  1.00  0.00     0.000 C 
HETATM   30  C14 UNL     1      11.152  -4.756   1.269  1.00  0.00     0.002 C 
HETATM   31  C15 UNL     1      11.935  -5.356   2.387  1.00  0.00     0.032 C 
ENDBRANCH  25  26
ENDBRANCH  24  25
ENDBRANCH   4  24
TORSDOF 10
ENDMDL
MODEL 4
REMARK VINA RESULT: -7.114917006      1.893      8.421
REMARK  10 active torsions:
REMARK  status: ('A' for Active; 'I' for Inactive)
REMARK    1  A    between atoms: O1_1  and  C1_3 
REMARK    2  A    between atoms: C3_5  and  O2_6 
REMARK    3  A    between atoms: C4_8  and  O3_9 
REMARK    4  A    between atoms: C5_11  and  O4_12 
REMARK    5  A    between atoms: O4_12  and  C6_13 
REMARK    6  A    between atoms: C8_16  and  C9_17 
REMARK    7  A    between atoms: C9_17  and  O6_18 
REMARK    8  A    between atoms: O6_18  and  C10_19 
REMARK    9  A    between atoms: C16_25  and  O7_26 
REMARK   10  A    between atoms: C17_28  and  O8_29 
ROOT
HETATM    1  C6  UNL     1      11.222  -6.483   4.597  1.00  0.00     0.179 C 
HETATM    2  C7  UNL     1      12.601  -6.494   5.209  1.00  0.00     0.203 C 
HETATM    3  O5  UNL     1      12.593  -6.082   6.537  1.00  0.00    -0.378 OA
HETATM    4  C8  UNL     1      11.784  -6.933   7.318  1.00  0.00     0.176 C 
HETATM    5  C16 UNL     1      10.353  -6.600   6.940  1.00  0.00     0.180 C 
HETATM    6  C17 UNL     1      10.159  -7.005   5.506  1.00  0.00     0.180 C 
ENDROOT
BRANCH   1   7
HETATM    7  O4  UNL     1      11.284  -7.211   3.412  1.00  0.00    -0.348 OA
BRANCH   7   8
HETATM    8  C5  UNL     1      11.792  -6.462   2.350  1.00  0.00     0.294 C 
HETATM    9  C4  UNL     1      11.720  -7.234   1.051  1.00  0.00     0.202 C 
HETATM   10  C3  UNL     1      11.320  -6.390  -0.115  1.00  0.00     0.156 C 
HETATM   11  C2  UNL     1      10.131  -5.519   0.161  1.00  0.00     0.095 C 
HETATM   12  C1  UNL     1      10.048  -5.136   1.617  1.00  0.00     0.262 C 
HETATM   13  O9  UNL     1      11.260  -5.198   2.266  1.00  0.00    -0.329 OA
BRANCH   9  14
HETATM   14  O3  UNL     1      12.936  -7.846   0.742  1.00  0.00    -0.388 OA
ATOM     15  H3  UNL     1      13.030  -7.853  -0.203  1.00  0.00     0.210 HD
ENDBRANCH   9  14
BRANCH  10  16
HETATM   16  O2  UNL     1      10.998  -7.263  -1.171  1.00  0.00    -0.393 OA
ATOM     17  H2  UNL     1      11.715  -7.258  -1.795  1.00  0.00     0.210 HD
ENDBRANCH  10  16
BRANCH  12  18
HETATM   18  O1  UNL     1       9.040  -5.857   2.242  1.00  0.00    -0.371 OA
ATOM     19  H1  UNL     1       8.193  -5.480   2.035  1.00  0.00     0.212 HD
ENDBRANCH  12  18
ENDBRANCH   7   8
ENDBRANCH   1   7
BRANCH   6  20
HETATM   20  O8  UNL     1       8.924  -6.531   5.006  1.00  0.00    -0.390 OA
ATOM     21  H8  UNL     1       8.611  -7.180   4.387  1.00  0.00     0.210 HD
ENDBRANCH   6  20
BRANCH   5  22
HETATM   22  O7  UNL     1      10.186  -5.225   7.122  1.00  0.00    -0.390 OA
ATOM     23  H7  UNL     1       9.288  -5.085   7.397  1.00  0.00     0.210 HD
ENDBRANCH   5  22
BRANCH   4  24
HETATM   24  C9  UNL     1      12.077  -6.582   8.760  1.00  0.00     0.202 C 
BRANCH  24  25
HETATM   25  O6  UNL     1      12.618  -5.321   8.909  1.00  0.00    -0.383 OA
BRANCH  25  26
HETATM   26  C10 UNL     1      12.067  -4.715  10.004  1.00  0.00     0.121 C 
HETATM   27  C11 UNL     1      13.132  -4.260  11.010  1.00  0.00     0.032 C 
HETATM   28  C12 UNL     1      12.375  -3.934  12.263  1.00  0.00     0.002 C 
HETATM   29  C13 UNL     1      11.158  -3.126  12.072  1.00  0.00     0.000 C 
HETATM   30  C14 UNL     1      10.847  -2.643  10.718  1.00  0.00     0.002 C 
HETATM   31  C15 UNL     1      11.368  -3.447   9.576  1.00  0.00     0.032 C 
ENDBRANCH  25  26
ENDBRANCH  24  25
ENDBRANCH   4  24
TORSDOF 10
ENDMDL
MODEL 5
REMARK VINA RESULT: -7.079918606      2.273      4.270
REMARK  10 active torsions:
REMARK  status: ('A' for Active; 'I' for Inactive)
REMARK    1  A    between atoms: O1_1  and  C1_3 
REMARK    2  A    between atoms: C3_5  and  O2_6 
REMARK    3  A    between atoms: C4_8  and  O3_9 
REMARK    4  A    between atoms: C5_11  and  O4_12 
REMARK    5  A    between atoms: O4_12  and  C6_13 
REMARK    6  A    between atoms: C8_16  and  C9_17 
REMARK    7  A    between atoms: C9_17  and  O6_18 
REMARK    8  A    between atoms: O6_18  and  C10_19 
REMARK    9  A    between atoms: C16_25  and  O7_26 
REMARK   10  A    between atoms: C17_28  and  O8_29 
ROOT
HETATM    1  C6  UNL     1      12.064  -3.046  11.396  1.00  0.00     0.179 C 
HETATM    2  C7  UNL     1      10.952  -2.769  10.415  1.00  0.00     0.203 C 
HETATM    3  O5  UNL     1      11.234  -3.262   9.145  1.00  0.00    -0.378 OA
HETATM    4  C8  UNL     1      11.418  -4.659   9.182  1.00  0.00     0.176 C 
HETATM    5  C16 UNL     1      12.766  -4.878   9.844  1.00  0.00     0.180 C 
HETATM    6  C17 UNL     1      12.651  -4.413  11.268  1.00  0.00     0.180 C 
ENDROOT
BRANCH   1   7
HETATM    7  O4  UNL     1      11.559  -2.824  12.674  1.00  0.00    -0.348 OA
BRANCH   7   8
HETATM    8  C5  UNL     1      10.366  -3.509  12.904  1.00  0.00     0.294 C 
HETATM    9  C4  UNL     1      10.450  -4.349  14.161  1.00  0.00     0.202 C 
HETATM   10  C3  UNL     1       9.195  -4.324  14.971  1.00  0.00     0.156 C 
HETATM   11  C2  UNL     1       8.646  -2.944  15.177  1.00  0.00     0.095 C 
HETATM   12  C1  UNL     1       8.991  -2.031  14.027  1.00  0.00     0.262 C 
HETATM   13  O9  UNL     1       9.254  -2.706  12.856  1.00  0.00    -0.329 OA
BRANCH   9  14
HETATM   14  O3  UNL     1      10.753  -5.681  13.876  1.00  0.00    -0.388 OA
ATOM     15  H3  UNL     1      10.456  -5.867  12.993  1.00  0.00     0.210 HD
ENDBRANCH   9  14
BRANCH  10  16
HETATM   16  O2  UNL     1       9.500  -4.876  16.229  1.00  0.00    -0.393 OA
ATOM     17  H2  UNL     1       8.962  -5.648  16.358  1.00  0.00     0.210 HD
ENDBRANCH  10  16
BRANCH  12  18
HETATM   18  O1  UNL     1       9.995  -1.150  14.403  1.00  0.00    -0.371 OA
ATOM     19  H1  UNL     1       9.650  -0.502  15.006  1.00  0.00     0.212 HD
ENDBRANCH  12  18
ENDBRANCH   7   8
ENDBRANCH   1   7
BRANCH   6  20
HETATM   20  O8  UNL     1      13.918  -4.376  11.895  1.00  0.00    -0.390 OA
ATOM     21  H8  UNL     1      14.537  -4.760  11.286  1.00  0.00     0.210 HD
ENDBRANCH   6  20
BRANCH   5  22
HETATM   22  O7  UNL     1      13.705  -4.134   9.125  1.00  0.00    -0.390 OA
ATOM     23  H7  UNL     1      13.414  -4.110   8.221  1.00  0.00     0.210 HD
ENDBRANCH   5  22
BRANCH   4  24
HETATM   24  C9  UNL     1      11.422  -5.119   7.741  1.00  0.00     0.202 C 
BRANCH  24  25
HETATM   25  O6  UNL     1      10.212  -5.650   7.340  1.00  0.00    -0.383 OA
BRANCH  25  26
HETATM   26  C10 UNL     1       9.994  -5.347   6.025  1.00  0.00     0.121 C 
HETATM   27  C11 UNL     1       9.833  -6.605   5.161  1.00  0.00     0.032 C 
HETATM   28  C12 UNL     1       9.937  -6.124   3.744  1.00  0.00     0.002 C 
HETATM   29  C13 UNL     1       9.155  -4.916   3.429  1.00  0.00     0.000 C 
HETATM   30  C14 UNL     1       8.289  -4.353   4.477  1.00  0.00     0.002 C 
HETATM   31  C15 UNL     1       8.682  -4.611   5.891  1.00  0.00     0.032 C 
ENDBRANCH  25  26
ENDBRANCH  24  25
ENDBRANCH   4  24
TORSDOF 10
ENDMDL
