MODEL 1
REMARK VINA RESULT: -5.187756846      0.000      0.000
REMARK  10 active torsions:
REMARK  status: ('A' for Active; 'I' for Inactive)
REMARK    1  A    between atoms: C2_2  and  C3_3 
REMARK    2  A    between atoms: C4_4  and  C5_5 
REMARK    3  A    between atoms: C5_5  and  C6_6 
REMARK    4  A    between atoms: C8_8  and  C9_9 
REMARK    5  A    between atoms: C9_9  and  C11_11 
REMARK    6  A    between atoms: C12_12  and  C14_14 
REMARK    7  A    between atoms: C15_15  and  C16_16 
REMARK    8  A    between atoms: C16_16  and  C17_17 
REMARK    9  A    between atoms: C17_17  and  C19_19 
REMARK   10  A    between atoms: C20_22  and  C21_23 
ROOT
HETATM    1  C6  UNL     1      -7.139  15.143 -10.205  1.00  0.00    -0.020 C 
HETATM    2  C7  UNL     1      -6.438  14.234 -11.123  1.00  0.00     0.057 C 
HETATM    3  C8  UNL     1      -7.758  16.203 -10.675  1.00  0.00    -0.004 C 
ENDROOT
BRANCH   1   4
HETATM    4  C5  UNL     1      -7.276  14.941  -8.824  1.00  0.00    -0.122 C 
BRANCH   4   5
HETATM    5  C4  UNL     1      -7.399  14.759  -7.586  1.00  0.00     0.056 C 
HETATM    6  C3  UNL     1      -7.894  15.547  -6.513  1.00  0.00     0.015 C 
BRANCH   6   7
HETATM    7  C2  UNL     1      -8.021  15.140  -5.255  1.00  0.00    -0.061 C 
HETATM    8  C1  UNL     1      -8.114  13.669  -5.061  1.00  0.00     0.048 C 
HETATM    9  C20 UNL     1      -7.818  16.101  -4.212  1.00  0.00     0.013 C 
BRANCH   9  10
HETATM   10  C21 UNL     1      -8.028  15.932  -2.937  1.00  0.00    -0.058 C 
HETATM   11  C22 UNL     1      -7.671  14.578  -2.386  1.00  0.00     0.003 C 
HETATM   12  C23 UNL     1      -8.425  14.164  -1.365  1.00  0.00    -0.026 C 
HETATM   13  C24 UNL     1      -9.531  15.010  -0.841  1.00  0.00     0.031 C 
HETATM   14  C25 UNL     1      -9.257  16.461  -0.819  1.00  0.00    -0.011 C 
HETATM   15  C26 UNL     1     -10.533  17.297  -0.731  1.00  0.00     0.010 C 
HETATM   16  C27 UNL     1      -8.360  16.914  -1.900  1.00  0.00     0.043 C 
ENDBRANCH   9  10
ENDBRANCH   6   7
ENDBRANCH   4   5
ENDBRANCH   1   4
BRANCH   3  17
HETATM   17  C9  UNL     1      -7.905  16.874 -11.995  1.00  0.00     0.028 C 
HETATM   18  C10 UNL     1      -6.634  17.731 -12.102  1.00  0.00     0.018 C 
BRANCH  17  19
HETATM   19  C11 UNL     1      -9.079  17.723 -11.814  1.00  0.00    -0.012 C 
HETATM   20  C12 UNL     1     -10.051  18.344 -12.392  1.00  0.00    -0.065 C 
HETATM   21  C13 UNL     1     -10.299  18.357 -13.862  1.00  0.00     0.048 C 
BRANCH  20  22
HETATM   22  C14 UNL     1     -10.956  19.042 -11.465  1.00  0.00     0.006 C 
HETATM   23  C15 UNL     1     -10.935  19.552 -10.312  1.00  0.00     0.001 C 
BRANCH  23  24
HETATM   24  C16 UNL     1      -9.978  19.716  -9.260  1.00  0.00     0.013 C 
BRANCH  24  25
HETATM   25  C17 UNL     1      -9.340  18.808  -8.571  1.00  0.00     0.015 C 
HETATM   26  C18 UNL     1     -10.072  17.528  -8.220  1.00  0.00     0.055 C 
BRANCH  25  27
HETATM   27  C19 UNL     1      -7.986  18.909  -8.116  1.00  0.00     0.204 C 
HETATM   28  O1  UNL     1      -6.911  18.827  -8.715  1.00  0.00    -0.644 OA
HETATM   29  O2  UNL     1      -7.814  19.157  -6.709  1.00  0.00    -0.644 OA
ENDBRANCH  25  27
ENDBRANCH  24  25
ENDBRANCH  23  24
ENDBRANCH  20  22
ENDBRANCH  17  19
ENDBRANCH   3  17
TORSDOF 10
ENDMDL
MODEL 2
REMARK VINA RESULT: -4.925981067      0.749      1.130
REMARK  10 active torsions:
REMARK  status: ('A' for Active; 'I' for Inactive)
REMARK    1  A    between atoms: C2_2  and  C3_3 
REMARK    2  A    between atoms: C4_4  and  C5_5 
REMARK    3  A    between atoms: C5_5  and  C6_6 
REMARK    4  A    between atoms: C8_8  and  C9_9 
REMARK    5  A    between atoms: C9_9  and  C11_11 
REMARK    6  A    between atoms: C12_12  and  C14_14 
REMARK    7  A    between atoms: C15_15  and  C16_16 
REMARK    8  A    between atoms: C16_16  and  C17_17 
REMARK    9  A    between atoms: C17_17  and  C19_19 
REMARK   10  A    between atoms: C20_22  and  C21_23 
ROOT
HETATM    1  C6  UNL     1      -7.693  15.081  -9.783  1.00  0.00    -0.020 C 
HETATM    2  C7  UNL     1      -7.500  13.851 -10.565  1.00  0.00     0.057 C 
HETATM    3  C8  UNL     1      -8.149  16.167 -10.367  1.00  0.00    -0.004 C 
ENDROOT
BRANCH   1   4
HETATM    4  C5  UNL     1      -7.496  15.192  -8.399  1.00  0.00    -0.122 C 
BRANCH   4   5
HETATM    5  C4  UNL     1      -7.318  15.291  -7.158  1.00  0.00     0.056 C 
HETATM    6  C3  UNL     1      -6.648  16.225  -6.324  1.00  0.00     0.015 C 
BRANCH   6   7
HETATM    7  C2  UNL     1      -6.641  16.204  -4.996  1.00  0.00    -0.061 C 
HETATM    8  C1  UNL     1      -5.340  16.525  -4.354  1.00  0.00     0.048 C 
HETATM    9  C20 UNL     1      -7.901  16.118  -4.318  1.00  0.00     0.013 C 
BRANCH   9  10
HETATM   10  C21 UNL     1      -8.093  15.951  -3.040  1.00  0.00    -0.058 C 
HETATM   11  C22 UNL     1      -7.753  14.590  -2.496  1.00  0.00     0.003 C 
HETATM   12  C23 UNL     1      -8.499  14.190  -1.463  1.00  0.00    -0.026 C 
HETATM   13  C24 UNL     1      -9.579  15.057  -0.919  1.00  0.00     0.031 C 
HETATM   14  C25 UNL     1      -9.276  16.502  -0.901  1.00  0.00    -0.011 C 
HETATM   15  C26 UNL     1     -10.534  17.362  -0.791  1.00  0.00     0.010 C 
HETATM   16  C27 UNL     1      -8.389  16.938  -1.996  1.00  0.00     0.043 C 
ENDBRANCH   9  10
ENDBRANCH   6   7
ENDBRANCH   4   5
ENDBRANCH   1   4
BRANCH   3  17
HETATM   17  C9  UNL     1      -8.485  16.590 -11.753  1.00  0.00     0.028 C 
HETATM   18  C10 UNL     1      -7.186  17.242 -12.252  1.00  0.00     0.018 C 
BRANCH  17  19
HETATM   19  C11 UNL     1      -9.520  17.601 -11.557  1.00  0.00    -0.012 C 
HETATM   20  C12 UNL     1     -10.372  18.386 -12.125  1.00  0.00    -0.065 C 
HETATM   21  C13 UNL     1     -10.580  18.495 -13.597  1.00  0.00     0.048 C 
BRANCH  20  22
HETATM   22  C14 UNL     1     -11.182  19.177 -11.184  1.00  0.00     0.006 C 
HETATM   23  C15 UNL     1     -11.058  19.760 -10.073  1.00  0.00     0.001 C 
BRANCH  23  24
HETATM   24  C16 UNL     1     -10.021  19.956  -9.107  1.00  0.00     0.013 C 
BRANCH  24  25
HETATM   25  C17 UNL     1      -9.413  19.079  -8.354  1.00  0.00     0.015 C 
HETATM   26  C18 UNL     1     -10.174  17.832  -7.948  1.00  0.00     0.055 C 
BRANCH  25  27
HETATM   27  C19 UNL     1      -8.068  19.184  -7.874  1.00  0.00     0.204 C 
HETATM   28  O1  UNL     1      -7.612  19.537  -6.783  1.00  0.00    -0.644 OA
HETATM   29  O2  UNL     1      -7.039  18.813  -8.807  1.00  0.00    -0.644 OA
ENDBRANCH  25  27
ENDBRANCH  24  25
ENDBRANCH  23  24
ENDBRANCH  20  22
ENDBRANCH  17  19
ENDBRANCH   3  17
TORSDOF 10
ENDMDL
MODEL 3
REMARK VINA RESULT: -4.891927399      2.808      7.804
REMARK  10 active torsions:
REMARK  status: ('A' for Active; 'I' for Inactive)
REMARK    1  A    between atoms: C2_2  and  C3_3 
REMARK    2  A    between atoms: C4_4  and  C5_5 
REMARK    3  A    between atoms: C5_5  and  C6_6 
REMARK    4  A    between atoms: C8_8  and  C9_9 
REMARK    5  A    between atoms: C9_9  and  C11_11 
REMARK    6  A    between atoms: C12_12  and  C14_14 
REMARK    7  A    between atoms: C15_15  and  C16_16 
REMARK    8  A    between atoms: C16_16  and  C17_17 
REMARK    9  A    between atoms: C17_17  and  C19_19 
REMARK   10  A    between atoms: C20_22  and  C21_23 
ROOT
HETATM    1  C6  UNL     1      -7.941  14.600  -4.594  1.00  0.00    -0.020 C 
HETATM    2  C7  UNL     1      -8.441  13.873  -3.419  1.00  0.00     0.057 C 
HETATM    3  C8  UNL     1      -7.689  15.888  -4.513  1.00  0.00    -0.004 C 
ENDROOT
BRANCH   1   4
HETATM    4  C5  UNL     1      -7.625  14.012  -5.828  1.00  0.00    -0.122 C 
BRANCH   4   5
HETATM    5  C4  UNL     1      -7.341  13.485  -6.934  1.00  0.00     0.056 C 
HETATM    6  C3  UNL     1      -7.901  13.554  -8.237  1.00  0.00     0.015 C 
BRANCH   6   7
HETATM    7  C2  UNL     1      -7.398  12.975  -9.321  1.00  0.00    -0.061 C 
HETATM    8  C1  UNL     1      -8.262  11.950  -9.963  1.00  0.00     0.048 C 
HETATM    9  C20 UNL     1      -6.216  13.542  -9.900  1.00  0.00     0.013 C 
BRANCH   9  10
HETATM   10  C21 UNL     1      -5.504  13.046 -10.872  1.00  0.00    -0.058 C 
HETATM   11  C22 UNL     1      -5.335  13.926 -12.080  1.00  0.00     0.003 C 
HETATM   12  C23 UNL     1      -5.224  13.279 -13.242  1.00  0.00    -0.026 C 
HETATM   13  C24 UNL     1      -5.269  11.793 -13.297  1.00  0.00     0.031 C 
HETATM   14  C25 UNL     1      -4.606  11.102 -12.172  1.00  0.00    -0.011 C 
HETATM   15  C26 UNL     1      -5.069   9.655 -12.019  1.00  0.00     0.010 C 
HETATM   16  C27 UNL     1      -4.657  11.849 -10.901  1.00  0.00     0.043 C 
ENDBRANCH   9  10
ENDBRANCH   6   7
ENDBRANCH   4   5
ENDBRANCH   1   4
BRANCH   3  17
HETATM   17  C9  UNL     1      -7.859  16.961  -3.497  1.00  0.00     0.028 C 
HETATM   18  C10 UNL     1      -9.272  16.712  -2.948  1.00  0.00     0.018 C 
BRANCH  17  19
HETATM   19  C11 UNL     1      -7.829  18.186  -4.291  1.00  0.00    -0.012 C 
HETATM   20  C12 UNL     1      -8.485  18.965  -5.085  1.00  0.00    -0.065 C 
HETATM   21  C13 UNL     1      -9.887  18.734  -5.538  1.00  0.00     0.048 C 
BRANCH  20  22
HETATM   22  C14 UNL     1      -7.739  20.161  -5.505  1.00  0.00     0.006 C 
HETATM   23  C15 UNL     1      -6.798  20.477  -6.283  1.00  0.00     0.001 C 
BRANCH  23  24
HETATM   24  C16 UNL     1      -5.925  19.800  -7.194  1.00  0.00     0.013 C 
BRANCH  24  25
HETATM   25  C17 UNL     1      -6.091  18.659  -7.807  1.00  0.00     0.015 C 
HETATM   26  C18 UNL     1      -5.581  17.401  -7.132  1.00  0.00     0.055 C 
BRANCH  25  27
HETATM   27  C19 UNL     1      -6.729  18.482  -9.077  1.00  0.00     0.204 C 
HETATM   28  O1  UNL     1      -6.300  18.080 -10.161  1.00  0.00    -0.644 OA
HETATM   29  O2  UNL     1      -8.126  18.822  -9.130  1.00  0.00    -0.644 OA
ENDBRANCH  25  27
ENDBRANCH  24  25
ENDBRANCH  23  24
ENDBRANCH  20  22
ENDBRANCH  17  19
ENDBRANCH   3  17
TORSDOF 10
ENDMDL
MODEL 4
REMARK VINA RESULT: -4.855396393      1.113      1.643
REMARK  10 active torsions:
REMARK  status: ('A' for Active; 'I' for Inactive)
REMARK    1  A    between atoms: C2_2  and  C3_3 
REMARK    2  A    between atoms: C4_4  and  C5_5 
REMARK    3  A    between atoms: C5_5  and  C6_6 
REMARK    4  A    between atoms: C8_8  and  C9_9 
REMARK    5  A    between atoms: C9_9  and  C11_11 
REMARK    6  A    between atoms: C12_12  and  C14_14 
REMARK    7  A    between atoms: C15_15  and  C16_16 
REMARK    8  A    between atoms: C16_16  and  C17_17 
REMARK    9  A    between atoms: C17_17  and  C19_19 
REMARK   10  A    between atoms: C20_22  and  C21_23 
ROOT
HETATM    1  C6  UNL     1      -6.834  15.201 -10.023  1.00  0.00    -0.020 C 
HETATM    2  C7  UNL     1      -6.065  14.243 -10.829  1.00  0.00     0.057 C 
HETATM    3  C8  UNL     1      -7.387  16.248 -10.595  1.00  0.00    -0.004 C 
ENDROOT
BRANCH   1   4
HETATM    4  C5  UNL     1      -7.107  15.062  -8.654  1.00  0.00    -0.122 C 
BRANCH   4   5
HETATM    5  C4  UNL     1      -7.352  14.938  -7.427  1.00  0.00     0.056 C 
HETATM    6  C3  UNL     1      -8.360  14.271  -6.680  1.00  0.00     0.015 C 
BRANCH   6   7
HETATM    7  C2  UNL     1      -8.404  14.184  -5.355  1.00  0.00    -0.061 C 
HETATM    8  C1  UNL     1      -8.672  12.828  -4.808  1.00  0.00     0.048 C 
HETATM    9  C20 UNL     1      -7.963  15.314  -4.591  1.00  0.00     0.013 C 
BRANCH   9  10
HETATM   10  C21 UNL     1      -8.055  15.471  -3.301  1.00  0.00    -0.058 C 
HETATM   11  C22 UNL     1      -7.517  14.346  -2.460  1.00  0.00     0.003 C 
HETATM   12  C23 UNL     1      -8.143  14.158  -1.296  1.00  0.00    -0.026 C 
HETATM   13  C24 UNL     1      -9.288  15.021  -0.897  1.00  0.00     0.031 C 
HETATM   14  C25 UNL     1      -9.167  16.443  -1.277  1.00  0.00    -0.011 C 
HETATM   15  C26 UNL     1     -10.512  17.165  -1.276  1.00  0.00     0.010 C 
HETATM   16  C27 UNL     1      -8.408  16.663  -2.522  1.00  0.00     0.043 C 
ENDBRANCH   9  10
ENDBRANCH   6   7
ENDBRANCH   4   5
ENDBRANCH   1   4
BRANCH   3  17
HETATM   17  C9  UNL     1      -7.395  16.861 -11.950  1.00  0.00     0.028 C 
HETATM   18  C10 UNL     1      -6.486  18.089 -11.790  1.00  0.00     0.018 C 
BRANCH  17  19
HETATM   19  C11 UNL     1      -8.784  17.275 -12.126  1.00  0.00    -0.012 C 
HETATM   20  C12 UNL     1     -10.025  16.970 -11.942  1.00  0.00    -0.065 C 
HETATM   21  C13 UNL     1     -10.506  15.714 -11.300  1.00  0.00     0.048 C 
BRANCH  20  22
HETATM   22  C14 UNL     1     -10.972  18.000 -12.398  1.00  0.00     0.006 C 
HETATM   23  C15 UNL     1     -11.597  18.994 -11.940  1.00  0.00     0.001 C 
BRANCH  23  24
HETATM   24  C16 UNL     1     -11.718  19.659 -10.678  1.00  0.00     0.013 C 
BRANCH  24  25
HETATM   25  C17 UNL     1     -10.785  20.142  -9.902  1.00  0.00     0.015 C 
HETATM   26  C18 UNL     1     -10.520  21.634  -9.940  1.00  0.00     0.055 C 
BRANCH  25  27
HETATM   27  C19 UNL     1      -9.978  19.379  -8.998  1.00  0.00     0.204 C 
HETATM   28  O1  UNL     1      -9.823  18.162  -8.865  1.00  0.00    -0.644 OA
HETATM   29  O2  UNL     1      -9.191  20.139  -8.065  1.00  0.00    -0.644 OA
ENDBRANCH  25  27
ENDBRANCH  24  25
ENDBRANCH  23  24
ENDBRANCH  20  22
ENDBRANCH  17  19
ENDBRANCH   3  17
TORSDOF 10
ENDMDL
MODEL 5
REMARK VINA RESULT: -4.851831075      1.597      8.378
REMARK  10 active torsions:
REMARK  status: ('A' for Active; 'I' for Inactive)
REMARK    1  A    between atoms: C2_2  and  C3_3 
REMARK    2  A    between atoms: C4_4  and  C5_5 
REMARK    3  A    between atoms: C5_5  and  C6_6 
REMARK    4  A    between atoms: C8_8  and  C9_9 
REMARK    5  A    between atoms: C9_9  and  C11_11 
REMARK    6  A    between atoms: C12_12  and  C14_14 
REMARK    7  A    between atoms: C15_15  and  C16_16 
REMARK    8  A    between atoms: C16_16  and  C17_17 
REMARK    9  A    between atoms: C17_17  and  C19_19 
REMARK   10  A    between atoms: C20_22  and  C21_23 
ROOT
HETATM    1  C6  UNL     1      -7.264  13.758  -7.159  1.00  0.00    -0.020 C 
HETATM    2  C7  UNL     1      -6.171  12.780  -7.251  1.00  0.00     0.057 C 
HETATM    3  C8  UNL     1      -7.975  13.847  -6.058  1.00  0.00    -0.004 C 
ENDROOT
BRANCH   1   4
HETATM    4  C5  UNL     1      -7.589  14.694  -8.152  1.00  0.00    -0.122 C 
BRANCH   4   5
HETATM    5  C4  UNL     1      -7.882  15.534  -9.041  1.00  0.00     0.056 C 
HETATM    6  C3  UNL     1      -7.130  16.267  -9.997  1.00  0.00     0.015 C 
BRANCH   6   7
HETATM    7  C2  UNL     1      -7.640  17.064 -10.929  1.00  0.00    -0.061 C 
HETATM    8  C1  UNL     1      -6.690  17.519 -11.978  1.00  0.00     0.048 C 
HETATM    9  C20 UNL     1      -9.065  17.214 -10.981  1.00  0.00     0.013 C 
BRANCH   9  10
HETATM   10  C21 UNL     1      -9.739  18.044 -11.725  1.00  0.00    -0.058 C 
HETATM   11  C22 UNL     1     -10.824  18.820 -11.028  1.00  0.00     0.003 C 
HETATM   12  C23 UNL     1     -11.879  19.126 -11.786  1.00  0.00    -0.026 C 
HETATM   13  C24 UNL     1     -11.940  18.710 -13.214  1.00  0.00     0.031 C 
HETATM   14  C25 UNL     1     -10.656  18.767 -13.941  1.00  0.00    -0.011 C 
HETATM   15  C26 UNL     1     -10.662  17.915 -15.208  1.00  0.00     0.010 C 
HETATM   16  C27 UNL     1      -9.478  18.507 -13.092  1.00  0.00     0.043 C 
ENDBRANCH   9  10
ENDBRANCH   6   7
ENDBRANCH   4   5
ENDBRANCH   1   4
BRANCH   3  17
HETATM   17  C9  UNL     1      -8.066  13.114  -4.766  1.00  0.00     0.028 C 
HETATM   18  C10 UNL     1      -9.310  12.230  -4.944  1.00  0.00     0.018 C 
BRANCH  17  19
HETATM   19  C11 UNL     1      -8.328  14.172  -3.794  1.00  0.00    -0.012 C 
HETATM   20  C12 UNL     1      -8.226  14.545  -2.563  1.00  0.00    -0.065 C 
HETATM   21  C13 UNL     1      -7.625  13.726  -1.472  1.00  0.00     0.048 C 
BRANCH  20  22
HETATM   22  C14 UNL     1      -8.735  15.901  -2.301  1.00  0.00     0.006 C 
HETATM   23  C15 UNL     1      -8.594  17.075  -2.737  1.00  0.00     0.001 C 
BRANCH  23  24
HETATM   24  C16 UNL     1      -7.825  17.726  -3.754  1.00  0.00     0.013 C 
BRANCH  24  25
HETATM   25  C17 UNL     1      -7.765  17.476  -5.035  1.00  0.00     0.015 C 
HETATM   26  C18 UNL     1      -9.057  17.479  -5.828  1.00  0.00     0.055 C 
BRANCH  25  27
HETATM   27  C19 UNL     1      -6.569  17.203  -5.774  1.00  0.00     0.204 C 
HETATM   28  O1  UNL     1      -5.663  16.385  -5.593  1.00  0.00    -0.644 OA
HETATM   29  O2  UNL     1      -6.359  18.006  -6.948  1.00  0.00    -0.644 OA
ENDBRANCH  25  27
ENDBRANCH  24  25
ENDBRANCH  23  24
ENDBRANCH  20  22
ENDBRANCH  17  19
ENDBRANCH   3  17
TORSDOF 10
ENDMDL
