MODEL 1
REMARK VINA RESULT: -7.783935379      0.000      0.000
REMARK  7 active torsions:
REMARK  status: ('A' for Active; 'I' for Inactive)
REMARK    1  A    between atoms: C2_2  and  O1_4 
REMARK    2  A    between atoms: O1_4  and  C4_5 
REMARK    3  A    between atoms: C8_9  and  C9_10 
REMARK    4  A    between atoms: C11_12  and  C18_22 
REMARK    5  A    between atoms: C13_14  and  C14_15 
REMARK    6  A    between atoms: C16_18  and  O3_19 
REMARK    7  A    between atoms: C18_22  and  C25_32 
ROOT
HETATM    1  C18 UNL     1      17.950  -6.141   9.816  1.00  0.00     0.210 C 
HETATM    2  O4  UNL     1      18.817  -5.090   9.694  1.00  0.00    -0.197 OA
HETATM    3  O5  UNL     1      18.606  -4.254  10.675  1.00  0.00    -0.197 OA
HETATM    4  C19 UNL     1      17.784  -4.833  11.609  1.00  0.00     0.200 C 
HETATM    5  C20 UNL     1      18.539  -5.421  12.765  1.00  0.00     0.071 C 
HETATM    6  C21 UNL     1      18.302  -4.632  14.044  1.00  0.00     0.006 C 
HETATM    7  C22 UNL     1      16.858  -4.662  14.468  1.00  0.00     0.000 C 
HETATM    8  C23 UNL     1      15.951  -4.606  13.240  1.00  0.00     0.006 C 
HETATM    9  C24 UNL     1      16.734  -3.909  12.146  1.00  0.00     0.071 C 
HETATM   10  O6  UNL     1      17.145  -5.851  10.911  1.00  0.00    -0.312 OA
ENDROOT
BRANCH   1  11
HETATM   11  C11 UNL     1      18.727  -7.383  10.164  1.00  0.00     0.053 C 
HETATM   12  C10 UNL     1      19.219  -8.127   8.953  1.00  0.00     0.016 C 
HETATM   13  C9  UNL     1      17.873  -8.654   8.423  1.00  0.00    -0.001 C 
HETATM   14  C13 UNL     1      17.178  -9.095   9.670  1.00  0.00     0.025 C 
HETATM   15  C12 UNL     1      17.866  -8.430  10.834  1.00  0.00     0.020 C 
BRANCH  13  16
HETATM   16  C8  UNL     1      17.266  -7.427   7.779  1.00  0.00     0.002 C 
HETATM   17  C7  UNL     1      18.025  -6.910   6.593  1.00  0.00     0.006 C 
HETATM   18  C6  UNL     1      17.580  -5.461   6.443  1.00  0.00     0.003 C 
HETATM   19  C5  UNL     1      16.282  -5.203   7.178  1.00  0.00     0.032 C 
HETATM   20  C4  UNL     1      15.268  -6.304   6.936  1.00  0.00     0.131 C 
HETATM   21  C25 UNL     1      15.831  -7.612   7.417  1.00  0.00     0.085 C 
BRANCH  20  22
HETATM   22  O1  UNL     1      15.057  -6.358   5.585  1.00  0.00    -0.381 OA
BRANCH  22  23
HETATM   23  C2  UNL     1      13.901  -5.947   5.053  1.00  0.00     0.113 C 
HETATM   24  C1  UNL     1      13.794  -4.535   4.592  1.00  0.00     0.039 C 
HETATM   25  C3  UNL     1      13.584  -6.833   3.853  1.00  0.00     0.039 C 
ENDBRANCH  22  23
ENDBRANCH  20  22
ENDBRANCH  13  16
BRANCH  14  26
HETATM   26  C14 UNL     1      17.180 -10.588   9.772  1.00  0.00    -0.026 A 
HETATM   27  C15 UNL     1      17.889 -11.405  10.617  1.00  0.00     0.152 A 
HETATM   28  O2  UNL     1      17.584 -12.676  10.359  1.00  0.00    -0.300 OA
HETATM   29  C16 UNL     1      16.710 -12.743   9.388  1.00  0.00     0.183 A 
HETATM   30  C17 UNL     1      16.428 -11.442   8.988  1.00  0.00     0.073 A 
BRANCH  29  31
HETATM   31  O3  UNL     1      16.163 -13.913   8.853  1.00  0.00    -0.341 OA
ATOM     32  H3  UNL     1      15.589 -14.519   9.306  1.00  0.00     0.220 HD
ENDBRANCH  29  31
ENDBRANCH  14  26
ENDBRANCH   1  11
TORSDOF 7
ENDMDL
MODEL 2
REMARK VINA RESULT: -7.708585046      2.812      6.779
REMARK  7 active torsions:
REMARK  status: ('A' for Active; 'I' for Inactive)
REMARK    1  A    between atoms: C2_2  and  O1_4 
REMARK    2  A    between atoms: O1_4  and  C4_5 
REMARK    3  A    between atoms: C8_9  and  C9_10 
REMARK    4  A    between atoms: C11_12  and  C18_22 
REMARK    5  A    between atoms: C13_14  and  C14_15 
REMARK    6  A    between atoms: C16_18  and  O3_19 
REMARK    7  A    between atoms: C18_22  and  C25_32 
ROOT
HETATM    1  C18 UNL     1      18.949  -4.133   7.743  1.00  0.00     0.210 C 
HETATM    2  O4  UNL     1      19.159  -3.033   8.529  1.00  0.00    -0.197 OA
HETATM    3  O5  UNL     1      20.232  -2.417   8.113  1.00  0.00    -0.197 OA
HETATM    4  C19 UNL     1      20.621  -2.928   6.901  1.00  0.00     0.200 C 
HETATM    5  C20 UNL     1      20.147  -2.102   5.741  1.00  0.00     0.071 C 
HETATM    6  C21 UNL     1      21.305  -1.401   5.047  1.00  0.00     0.006 C 
HETATM    7  C22 UNL     1      22.284  -2.378   4.453  1.00  0.00     0.000 C 
HETATM    8  C23 UNL     1      22.435  -3.590   5.371  1.00  0.00     0.006 C 
HETATM    9  C24 UNL     1      22.101  -3.125   6.773  1.00  0.00     0.071 C 
HETATM   10  O6  UNL     1      20.016  -4.179   6.853  1.00  0.00    -0.312 OA
ENDROOT
BRANCH   1  11
HETATM   11  C11 UNL     1      17.707  -3.920   6.920  1.00  0.00     0.053 C 
HETATM   12  C10 UNL     1      16.442  -4.222   7.677  1.00  0.00     0.016 C 
HETATM   13  C9  UNL     1      16.575  -5.753   7.779  1.00  0.00    -0.001 C 
HETATM   14  C13 UNL     1      17.056  -6.133   6.417  1.00  0.00     0.025 C 
HETATM   15  C12 UNL     1      17.608  -4.892   5.766  1.00  0.00     0.020 C 
BRANCH  13  16
HETATM   16  C8  UNL     1      17.610  -5.924   8.870  1.00  0.00     0.002 C 
HETATM   17  C7  UNL     1      17.101  -5.654  10.255  1.00  0.00     0.006 C 
HETATM   18  C6  UNL     1      18.348  -5.372  11.082  1.00  0.00     0.003 C 
HETATM   19  C5  UNL     1      19.596  -5.886  10.396  1.00  0.00     0.032 C 
HETATM   20  C4  UNL     1      19.396  -7.281   9.834  1.00  0.00     0.131 C 
HETATM   21  C25 UNL     1      18.279  -7.256   8.829  1.00  0.00     0.085 C 
BRANCH  20  22
HETATM   22  O1  UNL     1      19.055  -8.086  10.887  1.00  0.00    -0.381 OA
BRANCH  22  23
HETATM   23  C2  UNL     1      19.528  -9.334  10.980  1.00  0.00     0.113 C 
HETATM   24  C1  UNL     1      18.696 -10.450  10.454  1.00  0.00     0.039 C 
HETATM   25  C3  UNL     1      20.867  -9.394  10.252  1.00  0.00     0.039 C 
ENDBRANCH  22  23
ENDBRANCH  20  22
ENDBRANCH  13  16
BRANCH  14  26
HETATM   26  C14 UNL     1      15.951  -6.760   5.625  1.00  0.00    -0.026 A 
HETATM   27  C15 UNL     1      15.637  -8.086   5.463  1.00  0.00     0.152 A 
HETATM   28  O2  UNL     1      14.571  -8.190   4.669  1.00  0.00    -0.300 OA
HETATM   29  C16 UNL     1      14.165  -7.004   4.298  1.00  0.00     0.183 A 
HETATM   30  C17 UNL     1      15.013  -6.069   4.882  1.00  0.00     0.073 A 
BRANCH  29  31
HETATM   31  O3  UNL     1      13.076  -6.729   3.466  1.00  0.00    -0.341 OA
ATOM     32  H3  UNL     1      12.939  -5.930   2.970  1.00  0.00     0.220 HD
ENDBRANCH  29  31
ENDBRANCH  14  26
ENDBRANCH   1  11
TORSDOF 7
ENDMDL
MODEL 3
REMARK VINA RESULT: -7.489636332      2.806      6.731
REMARK  7 active torsions:
REMARK  status: ('A' for Active; 'I' for Inactive)
REMARK    1  A    between atoms: C2_2  and  O1_4 
REMARK    2  A    between atoms: O1_4  and  C4_5 
REMARK    3  A    between atoms: C8_9  and  C9_10 
REMARK    4  A    between atoms: C11_12  and  C18_22 
REMARK    5  A    between atoms: C13_14  and  C14_15 
REMARK    6  A    between atoms: C16_18  and  O3_19 
REMARK    7  A    between atoms: C18_22  and  C25_32 
ROOT
HETATM    1  C18 UNL     1      18.892  -4.405   7.875  1.00  0.00     0.210 C 
HETATM    2  O4  UNL     1      19.227  -3.653   8.967  1.00  0.00    -0.197 OA
HETATM    3  O5  UNL     1      20.327  -3.000   8.709  1.00  0.00    -0.197 OA
HETATM    4  C19 UNL     1      20.618  -3.093   7.371  1.00  0.00     0.200 C 
HETATM    5  C20 UNL     1      20.163  -1.895   6.591  1.00  0.00     0.071 C 
HETATM    6  C21 UNL     1      21.343  -1.074   6.094  1.00  0.00     0.006 C 
HETATM    7  C22 UNL     1      22.212  -1.849   5.140  1.00  0.00     0.000 C 
HETATM    8  C23 UNL     1      22.303  -3.308   5.586  1.00  0.00     0.006 C 
HETATM    9  C24 UNL     1      22.070  -3.327   7.083  1.00  0.00     0.071 C 
HETATM   10  O6  UNL     1      19.911  -4.213   6.949  1.00  0.00    -0.312 OA
ENDROOT
BRANCH   1  11
HETATM   11  C11 UNL     1      17.636  -3.848   7.259  1.00  0.00     0.053 C 
HETATM   12  C10 UNL     1      16.396  -4.200   8.036  1.00  0.00     0.016 C 
HETATM   13  C9  UNL     1      16.334  -5.708   7.732  1.00  0.00    -0.001 C 
HETATM   14  C13 UNL     1      16.669  -5.766   6.277  1.00  0.00     0.025 C 
HETATM   15  C12 UNL     1      17.334  -4.464   5.912  1.00  0.00     0.020 C 
BRANCH  13  16
HETATM   16  C8  UNL     1      17.408  -6.273   8.636  1.00  0.00     0.002 C 
HETATM   17  C7  UNL     1      17.041  -6.304  10.090  1.00  0.00     0.006 C 
HETATM   18  C6  UNL     1      18.370  -6.392  10.828  1.00  0.00     0.003 C 
HETATM   19  C5  UNL     1      19.481  -6.862   9.914  1.00  0.00     0.032 C 
HETATM   20  C4  UNL     1      19.047  -8.034   9.055  1.00  0.00     0.131 C 
HETATM   21  C25 UNL     1      17.877  -7.621   8.206  1.00  0.00     0.085 C 
BRANCH  20  22
HETATM   22  O1  UNL     1      18.669  -9.033   9.911  1.00  0.00    -0.381 OA
BRANCH  22  23
HETATM   23  C2  UNL     1      19.336 -10.191   9.952  1.00  0.00     0.113 C 
HETATM   24  C1  UNL     1      20.676 -10.217  10.600  1.00  0.00     0.039 C 
HETATM   25  C3  UNL     1      18.471 -11.216  10.677  1.00  0.00     0.039 C 
ENDBRANCH  22  23
ENDBRANCH  20  22
ENDBRANCH  13  16
BRANCH  14  26
HETATM   26  C14 UNL     1      15.442  -6.037   5.466  1.00  0.00    -0.026 A 
HETATM   27  C15 UNL     1      14.500  -5.160   4.987  1.00  0.00     0.152 A 
HETATM   28  O2  UNL     1      13.571  -5.837   4.313  1.00  0.00    -0.300 OA
HETATM   29  C16 UNL     1      13.848  -7.116   4.322  1.00  0.00     0.183 A 
HETATM   30  C17 UNL     1      15.026  -7.284   5.041  1.00  0.00     0.073 A 
BRANCH  29  31
HETATM   31  O3  UNL     1      13.095  -8.125   3.715  1.00  0.00    -0.341 OA
ATOM     32  H3  UNL     1      13.312  -9.050   3.698  1.00  0.00     0.220 HD
ENDBRANCH  29  31
ENDBRANCH  14  26
ENDBRANCH   1  11
TORSDOF 7
ENDMDL
MODEL 4
REMARK VINA RESULT: -7.398256502      3.445      6.047
REMARK  7 active torsions:
REMARK  status: ('A' for Active; 'I' for Inactive)
REMARK    1  A    between atoms: C2_2  and  O1_4 
REMARK    2  A    between atoms: O1_4  and  C4_5 
REMARK    3  A    between atoms: C8_9  and  C9_10 
REMARK    4  A    between atoms: C11_12  and  C18_22 
REMARK    5  A    between atoms: C13_14  and  C14_15 
REMARK    6  A    between atoms: C16_18  and  O3_19 
REMARK    7  A    between atoms: C18_22  and  C25_32 
ROOT
HETATM    1  C18 UNL     1      19.191  -3.723   7.522  1.00  0.00     0.210 C 
HETATM    2  O4  UNL     1      19.998  -4.407   6.654  1.00  0.00    -0.197 OA
HETATM    3  O5  UNL     1      20.720  -3.549   5.985  1.00  0.00    -0.197 OA
HETATM    4  C19 UNL     1      20.607  -2.305   6.553  1.00  0.00     0.200 C 
HETATM    5  C20 UNL     1      21.746  -1.980   7.475  1.00  0.00     0.071 C 
HETATM    6  C21 UNL     1      22.633  -0.887   6.899  1.00  0.00     0.006 C 
HETATM    7  C22 UNL     1      21.892   0.412   6.725  1.00  0.00     0.000 C 
HETATM    8  C23 UNL     1      20.458   0.138   6.274  1.00  0.00     0.006 C 
HETATM    9  C24 UNL     1      20.469  -1.195   5.555  1.00  0.00     0.071 C 
HETATM   10  O6  UNL     1      19.427  -2.374   7.285  1.00  0.00    -0.312 OA
ENDROOT
BRANCH   1  11
HETATM   11  C11 UNL     1      19.638  -4.000   8.933  1.00  0.00     0.053 C 
HETATM   12  C10 UNL     1      19.334  -5.404   9.379  1.00  0.00     0.016 C 
HETATM   13  C9  UNL     1      17.801  -5.307   9.477  1.00  0.00    -0.001 C 
HETATM   14  C13 UNL     1      17.595  -3.972  10.117  1.00  0.00     0.025 C 
HETATM   15  C12 UNL     1      18.870  -3.186   9.949  1.00  0.00     0.020 C 
BRANCH  13  16
HETATM   16  C8  UNL     1      17.372  -5.368   8.027  1.00  0.00     0.002 C 
HETATM   17  C7  UNL     1      17.276  -6.756   7.467  1.00  0.00     0.006 C 
HETATM   18  C6  UNL     1      17.355  -6.576   5.957  1.00  0.00     0.003 C 
HETATM   19  C5  UNL     1      17.046  -5.151   5.553  1.00  0.00     0.032 C 
HETATM   20  C4  UNL     1      15.836  -4.605   6.288  1.00  0.00     0.131 C 
HETATM   21  C25 UNL     1      16.101  -4.631   7.767  1.00  0.00     0.085 C 
BRANCH  20  22
HETATM   22  O1  UNL     1      14.787  -5.432   5.990  1.00  0.00    -0.381 OA
BRANCH  22  23
HETATM   23  C2  UNL     1      13.897  -5.102   5.048  1.00  0.00     0.113 C 
HETATM   24  C1  UNL     1      14.092  -3.828   4.302  1.00  0.00     0.039 C 
HETATM   25  C3  UNL     1      13.855  -6.222   4.015  1.00  0.00     0.039 C 
ENDBRANCH  22  23
ENDBRANCH  20  22
ENDBRANCH  13  16
BRANCH  14  26
HETATM   26  C14 UNL     1      17.200  -4.133  11.551  1.00  0.00    -0.026 A 
HETATM   27  C15 UNL     1      16.467  -5.129  12.149  1.00  0.00     0.152 A 
HETATM   28  O2  UNL     1      16.353  -4.869  13.451  1.00  0.00    -0.300 OA
HETATM   29  C16 UNL     1      16.970  -3.754  13.746  1.00  0.00     0.183 A 
HETATM   30  C17 UNL     1      17.520  -3.256  12.570  1.00  0.00     0.073 A 
BRANCH  29  31
HETATM   31  O3  UNL     1      17.058  -3.172  15.014  1.00  0.00    -0.341 OA
ATOM     32  H3  UNL     1      17.643  -2.468  15.266  1.00  0.00     0.220 HD
ENDBRANCH  29  31
ENDBRANCH  14  26
ENDBRANCH   1  11
TORSDOF 7
ENDMDL
MODEL 5
REMARK VINA RESULT: -7.208889329      1.826      6.839
REMARK  7 active torsions:
REMARK  status: ('A' for Active; 'I' for Inactive)
REMARK    1  A    between atoms: C2_2  and  O1_4 
REMARK    2  A    between atoms: O1_4  and  C4_5 
REMARK    3  A    between atoms: C8_9  and  C9_10 
REMARK    4  A    between atoms: C11_12  and  C18_22 
REMARK    5  A    between atoms: C13_14  and  C14_15 
REMARK    6  A    between atoms: C16_18  and  O3_19 
REMARK    7  A    between atoms: C18_22  and  C25_32 
ROOT
HETATM    1  C18 UNL     1      17.550  -6.079   8.209  1.00  0.00     0.210 C 
HETATM    2  O4  UNL     1      18.318  -6.225   7.086  1.00  0.00    -0.197 OA
HETATM    3  O5  UNL     1      17.561  -6.070   6.034  1.00  0.00    -0.197 OA
HETATM    4  C19 UNL     1      16.339  -5.572   6.411  1.00  0.00     0.200 C 
HETATM    5  C20 UNL     1      16.239  -4.085   6.242  1.00  0.00     0.071 C 
HETATM    6  C21 UNL     1      15.280  -3.716   5.120  1.00  0.00     0.006 C 
HETATM    7  C22 UNL     1      13.873  -4.169   5.406  1.00  0.00     0.000 C 
HETATM    8  C23 UNL     1      13.894  -5.524   6.112  1.00  0.00     0.006 C 
HETATM    9  C24 UNL     1      15.181  -6.212   5.706  1.00  0.00     0.071 C 
HETATM   10  O6  UNL     1      16.248  -5.889   7.762  1.00  0.00    -0.312 OA
ENDROOT
BRANCH   1  11
HETATM   11  C11 UNL     1      17.953  -4.815   8.920  1.00  0.00     0.053 C 
HETATM   12  C10 UNL     1      19.167  -4.993   9.791  1.00  0.00     0.016 C 
HETATM   13  C9  UNL     1      18.554  -5.874  10.895  1.00  0.00    -0.001 C 
HETATM   14  C13 UNL     1      17.224  -5.232  11.128  1.00  0.00     0.025 C 
HETATM   15  C12 UNL     1      16.920  -4.370   9.930  1.00  0.00     0.020 C 
BRANCH  13  16
HETATM   16  C8  UNL     1      18.475  -7.232  10.230  1.00  0.00     0.002 C 
HETATM   17  C7  UNL     1      19.795  -7.933  10.096  1.00  0.00     0.006 C 
HETATM   18  C6  UNL     1      19.582  -8.960   8.993  1.00  0.00     0.003 C 
HETATM   19  C5  UNL     1      18.110  -9.228   8.762  1.00  0.00     0.032 C 
HETATM   20  C4  UNL     1      17.355  -9.395  10.066  1.00  0.00     0.131 C 
HETATM   21  C25 UNL     1      17.486  -8.138  10.880  1.00  0.00     0.085 C 
BRANCH  20  22
HETATM   22  O1  UNL     1      17.939 -10.440  10.729  1.00  0.00    -0.381 OA
BRANCH  22  23
HETATM   23  C2  UNL     1      17.303 -11.609  10.867  1.00  0.00     0.113 C 
HETATM   24  C1  UNL     1      16.060 -11.838  10.080  1.00  0.00     0.039 C 
HETATM   25  C3  UNL     1      18.274 -12.728  10.503  1.00  0.00     0.039 C 
ENDBRANCH  22  23
ENDBRANCH  20  22
ENDBRANCH  13  16
BRANCH  14  26
HETATM   26  C14 UNL     1      17.231  -4.461  12.410  1.00  0.00    -0.026 A 
HETATM   27  C15 UNL     1      17.494  -3.131  12.628  1.00  0.00     0.152 A 
HETATM   28  O2  UNL     1      17.389  -2.870  13.931  1.00  0.00    -0.300 OA
HETATM   29  C16 UNL     1      17.073  -3.957  14.585  1.00  0.00     0.183 A 
HETATM   30  C17 UNL     1      16.963  -4.988  13.659  1.00  0.00     0.073 A 
BRANCH  29  31
HETATM   31  O3  UNL     1      16.880  -4.060  15.966  1.00  0.00    -0.341 OA
ATOM     32  H3  UNL     1      16.900  -4.861  16.476  1.00  0.00     0.220 HD
ENDBRANCH  29  31
ENDBRANCH  14  26
ENDBRANCH   1  11
TORSDOF 7
ENDMDL
