MODEL 1
REMARK VINA RESULT: -8.736706172      0.000      0.000
REMARK  8 active torsions:
REMARK  status: ('A' for Active; 'I' for Inactive)
REMARK    1  A    between atoms: C2_2  and  C4_5 
REMARK    2  A    between atoms: C4_5  and  C22_25 
REMARK    3  A    between atoms: C5_6  and  C6_7 
REMARK    4  A    between atoms: C7_8  and  C8_9 
REMARK    5  A    between atoms: C8_9  and  C10_11 
REMARK    6  A    between atoms: C11_12  and  O1_13 
REMARK    7  A    between atoms: C22_25  and  C23_26 
REMARK    8  A    between atoms: C23_26  and  C25_28 
ROOT
HETATM    1  C1  UNL     1      13.161   2.610  -0.250  1.00  0.00     0.036 C 
HETATM    2  C2  UNL     1      14.101   2.790  -1.146  1.00  0.00     0.042 C 
HETATM    3  C3  UNL     1      15.304   2.036  -1.024  1.00  0.00     0.099 C 
HETATM    4  N1  UNL     1      16.261   1.409  -0.914  1.00  0.00    -0.191 NA
ENDROOT
BRANCH   2   5
HETATM    5  C4  UNL     1      13.934   3.745  -2.240  1.00  0.00    -0.034 C 
HETATM    6  C5  UNL     1      12.912   3.531  -3.097  1.00  0.00     0.009 C 
BRANCH   6   7
HETATM    7  C6  UNL     1      12.620   4.365  -4.207  1.00  0.00     0.001 C 
HETATM    8  C7  UNL     1      12.091   4.150  -5.337  1.00  0.00     0.007 C 
BRANCH   8   9
HETATM    9  C8  UNL     1      11.530   3.045  -6.094  1.00  0.00    -0.059 C 
HETATM   10  C9  UNL     1      10.384   2.579  -5.646  1.00  0.00     0.019 C 
BRANCH   9  11
HETATM   11  C10 UNL     1      12.188   2.474  -7.246  1.00  0.00     0.062 C 
HETATM   12  C11 UNL     1      12.017   0.926  -7.158  1.00  0.00     0.150 C 
HETATM   13  C12 UNL     1      13.226   0.536  -6.418  1.00  0.00     0.009 C 
HETATM   14  C13 UNL     1      14.208   1.446  -6.546  1.00  0.00    -0.064 C 
HETATM   15  C14 UNL     1      15.578   1.450  -5.982  1.00  0.00    -0.024 C 
HETATM   16  C20 UNL     1      13.667   2.516  -7.414  1.00  0.00    -0.010 C 
HETATM   17  C15 UNL     1      16.157   0.080  -6.358  1.00  0.00     0.019 C 
HETATM   18  C16 UNL     1      15.669   1.586  -4.517  1.00  0.00     0.019 C 
HETATM   19  C17 UNL     1      16.441   2.483  -6.699  1.00  0.00     0.013 C 
HETATM   20  C18 UNL     1      15.703   3.783  -6.591  1.00  0.00     0.002 C 
HETATM   21  C19 UNL     1      14.361   3.796  -7.250  1.00  0.00     0.014 C 
HETATM   22  C21 UNL     1      13.894   2.054  -8.904  1.00  0.00     0.021 C 
BRANCH  12  23
HETATM   23  O1  UNL     1      11.912   0.340  -8.381  1.00  0.00    -0.391 OA
ATOM     24  H1  UNL     1      11.970  -0.607  -8.339  1.00  0.00     0.210 HD
ENDBRANCH  12  23
ENDBRANCH   9  11
ENDBRANCH   8   9
ENDBRANCH   6   7
BRANCH   5  25
HETATM   25  C22 UNL     1      14.803   4.932  -2.340  1.00  0.00     0.084 C 
BRANCH  25  26
HETATM   26  C23 UNL     1      14.412   5.910  -1.287  1.00  0.00     0.013 C 
HETATM   27  C24 UNL     1      13.532   6.862  -1.525  1.00  0.00     0.026 C 
BRANCH  26  28
HETATM   28  C25 UNL     1      15.034   5.787   0.033  1.00  0.00     0.204 C 
HETATM   29  O2  UNL     1      14.462   6.198   1.051  1.00  0.00    -0.644 OA
HETATM   30  O3  UNL     1      16.281   5.196   0.109  1.00  0.00    -0.644 OA
ENDBRANCH  26  28
ENDBRANCH  25  26
ENDBRANCH   5  25
ENDBRANCH   2   5
TORSDOF 8
ENDMDL
MODEL 2
REMARK VINA RESULT: -8.679755711      1.078      1.447
REMARK  8 active torsions:
REMARK  status: ('A' for Active; 'I' for Inactive)
REMARK    1  A    between atoms: C2_2  and  C4_5 
REMARK    2  A    between atoms: C4_5  and  C22_25 
REMARK    3  A    between atoms: C5_6  and  C6_7 
REMARK    4  A    between atoms: C7_8  and  C8_9 
REMARK    5  A    between atoms: C8_9  and  C10_11 
REMARK    6  A    between atoms: C11_12  and  O1_13 
REMARK    7  A    between atoms: C22_25  and  C23_26 
REMARK    8  A    between atoms: C23_26  and  C25_28 
ROOT
HETATM    1  C1  UNL     1      16.574   2.747  -3.346  1.00  0.00     0.036 C 
HETATM    2  C2  UNL     1      15.554   2.617  -2.533  1.00  0.00     0.042 C 
HETATM    3  C3  UNL     1      15.682   1.733  -1.422  1.00  0.00     0.099 C 
HETATM    4  N1  UNL     1      15.812   1.026  -0.525  1.00  0.00    -0.191 NA
ENDROOT
BRANCH   2   5
HETATM    5  C4  UNL     1      14.307   3.348  -2.756  1.00  0.00    -0.034 C 
HETATM    6  C5  UNL     1      13.860   3.433  -4.028  1.00  0.00     0.009 C 
BRANCH   6   7
HETATM    7  C6  UNL     1      12.670   4.107  -4.406  1.00  0.00     0.001 C 
HETATM    8  C7  UNL     1      11.679   3.780  -5.122  1.00  0.00     0.007 C 
BRANCH   8   9
HETATM    9  C8  UNL     1      11.216   2.646  -5.903  1.00  0.00    -0.059 C 
HETATM   10  C9  UNL     1      10.544   1.736  -5.231  1.00  0.00     0.019 C 
BRANCH   9  11
HETATM   11  C10 UNL     1      11.489   2.506  -7.314  1.00  0.00     0.062 C 
HETATM   12  C11 UNL     1      11.166   1.031  -7.705  1.00  0.00     0.150 C 
HETATM   13  C12 UNL     1      12.468   0.380  -7.506  1.00  0.00     0.009 C 
HETATM   14  C13 UNL     1      13.485   1.255  -7.591  1.00  0.00    -0.064 C 
HETATM   15  C14 UNL     1      14.944   1.031  -7.462  1.00  0.00    -0.024 C 
HETATM   16  C20 UNL     1      12.872   2.574  -7.864  1.00  0.00    -0.010 C 
HETATM   17  C15 UNL     1      15.245  -0.128  -8.421  1.00  0.00     0.019 C 
HETATM   18  C16 UNL     1      15.419   0.638  -6.124  1.00  0.00     0.019 C 
HETATM   19  C17 UNL     1      15.712   2.233  -8.003  1.00  0.00     0.013 C 
HETATM   20  C18 UNL     1      15.184   3.425  -7.265  1.00  0.00     0.002 C 
HETATM   21  C19 UNL     1      13.729   3.699  -7.481  1.00  0.00     0.014 C 
HETATM   22  C21 UNL     1      12.657   2.665  -9.423  1.00  0.00     0.021 C 
BRANCH  12  23
HETATM   23  O1  UNL     1      10.686   0.918  -8.973  1.00  0.00    -0.391 OA
ATOM     24  H1  UNL     1      11.282   0.457  -9.550  1.00  0.00     0.210 HD
ENDBRANCH  12  23
ENDBRANCH   9  11
ENDBRANCH   8   9
ENDBRANCH   6   7
BRANCH   5  25
HETATM   25  C22 UNL     1      13.540   3.889  -1.619  1.00  0.00     0.084 C 
BRANCH  25  26
HETATM   26  C23 UNL     1      14.126   5.198  -1.217  1.00  0.00     0.013 C 
HETATM   27  C24 UNL     1      13.892   6.297  -1.906  1.00  0.00     0.026 C 
BRANCH  26  28
HETATM   28  C25 UNL     1      14.975   5.235  -0.024  1.00  0.00     0.204 C 
HETATM   29  O2  UNL     1      14.521   5.583   1.074  1.00  0.00    -0.644 OA
HETATM   30  O3  UNL     1      16.300   4.869  -0.160  1.00  0.00    -0.644 OA
ENDBRANCH  26  28
ENDBRANCH  25  26
ENDBRANCH   5  25
ENDBRANCH   2   5
TORSDOF 8
ENDMDL
MODEL 3
REMARK VINA RESULT: -8.508812923      1.841      2.768
REMARK  8 active torsions:
REMARK  status: ('A' for Active; 'I' for Inactive)
REMARK    1  A    between atoms: C2_2  and  C4_5 
REMARK    2  A    between atoms: C4_5  and  C22_25 
REMARK    3  A    between atoms: C5_6  and  C6_7 
REMARK    4  A    between atoms: C7_8  and  C8_9 
REMARK    5  A    between atoms: C8_9  and  C10_11 
REMARK    6  A    between atoms: C11_12  and  O1_13 
REMARK    7  A    between atoms: C22_25  and  C23_26 
REMARK    8  A    between atoms: C23_26  and  C25_28 
ROOT
HETATM    1  C1  UNL     1      13.406   2.800  -0.499  1.00  0.00     0.036 C 
HETATM    2  C2  UNL     1      14.032   3.824  -1.028  1.00  0.00     0.042 C 
HETATM    3  C3  UNL     1      14.499   4.853  -0.160  1.00  0.00     0.099 C 
HETATM    4  N1  UNL     1      14.879   5.665   0.559  1.00  0.00    -0.191 NA
ENDROOT
BRANCH   2   5
HETATM    5  C4  UNL     1      14.242   3.921  -2.471  1.00  0.00    -0.034 C 
HETATM    6  C5  UNL     1      13.143   4.014  -3.251  1.00  0.00     0.009 C 
BRANCH   6   7
HETATM    7  C6  UNL     1      13.181   4.114  -4.666  1.00  0.00     0.001 C 
HETATM    8  C7  UNL     1      12.480   3.607  -5.590  1.00  0.00     0.007 C 
BRANCH   8   9
HETATM    9  C8  UNL     1      11.345   2.713  -5.742  1.00  0.00    -0.059 C 
HETATM   10  C9  UNL     1      10.176   3.229  -5.430  1.00  0.00     0.019 C 
BRANCH   9  11
HETATM   11  C10 UNL     1      11.483   1.344  -6.181  1.00  0.00     0.062 C 
HETATM   12  C11 UNL     1      12.093   0.535  -4.995  1.00  0.00     0.150 C 
HETATM   13  C12 UNL     1      13.532   0.647  -5.270  1.00  0.00     0.009 C 
HETATM   14  C13 UNL     1      13.778   0.888  -6.569  1.00  0.00    -0.064 C 
HETATM   15  C14 UNL     1      15.069   1.063  -7.275  1.00  0.00    -0.024 C 
HETATM   16  C20 UNL     1      12.457   0.945  -7.235  1.00  0.00    -0.010 C 
HETATM   17  C15 UNL     1      15.906  -0.153  -6.858  1.00  0.00     0.019 C 
HETATM   18  C16 UNL     1      15.834   2.273  -6.926  1.00  0.00     0.019 C 
HETATM   19  C17 UNL     1      14.868   0.938  -8.781  1.00  0.00     0.013 C 
HETATM   20  C18 UNL     1      13.807   1.934  -9.139  1.00  0.00     0.002 C 
HETATM   21  C19 UNL     1      12.479   1.690  -8.495  1.00  0.00     0.014 C 
HETATM   22  C21 UNL     1      12.056  -0.540  -7.581  1.00  0.00     0.021 C 
BRANCH  12  23
HETATM   23  O1  UNL     1      11.642  -0.747  -4.949  1.00  0.00    -0.391 OA
ATOM     24  H1  UNL     1      10.695  -0.804  -4.982  1.00  0.00     0.210 HD
ENDBRANCH  12  23
ENDBRANCH   9  11
ENDBRANCH   8   9
ENDBRANCH   6   7
BRANCH   5  25
HETATM   25  C22 UNL     1      15.605   3.999  -3.028  1.00  0.00     0.084 C 
BRANCH  25  26
HETATM   26  C23 UNL     1      16.342   2.751  -2.687  1.00  0.00     0.013 C 
HETATM   27  C24 UNL     1      16.283   1.684  -3.459  1.00  0.00     0.026 C 
BRANCH  26  28
HETATM   28  C25 UNL     1      17.142   2.736  -1.460  1.00  0.00     0.204 C 
HETATM   29  O2  UNL     1      17.688   3.764  -1.040  1.00  0.00    -0.644 OA
HETATM   30  O3  UNL     1      17.267   1.538  -0.782  1.00  0.00    -0.644 OA
ENDBRANCH  26  28
ENDBRANCH  25  26
ENDBRANCH   5  25
ENDBRANCH   2   5
TORSDOF 8
ENDMDL
MODEL 4
REMARK VINA RESULT: -8.306506004      1.691      2.565
REMARK  8 active torsions:
REMARK  status: ('A' for Active; 'I' for Inactive)
REMARK    1  A    between atoms: C2_2  and  C4_5 
REMARK    2  A    between atoms: C4_5  and  C22_25 
REMARK    3  A    between atoms: C5_6  and  C6_7 
REMARK    4  A    between atoms: C7_8  and  C8_9 
REMARK    5  A    between atoms: C8_9  and  C10_11 
REMARK    6  A    between atoms: C11_12  and  O1_13 
REMARK    7  A    between atoms: C22_25  and  C23_26 
REMARK    8  A    between atoms: C23_26  and  C25_28 
ROOT
HETATM    1  C1  UNL     1      13.564   5.883  -2.365  1.00  0.00     0.036 C 
HETATM    2  C2  UNL     1      14.024   4.847  -1.707  1.00  0.00     0.042 C 
HETATM    3  C3  UNL     1      14.584   5.060  -0.414  1.00  0.00     0.099 C 
HETATM    4  N1  UNL     1      15.019   5.253   0.632  1.00  0.00    -0.191 NA
ENDROOT
BRANCH   2   5
HETATM    5  C4  UNL     1      13.978   3.503  -2.280  1.00  0.00    -0.034 C 
HETATM    6  C5  UNL     1      13.157   3.309  -3.335  1.00  0.00     0.009 C 
BRANCH   6   7
HETATM    7  C6  UNL     1      13.001   2.064  -4.000  1.00  0.00     0.001 C 
HETATM    8  C7  UNL     1      12.336   1.701  -5.013  1.00  0.00     0.007 C 
BRANCH   8   9
HETATM    9  C8  UNL     1      11.430   2.273  -5.994  1.00  0.00    -0.059 C 
HETATM   10  C9  UNL     1      10.250   2.625  -5.533  1.00  0.00     0.019 C 
BRANCH   9  11
HETATM   11  C10 UNL     1      11.782   2.426  -7.387  1.00  0.00     0.062 C 
HETATM   12  C11 UNL     1      11.583   1.039  -8.071  1.00  0.00     0.150 C 
HETATM   13  C12 UNL     1      12.916   0.439  -7.918  1.00  0.00     0.009 C 
HETATM   14  C13 UNL     1      13.872   1.373  -7.771  1.00  0.00    -0.064 C 
HETATM   15  C14 UNL     1      15.335   1.215  -7.598  1.00  0.00    -0.024 C 
HETATM   16  C20 UNL     1      13.182   2.681  -7.826  1.00  0.00    -0.010 C 
HETATM   17  C15 UNL     1      15.763   0.284  -8.739  1.00  0.00     0.019 C 
HETATM   18  C16 UNL     1      15.769   0.599  -6.331  1.00  0.00     0.019 C 
HETATM   19  C17 UNL     1      16.042   2.542  -7.851  1.00  0.00     0.013 C 
HETATM   20  C18 UNL     1      15.396   3.536  -6.934  1.00  0.00     0.002 C 
HETATM   21  C19 UNL     1      13.938   3.759  -7.183  1.00  0.00     0.014 C 
HETATM   22  C21 UNL     1      13.039   3.060  -9.349  1.00  0.00     0.021 C 
BRANCH  12  23
HETATM   23  O1  UNL     1      11.175   1.145  -9.364  1.00  0.00    -0.391 OA
ATOM     24  H1  UNL     1      11.397   0.381  -9.882  1.00  0.00     0.210 HD
ENDBRANCH  12  23
ENDBRANCH   9  11
ENDBRANCH   8   9
ENDBRANCH   6   7
BRANCH   5  25
HETATM   25  C22 UNL     1      14.861   2.438  -1.769  1.00  0.00     0.084 C 
BRANCH  25  26
HETATM   26  C23 UNL     1      16.236   2.650  -2.299  1.00  0.00     0.013 C 
HETATM   27  C24 UNL     1      16.465   2.769  -3.591  1.00  0.00     0.026 C 
BRANCH  26  28
HETATM   28  C25 UNL     1      17.340   2.725  -1.339  1.00  0.00     0.204 C 
HETATM   29  O2  UNL     1      17.740   3.815  -0.909  1.00  0.00    -0.644 OA
HETATM   30  O3  UNL     1      17.922   1.542  -0.926  1.00  0.00    -0.644 OA
ENDBRANCH  26  28
ENDBRANCH  25  26
ENDBRANCH   5  25
ENDBRANCH   2   5
TORSDOF 8
ENDMDL
MODEL 5
REMARK VINA RESULT: -8.300705157      1.504      2.125
REMARK  8 active torsions:
REMARK  status: ('A' for Active; 'I' for Inactive)
REMARK    1  A    between atoms: C2_2  and  C4_5 
REMARK    2  A    between atoms: C4_5  and  C22_25 
REMARK    3  A    between atoms: C5_6  and  C6_7 
REMARK    4  A    between atoms: C7_8  and  C8_9 
REMARK    5  A    between atoms: C8_9  and  C10_11 
REMARK    6  A    between atoms: C11_12  and  O1_13 
REMARK    7  A    between atoms: C22_25  and  C23_26 
REMARK    8  A    between atoms: C23_26  and  C25_28 
ROOT
HETATM    1  C1  UNL     1      16.494   3.250  -3.977  1.00  0.00     0.036 C 
HETATM    2  C2  UNL     1      15.922   2.605  -2.991  1.00  0.00     0.042 C 
HETATM    3  C3  UNL     1      16.730   2.193  -1.891  1.00  0.00     0.099 C 
HETATM    4  N1  UNL     1      17.398   1.883  -1.009  1.00  0.00    -0.191 NA
ENDROOT
BRANCH   2   5
HETATM    5  C4  UNL     1      14.492   2.300  -3.012  1.00  0.00    -0.034 C 
HETATM    6  C5  UNL     1      14.041   1.522  -4.020  1.00  0.00     0.009 C 
BRANCH   6   7
HETATM    7  C6  UNL     1      12.683   1.139  -4.179  1.00  0.00     0.001 C 
HETATM    8  C7  UNL     1      11.738   1.580  -4.896  1.00  0.00     0.007 C 
BRANCH   8   9
HETATM    9  C8  UNL     1      11.496   2.627  -5.873  1.00  0.00    -0.059 C 
HETATM   10  C9  UNL     1      11.124   3.787  -5.375  1.00  0.00     0.019 C 
BRANCH   9  11
HETATM   11  C10 UNL     1      11.629   2.415  -7.295  1.00  0.00     0.062 C 
HETATM   12  C11 UNL     1      11.056   0.998  -7.607  1.00  0.00     0.150 C 
HETATM   13  C12 UNL     1      12.256   0.159  -7.486  1.00  0.00     0.009 C 
HETATM   14  C13 UNL     1      13.384   0.866  -7.680  1.00  0.00    -0.064 C 
HETATM   15  C14 UNL     1      14.798   0.424  -7.656  1.00  0.00    -0.024 C 
HETATM   16  C20 UNL     1      12.957   2.257  -7.951  1.00  0.00    -0.010 C 
HETATM   17  C15 UNL     1      14.840  -0.790  -8.593  1.00  0.00     0.019 C 
HETATM   18  C16 UNL     1      15.315  -0.006  -6.345  1.00  0.00     0.019 C 
HETATM   19  C17 UNL     1      15.692   1.480  -8.297  1.00  0.00     0.013 C 
HETATM   20  C18 UNL     1      15.412   2.757  -7.563  1.00  0.00     0.002 C 
HETATM   21  C19 UNL     1      14.002   3.245  -7.676  1.00  0.00     0.014 C 
HETATM   22  C21 UNL     1      12.632   2.343  -9.491  1.00  0.00     0.021 C 
BRANCH  12  23
HETATM   23  O1  UNL     1      10.463   0.931  -8.829  1.00  0.00    -0.391 OA
ATOM     24  H1  UNL     1      10.765   0.191  -9.343  1.00  0.00     0.210 HD
ENDBRANCH  12  23
ENDBRANCH   9  11
ENDBRANCH   8   9
ENDBRANCH   6   7
BRANCH   5  25
HETATM   25  C22 UNL     1      13.610   2.760  -1.924  1.00  0.00     0.084 C 
BRANCH  25  26
HETATM   26  C23 UNL     1      13.551   4.248  -1.943  1.00  0.00     0.013 C 
HETATM   27  C24 UNL     1      12.863   4.899  -2.859  1.00  0.00     0.026 C 
BRANCH  26  28
HETATM   28  C25 UNL     1      14.284   4.980  -0.907  1.00  0.00     0.204 C 
HETATM   29  O2  UNL     1      14.870   4.382   0.005  1.00  0.00    -0.644 OA
HETATM   30  O3  UNL     1      14.304   6.359  -0.979  1.00  0.00    -0.644 OA
ENDBRANCH  26  28
ENDBRANCH  25  26
ENDBRANCH   5  25
ENDBRANCH   2   5
TORSDOF 8
ENDMDL
