MODEL 1
REMARK VINA RESULT: -10.717575928      0.000      0.000
REMARK  5 active torsions:
REMARK  status: ('A' for Active; 'I' for Inactive)
REMARK    1  A    between atoms: C3_3  and  O1_4 
REMARK    2  A    between atoms: C14_17  and  C15_18 
REMARK    3  A    between atoms: C15_18  and  C16_20 
REMARK    4  A    between atoms: C16_20  and  C17_22 
REMARK    5  A    between atoms: C17_22  and  N1_24 
ROOT
HETATM    1  C1  UNL     1      11.604  -1.326  -7.728  1.00  0.00     0.015 C 
HETATM    2  C2  UNL     1      12.361  -0.503  -7.274  1.00  0.00    -0.079 C 
HETATM    3  C3  UNL     1      13.271   0.521  -6.707  1.00  0.00     0.120 C 
HETATM    4  C4  UNL     1      12.966   0.570  -5.226  1.00  0.00     0.053 C 
HETATM    5  C5  UNL     1      12.017   1.724  -5.022  1.00  0.00     0.030 C 
HETATM    6  C6  UNL     1      12.722   3.069  -5.256  1.00  0.00     0.045 C 
HETATM    7 CL1  UNL     1      11.378   4.277  -5.214  1.00  0.00    -0.118 Cl
HETATM    8  C7  UNL     1      13.387   3.032  -6.574  1.00  0.00     0.013 C 
HETATM    9  C8  UNL     1      14.846   3.221  -6.635  1.00  0.00     0.007 C 
HETATM   10  C9  UNL     1      15.581   3.278  -5.344  1.00  0.00     0.006 C 
HETATM   11  C10 UNL     1      14.767   4.175  -4.402  1.00  0.00    -0.004 C 
HETATM   12  C11 UNL     1      15.584   4.539  -3.225  1.00  0.00    -0.001 C 
HETATM   13  C12 UNL     1      16.367   3.388  -2.640  1.00  0.00     0.006 C 
HETATM   14  C13 UNL     1      16.384   3.606  -1.120  1.00  0.00     0.014 C 
HETATM   15  C14 UNL     1      15.882   5.019  -0.993  1.00  0.00     0.072 C 
HETATM   16  C19 UNL     1      14.792   5.038  -2.034  1.00  0.00    -0.029 C 
HETATM   17  C20 UNL     1      14.321   6.453  -2.247  1.00  0.00     0.016 C 
HETATM   18  C21 UNL     1      13.615   4.177  -1.729  1.00  0.00     0.011 C 
HETATM   19  C22 UNL     1      12.784   4.074  -3.018  1.00  0.00     0.007 C 
HETATM   20  C23 UNL     1      13.563   3.323  -4.067  1.00  0.00     0.014 C 
HETATM   21  C24 UNL     1      12.970   1.804  -7.403  1.00  0.00     0.058 C 
ENDROOT
BRANCH   3  22
HETATM   22  O1  UNL     1      14.562   0.046  -6.932  1.00  0.00    -0.378 OA
ATOM     23  H1  UNL     1      15.054   0.786  -7.266  1.00  0.00     0.211 HD
ENDBRANCH   3  22
BRANCH  15  24
HETATM   24  C15 UNL     1      15.478   5.409   0.349  1.00  0.00     0.201 C 
HETATM   25  O2  UNL     1      14.472   4.924   0.955  1.00  0.00    -0.289 OA
BRANCH  24  26
HETATM   26  C16 UNL     1      16.247   6.403   1.063  1.00  0.00     0.225 C 
HETATM   27  O3  UNL     1      17.485   6.527   0.752  1.00  0.00    -0.287 OA
BRANCH  26  28
HETATM   28  C17 UNL     1      15.729   7.297   2.129  1.00  0.00     0.256 C 
HETATM   29  C18 UNL     1      14.720   8.270   1.496  1.00  0.00     0.048 C 
BRANCH  28  30
HETATM   30  N1  UNL     1      16.704   7.984   2.885  1.00  0.00    -0.068 N 
ATOM     31  H13 UNL     1      17.586   7.473   2.858  1.00  0.00     0.275 HD
ATOM     32  H12 UNL     1      16.974   8.842   2.404  1.00  0.00     0.275 HD
ATOM     33  H11 UNL     1      16.452   8.192   3.851  1.00  0.00     0.275 HD
ENDBRANCH  28  30
ENDBRANCH  26  28
ENDBRANCH  24  26
ENDBRANCH  15  24
TORSDOF 5
ENDMDL
MODEL 2
REMARK VINA RESULT: -10.261268495      1.957      3.066
REMARK  5 active torsions:
REMARK  status: ('A' for Active; 'I' for Inactive)
REMARK    1  A    between atoms: C3_3  and  O1_4 
REMARK    2  A    between atoms: C14_17  and  C15_18 
REMARK    3  A    between atoms: C15_18  and  C16_20 
REMARK    4  A    between atoms: C16_20  and  C17_22 
REMARK    5  A    between atoms: C17_22  and  N1_24 
ROOT
HETATM    1  C1  UNL     1      12.479   2.849 -10.779  1.00  0.00     0.015 C 
HETATM    2  C2  UNL     1      12.630   2.588  -9.611  1.00  0.00    -0.079 C 
HETATM    3  C3  UNL     1      12.841   2.272  -8.178  1.00  0.00     0.120 C 
HETATM    4  C4  UNL     1      13.360   3.546  -7.547  1.00  0.00     0.053 C 
HETATM    5  C5  UNL     1      14.862   3.416  -7.493  1.00  0.00     0.030 C 
HETATM    6  C6  UNL     1      15.289   2.348  -6.475  1.00  0.00     0.045 C 
HETATM    7 CL1  UNL     1      17.068   2.175  -6.748  1.00  0.00    -0.118 Cl
HETATM    8  C7  UNL     1      14.564   1.096  -6.769  1.00  0.00     0.013 C 
HETATM    9  C8  UNL     1      13.692   0.523  -5.730  1.00  0.00     0.007 C 
HETATM   10  C9  UNL     1      13.473   1.332  -4.502  1.00  0.00     0.006 C 
HETATM   11  C10 UNL     1      14.839   1.892  -4.082  1.00  0.00    -0.004 C 
HETATM   12  C11 UNL     1      14.760   2.431  -2.708  1.00  0.00    -0.001 C 
HETATM   13  C12 UNL     1      13.521   3.252  -2.440  1.00  0.00     0.006 C 
HETATM   14  C13 UNL     1      13.948   4.378  -1.487  1.00  0.00     0.014 C 
HETATM   15  C14 UNL     1      15.314   3.925  -1.046  1.00  0.00     0.072 C 
HETATM   16  C19 UNL     1      15.876   3.387  -2.337  1.00  0.00    -0.029 C 
HETATM   17  C20 UNL     1      17.158   2.646  -2.061  1.00  0.00     0.016 C 
HETATM   18  C21 UNL     1      16.125   4.410  -3.391  1.00  0.00     0.011 C 
HETATM   19  C22 UNL     1      16.377   3.654  -4.705  1.00  0.00     0.007 C 
HETATM   20  C23 UNL     1      15.119   2.944  -5.133  1.00  0.00     0.014 C 
HETATM   21  C24 UNL     1      13.824   1.154  -8.118  1.00  0.00     0.058 C 
ENDROOT
BRANCH   3  22
HETATM   22  O1  UNL     1      11.583   1.947  -7.674  1.00  0.00    -0.378 OA
ATOM     23  H1  UNL     1      11.500   2.428  -6.859  1.00  0.00     0.211 HD
ENDBRANCH   3  22
BRANCH  15  24
HETATM   24  C15 UNL     1      16.116   4.944  -0.387  1.00  0.00     0.201 C 
HETATM   25  O2  UNL     1      17.363   4.833  -0.170  1.00  0.00    -0.289 OA
BRANCH  24  26
HETATM   26  C16 UNL     1      15.487   6.167   0.060  1.00  0.00     0.225 C 
HETATM   27  O3  UNL     1      14.868   6.866  -0.818  1.00  0.00    -0.287 OA
BRANCH  26  28
HETATM   28  C17 UNL     1      15.494   6.685   1.450  1.00  0.00     0.256 C 
HETATM   29  C18 UNL     1      14.661   7.978   1.489  1.00  0.00     0.048 C 
BRANCH  28  30
HETATM   30  N1  UNL     1      16.768   6.875   2.030  1.00  0.00    -0.068 N 
ATOM     31  H13 UNL     1      17.136   5.982   2.356  1.00  0.00     0.275 HD
ATOM     32  H12 UNL     1      17.449   7.100   1.304  1.00  0.00     0.275 HD
ATOM     33  H11 UNL     1      16.818   7.566   2.779  1.00  0.00     0.275 HD
ENDBRANCH  28  30
ENDBRANCH  26  28
ENDBRANCH  24  26
ENDBRANCH  15  24
TORSDOF 5
ENDMDL
MODEL 3
REMARK VINA RESULT: -10.094368227      1.907      3.074
REMARK  5 active torsions:
REMARK  status: ('A' for Active; 'I' for Inactive)
REMARK    1  A    between atoms: C3_3  and  O1_4 
REMARK    2  A    between atoms: C14_17  and  C15_18 
REMARK    3  A    between atoms: C15_18  and  C16_20 
REMARK    4  A    between atoms: C16_20  and  C17_22 
REMARK    5  A    between atoms: C17_22  and  N1_24 
ROOT
HETATM    1  C1  UNL     1      14.474   2.529 -10.481  1.00  0.00     0.015 C 
HETATM    2  C2  UNL     1      14.127   2.633  -9.330  1.00  0.00    -0.079 C 
HETATM    3  C3  UNL     1      13.724   2.752  -7.908  1.00  0.00     0.120 C 
HETATM    4  C4  UNL     1      14.741   3.670  -7.266  1.00  0.00     0.053 C 
HETATM    5  C5  UNL     1      15.760   2.782  -6.598  1.00  0.00     0.030 C 
HETATM    6  C6  UNL     1      15.155   2.062  -5.383  1.00  0.00     0.045 C 
HETATM    7 CL1  UNL     1      16.436   0.883  -4.895  1.00  0.00    -0.118 Cl
HETATM    8  C7  UNL     1      13.914   1.383  -5.804  1.00  0.00     0.013 C 
HETATM    9  C8  UNL     1      12.648   1.751  -5.148  1.00  0.00     0.007 C 
HETATM   10  C9  UNL     1      12.677   2.904  -4.210  1.00  0.00     0.006 C 
HETATM   11  C10 UNL     1      13.932   2.745  -3.340  1.00  0.00    -0.004 C 
HETATM   12  C11 UNL     1      13.860   3.662  -2.183  1.00  0.00    -0.001 C 
HETATM   13  C12 UNL     1      13.384   5.053  -2.529  1.00  0.00     0.006 C 
HETATM   14  C13 UNL     1      14.159   6.014  -1.615  1.00  0.00     0.014 C 
HETATM   15  C14 UNL     1      14.779   5.076  -0.615  1.00  0.00     0.072 C 
HETATM   16  C19 UNL     1      15.188   3.928  -1.502  1.00  0.00    -0.029 C 
HETATM   17  C20 UNL     1      15.607   2.758  -0.652  1.00  0.00     0.016 C 
HETATM   18  C21 UNL     1      16.275   4.238  -2.472  1.00  0.00     0.011 C 
HETATM   19  C22 UNL     1      16.325   3.080  -3.481  1.00  0.00     0.007 C 
HETATM   20  C23 UNL     1      15.059   3.062  -4.299  1.00  0.00     0.014 C 
HETATM   21  C24 UNL     1      13.744   1.376  -7.334  1.00  0.00     0.058 C 
ENDROOT
BRANCH   3  22
HETATM   22  O1  UNL     1      12.462   3.341  -7.921  1.00  0.00    -0.378 OA
ATOM     23  H1  UNL     1      11.938   2.815  -8.513  1.00  0.00     0.211 HD
ENDBRANCH   3  22
BRANCH  15  24
HETATM   24  C15 UNL     1      15.839   5.656   0.195  1.00  0.00     0.201 C 
HETATM   25  O2  UNL     1      17.065   5.336   0.091  1.00  0.00    -0.289 OA
BRANCH  24  26
HETATM   26  C16 UNL     1      15.513   6.657   1.185  1.00  0.00     0.225 C 
HETATM   27  O3  UNL     1      14.324   7.136   1.170  1.00  0.00    -0.287 OA
BRANCH  26  28
HETATM   28  C17 UNL     1      16.436   7.183   2.221  1.00  0.00     0.256 C 
HETATM   29  C18 UNL     1      15.715   8.304   2.989  1.00  0.00     0.048 C 
BRANCH  28  30
HETATM   30  N1  UNL     1      17.702   7.605   1.760  1.00  0.00    -0.068 N 
ATOM     31  H13 UNL     1      18.164   6.842   1.267  1.00  0.00     0.275 HD
ATOM     32  H12 UNL     1      17.588   8.273   0.998  1.00  0.00     0.275 HD
ATOM     33  H11 UNL     1      18.328   7.990   2.468  1.00  0.00     0.275 HD
ENDBRANCH  28  30
ENDBRANCH  26  28
ENDBRANCH  24  26
ENDBRANCH  15  24
TORSDOF 5
ENDMDL
MODEL 4
REMARK VINA RESULT: -9.794152739      1.209      1.355
REMARK  5 active torsions:
REMARK  status: ('A' for Active; 'I' for Inactive)
REMARK    1  A    between atoms: C3_3  and  O1_4 
REMARK    2  A    between atoms: C14_17  and  C15_18 
REMARK    3  A    between atoms: C15_18  and  C16_20 
REMARK    4  A    between atoms: C16_20  and  C17_22 
REMARK    5  A    between atoms: C17_22  and  N1_24 
ROOT
HETATM    1  C1  UNL     1      11.098  -1.837  -8.234  1.00  0.00     0.015 C 
HETATM    2  C2  UNL     1      11.986  -1.207  -7.715  1.00  0.00    -0.079 C 
HETATM    3  C3  UNL     1      13.063  -0.414  -7.074  1.00  0.00     0.120 C 
HETATM    4  C4  UNL     1      12.542  -0.046  -5.702  1.00  0.00     0.053 C 
HETATM    5  C5  UNL     1      11.984   1.351  -5.815  1.00  0.00     0.030 C 
HETATM    6  C6  UNL     1      13.105   2.379  -6.028  1.00  0.00     0.045 C 
HETATM    7 CL1  UNL     1      12.222   3.915  -6.387  1.00  0.00    -0.118 Cl
HETATM    8  C7  UNL     1      13.938   1.945  -7.167  1.00  0.00     0.013 C 
HETATM    9  C8  UNL     1      15.370   1.691  -6.940  1.00  0.00     0.007 C 
HETATM   10  C9  UNL     1      15.856   1.736  -5.535  1.00  0.00     0.006 C 
HETATM   11  C10 UNL     1      15.219   2.968  -4.878  1.00  0.00    -0.004 C 
HETATM   12  C11 UNL     1      15.897   3.261  -3.598  1.00  0.00    -0.001 C 
HETATM   13  C12 UNL     1      16.167   2.039  -2.751  1.00  0.00     0.006 C 
HETATM   14  C13 UNL     1      15.995   2.481  -1.290  1.00  0.00     0.014 C 
HETATM   15  C14 UNL     1      15.948   3.980  -1.411  1.00  0.00     0.072 C 
HETATM   16  C19 UNL     1      15.112   4.149  -2.654  1.00  0.00    -0.029 C 
HETATM   17  C20 UNL     1      15.154   5.588  -3.099  1.00  0.00     0.016 C 
HETATM   18  C21 UNL     1      13.690   3.725  -2.519  1.00  0.00     0.011 C 
HETATM   19  C22 UNL     1      13.100   3.664  -3.936  1.00  0.00     0.007 C 
HETATM   20  C23 UNL     1      13.769   2.564  -4.720  1.00  0.00     0.014 C 
HETATM   21  C24 UNL     1      13.302   0.775  -7.940  1.00  0.00     0.058 C 
ENDROOT
BRANCH   3  22
HETATM   22  O1  UNL     1      14.156  -1.271  -6.975  1.00  0.00    -0.378 OA
ATOM     23  H1  UNL     1      14.681  -1.109  -7.750  1.00  0.00     0.211 HD
ENDBRANCH   3  22
BRANCH  15  24
HETATM   24  C15 UNL     1      15.466   4.677  -0.228  1.00  0.00     0.201 C 
HETATM   25  O2  UNL     1      14.396   4.373   0.387  1.00  0.00    -0.289 OA
BRANCH  24  26
HETATM   26  C16 UNL     1      16.227   5.785   0.305  1.00  0.00     0.225 C 
HETATM   27  O3  UNL     1      17.498   5.640   0.392  1.00  0.00    -0.287 OA
BRANCH  26  28
HETATM   28  C17 UNL     1      15.665   7.080   0.763  1.00  0.00     0.256 C 
HETATM   29  C18 UNL     1      16.014   7.260   2.250  1.00  0.00     0.048 C 
BRANCH  28  30
HETATM   30  N1  UNL     1      14.286   7.269   0.530  1.00  0.00    -0.068 N 
ATOM     31  H13 UNL     1      14.127   8.186   0.115  1.00  0.00     0.275 HD
ATOM     32  H12 UNL     1      13.977   6.666  -0.233  1.00  0.00     0.275 HD
ATOM     33  H11 UNL     1      13.676   7.144   1.339  1.00  0.00     0.275 HD
ENDBRANCH  28  30
ENDBRANCH  26  28
ENDBRANCH  24  26
ENDBRANCH  15  24
TORSDOF 5
ENDMDL
MODEL 5
REMARK VINA RESULT: -9.743469001      1.873      3.020
REMARK  5 active torsions:
REMARK  status: ('A' for Active; 'I' for Inactive)
REMARK    1  A    between atoms: C3_3  and  O1_4 
REMARK    2  A    between atoms: C14_17  and  C15_18 
REMARK    3  A    between atoms: C15_18  and  C16_20 
REMARK    4  A    between atoms: C16_20  and  C17_22 
REMARK    5  A    between atoms: C17_22  and  N1_24 
ROOT
HETATM    1  C1  UNL     1      13.632   2.285 -10.722  1.00  0.00     0.015 C 
HETATM    2  C2  UNL     1      13.436   2.301  -9.532  1.00  0.00    -0.079 C 
HETATM    3  C3  UNL     1      13.220   2.324  -8.065  1.00  0.00     0.120 C 
HETATM    4  C4  UNL     1      13.823   3.623  -7.579  1.00  0.00     0.053 C 
HETATM    5  C5  UNL     1      15.205   3.292  -7.074  1.00  0.00     0.030 C 
HETATM    6  C6  UNL     1      15.139   2.458  -5.785  1.00  0.00     0.045 C 
HETATM    7 CL1  UNL     1      16.853   1.964  -5.499  1.00  0.00    -0.118 Cl
HETATM    8  C7  UNL     1      14.263   1.293  -6.019  1.00  0.00     0.013 C 
HETATM    9  C8  UNL     1      13.063   1.130  -5.180  1.00  0.00     0.007 C 
HETATM   10  C9  UNL     1      12.725   2.241  -4.252  1.00  0.00     0.006 C 
HETATM   11  C10 UNL     1      14.033   2.681  -3.580  1.00  0.00    -0.004 C 
HETATM   12  C11 UNL     1      13.734   3.549  -2.421  1.00  0.00    -0.001 C 
HETATM   13  C12 UNL     1      12.667   4.584  -2.687  1.00  0.00     0.006 C 
HETATM   14  C13 UNL     1      13.074   5.836  -1.895  1.00  0.00     0.014 C 
HETATM   15  C14 UNL     1      14.165   5.311  -1.002  1.00  0.00     0.072 C 
HETATM   16  C19 UNL     1      14.900   4.393  -1.945  1.00  0.00    -0.029 C 
HETATM   17  C20 UNL     1      15.892   3.563  -1.172  1.00  0.00     0.016 C 
HETATM   18  C21 UNL     1      15.607   5.075  -3.065  1.00  0.00     0.011 C 
HETATM   19  C22 UNL     1      16.009   3.988  -4.075  1.00  0.00     0.007 C 
HETATM   20  C23 UNL     1      14.774   3.387  -4.695  1.00  0.00     0.014 C 
HETATM   21  C24 UNL     1      13.903   1.123  -7.506  1.00  0.00     0.058 C 
ENDROOT
BRANCH   3  22
HETATM   22  O1  UNL     1      11.838   2.321  -7.887  1.00  0.00    -0.378 OA
ATOM     23  H1  UNL     1      11.470   2.569  -8.727  1.00  0.00     0.211 HD
ENDBRANCH   3  22
BRANCH  15  24
HETATM   24  C15 UNL     1      14.976   6.332  -0.358  1.00  0.00     0.201 C 
HETATM   25  O2  UNL     1      15.430   7.358  -0.956  1.00  0.00    -0.289 OA
BRANCH  24  26
HETATM   26  C16 UNL     1      15.302   6.203   1.045  1.00  0.00     0.225 C 
HETATM   27  O3  UNL     1      14.642   5.341   1.726  1.00  0.00    -0.287 OA
BRANCH  26  28
HETATM   28  C17 UNL     1      16.336   6.983   1.768  1.00  0.00     0.256 C 
HETATM   29  C18 UNL     1      15.649   8.177   2.455  1.00  0.00     0.048 C 
BRANCH  28  30
HETATM   30  N1  UNL     1      17.444   7.399   0.999  1.00  0.00    -0.068 N 
ATOM     31  H13 UNL     1      18.306   7.249   1.524  1.00  0.00     0.275 HD
ATOM     32  H12 UNL     1      17.589   6.754   0.222  1.00  0.00     0.275 HD
ATOM     33  H11 UNL     1      17.412   8.358   0.652  1.00  0.00     0.275 HD
ENDBRANCH  28  30
ENDBRANCH  26  28
ENDBRANCH  24  26
ENDBRANCH  15  24
TORSDOF 5
ENDMDL
