MODEL 1
REMARK VINA RESULT: -8.297737703      0.000      0.000
REMARK  18 active torsions:
REMARK  status: ('A' for Active; 'I' for Inactive)
REMARK    1  A    between atoms: C2_2  and  C3_3 
REMARK    2  A    between atoms: C3_3  and  C4_4 
REMARK    3  A    between atoms: C4_4  and  C5_5 
REMARK    4  A    between atoms: C5_5  and  C6_6 
REMARK    5  A    between atoms: C6_6  and  C7_7 
REMARK    6  A    between atoms: C9_12  and  C10_13 
REMARK    7  A    between atoms: C10_13  and  N2_14 
REMARK       I    between atoms: N2_14  and  C11_16 
REMARK    8  A    between atoms: C11_16  and  C12_18 
REMARK    9  A    between atoms: N3_23  and  C16_24 
REMARK   10  A    between atoms: C21_29  and  O4_30 
REMARK   11  A    between atoms: C25_37  and  C26_38 
REMARK   12  A    between atoms: C26_38  and  C27_39 
REMARK   13  A    between atoms: C27_39  and  C28_40 
REMARK   14  A    between atoms: C28_40  and  C29_41 
REMARK   15  A    between atoms: C29_41  and  C30_42 
REMARK   16  A    between atoms: C30_42  and  C31_43 
REMARK   17  A    between atoms: C31_43  and  O7_45 
REMARK   18  A    between atoms: O7_45  and  C32_46 
ROOT
HETATM    1  C7  UNL     1      11.497  20.483  15.250  1.00  0.00     0.080 C 
HETATM    2  N1  UNL     1      10.651  19.516  15.832  1.00  0.00    -0.320 N 
ATOM      3  H1  UNL     1      10.250  19.853  16.707  1.00  0.00     0.169 HD
HETATM    4  C8  UNL     1      10.218  18.237  15.541  1.00  0.00     0.283 C 
HETATM    5  O1  UNL     1       8.936  18.071  15.522  1.00  0.00    -0.265 OA
HETATM    6  C9  UNL     1      10.952  16.985  15.240  1.00  0.00     0.182 C 
HETATM    7  O3  UNL     1      10.952  15.999  16.113  1.00  0.00    -0.225 OA
HETATM    8  N3  UNL     1      10.764  16.099  17.415  1.00  0.00    -0.210 N 
HETATM    9  C21 UNL     1      11.345  16.995  18.326  1.00  0.00     0.242 C 
HETATM   10  N4  UNL     1      12.600  17.505  18.635  1.00  0.00    -0.343 N 
HETATM   11  C22 UNL     1      12.979  17.657  20.082  1.00  0.00     0.154 C 
HETATM   12  C23 UNL     1      13.670  17.958  17.793  1.00  0.00     0.206 C 
HETATM   13  C24 UNL     1      13.645  19.433  17.716  1.00  0.00     0.167 C 
HETATM   14  O5  UNL     1      12.875  20.002  18.463  1.00  0.00    -0.294 OA
HETATM   15  C25 UNL     1      14.458  20.279  16.829  1.00  0.00     0.159 C 
HETATM   16  N5  UNL     1      14.077  20.357  15.477  1.00  0.00    -0.344 N 
ATOM     17  H5  UNL     1      14.835  20.621  14.847  1.00  0.00     0.163 HD
HETATM   18  C34 UNL     1      12.845  20.138  14.829  1.00  0.00     0.264 C 
HETATM   19  O8  UNL     1      12.963  19.542  13.688  1.00  0.00    -0.266 OA
ENDROOT
BRANCH  15  20
HETATM   20  C26 UNL     1      14.581  21.692  17.382  1.00  0.00     0.060 C 
BRANCH  20  21
HETATM   21  C27 UNL     1      14.569  22.764  16.363  1.00  0.00    -0.028 C 
BRANCH  21  22
HETATM   22  C28 UNL     1      15.745  23.576  16.067  1.00  0.00    -0.030 C 
BRANCH  22  23
HETATM   23  C29 UNL     1      16.973  23.005  15.485  1.00  0.00     0.037 C 
BRANCH  23  24
HETATM   24  C30 UNL     1      18.229  22.968  16.283  1.00  0.00     0.115 C 
BRANCH  24  25
HETATM   25  C31 UNL     1      18.324  21.672  17.051  1.00  0.00     0.259 C 
HETATM   26  O6  UNL     1      18.015  20.621  16.466  1.00  0.00    -0.265 OA
BRANCH  25  27
HETATM   27  O7  UNL     1      18.742  21.651  18.359  1.00  0.00    -0.322 OA
BRANCH  27  28
HETATM   28  C32 UNL     1      17.888  21.689  19.464  1.00  0.00     0.174 C 
HETATM   29  C33 UNL     1      18.587  21.699  20.789  1.00  0.00     0.034 C 
ENDBRANCH  27  28
ENDBRANCH  25  27
ENDBRANCH  24  25
ENDBRANCH  23  24
ENDBRANCH  22  23
ENDBRANCH  21  22
ENDBRANCH  20  21
ENDBRANCH  15  20
BRANCH   1  30
HETATM   30  C6  UNL     1      10.744  21.319  14.218  1.00  0.00     0.063 C 
BRANCH  30  31
HETATM   31  C5  UNL     1       9.287  21.375  14.333  1.00  0.00     0.006 C 
BRANCH  31  32
HETATM   32  C4  UNL     1       8.642  21.128  12.985  1.00  0.00     0.000 C 
BRANCH  32  33
HETATM   33  C3  UNL     1       8.896  19.734  12.456  1.00  0.00    -0.000 C 
BRANCH  33  34
HETATM   34  C2  UNL     1       9.372  19.797  11.020  1.00  0.00    -0.005 C 
HETATM   35  C1  UNL     1      10.735  19.148  10.963  1.00  0.00     0.005 C 
ENDBRANCH  33  34
ENDBRANCH  32  33
ENDBRANCH  31  32
ENDBRANCH  30  31
ENDBRANCH   1  30
BRANCH   9  36
HETATM   36  O4  UNL     1      10.419  17.491  19.111  1.00  0.00    -0.331 OA
ATOM     37  H4  UNL     1      10.563  18.423  19.227  1.00  0.00     0.221 HD
ENDBRANCH   9  36
BRANCH   8  38
HETATM   38  C16 UNL     1       9.791  15.101  17.944  1.00  0.00     0.119 C 
HETATM   39  C17 UNL     1       9.990  13.737  17.334  1.00  0.00     0.028 C 
HETATM   40  C18 UNL     1       8.647  13.070  17.254  1.00  0.00     0.002 C 
HETATM   41  C19 UNL     1       7.633  14.029  17.796  1.00  0.00     0.002 C 
HETATM   42  C20 UNL     1       8.384  15.342  17.795  1.00  0.00     0.028 C 
ENDBRANCH   8  38
BRANCH   6  43
HETATM   43  C10 UNL     1      10.847  16.634  13.778  1.00  0.00     0.136 C 
BRANCH  43  44
HETATM   44  N2  UNL     1      10.122  15.539  13.331  1.00  0.00    -0.334 N 
HETATM   45  C11 UNL     1      10.534  14.200  13.389  1.00  0.00     0.229 C 
HETATM   46  O2  UNL     1      11.658  13.925  13.874  1.00  0.00    -0.272 OA
ATOM     47  H2  UNL     1       9.207  15.725  12.921  1.00  0.00     0.168 HD
BRANCH  45  48
HETATM   48  C12 UNL     1       9.689  13.070  12.893  1.00  0.00     0.030 C 
HETATM   49  C13 UNL     1       9.988  12.872  11.434  1.00  0.00     0.025 C 
HETATM   50  C14 UNL     1       8.235  13.315  13.133  1.00  0.00     0.025 C 
HETATM   51  C15 UNL     1      10.097  11.814  13.662  1.00  0.00     0.025 C 
ENDBRANCH  45  48
ENDBRANCH  43  44
ENDBRANCH   6  43
TORSDOF 18
ENDMDL
MODEL 2
REMARK VINA RESULT: -8.246180159      1.383      2.304
REMARK  18 active torsions:
REMARK  status: ('A' for Active; 'I' for Inactive)
REMARK    1  A    between atoms: C2_2  and  C3_3 
REMARK    2  A    between atoms: C3_3  and  C4_4 
REMARK    3  A    between atoms: C4_4  and  C5_5 
REMARK    4  A    between atoms: C5_5  and  C6_6 
REMARK    5  A    between atoms: C6_6  and  C7_7 
REMARK    6  A    between atoms: C9_12  and  C10_13 
REMARK    7  A    between atoms: C10_13  and  N2_14 
REMARK       I    between atoms: N2_14  and  C11_16 
REMARK    8  A    between atoms: C11_16  and  C12_18 
REMARK    9  A    between atoms: N3_23  and  C16_24 
REMARK   10  A    between atoms: C21_29  and  O4_30 
REMARK   11  A    between atoms: C25_37  and  C26_38 
REMARK   12  A    between atoms: C26_38  and  C27_39 
REMARK   13  A    between atoms: C27_39  and  C28_40 
REMARK   14  A    between atoms: C28_40  and  C29_41 
REMARK   15  A    between atoms: C29_41  and  C30_42 
REMARK   16  A    between atoms: C30_42  and  C31_43 
REMARK   17  A    between atoms: C31_43  and  O7_45 
REMARK   18  A    between atoms: O7_45  and  C32_46 
ROOT
HETATM    1  C7  UNL     1      11.440  20.267  15.057  1.00  0.00     0.080 C 
HETATM    2  N1  UNL     1      10.577  19.309  15.630  1.00  0.00    -0.320 N 
ATOM      3  H1  UNL     1      10.134  19.668  16.476  1.00  0.00     0.169 HD
HETATM    4  C8  UNL     1      10.170  18.018  15.361  1.00  0.00     0.283 C 
HETATM    5  O1  UNL     1       8.892  17.837  15.289  1.00  0.00    -0.265 OA
HETATM    6  C9  UNL     1      10.929  16.765  15.131  1.00  0.00     0.182 C 
HETATM    7  O3  UNL     1      10.898  15.806  16.033  1.00  0.00    -0.225 OA
HETATM    8  N3  UNL     1      10.652  15.943  17.322  1.00  0.00    -0.210 N 
HETATM    9  C21 UNL     1      11.182  16.873  18.229  1.00  0.00     0.242 C 
HETATM   10  N4  UNL     1      12.417  17.406  18.579  1.00  0.00    -0.343 N 
HETATM   11  C22 UNL     1      12.729  17.605  20.036  1.00  0.00     0.154 C 
HETATM   12  C23 UNL     1      13.520  17.845  17.771  1.00  0.00     0.206 C 
HETATM   13  C24 UNL     1      13.484  19.317  17.648  1.00  0.00     0.167 C 
HETATM   14  O5  UNL     1      12.675  19.899  18.342  1.00  0.00    -0.294 OA
HETATM   15  C25 UNL     1      14.328  20.144  16.773  1.00  0.00     0.159 C 
HETATM   16  N5  UNL     1      14.007  20.176  15.403  1.00  0.00    -0.344 N 
ATOM     17  H5  UNL     1      14.791  20.429  14.800  1.00  0.00     0.163 HD
HETATM   18  C34 UNL     1      12.807  19.925  14.708  1.00  0.00     0.264 C 
HETATM   19  O8  UNL     1      12.982  19.295  13.592  1.00  0.00    -0.266 OA
ENDROOT
BRANCH  15  20
HETATM   20  C26 UNL     1      14.412  21.574  17.287  1.00  0.00     0.060 C 
BRANCH  20  21
HETATM   21  C27 UNL     1      14.689  22.594  16.251  1.00  0.00    -0.028 C 
BRANCH  21  22
HETATM   22  C28 UNL     1      15.853  23.473  16.310  1.00  0.00    -0.030 C 
BRANCH  22  23
HETATM   23  C29 UNL     1      17.095  23.188  15.570  1.00  0.00     0.037 C 
BRANCH  23  24
HETATM   24  C30 UNL     1      18.365  22.954  16.310  1.00  0.00     0.115 C 
BRANCH  24  25
HETATM   25  C31 UNL     1      18.311  21.635  17.041  1.00  0.00     0.259 C 
HETATM   26  O6  UNL     1      17.955  20.628  16.407  1.00  0.00    -0.265 OA
BRANCH  25  27
HETATM   27  O7  UNL     1      18.644  21.546  18.370  1.00  0.00    -0.322 OA
BRANCH  27  28
HETATM   28  C32 UNL     1      17.725  21.586  19.422  1.00  0.00     0.174 C 
HETATM   29  C33 UNL     1      17.558  22.936  20.050  1.00  0.00     0.034 C 
ENDBRANCH  27  28
ENDBRANCH  25  27
ENDBRANCH  24  25
ENDBRANCH  23  24
ENDBRANCH  22  23
ENDBRANCH  21  22
ENDBRANCH  20  21
ENDBRANCH  15  20
BRANCH   1  30
HETATM   30  C6  UNL     1      10.725  21.063  13.968  1.00  0.00     0.063 C 
BRANCH  30  31
HETATM   31  C5  UNL     1       9.317  21.392  14.189  1.00  0.00     0.006 C 
BRANCH  31  32
HETATM   32  C4  UNL     1       8.499  21.055  12.959  1.00  0.00     0.000 C 
BRANCH  32  33
HETATM   33  C3  UNL     1       7.779  22.255  12.384  1.00  0.00    -0.000 C 
BRANCH  33  34
HETATM   34  C2  UNL     1       6.690  21.805  11.431  1.00  0.00    -0.005 C 
HETATM   35  C1  UNL     1       6.763  22.688  10.208  1.00  0.00     0.005 C 
ENDBRANCH  33  34
ENDBRANCH  32  33
ENDBRANCH  31  32
ENDBRANCH  30  31
ENDBRANCH   1  30
BRANCH   9  36
HETATM   36  O4  UNL     1      10.217  17.383  18.956  1.00  0.00    -0.331 OA
ATOM     37  H4  UNL     1      10.579  17.764  19.748  1.00  0.00     0.221 HD
ENDBRANCH   9  36
BRANCH   8  38
HETATM   38  C16 UNL     1       9.665  14.952  17.837  1.00  0.00     0.119 C 
HETATM   39  C17 UNL     1       9.923  13.566  17.303  1.00  0.00     0.028 C 
HETATM   40  C18 UNL     1       8.598  12.870  17.175  1.00  0.00     0.002 C 
HETATM   41  C19 UNL     1       7.538  13.832  17.611  1.00  0.00     0.002 C 
HETATM   42  C20 UNL     1       8.266  15.159  17.594  1.00  0.00     0.028 C 
ENDBRANCH   8  38
BRANCH   6  43
HETATM   43  C10 UNL     1      10.892  16.369  13.678  1.00  0.00     0.136 C 
BRANCH  43  44
HETATM   44  N2  UNL     1      10.714  17.298  12.662  1.00  0.00    -0.334 N 
HETATM   45  C11 UNL     1       9.959  17.109  11.496  1.00  0.00     0.229 C 
HETATM   46  O2  UNL     1       9.383  16.010  11.311  1.00  0.00    -0.272 OA
ATOM     47  H2  UNL     1      11.175  18.201  12.775  1.00  0.00     0.168 HD
BRANCH  45  48
HETATM   48  C12 UNL     1       9.805  18.167  10.450  1.00  0.00     0.030 C 
HETATM   49  C13 UNL     1      10.731  19.299  10.795  1.00  0.00     0.025 C 
HETATM   50  C14 UNL     1       8.390  18.627  10.327  1.00  0.00     0.025 C 
HETATM   51  C15 UNL     1      10.232  17.561   9.113  1.00  0.00     0.025 C 
ENDBRANCH  45  48
ENDBRANCH  43  44
ENDBRANCH   6  43
TORSDOF 18
ENDMDL
MODEL 3
REMARK VINA RESULT: -8.234951770      4.107     11.178
REMARK  18 active torsions:
REMARK  status: ('A' for Active; 'I' for Inactive)
REMARK    1  A    between atoms: C2_2  and  C3_3 
REMARK    2  A    between atoms: C3_3  and  C4_4 
REMARK    3  A    between atoms: C4_4  and  C5_5 
REMARK    4  A    between atoms: C5_5  and  C6_6 
REMARK    5  A    between atoms: C6_6  and  C7_7 
REMARK    6  A    between atoms: C9_12  and  C10_13 
REMARK    7  A    between atoms: C10_13  and  N2_14 
REMARK       I    between atoms: N2_14  and  C11_16 
REMARK    8  A    between atoms: C11_16  and  C12_18 
REMARK    9  A    between atoms: N3_23  and  C16_24 
REMARK   10  A    between atoms: C21_29  and  O4_30 
REMARK   11  A    between atoms: C25_37  and  C26_38 
REMARK   12  A    between atoms: C26_38  and  C27_39 
REMARK   13  A    between atoms: C27_39  and  C28_40 
REMARK   14  A    between atoms: C28_40  and  C29_41 
REMARK   15  A    between atoms: C29_41  and  C30_42 
REMARK   16  A    between atoms: C30_42  and  C31_43 
REMARK   17  A    between atoms: C31_43  and  O7_45 
REMARK   18  A    between atoms: O7_45  and  C32_46 
ROOT
HETATM    1  C7  UNL     1      16.535  22.543  15.621  1.00  0.00     0.080 C 
HETATM    2  N1  UNL     1      17.859  22.702  16.081  1.00  0.00    -0.320 N 
ATOM      3  H1  UNL     1      18.289  21.802  16.291  1.00  0.00     0.169 HD
HETATM    4  C8  UNL     1      18.732  23.744  16.326  1.00  0.00     0.283 C 
HETATM    5  O1  UNL     1      19.879  23.664  15.735  1.00  0.00    -0.265 OA
HETATM    6  C9  UNL     1      18.611  24.968  17.154  1.00  0.00     0.182 C 
HETATM    7  O3  UNL     1      19.316  25.084  18.259  1.00  0.00    -0.225 OA
HETATM    8  N3  UNL     1      19.799  24.099  18.994  1.00  0.00    -0.210 N 
HETATM    9  C21 UNL     1      19.156  22.937  19.446  1.00  0.00     0.242 C 
HETATM   10  N4  UNL     1      17.955  22.569  20.041  1.00  0.00    -0.343 N 
HETATM   11  C22 UNL     1      17.979  21.544  21.140  1.00  0.00     0.154 C 
HETATM   12  C23 UNL     1      16.607  22.992  19.787  1.00  0.00     0.206 C 
HETATM   13  C24 UNL     1      15.923  21.982  18.954  1.00  0.00     0.167 C 
HETATM   14  O5  UNL     1      16.519  20.941  18.765  1.00  0.00    -0.294 OA
HETATM   15  C25 UNL     1      14.596  22.111  18.333  1.00  0.00     0.159 C 
HETATM   16  N5  UNL     1      14.494  22.908  17.177  1.00  0.00    -0.344 N 
ATOM     17  H5  UNL     1      13.556  23.271  17.006  1.00  0.00     0.163 HD
HETATM   18  C34 UNL     1      15.444  23.299  16.213  1.00  0.00     0.264 C 
HETATM   19  O8  UNL     1      15.296  24.519  15.811  1.00  0.00    -0.266 OA
ENDROOT
BRANCH  15  20
HETATM   20  C26 UNL     1      13.996  20.744  18.035  1.00  0.00     0.060 C 
BRANCH  20  21
HETATM   21  C27 UNL     1      12.886  20.749  17.057  1.00  0.00    -0.028 C 
BRANCH  21  22
HETATM   22  C28 UNL     1      12.053  19.576  16.812  1.00  0.00    -0.030 C 
BRANCH  22  23
HETATM   23  C29 UNL     1      10.745  19.387  17.465  1.00  0.00     0.037 C 
BRANCH  23  24
HETATM   24  C30 UNL     1      10.457  18.127  18.203  1.00  0.00     0.115 C 
BRANCH  24  25
HETATM   25  C31 UNL     1      11.404  17.975  19.369  1.00  0.00     0.259 C 
HETATM   26  O6  UNL     1      11.187  18.645  20.392  1.00  0.00    -0.265 OA
BRANCH  25  27
HETATM   27  O7  UNL     1      12.477  17.120  19.306  1.00  0.00    -0.322 OA
BRANCH  27  28
HETATM   28  C32 UNL     1      13.814  17.518  19.383  1.00  0.00     0.174 C 
HETATM   29  C33 UNL     1      14.628  17.198  18.168  1.00  0.00     0.034 C 
ENDBRANCH  27  28
ENDBRANCH  25  27
ENDBRANCH  24  25
ENDBRANCH  23  24
ENDBRANCH  22  23
ENDBRANCH  21  22
ENDBRANCH  20  21
ENDBRANCH  15  20
BRANCH   1  30
HETATM   30  C6  UNL     1      16.486  22.518  14.096  1.00  0.00     0.063 C 
BRANCH  30  31
HETATM   31  C5  UNL     1      15.288  21.957  13.471  1.00  0.00     0.006 C 
BRANCH  31  32
HETATM   32  C4  UNL     1      14.895  20.662  14.152  1.00  0.00     0.000 C 
BRANCH  32  33
HETATM   33  C3  UNL     1      14.133  19.725  13.243  1.00  0.00    -0.000 C 
BRANCH  33  34
HETATM   34  C2  UNL     1      12.645  19.984  13.351  1.00  0.00    -0.005 C 
HETATM   35  C1  UNL     1      11.968  19.223  12.236  1.00  0.00     0.005 C 
ENDBRANCH  33  34
ENDBRANCH  32  33
ENDBRANCH  31  32
ENDBRANCH  30  31
ENDBRANCH   1  30
BRANCH   9  36
HETATM   36  O4  UNL     1      19.927  21.896  19.240  1.00  0.00    -0.331 OA
ATOM     37  H4  UNL     1      20.832  22.128  19.412  1.00  0.00     0.221 HD
ENDBRANCH   9  36
BRANCH   8  38
HETATM   38  C16 UNL     1      21.228  24.295  19.368  1.00  0.00     0.119 C 
HETATM   39  C17 UNL     1      21.381  24.807  20.777  1.00  0.00     0.028 C 
HETATM   40  C18 UNL     1      22.601  25.682  20.817  1.00  0.00     0.002 C 
HETATM   41  C19 UNL     1      23.179  25.717  19.437  1.00  0.00     0.002 C 
HETATM   42  C20 UNL     1      22.045  25.183  18.590  1.00  0.00     0.028 C 
ENDBRANCH   8  38
BRANCH   6  43
HETATM   43  C10 UNL     1      18.444  26.191  16.290  1.00  0.00     0.136 C 
BRANCH  43  44
HETATM   44  N2  UNL     1      19.482  26.700  15.521  1.00  0.00    -0.334 N 
HETATM   45  C11 UNL     1      20.510  27.537  15.976  1.00  0.00     0.229 C 
HETATM   46  O2  UNL     1      20.526  27.889  17.180  1.00  0.00    -0.272 OA
ATOM     47  H2  UNL     1      19.496  26.442  14.534  1.00  0.00     0.168 HD
BRANCH  45  48
HETATM   48  C12 UNL     1      21.602  28.037  15.085  1.00  0.00     0.030 C 
HETATM   49  C13 UNL     1      22.606  26.932  14.916  1.00  0.00     0.025 C 
HETATM   50  C14 UNL     1      22.232  29.281  15.620  1.00  0.00     0.025 C 
HETATM   51  C15 UNL     1      20.980  28.360  13.727  1.00  0.00     0.025 C 
ENDBRANCH  45  48
ENDBRANCH  43  44
ENDBRANCH   6  43
TORSDOF 18
ENDMDL
MODEL 4
REMARK VINA RESULT: -8.140802515      3.804     11.247
REMARK  18 active torsions:
REMARK  status: ('A' for Active; 'I' for Inactive)
REMARK    1  A    between atoms: C2_2  and  C3_3 
REMARK    2  A    between atoms: C3_3  and  C4_4 
REMARK    3  A    between atoms: C4_4  and  C5_5 
REMARK    4  A    between atoms: C5_5  and  C6_6 
REMARK    5  A    between atoms: C6_6  and  C7_7 
REMARK    6  A    between atoms: C9_12  and  C10_13 
REMARK    7  A    between atoms: C10_13  and  N2_14 
REMARK       I    between atoms: N2_14  and  C11_16 
REMARK    8  A    between atoms: C11_16  and  C12_18 
REMARK    9  A    between atoms: N3_23  and  C16_24 
REMARK   10  A    between atoms: C21_29  and  O4_30 
REMARK   11  A    between atoms: C25_37  and  C26_38 
REMARK   12  A    between atoms: C26_38  and  C27_39 
REMARK   13  A    between atoms: C27_39  and  C28_40 
REMARK   14  A    between atoms: C28_40  and  C29_41 
REMARK   15  A    between atoms: C29_41  and  C30_42 
REMARK   16  A    between atoms: C30_42  and  C31_43 
REMARK   17  A    between atoms: C31_43  and  O7_45 
REMARK   18  A    between atoms: O7_45  and  C32_46 
ROOT
HETATM    1  C7  UNL     1      16.492  22.468  15.567  1.00  0.00     0.080 C 
HETATM    2  N1  UNL     1      17.812  22.651  16.031  1.00  0.00    -0.320 N 
ATOM      3  H1  UNL     1      18.259  21.759  16.239  1.00  0.00     0.169 HD
HETATM    4  C8  UNL     1      18.664  23.709  16.280  1.00  0.00     0.283 C 
HETATM    5  O1  UNL     1      19.813  23.653  15.691  1.00  0.00    -0.265 OA
HETATM    6  C9  UNL     1      18.518  24.928  17.112  1.00  0.00     0.182 C 
HETATM    7  O3  UNL     1      19.219  25.054  18.219  1.00  0.00    -0.225 OA
HETATM    8  N3  UNL     1      19.719  24.076  18.951  1.00  0.00    -0.210 N 
HETATM    9  C21 UNL     1      19.098  22.900  19.398  1.00  0.00     0.242 C 
HETATM   10  N4  UNL     1      17.903  22.508  19.990  1.00  0.00    -0.343 N 
HETATM   11  C22 UNL     1      17.945  21.480  21.086  1.00  0.00     0.154 C 
HETATM   12  C23 UNL     1      16.547  22.905  19.735  1.00  0.00     0.206 C 
HETATM   13  C24 UNL     1      15.885  21.884  18.897  1.00  0.00     0.167 C 
HETATM   14  O5  UNL     1      16.501  20.856  18.707  1.00  0.00    -0.294 OA
HETATM   15  C25 UNL     1      14.557  21.990  18.274  1.00  0.00     0.159 C 
HETATM   16  N5  UNL     1      14.442  22.788  17.121  1.00  0.00    -0.344 N 
ATOM     17  H5  UNL     1      13.497  23.133  16.949  1.00  0.00     0.163 HD
HETATM   18  C34 UNL     1      15.386  23.200  16.159  1.00  0.00     0.264 C 
HETATM   19  O8  UNL     1      15.215  24.418  15.761  1.00  0.00    -0.266 OA
ENDROOT
BRANCH  15  20
HETATM   20  C26 UNL     1      13.983  20.612  17.971  1.00  0.00     0.060 C 
BRANCH  20  21
HETATM   21  C27 UNL     1      13.322  19.947  19.115  1.00  0.00    -0.028 C 
BRANCH  21  22
HETATM   22  C28 UNL     1      13.824  18.705  19.695  1.00  0.00    -0.030 C 
BRANCH  22  23
HETATM   23  C29 UNL     1      13.318  17.382  19.286  1.00  0.00     0.037 C 
BRANCH  23  24
HETATM   24  C30 UNL     1      13.318  16.997  17.848  1.00  0.00     0.115 C 
BRANCH  24  25
HETATM   25  C31 UNL     1      11.965  16.457  17.452  1.00  0.00     0.259 C 
HETATM   26  O6  UNL     1      11.901  15.704  16.466  1.00  0.00    -0.265 OA
BRANCH  25  27
HETATM   27  O7  UNL     1      10.834  16.786  18.158  1.00  0.00    -0.322 OA
BRANCH  27  28
HETATM   28  C32 UNL     1       9.794  17.579  17.665  1.00  0.00     0.174 C 
HETATM   29  C33 UNL     1      10.201  18.970  17.287  1.00  0.00     0.034 C 
ENDBRANCH  27  28
ENDBRANCH  25  27
ENDBRANCH  24  25
ENDBRANCH  23  24
ENDBRANCH  22  23
ENDBRANCH  21  22
ENDBRANCH  20  21
ENDBRANCH  15  20
BRANCH   1  30
HETATM   30  C6  UNL     1      16.446  22.446  14.042  1.00  0.00     0.063 C 
BRANCH  30  31
HETATM   31  C5  UNL     1      15.205  21.994  13.413  1.00  0.00     0.006 C 
BRANCH  31  32
HETATM   32  C4  UNL     1      14.960  20.531  13.722  1.00  0.00     0.000 C 
BRANCH  32  33
HETATM   33  C3  UNL     1      13.542  20.096  13.429  1.00  0.00    -0.000 C 
BRANCH  33  34
HETATM   34  C2  UNL     1      12.727  20.073  14.706  1.00  0.00    -0.005 C 
HETATM   35  C1  UNL     1      11.745  21.219  14.639  1.00  0.00     0.005 C 
ENDBRANCH  33  34
ENDBRANCH  32  33
ENDBRANCH  31  32
ENDBRANCH  30  31
ENDBRANCH   1  30
BRANCH   9  36
HETATM   36  O4  UNL     1      19.889  21.875  19.191  1.00  0.00    -0.331 OA
ATOM     37  H4  UNL     1      19.481  21.082  19.520  1.00  0.00     0.221 HD
ENDBRANCH   9  36
BRANCH   8  38
HETATM   38  C16 UNL     1      21.143  24.299  19.328  1.00  0.00     0.119 C 
HETATM   39  C17 UNL     1      21.286  24.778  20.750  1.00  0.00     0.028 C 
HETATM   40  C18 UNL     1      22.483  25.682  20.812  1.00  0.00     0.002 C 
HETATM   41  C19 UNL     1      23.057  25.768  19.432  1.00  0.00     0.002 C 
HETATM   42  C20 UNL     1      21.936  25.227  18.572  1.00  0.00     0.028 C 
ENDBRANCH   8  38
BRANCH   6  43
HETATM   43  C10 UNL     1      18.329  26.150  16.251  1.00  0.00     0.136 C 
BRANCH  43  44
HETATM   44  N2  UNL     1      19.358  26.681  15.486  1.00  0.00    -0.334 N 
HETATM   45  C11 UNL     1      20.389  27.509  15.953  1.00  0.00     0.229 C 
HETATM   46  O2  UNL     1      20.415  27.829  17.166  1.00  0.00    -0.272 OA
ATOM     47  H2  UNL     1      19.364  26.449  14.493  1.00  0.00     0.168 HD
BRANCH  45  48
HETATM   48  C12 UNL     1      21.471  28.035  15.064  1.00  0.00     0.030 C 
HETATM   49  C13 UNL     1      22.259  29.049  15.843  1.00  0.00     0.025 C 
HETATM   50  C14 UNL     1      20.923  28.610  13.800  1.00  0.00     0.025 C 
HETATM   51  C15 UNL     1      22.383  26.863  14.702  1.00  0.00     0.025 C 
ENDBRANCH  45  48
ENDBRANCH  43  44
ENDBRANCH   6  43
TORSDOF 18
ENDMDL
MODEL 5
REMARK VINA RESULT: -8.136378625      2.108      8.710
REMARK  18 active torsions:
REMARK  status: ('A' for Active; 'I' for Inactive)
REMARK    1  A    between atoms: C2_2  and  C3_3 
REMARK    2  A    between atoms: C3_3  and  C4_4 
REMARK    3  A    between atoms: C4_4  and  C5_5 
REMARK    4  A    between atoms: C5_5  and  C6_6 
REMARK    5  A    between atoms: C6_6  and  C7_7 
REMARK    6  A    between atoms: C9_12  and  C10_13 
REMARK    7  A    between atoms: C10_13  and  N2_14 
REMARK       I    between atoms: N2_14  and  C11_16 
REMARK    8  A    between atoms: C11_16  and  C12_18 
REMARK    9  A    between atoms: N3_23  and  C16_24 
REMARK   10  A    between atoms: C21_29  and  O4_30 
REMARK   11  A    between atoms: C25_37  and  C26_38 
REMARK   12  A    between atoms: C26_38  and  C27_39 
REMARK   13  A    between atoms: C27_39  and  C28_40 
REMARK   14  A    between atoms: C28_40  and  C29_41 
REMARK   15  A    between atoms: C29_41  and  C30_42 
REMARK   16  A    between atoms: C30_42  and  C31_43 
REMARK   17  A    between atoms: C31_43  and  O7_45 
REMARK   18  A    between atoms: O7_45  and  C32_46 
ROOT
HETATM    1  C7  UNL     1      12.293  19.636  14.238  1.00  0.00     0.080 C 
HETATM    2  N1  UNL     1      13.552  19.670  14.873  1.00  0.00    -0.320 N 
ATOM      3  H1  UNL     1      13.919  18.730  15.018  1.00  0.00     0.169 HD
HETATM    4  C8  UNL     1      14.424  20.628  15.352  1.00  0.00     0.283 C 
HETATM    5  O1  UNL     1      15.633  20.560  14.900  1.00  0.00    -0.265 OA
HETATM    6  C9  UNL     1      14.242  21.747  16.307  1.00  0.00     0.182 C 
HETATM    7  O3  UNL     1      14.805  21.692  17.496  1.00  0.00    -0.225 OA
HETATM    8  N3  UNL     1      15.154  20.602  18.154  1.00  0.00    -0.210 N 
HETATM    9  C21 UNL     1      14.417  19.429  18.373  1.00  0.00     0.242 C 
HETATM   10  N4  UNL     1      13.137  19.055  18.765  1.00  0.00    -0.343 N 
HETATM   11  C22 UNL     1      12.984  17.904  19.721  1.00  0.00     0.154 C 
HETATM   12  C23 UNL     1      11.848  19.574  18.405  1.00  0.00     0.206 C 
HETATM   13  C24 UNL     1      11.240  18.709  17.373  1.00  0.00     0.167 C 
HETATM   14  O5  UNL     1      11.817  17.669  17.129  1.00  0.00    -0.294 OA
HETATM   15  C25 UNL     1      10.009  18.980  16.616  1.00  0.00     0.159 C 
HETATM   16  N5  UNL     1      10.084  19.915  15.567  1.00  0.00    -0.344 N 
ATOM     17  H5  UNL     1       9.190  20.344  15.329  1.00  0.00     0.163 HD
HETATM   18  C34 UNL     1      11.163  20.370  14.783  1.00  0.00     0.264 C 
HETATM   19  O8  UNL     1      11.112  21.636  14.523  1.00  0.00    -0.266 OA
ENDROOT
BRANCH  15  20
HETATM   20  C26 UNL     1       9.402  17.692  16.077  1.00  0.00     0.060 C 
BRANCH  20  21
HETATM   21  C27 UNL     1       9.447  17.549  14.606  1.00  0.00    -0.028 C 
BRANCH  21  22
HETATM   22  C28 UNL     1       8.942  16.365  13.919  1.00  0.00    -0.030 C 
BRANCH  22  23
HETATM   23  C29 UNL     1       9.780  15.178  13.670  1.00  0.00     0.037 C 
BRANCH  23  24
HETATM   24  C30 UNL     1      11.104  15.049  14.338  1.00  0.00     0.115 C 
BRANCH  24  25
HETATM   25  C31 UNL     1      11.014  14.086  15.497  1.00  0.00     0.259 C 
HETATM   26  O6  UNL     1      11.269  12.889  15.285  1.00  0.00    -0.265 OA
BRANCH  25  27
HETATM   27  O7  UNL     1      10.662  14.516  16.753  1.00  0.00    -0.322 OA
BRANCH  27  28
HETATM   28  C32 UNL     1       9.628  13.969  17.517  1.00  0.00     0.174 C 
HETATM   29  C33 UNL     1       8.268  14.095  16.904  1.00  0.00     0.034 C 
ENDBRANCH  27  28
ENDBRANCH  25  27
ENDBRANCH  24  25
ENDBRANCH  23  24
ENDBRANCH  22  23
ENDBRANCH  21  22
ENDBRANCH  20  21
ENDBRANCH  15  20
BRANCH   1  30
HETATM   30  C6  UNL     1      12.438  19.798  12.727  1.00  0.00     0.063 C 
BRANCH  30  31
HETATM   31  C5  UNL     1      11.579  18.973  11.877  1.00  0.00     0.006 C 
BRANCH  31  32
HETATM   32  C4  UNL     1      12.066  17.538  11.872  1.00  0.00     0.000 C 
BRANCH  32  33
HETATM   33  C3  UNL     1      11.485  16.723  10.738  1.00  0.00    -0.000 C 
BRANCH  33  34
HETATM   34  C2  UNL     1      12.220  15.404  10.611  1.00  0.00    -0.005 C 
HETATM   35  C1  UNL     1      13.597  15.592  11.203  1.00  0.00     0.005 C 
ENDBRANCH  33  34
ENDBRANCH  32  33
ENDBRANCH  31  32
ENDBRANCH  30  31
ENDBRANCH   1  30
BRANCH   9  36
HETATM   36  O4  UNL     1      15.169  18.382  18.133  1.00  0.00    -0.331 OA
ATOM     37  H4  UNL     1      15.034  17.727  18.809  1.00  0.00     0.221 HD
ENDBRANCH   9  36
BRANCH   8  38
HETATM   38  C16 UNL     1      16.530  20.678  18.721  1.00  0.00     0.119 C 
HETATM   39  C17 UNL     1      16.609  21.621  19.893  1.00  0.00     0.028 C 
HETATM   40  C18 UNL     1      17.978  22.239  19.893  1.00  0.00     0.002 C 
HETATM   41  C19 UNL     1      18.723  21.688  18.718  1.00  0.00     0.002 C 
HETATM   42  C20 UNL     1      17.618  21.084  17.878  1.00  0.00     0.028 C 
ENDBRANCH   8  38
BRANCH   6  43
HETATM   43  C10 UNL     1      14.232  23.073  15.591  1.00  0.00     0.136 C 
BRANCH  43  44
HETATM   44  N2  UNL     1      15.170  24.062  15.852  1.00  0.00    -0.334 N 
HETATM   45  C11 UNL     1      16.539  23.996  15.558  1.00  0.00     0.229 C 
HETATM   46  O2  UNL     1      17.000  22.962  15.017  1.00  0.00    -0.272 OA
ATOM     47  H2  UNL     1      14.832  24.914  16.299  1.00  0.00     0.168 HD
BRANCH  45  48
HETATM   48  C12 UNL     1      17.487  25.112  15.861  1.00  0.00     0.030 C 
HETATM   49  C13 UNL     1      17.163  25.637  17.231  1.00  0.00     0.025 C 
HETATM   50  C14 UNL     1      17.430  26.189  14.827  1.00  0.00     0.025 C 
HETATM   51  C15 UNL     1      18.901  24.530  15.870  1.00  0.00     0.025 C 
ENDBRANCH  45  48
ENDBRANCH  43  44
ENDBRANCH   6  43
TORSDOF 18
ENDMDL
