MODEL 1
REMARK VINA RESULT: -8.135596691      0.000      0.000
REMARK  18 active torsions:
REMARK  status: ('A' for Active; 'I' for Inactive)
REMARK    1  A    between atoms: C2_2  and  O1_3 
REMARK    2  A    between atoms: O1_3  and  C3_4 
REMARK       I    between atoms: C3_4  and  N1_6 
REMARK    3  A    between atoms: N2_9  and  C6_10 
REMARK    4  A    between atoms: C6_10  and  N3_12 
REMARK    5  A    between atoms: N3_12  and  C7_14 
REMARK    6  A    between atoms: C7_14  and  C8_15 
REMARK    7  A    between atoms: C8_15  and  C9_16 
REMARK    8  A    between atoms: C9_16  and  C10_17 
REMARK    9  A    between atoms: C10_17  and  C11_18 
REMARK   10  A    between atoms: C11_18  and  C12_19 
REMARK   11  A    between atoms: C12_19  and  S2_20 
REMARK   12  A    between atoms: S2_20  and  S3_21 
REMARK   13  A    between atoms: S3_21  and  C13_22 
REMARK   14  A    between atoms: C13_22  and  C14_23 
REMARK   15  A    between atoms: C14_23  and  N4_24 
REMARK       I    between atoms: N4_24  and  C15_26 
REMARK   16  A    between atoms: C15_26  and  C16_28 
REMARK   17  A    between atoms: C19_32  and  C20_33 
REMARK   18  A    between atoms: C20_33  and  C21_34 
ROOT
HETATM    1  C13 UNL     1      14.980  22.178  15.444  1.00  0.00     0.105 C 
ENDROOT
BRANCH   1   2
HETATM    2  S3  UNL     1      14.578  22.975  17.023  1.00  0.00    -0.096 SA
BRANCH   2   3
HETATM    3  S2  UNL     1      14.333  21.621  18.605  1.00  0.00    -0.098 SA
BRANCH   3   4
HETATM    4  C12 UNL     1      15.314  20.140  18.443  1.00  0.00     0.086 C 
BRANCH   4   5
HETATM    5  C11 UNL     1      14.737  19.061  17.606  1.00  0.00     0.011 C 
BRANCH   5   6
HETATM    6  C10 UNL     1      14.769  17.680  18.234  1.00  0.00     0.001 C 
BRANCH   6   7
HETATM    7  C9  UNL     1      13.386  17.069  18.221  1.00  0.00     0.002 C 
BRANCH   7   8
HETATM    8  C8  UNL     1      12.662  17.395  19.504  1.00  0.00     0.020 C 
BRANCH   8   9
HETATM    9  C7  UNL     1      11.587  18.426  19.306  1.00  0.00     0.122 C 
BRANCH   9  10
HETATM   10  N3  UNL     1      10.398  17.782  18.795  1.00  0.00    -0.367 N 
ATOM     11  H3  UNL     1       9.784  17.305  19.455  1.00  0.00     0.161 HD
BRANCH  10  12
HETATM   12  C6  UNL     1      10.040  17.781  17.418  1.00  0.00     0.169 C 
HETATM   13  S1  UNL     1       9.274  16.481  16.762  1.00  0.00    -0.041 SA
BRANCH  12  14
HETATM   14  N2  UNL     1      10.376  18.903  16.622  1.00  0.00    -0.355 N 
HETATM   15  C5  UNL     1      11.453  18.799  15.673  1.00  0.00     0.145 C 
HETATM   16  C4  UNL     1      11.475  19.988  14.729  1.00  0.00     0.148 C 
HETATM   17  N1  UNL     1      10.105  20.320  14.409  1.00  0.00    -0.325 N 
HETATM   18  C3  UNL     1       9.640  20.243  13.074  1.00  0.00     0.362 C 
HETATM   19  C31 UNL     1       9.223  20.726  15.467  1.00  0.00     0.148 C 
HETATM   20  O2  UNL     1       8.452  20.548  12.831  1.00  0.00    -0.238 OA
HETATM   21  C30 UNL     1       9.611  20.123  16.802  1.00  0.00     0.145 C 
BRANCH  18  22
HETATM   22  O1  UNL     1      10.429  19.850  12.030  1.00  0.00    -0.304 OA
BRANCH  22  23
HETATM   23  C2  UNL     1      10.370  18.552  11.461  1.00  0.00     0.176 C 
HETATM   24  C1  UNL     1      11.642  17.782  11.776  1.00  0.00     0.034 C 
ENDBRANCH  22  23
ENDBRANCH  18  22
ENDBRANCH  12  14
ENDBRANCH  10  12
ENDBRANCH   9  10
ENDBRANCH   8   9
ENDBRANCH   7   8
ENDBRANCH   6   7
ENDBRANCH   5   6
ENDBRANCH   4   5
ENDBRANCH   3   4
ENDBRANCH   2   3
ENDBRANCH   1   2
BRANCH   1  25
HETATM   25  C14 UNL     1      16.429  22.252  15.120  1.00  0.00     0.133 C 
BRANCH  25  26
HETATM   26  N4  UNL     1      17.204  22.695  16.225  1.00  0.00    -0.359 N 
HETATM   27  C15 UNL     1      18.133  21.881  16.885  1.00  0.00     0.248 C 
HETATM   28  O3  UNL     1      18.321  20.695  16.494  1.00  0.00    -0.271 OA
ATOM     29  H4  UNL     1      17.078  23.652  16.553  1.00  0.00     0.162 HD
BRANCH  27  30
HETATM   30  C16 UNL     1      18.874  22.449  18.039  1.00  0.00     0.284 C 
HETATM   31  C17 UNL     1      17.873  23.061  18.994  1.00  0.00     0.123 C 
HETATM   32  C18 UNL     1      18.777  24.038  19.703  1.00  0.00     0.160 C 
HETATM   33  O4  UNL     1      18.664  24.367  20.841  1.00  0.00    -0.296 OA
HETATM   34  C19 UNL     1      19.780  24.464  18.712  1.00  0.00     0.256 C 
HETATM   35  N6  UNL     1      19.680  23.562  17.576  1.00  0.00    -0.051 N 
ATOM     36  H62 UNL     1      20.584  23.283  17.192  1.00  0.00     0.279 HD
ATOM     37  H61 UNL     1      19.322  24.004  16.730  1.00  0.00     0.279 HD
BRANCH  34  38
HETATM   38  C20 UNL     1      19.517  25.866  18.212  1.00  0.00     0.047 C 
BRANCH  38  39
HETATM   39  C21 UNL     1      19.683  25.983  16.721  1.00  0.00     0.021 C 
HETATM   40  C22 UNL     1      18.323  25.953  16.072  1.00  0.00     0.008 C 
HETATM   41  C23 UNL     1      18.398  26.101  14.574  1.00  0.00     0.031 C 
HETATM   42  C24 UNL     1      19.800  26.576  14.197  1.00  0.00     0.273 C 
HETATM   43  N5  UNL     1      20.110  27.677  15.080  1.00  0.00     0.093 N 
HETATM   44  C25 UNL     1      20.985  28.642  14.516  1.00  0.00     0.273 C 
HETATM   45  C29 UNL     1      20.409  27.291  16.430  1.00  0.00     0.227 C 
HETATM   46  C26 UNL     1      22.394  28.032  14.524  1.00  0.00     0.030 C 
HETATM   47  C27 UNL     1      22.800  27.952  15.971  1.00  0.00     0.004 C 
HETATM   48  C28 UNL     1      21.853  27.064  16.711  1.00  0.00     0.036 C 
ENDBRANCH  38  39
ENDBRANCH  34  38
ENDBRANCH  27  30
ENDBRANCH  25  26
ENDBRANCH   1  25
TORSDOF 18
ENDMDL
MODEL 2
REMARK VINA RESULT: -8.015030178      1.949      3.284
REMARK  18 active torsions:
REMARK  status: ('A' for Active; 'I' for Inactive)
REMARK    1  A    between atoms: C2_2  and  O1_3 
REMARK    2  A    between atoms: O1_3  and  C3_4 
REMARK       I    between atoms: C3_4  and  N1_6 
REMARK    3  A    between atoms: N2_9  and  C6_10 
REMARK    4  A    between atoms: C6_10  and  N3_12 
REMARK    5  A    between atoms: N3_12  and  C7_14 
REMARK    6  A    between atoms: C7_14  and  C8_15 
REMARK    7  A    between atoms: C8_15  and  C9_16 
REMARK    8  A    between atoms: C9_16  and  C10_17 
REMARK    9  A    between atoms: C10_17  and  C11_18 
REMARK   10  A    between atoms: C11_18  and  C12_19 
REMARK   11  A    between atoms: C12_19  and  S2_20 
REMARK   12  A    between atoms: S2_20  and  S3_21 
REMARK   13  A    between atoms: S3_21  and  C13_22 
REMARK   14  A    between atoms: C13_22  and  C14_23 
REMARK   15  A    between atoms: C14_23  and  N4_24 
REMARK       I    between atoms: N4_24  and  C15_26 
REMARK   16  A    between atoms: C15_26  and  C16_28 
REMARK   17  A    between atoms: C19_32  and  C20_33 
REMARK   18  A    between atoms: C20_33  and  C21_34 
ROOT
HETATM    1  C13 UNL     1      18.042  21.381  19.132  1.00  0.00     0.105 C 
ENDROOT
BRANCH   1   2
HETATM    2  S3  UNL     1      17.553  21.052  17.417  1.00  0.00    -0.096 SA
BRANCH   2   3
HETATM    3  S2  UNL     1      15.614  21.704  16.959  1.00  0.00    -0.098 SA
BRANCH   3   4
HETATM    4  C12 UNL     1      14.488  21.638  18.342  1.00  0.00     0.086 C 
BRANCH   4   5
HETATM    5  C11 UNL     1      14.297  20.307  18.967  1.00  0.00     0.011 C 
BRANCH   5   6
HETATM    6  C10 UNL     1      14.573  19.127  18.054  1.00  0.00     0.001 C 
BRANCH   6   7
HETATM    7  C9  UNL     1      14.279  17.831  18.775  1.00  0.00     0.002 C 
BRANCH   7   8
HETATM    8  C8  UNL     1      13.344  18.080  19.933  1.00  0.00     0.020 C 
BRANCH   8   9
HETATM    9  C7  UNL     1      12.196  17.112  19.958  1.00  0.00     0.122 C 
BRANCH   9  10
HETATM   10  N3  UNL     1      11.059  17.704  19.293  1.00  0.00    -0.367 N 
ATOM     11  H3  UNL     1      10.555  18.452  19.768  1.00  0.00     0.161 HD
BRANCH  10  12
HETATM   12  C6  UNL     1      10.606  17.296  18.007  1.00  0.00     0.169 C 
HETATM   13  S1  UNL     1      10.355  15.702  17.683  1.00  0.00    -0.041 SA
BRANCH  12  14
HETATM   14  N2  UNL     1      10.399  18.279  17.009  1.00  0.00    -0.355 N 
HETATM   15  C5  UNL     1      11.095  19.535  17.101  1.00  0.00     0.145 C 
HETATM   16  C4  UNL     1      10.970  20.333  15.816  1.00  0.00     0.148 C 
HETATM   17  N1  UNL     1      11.060  19.403  14.712  1.00  0.00    -0.325 N 
HETATM   18  C3  UNL     1      12.114  19.505  13.772  1.00  0.00     0.362 C 
HETATM   19  C31 UNL     1      10.067  18.374  14.587  1.00  0.00     0.148 C 
HETATM   20  O2  UNL     1      12.156  18.691  12.824  1.00  0.00    -0.238 OA
HETATM   21  C30 UNL     1       9.483  17.973  15.926  1.00  0.00     0.145 C 
BRANCH  18  22
HETATM   22  O1  UNL     1      13.094  20.454  13.848  1.00  0.00    -0.304 OA
BRANCH  22  23
HETATM   23  C2  UNL     1      14.467  20.168  13.633  1.00  0.00     0.176 C 
HETATM   24  C1  UNL     1      15.177  21.391  13.076  1.00  0.00     0.034 C 
ENDBRANCH  22  23
ENDBRANCH  18  22
ENDBRANCH  12  14
ENDBRANCH  10  12
ENDBRANCH   9  10
ENDBRANCH   8   9
ENDBRANCH   7   8
ENDBRANCH   6   7
ENDBRANCH   5   6
ENDBRANCH   4   5
ENDBRANCH   3   4
ENDBRANCH   2   3
ENDBRANCH   1   2
BRANCH   1  25
HETATM   25  C14 UNL     1      19.195  22.315  19.228  1.00  0.00     0.133 C 
BRANCH  25  26
HETATM   26  N4  UNL     1      19.107  23.374  18.287  1.00  0.00    -0.359 N 
HETATM   27  C15 UNL     1      18.285  24.494  18.468  1.00  0.00     0.248 C 
HETATM   28  O3  UNL     1      17.587  24.600  19.516  1.00  0.00    -0.271 OA
ATOM     29  H4  UNL     1      19.668  23.317  17.438  1.00  0.00     0.162 HD
BRANCH  27  30
HETATM   30  C16 UNL     1      18.262  25.532  17.408  1.00  0.00     0.284 C 
HETATM   31  C17 UNL     1      17.955  24.858  16.089  1.00  0.00     0.123 C 
HETATM   32  C18 UNL     1      18.546  25.879  15.149  1.00  0.00     0.160 C 
HETATM   33  O4  UNL     1      18.133  26.122  14.060  1.00  0.00    -0.296 OA
HETATM   34  C19 UNL     1      19.690  26.477  15.858  1.00  0.00     0.256 C 
HETATM   35  N6  UNL     1      19.599  26.071  17.251  1.00  0.00    -0.051 N 
ATOM     36  H62 UNL     1      19.822  26.817  17.912  1.00  0.00     0.279 HD
ATOM     37  H61 UNL     1      20.337  25.431  17.542  1.00  0.00     0.279 HD
BRANCH  34  38
HETATM   38  C20 UNL     1      21.010  25.977  15.318  1.00  0.00     0.047 C 
BRANCH  38  39
HETATM   39  C21 UNL     1      21.829  27.078  14.699  1.00  0.00     0.021 C 
HETATM   40  C22 UNL     1      20.902  28.148  14.181  1.00  0.00     0.008 C 
HETATM   41  C23 UNL     1      21.647  29.309  13.574  1.00  0.00     0.031 C 
HETATM   42  C24 UNL     1      23.119  29.209  13.969  1.00  0.00     0.273 C 
HETATM   43  N5  UNL     1      23.144  28.958  15.392  1.00  0.00     0.093 N 
HETATM   44  C25 UNL     1      24.292  29.472  16.050  1.00  0.00     0.273 C 
HETATM   45  C29 UNL     1      22.767  27.625  15.768  1.00  0.00     0.227 C 
HETATM   46  C26 UNL     1      25.464  28.544  15.705  1.00  0.00     0.030 C 
HETATM   47  C27 UNL     1      25.177  27.242  16.406  1.00  0.00     0.004 C 
HETATM   48  C28 UNL     1      23.898  26.666  15.893  1.00  0.00     0.036 C 
ENDBRANCH  38  39
ENDBRANCH  34  38
ENDBRANCH  27  30
ENDBRANCH  25  26
ENDBRANCH   1  25
TORSDOF 18
ENDMDL
MODEL 3
REMARK VINA RESULT: -7.949906964      4.528     12.609
REMARK  18 active torsions:
REMARK  status: ('A' for Active; 'I' for Inactive)
REMARK    1  A    between atoms: C2_2  and  O1_3 
REMARK    2  A    between atoms: O1_3  and  C3_4 
REMARK       I    between atoms: C3_4  and  N1_6 
REMARK    3  A    between atoms: N2_9  and  C6_10 
REMARK    4  A    between atoms: C6_10  and  N3_12 
REMARK    5  A    between atoms: N3_12  and  C7_14 
REMARK    6  A    between atoms: C7_14  and  C8_15 
REMARK    7  A    between atoms: C8_15  and  C9_16 
REMARK    8  A    between atoms: C9_16  and  C10_17 
REMARK    9  A    between atoms: C10_17  and  C11_18 
REMARK   10  A    between atoms: C11_18  and  C12_19 
REMARK   11  A    between atoms: C12_19  and  S2_20 
REMARK   12  A    between atoms: S2_20  and  S3_21 
REMARK   13  A    between atoms: S3_21  and  C13_22 
REMARK   14  A    between atoms: C13_22  and  C14_23 
REMARK   15  A    between atoms: C14_23  and  N4_24 
REMARK       I    between atoms: N4_24  and  C15_26 
REMARK   16  A    between atoms: C15_26  and  C16_28 
REMARK   17  A    between atoms: C19_32  and  C20_33 
REMARK   18  A    between atoms: C20_33  and  C21_34 
ROOT
HETATM    1  C13 UNL     1      20.323  25.465  15.641  1.00  0.00     0.105 C 
ENDROOT
BRANCH   1   2
HETATM    2  S3  UNL     1      20.819  26.609  14.324  1.00  0.00    -0.096 SA
BRANCH   2   3
HETATM    3  S2  UNL     1      21.271  28.536  15.014  1.00  0.00    -0.098 SA
BRANCH   3   4
HETATM    4  C12 UNL     1      22.540  29.360  14.069  1.00  0.00     0.086 C 
BRANCH   4   5
HETATM    5  C11 UNL     1      23.546  30.121  14.848  1.00  0.00     0.011 C 
BRANCH   5   6
HETATM    6  C10 UNL     1      24.232  29.332  15.948  1.00  0.00     0.001 C 
BRANCH   6   7
HETATM    7  C9  UNL     1      25.638  28.968  15.529  1.00  0.00     0.002 C 
BRANCH   7   8
HETATM    8  C8  UNL     1      25.766  27.471  15.384  1.00  0.00     0.020 C 
BRANCH   8   9
HETATM    9  C7  UNL     1      24.582  26.740  15.950  1.00  0.00     0.122 C 
BRANCH   9  10
HETATM   10  N3  UNL     1      25.007  25.950  17.083  1.00  0.00    -0.367 N 
ATOM     11  H3  UNL     1      25.381  25.017  16.910  1.00  0.00     0.161 HD
BRANCH  10  12
HETATM   12  C6  UNL     1      24.931  26.407  18.428  1.00  0.00     0.169 C 
HETATM   13  S1  UNL     1      26.103  27.389  19.037  1.00  0.00    -0.041 SA
BRANCH  12  14
HETATM   14  N2  UNL     1      23.848  25.985  19.236  1.00  0.00    -0.355 N 
HETATM   15  C5  UNL     1      24.113  25.393  20.520  1.00  0.00     0.145 C 
HETATM   16  C4  UNL     1      22.845  25.270  21.345  1.00  0.00     0.148 C 
HETATM   17  N1  UNL     1      22.056  26.459  21.117  1.00  0.00    -0.325 N 
HETATM   18  C3  UNL     1      21.754  27.337  22.187  1.00  0.00     0.362 C 
HETATM   19  C31 UNL     1      21.587  26.739  19.789  1.00  0.00     0.148 C 
HETATM   20  O2  UNL     1      21.060  28.351  21.956  1.00  0.00    -0.238 OA
HETATM   21  C30 UNL     1      22.502  26.168  18.725  1.00  0.00     0.145 C 
BRANCH  18  22
HETATM   22  O1  UNL     1      22.184  27.130  23.467  1.00  0.00    -0.304 OA
BRANCH  22  23
HETATM   23  C2  UNL     1      21.711  27.881  24.573  1.00  0.00     0.176 C 
HETATM   24  C1  UNL     1      22.754  27.903  25.679  1.00  0.00     0.034 C 
ENDBRANCH  22  23
ENDBRANCH  18  22
ENDBRANCH  12  14
ENDBRANCH  10  12
ENDBRANCH   9  10
ENDBRANCH   8   9
ENDBRANCH   7   8
ENDBRANCH   6   7
ENDBRANCH   5   6
ENDBRANCH   4   5
ENDBRANCH   3   4
ENDBRANCH   2   3
ENDBRANCH   1   2
BRANCH   1  25
HETATM   25  C14 UNL     1      19.424  26.102  16.641  1.00  0.00     0.133 C 
BRANCH  25  26
HETATM   26  N4  UNL     1      19.066  25.210  17.686  1.00  0.00    -0.359 N 
HETATM   27  C15 UNL     1      17.739  24.959  18.057  1.00  0.00     0.248 C 
HETATM   28  O3  UNL     1      16.794  25.529  17.442  1.00  0.00    -0.271 OA
ATOM     29  H4  UNL     1      19.810  24.728  18.190  1.00  0.00     0.162 HD
BRANCH  27  30
HETATM   30  C16 UNL     1      17.485  24.017  19.176  1.00  0.00     0.284 C 
HETATM   31  C17 UNL     1      18.728  23.179  19.384  1.00  0.00     0.123 C 
HETATM   32  C18 UNL     1      18.106  21.985  20.063  1.00  0.00     0.160 C 
HETATM   33  O4  UNL     1      18.643  21.313  20.886  1.00  0.00    -0.296 OA
HETATM   34  C19 UNL     1      16.751  21.851  19.503  1.00  0.00     0.256 C 
HETATM   35  N6  UNL     1      16.460  23.074  18.771  1.00  0.00    -0.051 N 
ATOM     36  H62 UNL     1      15.509  23.418  18.906  1.00  0.00     0.279 HD
ATOM     37  H61 UNL     1      16.398  22.943  17.762  1.00  0.00     0.279 HD
BRANCH  34  38
HETATM   38  C20 UNL     1      16.654  20.698  18.531  1.00  0.00     0.047 C 
BRANCH  38  39
HETATM   39  C21 UNL     1      15.297  20.604  17.887  1.00  0.00     0.021 C 
HETATM   40  C22 UNL     1      15.448  20.778  16.397  1.00  0.00     0.008 C 
HETATM   41  C23 UNL     1      14.134  20.662  15.669  1.00  0.00     0.031 C 
HETATM   42  C24 UNL     1      13.096  20.067  16.619  1.00  0.00     0.273 C 
HETATM   43  N5  UNL     1      13.719  18.920  17.239  1.00  0.00     0.093 N 
HETATM   44  C25 UNL     1      12.809  17.892  17.600  1.00  0.00     0.273 C 
HETATM   45  C29 UNL     1      14.706  19.241  18.230  1.00  0.00     0.227 C 
HETATM   46  C26 UNL     1      12.067  18.367  18.857  1.00  0.00     0.030 C 
HETATM   47  C27 UNL     1      13.091  18.371  19.961  1.00  0.00     0.004 C 
HETATM   48  C28 UNL     1      14.191  19.325  19.624  1.00  0.00     0.036 C 
ENDBRANCH  38  39
ENDBRANCH  34  38
ENDBRANCH  27  30
ENDBRANCH  25  26
ENDBRANCH   1  25
TORSDOF 18
ENDMDL
MODEL 4
REMARK VINA RESULT: -7.887216727      2.653      4.459
REMARK  18 active torsions:
REMARK  status: ('A' for Active; 'I' for Inactive)
REMARK    1  A    between atoms: C2_2  and  O1_3 
REMARK    2  A    between atoms: O1_3  and  C3_4 
REMARK       I    between atoms: C3_4  and  N1_6 
REMARK    3  A    between atoms: N2_9  and  C6_10 
REMARK    4  A    between atoms: C6_10  and  N3_12 
REMARK    5  A    between atoms: N3_12  and  C7_14 
REMARK    6  A    between atoms: C7_14  and  C8_15 
REMARK    7  A    between atoms: C8_15  and  C9_16 
REMARK    8  A    between atoms: C9_16  and  C10_17 
REMARK    9  A    between atoms: C10_17  and  C11_18 
REMARK   10  A    between atoms: C11_18  and  C12_19 
REMARK   11  A    between atoms: C12_19  and  S2_20 
REMARK   12  A    between atoms: S2_20  and  S3_21 
REMARK   13  A    between atoms: S3_21  and  C13_22 
REMARK   14  A    between atoms: C13_22  and  C14_23 
REMARK   15  A    between atoms: C14_23  and  N4_24 
REMARK       I    between atoms: N4_24  and  C15_26 
REMARK   16  A    between atoms: C15_26  and  C16_28 
REMARK   17  A    between atoms: C19_32  and  C20_33 
REMARK   18  A    between atoms: C20_33  and  C21_34 
ROOT
HETATM    1  C13 UNL     1      17.370  22.229  18.747  1.00  0.00     0.105 C 
ENDROOT
BRANCH   1   2
HETATM    2  S3  UNL     1      16.265  20.816  18.476  1.00  0.00    -0.096 SA
BRANCH   2   3
HETATM    3  S2  UNL     1      14.559  21.290  17.355  1.00  0.00    -0.098 SA
BRANCH   3   4
HETATM    4  C12 UNL     1      14.587  22.935  16.662  1.00  0.00     0.086 C 
BRANCH   4   5
HETATM    5  C11 UNL     1      14.940  23.034  15.226  1.00  0.00     0.011 C 
BRANCH   5   6
HETATM    6  C10 UNL     1      15.667  21.828  14.662  1.00  0.00     0.001 C 
BRANCH   6   7
HETATM    7  C9  UNL     1      14.973  21.338  13.412  1.00  0.00     0.002 C 
BRANCH   7   8
HETATM    8  C8  UNL     1      14.294  20.017  13.679  1.00  0.00     0.020 C 
BRANCH   8   9
HETATM    9  C7  UNL     1      12.830  20.178  13.976  1.00  0.00     0.122 C 
BRANCH   9  10
HETATM   10  N3  UNL     1      12.184  18.888  13.902  1.00  0.00    -0.367 N 
ATOM     11  H3  UNL     1      12.699  18.111  13.487  1.00  0.00     0.161 HD
BRANCH  10  12
HETATM   12  C6  UNL     1      10.865  18.645  14.379  1.00  0.00     0.169 C 
HETATM   13  S1  UNL     1       9.579  19.397  13.680  1.00  0.00    -0.041 SA
BRANCH  12  14
HETATM   14  N2  UNL     1      10.684  17.768  15.475  1.00  0.00    -0.355 N 
HETATM   15  C5  UNL     1      11.751  16.880  15.854  1.00  0.00     0.145 C 
HETATM   16  C4  UNL     1      11.483  16.235  17.201  1.00  0.00     0.148 C 
HETATM   17  N1  UNL     1      10.881  17.235  18.055  1.00  0.00    -0.325 N 
HETATM   18  C3  UNL     1      11.531  17.650  19.243  1.00  0.00     0.362 C 
HETATM   19  C31 UNL     1       9.618  17.802  17.677  1.00  0.00     0.148 C 
HETATM   20  O2  UNL     1      10.978  18.509  19.963  1.00  0.00    -0.238 OA
HETATM   21  C30 UNL     1       9.414  17.802  16.176  1.00  0.00     0.145 C 
BRANCH  18  22
HETATM   22  O1  UNL     1      12.740  17.156  19.645  1.00  0.00    -0.304 OA
BRANCH  22  23
HETATM   23  C2  UNL     1      13.960  17.856  19.465  1.00  0.00     0.176 C 
HETATM   24  C1  UNL     1      14.662  17.374  18.206  1.00  0.00     0.034 C 
ENDBRANCH  22  23
ENDBRANCH  18  22
ENDBRANCH  12  14
ENDBRANCH  10  12
ENDBRANCH   9  10
ENDBRANCH   8   9
ENDBRANCH   7   8
ENDBRANCH   6   7
ENDBRANCH   5   6
ENDBRANCH   4   5
ENDBRANCH   3   4
ENDBRANCH   2   3
ENDBRANCH   1   2
BRANCH   1  25
HETATM   25  C14 UNL     1      18.273  22.031  19.912  1.00  0.00     0.133 C 
BRANCH  25  26
HETATM   26  N4  UNL     1      19.427  22.856  19.841  1.00  0.00    -0.359 N 
HETATM   27  C15 UNL     1      19.530  24.089  20.497  1.00  0.00     0.248 C 
HETATM   28  O3  UNL     1      18.570  24.508  21.204  1.00  0.00    -0.271 OA
ATOM     29  H4  UNL     1      20.220  22.535  19.285  1.00  0.00     0.162 HD
BRANCH  27  30
HETATM   30  C16 UNL     1      20.780  24.872  20.338  1.00  0.00     0.284 C 
HETATM   31  C17 UNL     1      20.648  26.149  21.139  1.00  0.00     0.123 C 
HETATM   32  C18 UNL     1      21.653  27.002  20.408  1.00  0.00     0.160 C 
HETATM   33  O4  UNL     1      22.316  27.854  20.909  1.00  0.00    -0.296 OA
HETATM   34  C19 UNL     1      21.627  26.558  19.004  1.00  0.00     0.256 C 
HETATM   35  N6  UNL     1      20.889  25.305  18.958  1.00  0.00    -0.051 N 
ATOM     36  H62 UNL     1      21.302  24.607  18.339  1.00  0.00     0.279 HD
ATOM     37  H61 UNL     1      19.992  25.375  18.477  1.00  0.00     0.279 HD
BRANCH  34  38
HETATM   38  C20 UNL     1      20.912  27.547  18.113  1.00  0.00     0.047 C 
BRANCH  38  39
HETATM   39  C21 UNL     1      21.091  27.235  16.652  1.00  0.00     0.021 C 
HETATM   40  C22 UNL     1      19.821  26.618  16.123  1.00  0.00     0.008 C 
HETATM   41  C23 UNL     1      19.904  26.306  14.651  1.00  0.00     0.031 C 
HETATM   42  C24 UNL     1      21.122  27.018  14.065  1.00  0.00     0.273 C 
HETATM   43  N5  UNL     1      21.069  28.380  14.546  1.00  0.00     0.093 N 
HETATM   44  C25 UNL     1      21.649  29.328  13.662  1.00  0.00     0.273 C 
HETATM   45  C29 UNL     1      21.418  28.537  15.929  1.00  0.00     0.227 C 
HETATM   46  C26 UNL     1      23.172  29.179  13.776  1.00  0.00     0.030 C 
HETATM   47  C27 UNL     1      23.531  29.674  15.152  1.00  0.00     0.004 C 
HETATM   48  C28 UNL     1      22.855  28.830  16.183  1.00  0.00     0.036 C 
ENDBRANCH  38  39
ENDBRANCH  34  38
ENDBRANCH  27  30
ENDBRANCH  25  26
ENDBRANCH   1  25
TORSDOF 18
ENDMDL
MODEL 5
REMARK VINA RESULT: -7.849251621      1.736      2.791
REMARK  18 active torsions:
REMARK  status: ('A' for Active; 'I' for Inactive)
REMARK    1  A    between atoms: C2_2  and  O1_3 
REMARK    2  A    between atoms: O1_3  and  C3_4 
REMARK       I    between atoms: C3_4  and  N1_6 
REMARK    3  A    between atoms: N2_9  and  C6_10 
REMARK    4  A    between atoms: C6_10  and  N3_12 
REMARK    5  A    between atoms: N3_12  and  C7_14 
REMARK    6  A    between atoms: C7_14  and  C8_15 
REMARK    7  A    between atoms: C8_15  and  C9_16 
REMARK    8  A    between atoms: C9_16  and  C10_17 
REMARK    9  A    between atoms: C10_17  and  C11_18 
REMARK   10  A    between atoms: C11_18  and  C12_19 
REMARK   11  A    between atoms: C12_19  and  S2_20 
REMARK   12  A    between atoms: S2_20  and  S3_21 
REMARK   13  A    between atoms: S3_21  and  C13_22 
REMARK   14  A    between atoms: C13_22  and  C14_23 
REMARK   15  A    between atoms: C14_23  and  N4_24 
REMARK       I    between atoms: N4_24  and  C15_26 
REMARK   16  A    between atoms: C15_26  and  C16_28 
REMARK   17  A    between atoms: C19_32  and  C20_33 
REMARK   18  A    between atoms: C20_33  and  C21_34 
ROOT
HETATM    1  C13 UNL     1      14.951  22.216  18.566  1.00  0.00     0.105 C 
ENDROOT
BRANCH   1   2
HETATM    2  S3  UNL     1      13.694  21.139  17.825  1.00  0.00    -0.096 SA
BRANCH   2   3
HETATM    3  S2  UNL     1      14.372  19.188  17.464  1.00  0.00    -0.098 SA
BRANCH   3   4
HETATM    4  C12 UNL     1      14.437  18.167  18.925  1.00  0.00     0.086 C 
BRANCH   4   5
HETATM    5  C11 UNL     1      13.681  18.658  20.102  1.00  0.00     0.011 C 
BRANCH   5   6
HETATM    6  C10 UNL     1      12.187  18.396  20.057  1.00  0.00     0.001 C 
BRANCH   6   7
HETATM    7  C9  UNL     1      11.922  16.949  19.708  1.00  0.00     0.002 C 
BRANCH   7   8
HETATM    8  C8  UNL     1      11.380  16.844  18.303  1.00  0.00     0.020 C 
BRANCH   8   9
HETATM    9  C7  UNL     1       9.945  17.282  18.212  1.00  0.00     0.122 C 
BRANCH   9  10
HETATM   10  N3  UNL     1       9.827  18.319  17.213  1.00  0.00    -0.367 N 
ATOM     11  H3  UNL     1       9.723  19.284  17.526  1.00  0.00     0.161 HD
BRANCH  10  12
HETATM   12  C6  UNL     1       9.848  18.063  15.813  1.00  0.00     0.169 C 
HETATM   13  S1  UNL     1       9.314  16.622  15.225  1.00  0.00    -0.041 SA
BRANCH  12  14
HETATM   14  N2  UNL     1      10.357  19.056  14.942  1.00  0.00    -0.355 N 
HETATM   15  C5  UNL     1      10.764  20.327  15.480  1.00  0.00     0.145 C 
HETATM   16  C4  UNL     1      11.536  21.141  14.458  1.00  0.00     0.148 C 
HETATM   17  N1  UNL     1      12.386  20.230  13.725  1.00  0.00    -0.325 N 
HETATM   18  C3  UNL     1      13.795  20.371  13.768  1.00  0.00     0.362 C 
HETATM   19  C31 UNL     1      11.781  19.180  12.956  1.00  0.00     0.148 C 
HETATM   20  O2  UNL     1      14.500  19.573  13.113  1.00  0.00    -0.238 OA
HETATM   21  C30 UNL     1      10.447  18.745  13.527  1.00  0.00     0.145 C 
BRANCH  18  22
HETATM   22  O1  UNL     1      14.427  21.342  14.492  1.00  0.00    -0.304 OA
BRANCH  22  23
HETATM   23  C2  UNL     1      15.550  22.061  14.009  1.00  0.00     0.176 C 
HETATM   24  C1  UNL     1      16.393  22.561  15.171  1.00  0.00     0.034 C 
ENDBRANCH  22  23
ENDBRANCH  18  22
ENDBRANCH  12  14
ENDBRANCH  10  12
ENDBRANCH   9  10
ENDBRANCH   8   9
ENDBRANCH   7   8
ENDBRANCH   6   7
ENDBRANCH   5   6
ENDBRANCH   4   5
ENDBRANCH   3   4
ENDBRANCH   2   3
ENDBRANCH   1   2
BRANCH   1  25
HETATM   25  C14 UNL     1      15.917  21.467  19.413  1.00  0.00     0.133 C 
BRANCH  25  26
HETATM   26  N4  UNL     1      17.120  22.192  19.623  1.00  0.00    -0.359 N 
HETATM   27  C15 UNL     1      18.290  21.964  18.887  1.00  0.00     0.248 C 
HETATM   28  O3  UNL     1      18.302  21.087  17.978  1.00  0.00    -0.271 OA
ATOM     29  H4  UNL     1      17.134  22.913  20.343  1.00  0.00     0.162 HD
BRANCH  27  30
HETATM   30  C16 UNL     1      19.494  22.773  19.205  1.00  0.00     0.284 C 
HETATM   31  C17 UNL     1      19.163  23.678  20.372  1.00  0.00     0.123 C 
HETATM   32  C18 UNL     1      20.198  24.752  20.148  1.00  0.00     0.160 C 
HETATM   33  O4  UNL     1      20.725  25.380  21.011  1.00  0.00    -0.296 OA
HETATM   34  C19 UNL     1      20.398  24.835  18.692  1.00  0.00     0.256 C 
HETATM   35  N6  UNL     1      19.762  23.670  18.098  1.00  0.00    -0.051 N 
ATOM     36  H62 UNL     1      20.305  23.243  17.346  1.00  0.00     0.279 HD
ATOM     37  H61 UNL     1      18.938  23.891  17.540  1.00  0.00     0.279 HD
BRANCH  34  38
HETATM   38  C20 UNL     1      19.747  26.065  18.104  1.00  0.00     0.047 C 
BRANCH  38  39
HETATM   39  C21 UNL     1      19.919  26.147  16.611  1.00  0.00     0.021 C 
HETATM   40  C22 UNL     1      18.574  25.982  15.951  1.00  0.00     0.008 C 
HETATM   41  C23 UNL     1      18.653  26.086  14.450  1.00  0.00     0.031 C 
HETATM   42  C24 UNL     1      20.015  26.665  14.069  1.00  0.00     0.273 C 
HETATM   43  N5  UNL     1      20.221  27.816  14.917  1.00  0.00     0.093 N 
HETATM   44  C25 UNL     1      21.020  28.832  14.329  1.00  0.00     0.273 C 
HETATM   45  C29 UNL     1      20.536  27.501  16.282  1.00  0.00     0.227 C 
HETATM   46  C26 UNL     1      22.474  28.344  14.369  1.00  0.00     0.030 C 
HETATM   47  C27 UNL     1      22.868  28.346  15.822  1.00  0.00     0.004 C 
HETATM   48  C28 UNL     1      21.991  27.406  16.583  1.00  0.00     0.036 C 
ENDBRANCH  38  39
ENDBRANCH  34  38
ENDBRANCH  27  30
ENDBRANCH  25  26
ENDBRANCH   1  25
TORSDOF 18
ENDMDL
