MODEL 1
REMARK VINA RESULT: -6.695185533      0.000      0.000
REMARK  4 active torsions:
REMARK  status: ('A' for Active; 'I' for Inactive)
REMARK    1  A    between atoms: C2_2  and  C3_3 
REMARK    2  A    between atoms: C3_3  and  N1_4 
REMARK    3  A    between atoms: C9_13  and  C11_15 
REMARK    4  A    between atoms: N4_22  and  C14_23 
ROOT
HETATM    1  N1  UNL     1     -23.238  36.375   0.445  1.00  0.00    -0.300 N 
HETATM    2  C4  UNL     1     -23.334  36.201   1.779  1.00  0.00     0.071 A 
HETATM    3  C5  UNL     1     -23.310  37.375   2.589  1.00  0.00     0.080 A 
HETATM    4  C6  UNL     1     -23.191  38.641   2.049  1.00  0.00     0.262 A 
HETATM    5  O1  UNL     1     -23.167  39.677   2.757  1.00  0.00    -0.267 OA
HETATM    6  N2  UNL     1     -23.098  38.724   0.711  1.00  0.00    -0.270 N 
HETATM    7  C7  UNL     1     -22.967  40.076   0.164  1.00  0.00     0.164 C 
HETATM    8  C8  UNL     1     -23.118  37.651  -0.068  1.00  0.00     0.331 A 
HETATM    9  O2  UNL     1     -23.024  37.827  -1.329  1.00  0.00    -0.246 OA
HETATM   10  C9  UNL     1     -23.441  36.883   3.980  1.00  0.00     0.256 C 
HETATM   11  C10 UNL     1     -24.955  36.813   4.214  1.00  0.00     0.061 C 
HETATM   12  N3  UNL     1     -22.852  35.577   3.882  1.00  0.00     0.127 N 
HETATM   13  C12 UNL     1     -21.434  35.705   3.818  1.00  0.00     0.306 C 
HETATM   14  C13 UNL     1     -20.643  34.511   3.351  1.00  0.00     0.302 C 
HETATM   15  N4  UNL     1     -21.124  34.204   2.017  1.00  0.00     0.092 N 
HETATM   16  C16 UNL     1     -22.466  33.858   2.226  1.00  0.00     0.320 C 
HETATM   17  C17 UNL     1     -23.377  35.013   2.609  1.00  0.00     0.226 C 
HETATM   18  C18 UNL     1     -24.684  34.317   2.845  1.00  0.00     0.058 C 
ENDROOT
BRANCH  10  19
HETATM   19  C11 UNL     1     -22.886  37.717   5.066  1.00  0.00     0.295 C 
HETATM   20  F1  UNL     1     -21.578  38.088   4.649  1.00  0.00    -0.204 F 
HETATM   21 CL1  UNL     1     -23.819  39.011   5.738  1.00  0.00    -0.063 Cl
HETATM   22 CL2  UNL     1     -22.410  36.752   6.539  1.00  0.00    -0.063 Cl
ENDBRANCH  10  19
BRANCH   1  23
HETATM   23  C3  UNL     1     -23.326  35.373  -0.553  1.00  0.00     0.133 C 
BRANCH  23  24
HETATM   24  C2  UNL     1     -22.056  34.968  -1.236  1.00  0.00     0.016 C 
HETATM   25  C1  UNL     1     -22.040  33.778  -2.087  1.00  0.00     0.006 C 
ENDBRANCH  23  24
ENDBRANCH   1  23
BRANCH  15  26
HETATM   26  C14 UNL     1     -20.415  33.096   1.422  1.00  0.00     0.268 C 
HETATM   27  C15 UNL     1     -21.315  31.930   1.087  1.00  0.00     0.037 C 
ENDBRANCH  15  26
TORSDOF 4
ENDMDL
MODEL 2
REMARK VINA RESULT: -6.611876179      3.269      5.537
REMARK  4 active torsions:
REMARK  status: ('A' for Active; 'I' for Inactive)
REMARK    1  A    between atoms: C2_2  and  C3_3 
REMARK    2  A    between atoms: C3_3  and  N1_4 
REMARK    3  A    between atoms: C9_13  and  C11_15 
REMARK    4  A    between atoms: N4_22  and  C14_23 
ROOT
HETATM    1  N1  UNL     1     -21.783  35.398  -0.603  1.00  0.00    -0.300 N 
HETATM    2  C4  UNL     1     -21.644  34.564   0.449  1.00  0.00     0.071 A 
HETATM    3  C5  UNL     1     -21.778  33.167   0.191  1.00  0.00     0.080 A 
HETATM    4  C6  UNL     1     -22.041  32.673  -1.073  1.00  0.00     0.262 A 
HETATM    5  O1  UNL     1     -22.162  31.445  -1.305  1.00  0.00    -0.267 OA
HETATM    6  N2  UNL     1     -22.167  33.573  -2.063  1.00  0.00    -0.270 N 
HETATM    7  C7  UNL     1     -22.450  33.024  -3.390  1.00  0.00     0.164 C 
HETATM    8  C8  UNL     1     -22.047  34.876  -1.854  1.00  0.00     0.331 A 
HETATM    9  O2  UNL     1     -22.182  35.657  -2.855  1.00  0.00    -0.246 OA
HETATM   10  C9  UNL     1     -21.570  32.514   1.503  1.00  0.00     0.256 C 
HETATM   11  C10 UNL     1     -20.053  32.303   1.583  1.00  0.00     0.061 C 
HETATM   12  N3  UNL     1     -22.018  33.533   2.409  1.00  0.00     0.127 N 
HETATM   13  C12 UNL     1     -23.443  33.576   2.399  1.00  0.00     0.306 C 
HETATM   14  C13 UNL     1     -24.111  34.793   2.984  1.00  0.00     0.302 C 
HETATM   15  N4  UNL     1     -23.625  35.928   2.222  1.00  0.00     0.092 N 
HETATM   16  C16 UNL     1     -22.250  35.939   2.494  1.00  0.00     0.320 C 
HETATM   17  C17 UNL     1     -21.460  34.802   1.867  1.00  0.00     0.226 C 
HETATM   18  C18 UNL     1     -20.083  35.040   2.408  1.00  0.00     0.058 C 
ENDROOT
BRANCH  10  19
HETATM   19  C11 UNL     1     -22.191  31.191   1.726  1.00  0.00     0.295 C 
HETATM   20  F1  UNL     1     -23.588  31.377   1.546  1.00  0.00    -0.204 F 
HETATM   21 CL1  UNL     1     -21.548  29.783   0.951  1.00  0.00    -0.063 Cl
HETATM   22 CL2  UNL     1     -22.231  30.705   3.484  1.00  0.00    -0.063 Cl
ENDBRANCH  10  19
BRANCH   1  23
HETATM   23  C3  UNL     1     -21.608  36.803  -0.604  1.00  0.00     0.133 C 
BRANCH  23  24
HETATM   24  C2  UNL     1     -22.841  37.651  -0.645  1.00  0.00     0.016 C 
HETATM   25  C1  UNL     1     -22.883  38.825  -1.517  1.00  0.00     0.006 C 
ENDBRANCH  23  24
ENDBRANCH   1  23
BRANCH  15  26
HETATM   26  C14 UNL     1     -24.223  37.170   2.650  1.00  0.00     0.268 C 
HETATM   27  C15 UNL     1     -23.203  38.239   2.967  1.00  0.00     0.037 C 
ENDBRANCH  15  26
TORSDOF 4
ENDMDL
MODEL 3
REMARK VINA RESULT: -6.543375636      3.627      5.633
REMARK  4 active torsions:
REMARK  status: ('A' for Active; 'I' for Inactive)
REMARK    1  A    between atoms: C2_2  and  C3_3 
REMARK    2  A    between atoms: C3_3  and  N1_4 
REMARK    3  A    between atoms: C9_13  and  C11_15 
REMARK    4  A    between atoms: N4_22  and  C14_23 
ROOT
HETATM    1  N1  UNL     1     -21.306  32.117   0.851  1.00  0.00    -0.300 N 
HETATM    2  C4  UNL     1     -21.354  32.756   2.038  1.00  0.00     0.071 A 
HETATM    3  C5  UNL     1     -21.756  31.989   3.172  1.00  0.00     0.080 A 
HETATM    4  C6  UNL     1     -22.087  30.651   3.076  1.00  0.00     0.262 A 
HETATM    5  O1  UNL     1     -22.443  29.971   4.069  1.00  0.00    -0.267 OA
HETATM    6  N2  UNL     1     -22.015  30.093   1.855  1.00  0.00    -0.270 N 
HETATM    7  C7  UNL     1     -22.376  28.675   1.780  1.00  0.00     0.164 C 
HETATM    8  C8  UNL     1     -21.645  30.780   0.784  1.00  0.00     0.331 A 
HETATM    9  O2  UNL     1     -21.604  30.166  -0.335  1.00  0.00    -0.246 OA
HETATM   10  C9  UNL     1     -21.705  32.933   4.311  1.00  0.00     0.256 C 
HETATM   11  C10 UNL     1     -20.261  32.835   4.818  1.00  0.00     0.061 C 
HETATM   12  N3  UNL     1     -21.961  34.187   3.659  1.00  0.00     0.127 N 
HETATM   13  C12 UNL     1     -23.349  34.280   3.348  1.00  0.00     0.306 C 
HETATM   14  C13 UNL     1     -23.774  35.327   2.352  1.00  0.00     0.302 C 
HETATM   15  N4  UNL     1     -23.060  35.033   1.124  1.00  0.00     0.092 N 
HETATM   16  C16 UNL     1     -21.715  35.205   1.480  1.00  0.00     0.320 C 
HETATM   17  C17 UNL     1     -21.153  34.143   2.410  1.00  0.00     0.226 C 
HETATM   18  C18 UNL     1     -19.767  34.651   2.665  1.00  0.00     0.058 C 
ENDROOT
BRANCH  10  19
HETATM   19  C11 UNL     1     -22.579  32.666   5.473  1.00  0.00     0.295 C 
HETATM   20  F1  UNL     1     -22.656  33.887   6.197  1.00  0.00    -0.204 F 
HETATM   21 CL1  UNL     1     -24.097  31.862   5.258  1.00  0.00    -0.063 Cl
HETATM   22 CL2  UNL     1     -21.768  31.664   6.764  1.00  0.00    -0.063 Cl
ENDBRANCH  10  19
BRANCH   1  23
HETATM   23  C3  UNL     1     -20.857  32.646  -0.384  1.00  0.00     0.133 C 
BRANCH  23  24
HETATM   24  C2  UNL     1     -21.893  32.944  -1.423  1.00  0.00     0.016 C 
HETATM   25  C1  UNL     1     -21.499  33.593  -2.673  1.00  0.00     0.006 C 
ENDBRANCH  23  24
ENDBRANCH   1  23
BRANCH  15  26
HETATM   26  C14 UNL     1     -23.409  35.941   0.058  1.00  0.00     0.268 C 
HETATM   27  C15 UNL     1     -22.209  36.627  -0.552  1.00  0.00     0.037 C 
ENDBRANCH  15  26
TORSDOF 4
ENDMDL
MODEL 4
REMARK VINA RESULT: -6.358881336      3.395      5.600
REMARK  4 active torsions:
REMARK  status: ('A' for Active; 'I' for Inactive)
REMARK    1  A    between atoms: C2_2  and  C3_3 
REMARK    2  A    between atoms: C3_3  and  N1_4 
REMARK    3  A    between atoms: C9_13  and  C11_15 
REMARK    4  A    between atoms: N4_22  and  C14_23 
ROOT
HETATM    1  N1  UNL     1     -21.373  31.580   1.376  1.00  0.00    -0.300 N 
HETATM    2  C4  UNL     1     -21.323  32.556   2.306  1.00  0.00     0.071 A 
HETATM    3  C5  UNL     1     -21.819  32.239   3.605  1.00  0.00     0.080 A 
HETATM    4  C6  UNL     1     -22.335  30.995   3.914  1.00  0.00     0.262 A 
HETATM    5  O1  UNL     1     -22.775  30.711   5.055  1.00  0.00    -0.267 OA
HETATM    6  N2  UNL     1     -22.350  30.082   2.928  1.00  0.00    -0.270 N 
HETATM    7  C7  UNL     1     -22.906  28.773   3.280  1.00  0.00     0.164 C 
HETATM    8  C8  UNL     1     -21.896  30.346   1.712  1.00  0.00     0.331 A 
HETATM    9  O2  UNL     1     -21.950  29.416   0.839  1.00  0.00    -0.246 OA
HETATM   10  C9  UNL     1     -21.629  33.474   4.399  1.00  0.00     0.256 C 
HETATM   11  C10 UNL     1     -20.209  33.344   4.965  1.00  0.00     0.061 C 
HETATM   12  N3  UNL     1     -21.712  34.487   3.385  1.00  0.00     0.127 N 
HETATM   13  C12 UNL     1     -23.076  34.665   3.010  1.00  0.00     0.306 C 
HETATM   14  C13 UNL     1     -23.358  35.399   1.725  1.00  0.00     0.302 C 
HETATM   15  N4  UNL     1     -22.701  34.646   0.674  1.00  0.00     0.092 N 
HETATM   16  C16 UNL     1     -21.343  34.737   1.008  1.00  0.00     0.320 C 
HETATM   17  C17 UNL     1     -20.928  33.949   2.240  1.00  0.00     0.226 C 
HETATM   18  C18 UNL     1     -19.482  34.319   2.377  1.00  0.00     0.058 C 
ENDROOT
BRANCH  10  19
HETATM   19  C11 UNL     1     -22.523  33.701   5.555  1.00  0.00     0.295 C 
HETATM   20  F1  UNL     1     -23.843  33.472   5.082  1.00  0.00    -0.204 F 
HETATM   21 CL1  UNL     1     -22.172  32.975   7.086  1.00  0.00    -0.063 Cl
HETATM   22 CL2  UNL     1     -22.714  35.466   5.977  1.00  0.00    -0.063 Cl
ENDBRANCH  10  19
BRANCH   1  23
HETATM   23  C3  UNL     1     -20.864  31.635   0.055  1.00  0.00     0.133 C 
BRANCH  23  24
HETATM   24  C2  UNL     1     -21.856  31.723  -1.062  1.00  0.00     0.016 C 
HETATM   25  C1  UNL     1     -21.435  32.237  -2.366  1.00  0.00     0.006 C 
ENDBRANCH  23  24
ENDBRANCH   1  23
BRANCH  15  26
HETATM   26  C14 UNL     1     -22.928  35.216  -0.632  1.00  0.00     0.268 C 
HETATM   27  C15 UNL     1     -22.219  36.535  -0.833  1.00  0.00     0.037 C 
ENDBRANCH  15  26
TORSDOF 4
ENDMDL
MODEL 5
REMARK VINA RESULT: -6.310827276      4.538      6.567
REMARK  4 active torsions:
REMARK  status: ('A' for Active; 'I' for Inactive)
REMARK    1  A    between atoms: C2_2  and  C3_3 
REMARK    2  A    between atoms: C3_3  and  N1_4 
REMARK    3  A    between atoms: C9_13  and  C11_15 
REMARK    4  A    between atoms: N4_22  and  C14_23 
ROOT
HETATM    1  N1  UNL     1     -22.488  29.854   3.459  1.00  0.00    -0.300 N 
HETATM    2  C4  UNL     1     -22.466  31.135   3.884  1.00  0.00     0.071 A 
HETATM    3  C5  UNL     1     -22.073  32.125   2.935  1.00  0.00     0.080 A 
HETATM    4  C6  UNL     1     -21.724  31.805   1.637  1.00  0.00     0.262 A 
HETATM    5  O1  UNL     1     -21.375  32.672   0.799  1.00  0.00    -0.267 OA
HETATM    6  N2  UNL     1     -21.770  30.505   1.298  1.00  0.00    -0.270 N 
HETATM    7  C7  UNL     1     -21.391  30.192  -0.081  1.00  0.00     0.164 C 
HETATM    8  C8  UNL     1     -22.133  29.563   2.157  1.00  0.00     0.331 A 
HETATM    9  O2  UNL     1     -22.148  28.354   1.746  1.00  0.00    -0.246 OA
HETATM   10  C9  UNL     1     -22.153  33.410   3.667  1.00  0.00     0.256 C 
HETATM   11  C10 UNL     1     -23.603  33.867   3.469  1.00  0.00     0.061 C 
HETATM   12  N3  UNL     1     -21.902  32.989   5.017  1.00  0.00     0.127 N 
HETATM   13  C12 UNL     1     -20.511  32.723   5.176  1.00  0.00     0.306 C 
HETATM   14  C13 UNL     1     -20.083  31.931   6.383  1.00  0.00     0.302 C 
HETATM   15  N4  UNL     1     -20.774  30.659   6.300  1.00  0.00     0.092 N 
HETATM   16  C16 UNL     1     -22.126  31.015   6.396  1.00  0.00     0.320 C 
HETATM   17  C17 UNL     1     -22.690  31.738   5.183  1.00  0.00     0.226 C 
HETATM   18  C18 UNL     1     -24.086  32.053   5.626  1.00  0.00     0.058 C 
ENDROOT
BRANCH  10  19
HETATM   19  C11 UNL     1     -21.294  34.523   3.211  1.00  0.00     0.295 C 
HETATM   20  F1  UNL     1     -21.308  35.485   4.257  1.00  0.00    -0.204 F 
HETATM   21 CL1  UNL     1     -19.726  34.202   2.551  1.00  0.00    -0.063 Cl
HETATM   22 CL2  UNL     1     -22.075  35.548   1.921  1.00  0.00    -0.063 Cl
ENDBRANCH  10  19
BRANCH   1  23
HETATM   23  C3  UNL     1     -22.924  28.722   4.191  1.00  0.00     0.133 C 
BRANCH  23  24
HETATM   24  C2  UNL     1     -21.877  27.895   4.869  1.00  0.00     0.016 C 
HETATM   25  C1  UNL     1     -21.803  26.459   4.600  1.00  0.00     0.006 C 
ENDBRANCH  23  24
ENDBRANCH   1  23
BRANCH  15  26
HETATM   26  C14 UNL     1     -20.420  29.772   7.382  1.00  0.00     0.268 C 
HETATM   27  C15 UNL     1     -20.992  30.203   8.712  1.00  0.00     0.037 C 
ENDBRANCH  15  26
TORSDOF 4
ENDMDL
