MODEL 1
REMARK VINA RESULT: -8.687078078      0.000      0.000
REMARK  11 active torsions:
REMARK  status: ('A' for Active; 'I' for Inactive)
REMARK    1  A    between atoms: C2_2  and  C3_3 
REMARK    2  A    between atoms: C3_3  and  C4_4 
REMARK    3  A    between atoms: C5_7  and  N2_8 
REMARK    4  A    between atoms: N2_8  and  C6_9 
REMARK    5  A    between atoms: C6_9  and  C7_10 
REMARK    6  A    between atoms: C6_9  and  C10_13 
REMARK    7  A    between atoms: C7_10  and  C8_11 
REMARK       I    between atoms: C10_13  and  N3_15 
REMARK    8  A    between atoms: N3_15  and  C11_17 
REMARK    9  A    between atoms: C11_17  and  C12_18 
REMARK       I    between atoms: C12_18  and  N4_20 
REMARK   10  A    between atoms: C16_24  and  C17_25 
REMARK   11  A    between atoms: C24_34  and  C25_35 
ROOT
HETATM    1  C11 UNL     1      -2.435   5.779   8.730  1.00  0.00     0.122 C 
HETATM    2  C21 UNL     1      -4.024   5.695   8.869  1.00  0.00     0.034 C 
HETATM    3  C22 UNL     1      -3.956   7.148   8.757  1.00  0.00     0.016 C 
HETATM    4  C23 UNL     1      -2.838   6.824   9.672  1.00  0.00     0.034 C 
HETATM    5  C24 UNL     1      -3.726   5.783  10.303  1.00  0.00     0.071 C 
ENDROOT
BRANCH   1   6
HETATM    6  N3  UNL     1      -1.933   4.499   9.181  1.00  0.00    -0.340 N 
HETATM    7  C10 UNL     1      -0.654   4.228   9.671  1.00  0.00     0.254 C 
HETATM    8  O1  UNL     1       0.263   5.064   9.779  1.00  0.00    -0.270 OA
ATOM      9  H3  UNL     1      -2.581   3.713   9.137  1.00  0.00     0.163 HD
BRANCH   7  10
HETATM   10  C6  UNL     1      -0.288   2.817  10.126  1.00  0.00     0.258 C 
BRANCH  10  11
HETATM   11  N2  UNL     1      -1.004   2.267  11.083  1.00  0.00    -0.399 NA
BRANCH  11  12
HETATM   12  C5  UNL     1      -1.664   1.817  11.983  1.00  0.00     0.277 A 
HETATM   13  N1  UNL     1      -2.341   2.474  12.987  1.00  0.00    -0.297 N 
HETATM   14  C4  UNL     1      -2.937   1.572  13.748  1.00  0.00     0.150 A 
ATOM     15  H1  UNL     1      -2.376   3.485  13.120  1.00  0.00     0.172 HD
HETATM   16  O5  UNL     1      -2.660   0.412  13.263  1.00  0.00    -0.221 OA
HETATM   17  N5  UNL     1      -1.915   0.493  12.225  1.00  0.00    -0.217 N 
ATOM     18  H5  UNL     1      -1.569  -0.293  11.674  1.00  0.00     0.199 HD
BRANCH  14  19
HETATM   19  C3  UNL     1      -3.796   1.806  14.969  1.00  0.00     0.086 C 
BRANCH  19  20
HETATM   20  C2  UNL     1      -3.396   3.155  15.580  1.00  0.00     0.004 C 
HETATM   21  C1  UNL     1      -4.479   4.157  15.354  1.00  0.00     0.005 C 
ENDBRANCH  19  20
ENDBRANCH  14  19
ENDBRANCH  11  12
ENDBRANCH  10  11
BRANCH  10  22
HETATM   22  C7  UNL     1      -0.269   1.947   8.831  1.00  0.00     0.049 C 
BRANCH  22  23
HETATM   23  C8  UNL     1       1.076   1.333   8.644  1.00  0.00    -0.001 C 
HETATM   24  C9  UNL     1       1.991   2.384   8.009  1.00  0.00     0.005 C 
ENDBRANCH  22  23
ENDBRANCH  10  22
ENDBRANCH   7  10
ENDBRANCH   1   6
BRANCH   1  25
HETATM   25  C12 UNL     1      -2.010   6.080   7.369  1.00  0.00     0.249 C 
HETATM   26  O2  UNL     1      -2.210   5.189   6.462  1.00  0.00    -0.270 OA
HETATM   27  N4  UNL     1      -1.378   7.253   6.897  1.00  0.00    -0.334 N 
HETATM   28  C13 UNL     1      -1.079   7.477   5.476  1.00  0.00     0.132 C 
HETATM   29  C16 UNL     1      -0.844   8.360   7.652  1.00  0.00     0.193 C 
HETATM   30  C14 UNL     1       0.097   8.385   5.625  1.00  0.00     0.019 A 
HETATM   31  C15 UNL     1      -0.683   9.372   6.567  1.00  0.00     0.034 A 
HETATM   32  C18 UNL     1       0.315   9.764   5.672  1.00  0.00    -0.036 A 
HETATM   33  C19 UNL     1      -0.085  10.599   4.447  1.00  0.00     0.016 C 
HETATM   34  C20 UNL     1       1.611  10.324   6.276  1.00  0.00     0.016 C 
BRANCH  29  35
HETATM   35  C17 UNL     1       0.405   8.015   8.368  1.00  0.00     0.197 C 
HETATM   36  O3  UNL     1       0.585   8.562   9.487  1.00  0.00    -0.646 OA
HETATM   37  O4  UNL     1       1.381   7.154   7.921  1.00  0.00    -0.646 OA
ENDBRANCH  29  35
ENDBRANCH   1  25
BRANCH   5  38
HETATM   38  C25 UNL     1      -4.709   6.181  11.322  1.00  0.00     0.244 C 
HETATM   39  C26 UNL     1      -5.143   4.895  12.084  1.00  0.00     0.090 C 
HETATM   40  F1  UNL     1      -5.902   6.651  10.755  1.00  0.00    -0.206 F 
HETATM   41  F2  UNL     1      -4.280   7.007  12.328  1.00  0.00    -0.206 F 
ENDBRANCH   5  38
TORSDOF 11
ENDMDL
MODEL 2
REMARK VINA RESULT: -8.674534047      2.502      4.684
REMARK  11 active torsions:
REMARK  status: ('A' for Active; 'I' for Inactive)
REMARK    1  A    between atoms: C2_2  and  C3_3 
REMARK    2  A    between atoms: C3_3  and  C4_4 
REMARK    3  A    between atoms: C5_7  and  N2_8 
REMARK    4  A    between atoms: N2_8  and  C6_9 
REMARK    5  A    between atoms: C6_9  and  C7_10 
REMARK    6  A    between atoms: C6_9  and  C10_13 
REMARK    7  A    between atoms: C7_10  and  C8_11 
REMARK       I    between atoms: C10_13  and  N3_15 
REMARK    8  A    between atoms: N3_15  and  C11_17 
REMARK    9  A    between atoms: C11_17  and  C12_18 
REMARK       I    between atoms: C12_18  and  N4_20 
REMARK   10  A    between atoms: C16_24  and  C17_25 
REMARK   11  A    between atoms: C24_34  and  C25_35 
ROOT
HETATM    1  C11 UNL     1      -0.474   5.750   8.951  1.00  0.00     0.122 C 
HETATM    2  C21 UNL     1       0.482   4.953   9.952  1.00  0.00     0.034 C 
HETATM    3  C22 UNL     1       1.327   4.795   8.772  1.00  0.00     0.016 C 
HETATM    4  C23 UNL     1      -0.036   4.542   8.252  1.00  0.00     0.034 C 
HETATM    5  C24 UNL     1      -0.331   3.806   9.533  1.00  0.00     0.071 C 
ENDROOT
BRANCH   1   6
HETATM    6  N3  UNL     1      -1.760   5.824   9.612  1.00  0.00    -0.340 N 
HETATM    7  C10 UNL     1      -3.000   5.484   9.068  1.00  0.00     0.254 C 
HETATM    8  O1  UNL     1      -3.184   5.075   7.907  1.00  0.00    -0.270 OA
ATOM      9  H3  UNL     1      -1.759   6.159  10.575  1.00  0.00     0.163 HD
BRANCH   7  10
HETATM   10  C6  UNL     1      -4.267   5.604   9.912  1.00  0.00     0.258 C 
BRANCH  10  11
HETATM   11  N2  UNL     1      -4.312   4.965  11.060  1.00  0.00    -0.399 NA
BRANCH  11  12
HETATM   12  C5  UNL     1      -4.298   4.363  12.102  1.00  0.00     0.277 A 
HETATM   13  N1  UNL     1      -3.616   3.215  12.442  1.00  0.00    -0.297 N 
HETATM   14  C4  UNL     1      -3.896   2.921  13.700  1.00  0.00     0.150 A 
ATOM     15  H1  UNL     1      -2.999   2.684  11.827  1.00  0.00     0.172 HD
HETATM   16  O5  UNL     1      -4.705   3.821  14.138  1.00  0.00    -0.221 OA
HETATM   17  N5  UNL     1      -4.977   4.695  13.244  1.00  0.00    -0.217 N 
ATOM     18  H5  UNL     1      -5.593   5.500  13.361  1.00  0.00     0.199 HD
BRANCH  14  19
HETATM   19  C3  UNL     1      -3.385   1.757  14.519  1.00  0.00     0.086 C 
BRANCH  19  20
HETATM   20  C2  UNL     1      -1.955   2.083  14.968  1.00  0.00     0.004 C 
HETATM   21  C1  UNL     1      -0.975   1.337  14.124  1.00  0.00     0.005 C 
ENDBRANCH  19  20
ENDBRANCH  14  19
ENDBRANCH  11  12
ENDBRANCH  10  11
BRANCH  10  22
HETATM   22  C7  UNL     1      -4.522   7.134  10.079  1.00  0.00     0.049 C 
BRANCH  22  23
HETATM   23  C8  UNL     1      -5.806   7.367  10.798  1.00  0.00    -0.001 C 
HETATM   24  C9  UNL     1      -6.512   8.551  10.132  1.00  0.00     0.005 C 
ENDBRANCH  22  23
ENDBRANCH  10  22
ENDBRANCH   7  10
ENDBRANCH   1   6
BRANCH   1  25
HETATM   25  C12 UNL     1       0.044   7.072   8.621  1.00  0.00     0.249 C 
HETATM   26  O2  UNL     1       0.344   7.863   9.590  1.00  0.00    -0.270 OA
HETATM   27  N4  UNL     1       0.258   7.623   7.337  1.00  0.00    -0.334 N 
HETATM   28  C13 UNL     1       0.874   8.941   7.131  1.00  0.00     0.132 C 
HETATM   29  C16 UNL     1      -0.134   7.101   6.051  1.00  0.00     0.193 C 
HETATM   30  C14 UNL     1       0.245   9.292   5.823  1.00  0.00     0.019 A 
HETATM   31  C15 UNL     1       0.704   7.947   5.151  1.00  0.00     0.034 A 
HETATM   32  C18 UNL     1       0.573   9.161   4.472  1.00  0.00    -0.036 A 
HETATM   33  C19 UNL     1       1.844   9.861   3.968  1.00  0.00     0.016 C 
HETATM   34  C20 UNL     1      -0.520   9.242   3.397  1.00  0.00     0.016 C 
BRANCH  29  35
HETATM   35  C17 UNL     1      -1.591   7.198   5.813  1.00  0.00     0.197 C 
HETATM   36  O3  UNL     1      -2.055   6.519   4.859  1.00  0.00    -0.646 OA
HETATM   37  O4  UNL     1      -2.479   7.960   6.537  1.00  0.00    -0.646 OA
ENDBRANCH  29  35
ENDBRANCH   1  25
BRANCH   5  38
HETATM   38  C25 UNL     1       0.089   2.404   9.684  1.00  0.00     0.244 C 
HETATM   39  C26 UNL     1      -1.131   1.605  10.230  1.00  0.00     0.090 C 
HETATM   40  F1  UNL     1       1.065   2.245  10.678  1.00  0.00    -0.206 F 
HETATM   41  F2  UNL     1       0.424   1.717   8.546  1.00  0.00    -0.206 F 
ENDBRANCH   5  38
TORSDOF 11
ENDMDL
MODEL 3
REMARK VINA RESULT: -8.392574161      2.712      4.954
REMARK  11 active torsions:
REMARK  status: ('A' for Active; 'I' for Inactive)
REMARK    1  A    between atoms: C2_2  and  C3_3 
REMARK    2  A    between atoms: C3_3  and  C4_4 
REMARK    3  A    between atoms: C5_7  and  N2_8 
REMARK    4  A    between atoms: N2_8  and  C6_9 
REMARK    5  A    between atoms: C6_9  and  C7_10 
REMARK    6  A    between atoms: C6_9  and  C10_13 
REMARK    7  A    between atoms: C7_10  and  C8_11 
REMARK       I    between atoms: C10_13  and  N3_15 
REMARK    8  A    between atoms: N3_15  and  C11_17 
REMARK    9  A    between atoms: C11_17  and  C12_18 
REMARK       I    between atoms: C12_18  and  N4_20 
REMARK   10  A    between atoms: C16_24  and  C17_25 
REMARK   11  A    between atoms: C24_34  and  C25_35 
ROOT
HETATM    1  C11 UNL     1      -1.271   6.591   8.813  1.00  0.00     0.122 C 
HETATM    2  C21 UNL     1      -0.343   5.836   9.870  1.00  0.00     0.034 C 
HETATM    3  C22 UNL     1       0.455   5.498   8.696  1.00  0.00     0.016 C 
HETATM    4  C23 UNL     1      -0.936   5.290   8.234  1.00  0.00     0.034 C 
HETATM    5  C24 UNL     1      -1.244   4.712   9.591  1.00  0.00     0.071 C 
ENDROOT
BRANCH   1   6
HETATM    6  N3  UNL     1      -2.529   6.824   9.490  1.00  0.00    -0.340 N 
HETATM    7  C10 UNL     1      -3.795   6.417   9.064  1.00  0.00     0.254 C 
HETATM    8  O1  UNL     1      -4.030   5.797   8.011  1.00  0.00    -0.270 OA
ATOM      9  H3  UNL     1      -2.486   7.337  10.370  1.00  0.00     0.163 HD
BRANCH   7  10
HETATM   10  C6  UNL     1      -5.027   6.729   9.911  1.00  0.00     0.258 C 
BRANCH  10  11
HETATM   11  N2  UNL     1      -5.035   6.333  11.165  1.00  0.00    -0.399 NA
BRANCH  11  12
HETATM   12  C5  UNL     1      -5.059   5.918  12.294  1.00  0.00     0.277 A 
HETATM   13  N1  UNL     1      -4.485   4.782  12.823  1.00  0.00    -0.297 N 
HETATM   14  C4  UNL     1      -4.768   4.734  14.113  1.00  0.00     0.150 A 
ATOM     15  H1  UNL     1      -3.935   4.096  12.306  1.00  0.00     0.172 HD
HETATM   16  O5  UNL     1      -5.477   5.771  14.394  1.00  0.00    -0.221 OA
HETATM   17  N5  UNL     1      -5.681   6.504  13.365  1.00  0.00    -0.217 N 
ATOM     18  H5  UNL     1      -6.213   7.374  13.345  1.00  0.00     0.199 HD
BRANCH  14  19
HETATM   19  C3  UNL     1      -4.357   3.681  15.117  1.00  0.00     0.086 C 
BRANCH  19  20
HETATM   20  C2  UNL     1      -3.758   2.498  14.346  1.00  0.00     0.004 C 
HETATM   21  C1  UNL     1      -2.351   2.267  14.784  1.00  0.00     0.005 C 
ENDBRANCH  19  20
ENDBRANCH  14  19
ENDBRANCH  11  12
ENDBRANCH  10  11
BRANCH  10  22
HETATM   22  C7  UNL     1      -5.255   8.266   9.777  1.00  0.00     0.049 C 
BRANCH  22  23
HETATM   23  C8  UNL     1      -6.623   8.627  10.246  1.00  0.00    -0.001 C 
HETATM   24  C9  UNL     1      -7.218   9.622   9.246  1.00  0.00     0.005 C 
ENDBRANCH  22  23
ENDBRANCH  10  22
ENDBRANCH   7  10
ENDBRANCH   1   6
BRANCH   1  25
HETATM   25  C12 UNL     1      -0.674   7.833   8.335  1.00  0.00     0.249 C 
HETATM   26  O2  UNL     1      -0.345   8.720   9.207  1.00  0.00    -0.270 OA
HETATM   27  N4  UNL     1      -0.410   8.209   6.999  1.00  0.00    -0.334 N 
HETATM   28  C13 UNL     1       0.283   9.456   6.648  1.00  0.00     0.132 C 
HETATM   29  C16 UNL     1      -0.810   7.555   5.777  1.00  0.00     0.193 C 
HETATM   30  C14 UNL     1      -0.305   9.677   5.293  1.00  0.00     0.019 A 
HETATM   31  C15 UNL     1       0.088   8.237   4.800  1.00  0.00     0.034 A 
HETATM   32  C18 UNL     1       0.036   9.364   3.975  1.00  0.00    -0.036 A 
HETATM   33  C19 UNL     1       1.352   9.926   3.418  1.00  0.00     0.016 C 
HETATM   34  C20 UNL     1      -1.034   9.371   2.875  1.00  0.00     0.016 C 
BRANCH  29  35
HETATM   35  C17 UNL     1      -2.256   7.701   5.497  1.00  0.00     0.197 C 
HETATM   36  O3  UNL     1      -2.695   7.117   4.472  1.00  0.00    -0.646 OA
HETATM   37  O4  UNL     1      -3.157   8.414   6.253  1.00  0.00    -0.646 OA
ENDBRANCH  29  35
ENDBRANCH   1  25
BRANCH   5  38
HETATM   38  C25 UNL     1      -0.916   3.307   9.878  1.00  0.00     0.244 C 
HETATM   39  C26 UNL     1      -2.014   2.755  10.834  1.00  0.00     0.090 C 
HETATM   40  F1  UNL     1       0.267   3.178  10.619  1.00  0.00    -0.206 F 
HETATM   41  F2  UNL     1      -0.943   2.423   8.831  1.00  0.00    -0.206 F 
ENDBRANCH   5  38
TORSDOF 11
ENDMDL
MODEL 4
REMARK VINA RESULT: -8.302992856      2.523      4.761
REMARK  11 active torsions:
REMARK  status: ('A' for Active; 'I' for Inactive)
REMARK    1  A    between atoms: C2_2  and  C3_3 
REMARK    2  A    between atoms: C3_3  and  C4_4 
REMARK    3  A    between atoms: C5_7  and  N2_8 
REMARK    4  A    between atoms: N2_8  and  C6_9 
REMARK    5  A    between atoms: C6_9  and  C7_10 
REMARK    6  A    between atoms: C6_9  and  C10_13 
REMARK    7  A    between atoms: C7_10  and  C8_11 
REMARK       I    between atoms: C10_13  and  N3_15 
REMARK    8  A    between atoms: N3_15  and  C11_17 
REMARK    9  A    between atoms: C11_17  and  C12_18 
REMARK       I    between atoms: C12_18  and  N4_20 
REMARK   10  A    between atoms: C16_24  and  C17_25 
REMARK   11  A    between atoms: C24_34  and  C25_35 
ROOT
HETATM    1  C11 UNL     1      -0.217   6.090   8.635  1.00  0.00     0.122 C 
HETATM    2  C21 UNL     1       0.806   5.316   9.586  1.00  0.00     0.034 C 
HETATM    3  C22 UNL     1       1.658   5.305   8.401  1.00  0.00     0.016 C 
HETATM    4  C23 UNL     1       0.320   4.969   7.862  1.00  0.00     0.034 C 
HETATM    5  C24 UNL     1       0.093   4.132   9.094  1.00  0.00     0.071 C 
ENDROOT
BRANCH   1   6
HETATM    6  N3  UNL     1      -1.502   6.013   9.296  1.00  0.00    -0.340 N 
HETATM    7  C10 UNL     1      -2.705   5.577   8.737  1.00  0.00     0.254 C 
HETATM    8  O1  UNL     1      -2.852   5.198   7.560  1.00  0.00    -0.270 OA
ATOM      9  H3  UNL     1      -1.532   6.307  10.272  1.00  0.00     0.163 HD
BRANCH   7  10
HETATM   10  C6  UNL     1      -3.976   5.539   9.583  1.00  0.00     0.258 C 
BRANCH  10  11
HETATM   11  N2  UNL     1      -3.988   4.776  10.654  1.00  0.00    -0.399 NA
BRANCH  11  12
HETATM   12  C5  UNL     1      -3.969   4.037  11.604  1.00  0.00     0.277 A 
HETATM   13  N1  UNL     1      -3.342   2.820  11.755  1.00  0.00    -0.297 N 
HETATM   14  C4  UNL     1      -3.591   2.371  12.973  1.00  0.00     0.150 A 
ATOM     15  H1  UNL     1      -2.779   2.347  11.047  1.00  0.00     0.172 HD
HETATM   16  O5  UNL     1      -4.330   3.243  13.564  1.00  0.00    -0.221 OA
HETATM   17  N5  UNL     1      -4.586   4.244  12.809  1.00  0.00    -0.217 N 
ATOM     18  H5  UNL     1      -5.151   5.055  13.061  1.00  0.00     0.199 HD
BRANCH  14  19
HETATM   19  C3  UNL     1      -3.117   1.081  13.604  1.00  0.00     0.086 C 
BRANCH  19  20
HETATM   20  C2  UNL     1      -2.826   0.080  12.478  1.00  0.00     0.004 C 
HETATM   21  C1  UNL     1      -4.059  -0.699  12.160  1.00  0.00     0.005 C 
ENDBRANCH  19  20
ENDBRANCH  14  19
ENDBRANCH  11  12
ENDBRANCH  10  11
BRANCH  10  22
HETATM   22  C7  UNL     1      -4.307   7.027   9.917  1.00  0.00     0.049 C 
BRANCH  22  23
HETATM   23  C8  UNL     1      -5.575   7.111  10.694  1.00  0.00    -0.001 C 
HETATM   24  C9  UNL     1      -6.337   8.353  10.223  1.00  0.00     0.005 C 
ENDBRANCH  22  23
ENDBRANCH  10  22
ENDBRANCH   7  10
ENDBRANCH   1   6
BRANCH   1  25
HETATM   25  C12 UNL     1       0.185   7.469   8.389  1.00  0.00     0.249 C 
HETATM   26  O2  UNL     1       0.520   8.190   9.400  1.00  0.00    -0.270 OA
HETATM   27  N4  UNL     1       0.248   8.145   7.150  1.00  0.00    -0.334 N 
HETATM   28  C13 UNL     1       0.759   9.517   7.019  1.00  0.00     0.132 C 
HETATM   29  C16 UNL     1      -0.223   7.714   5.857  1.00  0.00     0.193 C 
HETATM   30  C14 UNL     1      -0.005   9.937   5.807  1.00  0.00     0.019 A 
HETATM   31  C15 UNL     1       0.476   8.693   4.975  1.00  0.00     0.034 A 
HETATM   32  C18 UNL     1       0.209   9.951   4.427  1.00  0.00    -0.036 A 
HETATM   33  C19 UNL     1       1.383  10.780   3.888  1.00  0.00     0.016 C 
HETATM   34  C20 UNL     1      -0.979  10.049   3.460  1.00  0.00     0.016 C 
BRANCH  29  35
HETATM   35  C17 UNL     1      -1.699   7.728   5.752  1.00  0.00     0.197 C 
HETATM   36  O3  UNL     1      -2.204   7.091   4.791  1.00  0.00    -0.646 OA
HETATM   37  O4  UNL     1      -2.564   8.373   6.606  1.00  0.00    -0.646 OA
ENDBRANCH  29  35
ENDBRANCH   1  25
BRANCH   5  38
HETATM   38  C25 UNL     1       0.631   2.765   9.158  1.00  0.00     0.244 C 
HETATM   39  C26 UNL     1      -0.579   1.786   9.211  1.00  0.00     0.090 C 
HETATM   40  F1  UNL     1       1.313   2.517  10.357  1.00  0.00    -0.206 F 
HETATM   41  F2  UNL     1       1.346   2.314   8.079  1.00  0.00    -0.206 F 
ENDBRANCH   5  38
TORSDOF 11
ENDMDL
MODEL 5
REMARK VINA RESULT: -8.099047129      3.247      6.013
REMARK  11 active torsions:
REMARK  status: ('A' for Active; 'I' for Inactive)
REMARK    1  A    between atoms: C2_2  and  C3_3 
REMARK    2  A    between atoms: C3_3  and  C4_4 
REMARK    3  A    between atoms: C5_7  and  N2_8 
REMARK    4  A    between atoms: N2_8  and  C6_9 
REMARK    5  A    between atoms: C6_9  and  C7_10 
REMARK    6  A    between atoms: C6_9  and  C10_13 
REMARK    7  A    between atoms: C7_10  and  C8_11 
REMARK       I    between atoms: C10_13  and  N3_15 
REMARK    8  A    between atoms: N3_15  and  C11_17 
REMARK    9  A    between atoms: C11_17  and  C12_18 
REMARK       I    between atoms: C12_18  and  N4_20 
REMARK   10  A    between atoms: C16_24  and  C17_25 
REMARK   11  A    between atoms: C24_34  and  C25_35 
ROOT
HETATM    1  C11 UNL     1      -0.552   2.456  10.533  1.00  0.00     0.122 C 
HETATM    2  C21 UNL     1       0.553   1.457  11.106  1.00  0.00     0.034 C 
HETATM    3  C22 UNL     1       0.667   1.031   9.714  1.00  0.00     0.016 C 
HETATM    4  C23 UNL     1      -0.795   1.152   9.917  1.00  0.00     0.034 C 
HETATM    5  C24 UNL     1      -0.600   0.569  11.293  1.00  0.00     0.071 C 
ENDROOT
BRANCH   1   6
HETATM    6  N3  UNL     1      -1.307   2.908  11.683  1.00  0.00    -0.340 N 
HETATM    7  C10 UNL     1      -2.660   2.679  11.937  1.00  0.00     0.254 C 
HETATM    8  O1  UNL     1      -3.433   2.054  11.188  1.00  0.00    -0.270 OA
ATOM      9  H3  UNL     1      -0.796   3.449  12.380  1.00  0.00     0.163 HD
BRANCH   7  10
HETATM   10  C6  UNL     1      -3.303   3.213  13.216  1.00  0.00     0.258 C 
BRANCH  10  11
HETATM   11  N2  UNL     1      -4.253   4.115  13.105  1.00  0.00    -0.399 NA
BRANCH  11  12
HETATM   12  C5  UNL     1      -5.100   4.956  12.951  1.00  0.00     0.277 A 
HETATM   13  N1  UNL     1      -5.071   6.099  12.182  1.00  0.00    -0.297 N 
HETATM   14  C4  UNL     1      -6.231   6.719  12.313  1.00  0.00     0.150 A 
ATOM     15  H1  UNL     1      -4.288   6.412  11.608  1.00  0.00     0.172 HD
HETATM   16  O5  UNL     1      -6.957   6.020  13.115  1.00  0.00    -0.221 OA
HETATM   17  N5  UNL     1      -6.345   4.972  13.522  1.00  0.00    -0.217 N 
ATOM     18  H5  UNL     1      -6.719   4.271  14.161  1.00  0.00     0.199 HD
BRANCH  14  19
HETATM   19  C3  UNL     1      -6.675   8.010  11.663  1.00  0.00     0.086 C 
BRANCH  19  20
HETATM   20  C2  UNL     1      -6.099   8.048  10.241  1.00  0.00     0.004 C 
HETATM   21  C1  UNL     1      -6.691   9.190   9.485  1.00  0.00     0.005 C 
ENDBRANCH  19  20
ENDBRANCH  14  19
ENDBRANCH  11  12
ENDBRANCH  10  11
BRANCH  10  22
HETATM   22  C7  UNL     1      -3.773   1.956  14.010  1.00  0.00     0.049 C 
BRANCH  22  23
HETATM   23  C8  UNL     1      -3.037   1.858  15.302  1.00  0.00    -0.001 C 
HETATM   24  C9  UNL     1      -1.549   1.686  14.986  1.00  0.00     0.005 C 
ENDBRANCH  22  23
ENDBRANCH  10  22
ENDBRANCH   7  10
ENDBRANCH   1   6
BRANCH   1  25
HETATM   25  C12 UNL     1       0.032   3.569   9.796  1.00  0.00     0.249 C 
HETATM   26  O2  UNL     1       1.266   3.858  10.014  1.00  0.00    -0.270 OA
HETATM   27  N4  UNL     1      -0.600   4.409   8.850  1.00  0.00    -0.334 N 
HETATM   28  C13 UNL     1       0.123   5.446   8.102  1.00  0.00     0.132 C 
HETATM   29  C16 UNL     1      -1.997   4.493   8.503  1.00  0.00     0.193 C 
HETATM   30  C14 UNL     1      -1.008   6.389   7.856  1.00  0.00     0.019 A 
HETATM   31  C15 UNL     1      -1.913   5.266   7.230  1.00  0.00     0.034 A 
HETATM   32  C18 UNL     1      -1.944   6.608   6.843  1.00  0.00    -0.036 A 
HETATM   33  C19 UNL     1      -1.423   6.981   5.447  1.00  0.00     0.016 C 
HETATM   34  C20 UNL     1      -3.236   7.385   7.135  1.00  0.00     0.016 C 
BRANCH  29  35
HETATM   35  C17 UNL     1      -2.812   5.129   9.562  1.00  0.00     0.197 C 
HETATM   36  O3  UNL     1      -4.055   4.937   9.511  1.00  0.00    -0.646 OA
HETATM   37  O4  UNL     1      -2.334   5.908  10.591  1.00  0.00    -0.646 OA
ENDBRANCH  29  35
ENDBRANCH   1  25
BRANCH   5  38
HETATM   38  C25 UNL     1      -0.495  -0.888  11.461  1.00  0.00     0.244 C 
HETATM   39  C26 UNL     1      -0.169  -1.165  12.958  1.00  0.00     0.090 C 
HETATM   40  F1  UNL     1       0.604  -1.425  10.775  1.00  0.00    -0.206 F 
HETATM   41  F2  UNL     1      -1.624  -1.634  11.246  1.00  0.00    -0.206 F 
ENDBRANCH   5  38
TORSDOF 11
ENDMDL
