MODEL 1
REMARK VINA RESULT: -8.377692915      0.000      0.000
REMARK  10 active torsions:
REMARK  status: ('A' for Active; 'I' for Inactive)
REMARK    1  A    between atoms: C2_2  and  S1_4 
REMARK    2  A    between atoms: S1_4  and  C3_5 
REMARK       I    between atoms: N1_9  and  C6_10 
REMARK    3  A    between atoms: C6_10  and  C7_12 
REMARK    4  A    between atoms: C7_12  and  N2_13 
REMARK    5  A    between atoms: C7_12  and  C13_24 
REMARK       I    between atoms: N2_13  and  C8_15 
REMARK    6  A    between atoms: C8_15  and  C9_17 
REMARK    7  A    between atoms: C17_28  and  C18_29 
REMARK       I    between atoms: C18_29  and  N5_31 
REMARK    8  A    between atoms: N5_31  and  C19_33 
REMARK    9  A    between atoms: C19_33  and  C20_34 
REMARK   10  A    between atoms: C19_33  and  C21_37 
ROOT
HETATM    1  C3  UNL     1     -21.867   7.551   1.485  1.00  0.00     0.061 C 
HETATM    2  C4  UNL     1     -21.364   6.342   1.653  1.00  0.00    -0.004 A 
HETATM    3  C5  UNL     1     -21.366   5.044   0.983  1.00  0.00     0.218 A 
HETATM    4 CL1  UNL     1     -20.608   4.985  -0.619  1.00  0.00    -0.097 Cl
HETATM    5  N1  UNL     1     -20.535   4.447   2.041  1.00  0.00    -0.311 N 
HETATM    6  C6  UNL     1     -20.029   3.121   2.156  1.00  0.00     0.245 C 
HETATM    7  O2  UNL     1     -20.281   2.309   1.193  1.00  0.00    -0.271 OA
HETATM    8  C17 UNL     1     -20.502   5.728   2.701  1.00  0.00     0.214 A 
ENDROOT
BRANCH   6   9
HETATM    9  C7  UNL     1     -19.246   2.606   3.272  1.00  0.00     0.184 C 
BRANCH   9  10
HETATM   10  N2  UNL     1     -18.018   1.997   2.686  1.00  0.00    -0.340 N 
HETATM   11  C8  UNL     1     -16.793   2.674   2.849  1.00  0.00     0.286 C 
HETATM   12  O3  UNL     1     -16.844   3.789   3.509  1.00  0.00    -0.264 OA
ATOM     13  H2  UNL     1     -18.063   1.113   2.179  1.00  0.00     0.163 HD
BRANCH  11  14
HETATM   14  C9  UNL     1     -15.506   2.267   2.370  1.00  0.00     0.176 A 
HETATM   15  N3  UNL     1     -14.548   3.178   1.997  1.00  0.00    -0.346 N 
HETATM   16  C10 UNL     1     -13.457   2.538   1.592  1.00  0.00     0.107 A 
ATOM     17  H3  UNL     1     -14.657   4.192   2.028  1.00  0.00     0.167 HD
HETATM   18  C11 UNL     1     -13.693   1.202   1.696  1.00  0.00     0.109 A 
HETATM   19  N4  UNL     1     -14.962   1.072   2.177  1.00  0.00    -0.342 N 
HETATM   20  C12 UNL     1     -15.579  -0.208   2.418  1.00  0.00     0.157 C 
ENDBRANCH  11  14
ENDBRANCH   9  10
BRANCH   9  21
HETATM   21  C13 UNL     1     -19.930   1.436   3.948  1.00  0.00    -0.022 C 
HETATM   22  C14 UNL     1     -19.505   0.203   3.124  1.00  0.00     0.017 C 
HETATM   23  C15 UNL     1     -21.424   1.494   3.909  1.00  0.00     0.017 C 
HETATM   24  C16 UNL     1     -19.501   1.163   5.343  1.00  0.00     0.017 C 
ENDBRANCH   9  21
ENDBRANCH   6   9
BRANCH   8  25
HETATM   25  C18 UNL     1     -19.125   6.349   2.736  1.00  0.00     0.245 C 
HETATM   26  O4  UNL     1     -18.762   6.774   3.860  1.00  0.00    -0.271 OA
HETATM   27  N5  UNL     1     -18.317   6.436   1.578  1.00  0.00    -0.345 N 
ATOM     28  H5  UNL     1     -18.683   6.068   0.700  1.00  0.00     0.163 HD
BRANCH  27  29
HETATM   29  C19 UNL     1     -16.989   7.027   1.585  1.00  0.00     0.181 C 
BRANCH  29  30
HETATM   30  C20 UNL     1     -15.983   6.108   1.043  1.00  0.00     0.254 C 
HETATM   31  N6  UNL     1     -16.161   5.268  -0.076  1.00  0.00    -0.060 NA
HETATM   32  O5  UNL     1     -14.828   6.020   1.591  1.00  0.00    -0.275 OA
ENDBRANCH  29  30
BRANCH  29  33
HETATM   33  C21 UNL     1     -16.983   8.363   0.870  1.00  0.00    -0.022 C 
HETATM   34  C22 UNL     1     -15.614   8.663   0.330  1.00  0.00     0.017 C 
HETATM   35  C23 UNL     1     -17.374   9.456   1.829  1.00  0.00     0.017 C 
HETATM   36  C24 UNL     1     -18.034   8.380  -0.233  1.00  0.00     0.017 C 
ENDBRANCH  29  33
ENDBRANCH  27  29
ENDBRANCH   8  25
BRANCH   1  37
HETATM   37  S1  UNL     1     -22.898   7.935   0.070  1.00  0.00    -0.065 SA
BRANCH  37  38
HETATM   38  C2  UNL     1     -24.573   7.411   0.389  1.00  0.00     0.186 C 
HETATM   39  C1  UNL     1     -25.005   7.128   1.787  1.00  0.00     0.104 C 
HETATM   40  O1  UNL     1     -25.320   7.300  -0.566  1.00  0.00    -0.286 OA
ENDBRANCH  37  38
ENDBRANCH   1  37
TORSDOF 10
ENDMDL
MODEL 2
REMARK VINA RESULT: -8.183128408      0.969      1.222
REMARK  10 active torsions:
REMARK  status: ('A' for Active; 'I' for Inactive)
REMARK    1  A    between atoms: C2_2  and  S1_4 
REMARK    2  A    between atoms: S1_4  and  C3_5 
REMARK       I    between atoms: N1_9  and  C6_10 
REMARK    3  A    between atoms: C6_10  and  C7_12 
REMARK    4  A    between atoms: C7_12  and  N2_13 
REMARK    5  A    between atoms: C7_12  and  C13_24 
REMARK       I    between atoms: N2_13  and  C8_15 
REMARK    6  A    between atoms: C8_15  and  C9_17 
REMARK    7  A    between atoms: C17_28  and  C18_29 
REMARK       I    between atoms: C18_29  and  N5_31 
REMARK    8  A    between atoms: N5_31  and  C19_33 
REMARK    9  A    between atoms: C19_33  and  C20_34 
REMARK   10  A    between atoms: C19_33  and  C21_37 
ROOT
HETATM    1  C3  UNL     1     -21.853   7.655   1.479  1.00  0.00     0.061 C 
HETATM    2  C4  UNL     1     -21.365   6.438   1.634  1.00  0.00    -0.004 A 
HETATM    3  C5  UNL     1     -21.374   5.149   0.945  1.00  0.00     0.218 A 
HETATM    4 CL1  UNL     1     -20.601   5.105  -0.649  1.00  0.00    -0.097 Cl
HETATM    5  N1  UNL     1     -20.561   4.528   2.003  1.00  0.00    -0.311 N 
HETATM    6  C6  UNL     1     -20.071   3.195   2.104  1.00  0.00     0.245 C 
HETATM    7  O2  UNL     1     -20.321   2.400   1.126  1.00  0.00    -0.271 OA
HETATM    8  C17 UNL     1     -20.521   5.799   2.682  1.00  0.00     0.214 A 
ENDROOT
BRANCH   6   9
HETATM    9  C7  UNL     1     -19.304   2.656   3.220  1.00  0.00     0.184 C 
BRANCH   9  10
HETATM   10  N2  UNL     1     -18.073   2.048   2.638  1.00  0.00    -0.340 N 
HETATM   11  C8  UNL     1     -16.845   2.710   2.833  1.00  0.00     0.286 C 
HETATM   12  O3  UNL     1     -16.896   3.812   3.517  1.00  0.00    -0.264 OA
ATOM     13  H2  UNL     1     -18.119   1.176   2.112  1.00  0.00     0.163 HD
BRANCH  11  14
HETATM   14  C9  UNL     1     -15.555   2.303   2.364  1.00  0.00     0.176 A 
HETATM   15  N3  UNL     1     -14.602   3.212   1.975  1.00  0.00    -0.346 N 
HETATM   16  C10 UNL     1     -13.507   2.571   1.584  1.00  0.00     0.107 A 
ATOM     17  H3  UNL     1     -14.718   4.226   1.985  1.00  0.00     0.167 HD
HETATM   18  C11 UNL     1     -13.734   1.236   1.713  1.00  0.00     0.109 A 
HETATM   19  N4  UNL     1     -15.004   1.107   2.195  1.00  0.00    -0.342 N 
HETATM   20  C12 UNL     1     -15.613  -0.172   2.461  1.00  0.00     0.157 C 
ENDBRANCH  11  14
ENDBRANCH   9  10
BRANCH   9  21
HETATM   21  C13 UNL     1     -20.005   1.479   3.867  1.00  0.00    -0.022 C 
HETATM   22  C14 UNL     1     -19.566   0.255   3.036  1.00  0.00     0.017 C 
HETATM   23  C15 UNL     1     -21.497   1.541   3.798  1.00  0.00     0.017 C 
HETATM   24  C16 UNL     1     -19.605   1.187   5.267  1.00  0.00     0.017 C 
ENDBRANCH   9  21
ENDBRANCH   6   9
BRANCH   8  25
HETATM   25  C18 UNL     1     -19.137   6.404   2.740  1.00  0.00     0.245 C 
HETATM   26  O4  UNL     1     -18.772   6.786   3.879  1.00  0.00    -0.271 OA
HETATM   27  N5  UNL     1     -18.327   6.523   1.586  1.00  0.00    -0.345 N 
ATOM     28  H5  UNL     1     -18.695   6.189   0.696  1.00  0.00     0.163 HD
BRANCH  27  29
HETATM   29  C19 UNL     1     -16.993   7.100   1.616  1.00  0.00     0.181 C 
BRANCH  29  30
HETATM   30  C20 UNL     1     -15.987   6.168   1.095  1.00  0.00     0.254 C 
HETATM   31  N6  UNL     1     -16.148   5.339  -0.035  1.00  0.00    -0.060 NA
HETATM   32  O5  UNL     1     -14.849   6.057   1.673  1.00  0.00    -0.275 OA
ENDBRANCH  29  30
BRANCH  29  33
HETATM   33  C21 UNL     1     -16.960   8.434   0.897  1.00  0.00    -0.022 C 
HETATM   34  C22 UNL     1     -15.556   8.772   0.486  1.00  0.00     0.017 C 
HETATM   35  C23 UNL     1     -17.471   9.517   1.808  1.00  0.00     0.017 C 
HETATM   36  C24 UNL     1     -17.902   8.415  -0.300  1.00  0.00     0.017 C 
ENDBRANCH  29  33
ENDBRANCH  27  29
ENDBRANCH   8  25
BRANCH   1  37
HETATM   37  S1  UNL     1     -22.865   8.071   0.058  1.00  0.00    -0.065 SA
BRANCH  37  38
HETATM   38  C2  UNL     1     -22.219   9.537  -0.728  1.00  0.00     0.186 C 
HETATM   39  C1  UNL     1     -21.117  10.301  -0.076  1.00  0.00     0.104 C 
HETATM   40  O1  UNL     1     -22.712   9.869  -1.791  1.00  0.00    -0.286 OA
ENDBRANCH  37  38
ENDBRANCH   1  37
TORSDOF 10
ENDMDL
MODEL 3
REMARK VINA RESULT: -7.325652121      1.732      2.140
REMARK  10 active torsions:
REMARK  status: ('A' for Active; 'I' for Inactive)
REMARK    1  A    between atoms: C2_2  and  S1_4 
REMARK    2  A    between atoms: S1_4  and  C3_5 
REMARK       I    between atoms: N1_9  and  C6_10 
REMARK    3  A    between atoms: C6_10  and  C7_12 
REMARK    4  A    between atoms: C7_12  and  N2_13 
REMARK    5  A    between atoms: C7_12  and  C13_24 
REMARK       I    between atoms: N2_13  and  C8_15 
REMARK    6  A    between atoms: C8_15  and  C9_17 
REMARK    7  A    between atoms: C17_28  and  C18_29 
REMARK       I    between atoms: C18_29  and  N5_31 
REMARK    8  A    between atoms: N5_31  and  C19_33 
REMARK    9  A    between atoms: C19_33  and  C20_34 
REMARK   10  A    between atoms: C19_33  and  C21_37 
ROOT
HETATM    1  C3  UNL     1     -22.212   8.548   1.204  1.00  0.00     0.061 C 
HETATM    2  C4  UNL     1     -21.747   7.313   1.246  1.00  0.00    -0.004 A 
HETATM    3  C5  UNL     1     -21.735   6.109   0.418  1.00  0.00     0.218 A 
HETATM    4 CL1  UNL     1     -20.879   6.230  -1.130  1.00  0.00    -0.097 Cl
HETATM    5  N1  UNL     1     -20.986   5.360   1.439  1.00  0.00    -0.311 N 
HETATM    6  C6  UNL     1     -20.517   4.015   1.414  1.00  0.00     0.245 C 
HETATM    7  O2  UNL     1     -20.725   3.339   0.341  1.00  0.00    -0.271 OA
HETATM    8  C17 UNL     1     -20.966   6.546   2.257  1.00  0.00     0.214 A 
ENDROOT
BRANCH   6   9
HETATM    9  C7  UNL     1     -19.817   3.342   2.500  1.00  0.00     0.184 C 
BRANCH   9  10
HETATM   10  N2  UNL     1     -18.475   2.963   1.972  1.00  0.00    -0.340 N 
HETATM   11  C8  UNL     1     -17.339   3.593   2.517  1.00  0.00     0.286 C 
HETATM   12  O3  UNL     1     -17.568   4.465   3.451  1.00  0.00    -0.264 OA
ATOM     13  H2  UNL     1     -18.381   2.265   1.234  1.00  0.00     0.163 HD
BRANCH  11  14
HETATM   14  C9  UNL     1     -15.970   3.378   2.158  1.00  0.00     0.176 A 
HETATM   15  N3  UNL     1     -15.229   4.337   1.512  1.00  0.00    -0.346 N 
HETATM   16  C10 UNL     1     -14.000   3.881   1.297  1.00  0.00     0.107 A 
ATOM     17  H3  UNL     1     -15.570   5.259   1.238  1.00  0.00     0.167 HD
HETATM   18  C11 UNL     1     -13.927   2.619   1.800  1.00  0.00     0.109 A 
HETATM   19  N4  UNL     1     -15.157   2.342   2.323  1.00  0.00    -0.342 N 
HETATM   20  C12 UNL     1     -15.475   1.084   2.948  1.00  0.00     0.157 C 
ENDBRANCH  11  14
ENDBRANCH   9  10
BRANCH   9  21
HETATM   21  C13 UNL     1     -20.451   2.008   2.837  1.00  0.00    -0.022 C 
HETATM   22  C14 UNL     1     -20.045   1.738   4.302  1.00  0.00     0.017 C 
HETATM   23  C15 UNL     1     -19.937   0.863   2.024  1.00  0.00     0.017 C 
HETATM   24  C16 UNL     1     -21.935   1.981   2.813  1.00  0.00     0.017 C 
ENDBRANCH   9  21
ENDBRANCH   6   9
BRANCH   8  25
HETATM   25  C18 UNL     1     -19.581   7.117   2.453  1.00  0.00     0.245 C 
HETATM   26  O4  UNL     1     -19.117   7.000   3.614  1.00  0.00    -0.271 OA
HETATM   27  N5  UNL     1     -18.872   7.734   1.395  1.00  0.00    -0.345 N 
ATOM     28  H5  UNL     1     -19.317   7.791   0.479  1.00  0.00     0.163 HD
BRANCH  27  29
HETATM   29  C19 UNL     1     -17.539   8.289   1.557  1.00  0.00     0.181 C 
BRANCH  29  30
HETATM   30  C20 UNL     1     -16.519   7.442   0.929  1.00  0.00     0.254 C 
HETATM   31  N6  UNL     1     -15.126   7.562   1.120  1.00  0.00    -0.060 NA
HETATM   32  O5  UNL     1     -16.863   6.499   0.134  1.00  0.00    -0.275 OA
ENDBRANCH  29  30
BRANCH  29  33
HETATM   33  C21 UNL     1     -17.479   9.718   1.057  1.00  0.00    -0.022 C 
HETATM   34  C22 UNL     1     -16.368  10.465   1.737  1.00  0.00     0.017 C 
HETATM   35  C23 UNL     1     -18.780  10.415   1.350  1.00  0.00     0.017 C 
HETATM   36  C24 UNL     1     -17.323   9.745  -0.459  1.00  0.00     0.017 C 
ENDBRANCH  29  33
ENDBRANCH  27  29
ENDBRANCH   8  25
BRANCH   1  37
HETATM   37  S1  UNL     1     -23.143   9.137  -0.210  1.00  0.00    -0.065 SA
BRANCH  37  38
HETATM   38  C2  UNL     1     -22.163  10.318  -1.122  1.00  0.00     0.186 C 
HETATM   39  C1  UNL     1     -20.934   9.865  -1.834  1.00  0.00     0.104 C 
HETATM   40  O1  UNL     1     -22.540  11.476  -1.129  1.00  0.00    -0.286 OA
ENDBRANCH  37  38
ENDBRANCH   1  37
TORSDOF 10
ENDMDL
MODEL 4
REMARK VINA RESULT: -7.212261877      0.786      1.297
REMARK  10 active torsions:
REMARK  status: ('A' for Active; 'I' for Inactive)
REMARK    1  A    between atoms: C2_2  and  S1_4 
REMARK    2  A    between atoms: S1_4  and  C3_5 
REMARK       I    between atoms: N1_9  and  C6_10 
REMARK    3  A    between atoms: C6_10  and  C7_12 
REMARK    4  A    between atoms: C7_12  and  N2_13 
REMARK    5  A    between atoms: C7_12  and  C13_24 
REMARK       I    between atoms: N2_13  and  C8_15 
REMARK    6  A    between atoms: C8_15  and  C9_17 
REMARK    7  A    between atoms: C17_28  and  C18_29 
REMARK       I    between atoms: C18_29  and  N5_31 
REMARK    8  A    between atoms: N5_31  and  C19_33 
REMARK    9  A    between atoms: C19_33  and  C20_34 
REMARK   10  A    between atoms: C19_33  and  C21_37 
ROOT
HETATM    1  C3  UNL     1     -22.098   7.834   1.542  1.00  0.00     0.061 C 
HETATM    2  C4  UNL     1     -21.542   6.639   1.633  1.00  0.00    -0.004 A 
HETATM    3  C5  UNL     1     -21.475   5.393   0.874  1.00  0.00     0.218 A 
HETATM    4 CL1  UNL     1     -20.696   5.482  -0.716  1.00  0.00    -0.097 Cl
HETATM    5  N1  UNL     1     -20.632   4.761   1.900  1.00  0.00    -0.311 N 
HETATM    6  C6  UNL     1     -20.066   3.454   1.930  1.00  0.00     0.245 C 
HETATM    7  O2  UNL     1     -20.269   2.702   0.908  1.00  0.00    -0.271 OA
HETATM    8  C17 UNL     1     -20.666   5.992   2.649  1.00  0.00     0.214 A 
ENDROOT
BRANCH   6   9
HETATM    9  C7  UNL     1     -19.274   2.898   3.019  1.00  0.00     0.184 C 
BRANCH   9  10
HETATM   10  N2  UNL     1     -18.053   2.307   2.400  1.00  0.00    -0.340 N 
HETATM   11  C8  UNL     1     -16.795   2.798   2.801  1.00  0.00     0.286 C 
HETATM   12  O3  UNL     1     -16.812   3.740   3.693  1.00  0.00    -0.264 OA
ATOM     13  H2  UNL     1     -18.127   1.566   1.703  1.00  0.00     0.163 HD
BRANCH  11  14
HETATM   14  C9  UNL     1     -15.509   2.375   2.337  1.00  0.00     0.176 A 
HETATM   15  N3  UNL     1     -15.164   1.047   2.262  1.00  0.00    -0.346 N 
HETATM   16  C10 UNL     1     -13.922   0.934   1.806  1.00  0.00     0.107 A 
ATOM     17  H3  UNL     1     -15.769   0.267   2.518  1.00  0.00     0.167 HD
HETATM   18  C11 UNL     1     -13.443   2.187   1.578  1.00  0.00     0.109 A 
HETATM   19  N4  UNL     1     -14.446   3.049   1.916  1.00  0.00    -0.342 N 
HETATM   20  C12 UNL     1     -14.313   4.480   1.815  1.00  0.00     0.157 C 
ENDBRANCH  11  14
ENDBRANCH   9  10
BRANCH   9  21
HETATM   21  C13 UNL     1     -19.955   1.706   3.659  1.00  0.00    -0.022 C 
HETATM   22  C14 UNL     1     -19.622   0.518   2.732  1.00  0.00     0.017 C 
HETATM   23  C15 UNL     1     -21.446   1.810   3.716  1.00  0.00     0.017 C 
HETATM   24  C16 UNL     1     -19.453   1.327   5.004  1.00  0.00     0.017 C 
ENDBRANCH   9  21
ENDBRANCH   6   9
BRANCH   8  25
HETATM   25  C18 UNL     1     -19.319   6.671   2.749  1.00  0.00     0.245 C 
HETATM   26  O4  UNL     1     -18.757   6.574   3.868  1.00  0.00    -0.271 OA
HETATM   27  N5  UNL     1     -18.748   7.359   1.653  1.00  0.00    -0.345 N 
ATOM     28  H5  UNL     1     -19.267   7.394   0.775  1.00  0.00     0.163 HD
BRANCH  27  29
HETATM   29  C19 UNL     1     -17.455   8.019   1.723  1.00  0.00     0.181 C 
BRANCH  29  30
HETATM   30  C20 UNL     1     -16.468   7.371   0.853  1.00  0.00     0.254 C 
HETATM   31  N6  UNL     1     -16.753   6.390  -0.120  1.00  0.00    -0.060 NA
HETATM   32  O5  UNL     1     -15.228   7.683   0.939  1.00  0.00    -0.275 OA
ENDBRANCH  29  30
BRANCH  29  33
HETATM   33  C21 UNL     1     -17.582   9.501   1.434  1.00  0.00    -0.022 C 
HETATM   34  C22 UNL     1     -16.439  10.255   2.050  1.00  0.00     0.017 C 
HETATM   35  C23 UNL     1     -18.872  10.023   2.009  1.00  0.00     0.017 C 
HETATM   36  C24 UNL     1     -17.666   9.744  -0.068  1.00  0.00     0.017 C 
ENDBRANCH  29  33
ENDBRANCH  27  29
ENDBRANCH   8  25
BRANCH   1  37
HETATM   37  S1  UNL     1     -23.127   8.270   0.141  1.00  0.00    -0.065 SA
BRANCH  37  38
HETATM   38  C2  UNL     1     -24.788   7.675   0.410  1.00  0.00     0.186 C 
HETATM   39  C1  UNL     1     -25.375   7.717   1.780  1.00  0.00     0.104 C 
HETATM   40  O1  UNL     1     -25.396   7.246  -0.554  1.00  0.00    -0.286 OA
ENDBRANCH  37  38
ENDBRANCH   1  37
TORSDOF 10
ENDMDL
MODEL 5
REMARK VINA RESULT: -7.048900394      3.076      8.488
REMARK  10 active torsions:
REMARK  status: ('A' for Active; 'I' for Inactive)
REMARK    1  A    between atoms: C2_2  and  S1_4 
REMARK    2  A    between atoms: S1_4  and  C3_5 
REMARK       I    between atoms: N1_9  and  C6_10 
REMARK    3  A    between atoms: C6_10  and  C7_12 
REMARK    4  A    between atoms: C7_12  and  N2_13 
REMARK    5  A    between atoms: C7_12  and  C13_24 
REMARK       I    between atoms: N2_13  and  C8_15 
REMARK    6  A    between atoms: C8_15  and  C9_17 
REMARK    7  A    between atoms: C17_28  and  C18_29 
REMARK       I    between atoms: C18_29  and  N5_31 
REMARK    8  A    between atoms: N5_31  and  C19_33 
REMARK    9  A    between atoms: C19_33  and  C20_34 
REMARK   10  A    between atoms: C19_33  and  C21_37 
ROOT
HETATM    1  C3  UNL     1     -15.653   4.039   2.759  1.00  0.00     0.061 C 
HETATM    2  C4  UNL     1     -15.898   5.254   2.304  1.00  0.00    -0.004 A 
HETATM    3  C5  UNL     1     -15.558   6.091   1.156  1.00  0.00     0.218 A 
HETATM    4 CL1  UNL     1     -16.138   5.533  -0.423  1.00  0.00    -0.097 Cl
HETATM    5  N1  UNL     1     -16.333   7.221   1.693  1.00  0.00    -0.311 N 
HETATM    6  C6  UNL     1     -16.551   8.515   1.140  1.00  0.00     0.245 C 
HETATM    7  O2  UNL     1     -16.045   8.754  -0.017  1.00  0.00    -0.271 OA
HETATM    8  C17 UNL     1     -16.699   6.399   2.819  1.00  0.00     0.214 A 
ENDROOT
BRANCH   6   9
HETATM    9  C7  UNL     1     -17.303   9.591   1.773  1.00  0.00     0.184 C 
BRANCH   9  10
HETATM   10  N2  UNL     1     -18.493   9.844   0.910  1.00  0.00    -0.340 N 
HETATM   11  C8  UNL     1     -19.773   9.656   1.465  1.00  0.00     0.286 C 
HETATM   12  O3  UNL     1     -19.804   9.273   2.704  1.00  0.00    -0.264 OA
ATOM     13  H2  UNL     1     -18.382  10.145  -0.058  1.00  0.00     0.163 HD
BRANCH  11  14
HETATM   14  C9  UNL     1     -21.037   9.842   0.818  1.00  0.00     0.176 A 
HETATM   15  N3  UNL     1     -21.452   9.034  -0.213  1.00  0.00    -0.346 N 
HETATM   16  C10 UNL     1     -22.650   9.425  -0.631  1.00  0.00     0.107 A 
ATOM     17  H3  UNL     1     -20.921   8.253  -0.598  1.00  0.00     0.167 HD
HETATM   18  C11 UNL     1     -23.030  10.493   0.122  1.00  0.00     0.109 A 
HETATM   19  N4  UNL     1     -22.013  10.722   1.003  1.00  0.00    -0.342 N 
HETATM   20  C12 UNL     1     -22.045  11.787   1.973  1.00  0.00     0.157 C 
ENDBRANCH  11  14
ENDBRANCH   9  10
BRANCH   9  21
HETATM   21  C13 UNL     1     -16.551  10.905   1.729  1.00  0.00    -0.022 C 
HETATM   22  C14 UNL     1     -17.081  11.703   2.939  1.00  0.00     0.017 C 
HETATM   23  C15 UNL     1     -16.826  11.727   0.510  1.00  0.00     0.017 C 
HETATM   24  C16 UNL     1     -15.082  10.808   1.915  1.00  0.00     0.017 C 
ENDBRANCH   9  21
ENDBRANCH   6   9
BRANCH   8  25
HETATM   25  C18 UNL     1     -18.175   6.078   2.874  1.00  0.00     0.245 C 
HETATM   26  O4  UNL     1     -18.795   6.592   3.836  1.00  0.00    -0.271 OA
HETATM   27  N5  UNL     1     -18.795   5.259   1.901  1.00  0.00    -0.345 N 
ATOM     28  H5  UNL     1     -18.223   4.878   1.148  1.00  0.00     0.163 HD
BRANCH  27  29
HETATM   29  C19 UNL     1     -20.212   4.936   1.929  1.00  0.00     0.181 C 
BRANCH  29  30
HETATM   30  C20 UNL     1     -20.973   5.752   0.978  1.00  0.00     0.254 C 
HETATM   31  N6  UNL     1     -22.341   6.082   1.093  1.00  0.00    -0.060 NA
HETATM   32  O5  UNL     1     -20.401   6.234  -0.062  1.00  0.00    -0.275 OA
ENDBRANCH  29  30
BRANCH  29  33
HETATM   33  C21 UNL     1     -20.438   3.453   1.716  1.00  0.00    -0.022 C 
HETATM   34  C22 UNL     1     -21.664   2.998   2.454  1.00  0.00     0.017 C 
HETATM   35  C23 UNL     1     -19.252   2.678   2.224  1.00  0.00     0.017 C 
HETATM   36  C24 UNL     1     -20.535   3.140   0.227  1.00  0.00     0.017 C 
ENDBRANCH  29  33
ENDBRANCH  27  29
ENDBRANCH   8  25
BRANCH   1  37
HETATM   37  S1  UNL     1     -14.606   2.905   1.849  1.00  0.00    -0.065 SA
BRANCH  37  38
HETATM   38  C2  UNL     1     -14.972   1.228   2.339  1.00  0.00     0.186 C 
HETATM   39  C1  UNL     1     -16.250   0.927   3.044  1.00  0.00     0.104 C 
HETATM   40  O1  UNL     1     -14.147   0.371   2.075  1.00  0.00    -0.286 OA
ENDBRANCH  37  38
ENDBRANCH   1  37
TORSDOF 10
ENDMDL
