MODEL 1
REMARK VINA RESULT: -7.904479189      0.000      0.000
REMARK  3 active torsions:
REMARK  status: ('A' for Active; 'I' for Inactive)
REMARK    1  A    between atoms: C5_7  and  C6_8 
REMARK    2  A    between atoms: C7_9  and  C8_10 
REMARK    3  A    between atoms: C11_13  and  C12_14 
ROOT
HETATM    1  C8  UNL     1      -6.952  22.475  10.710  1.00  0.00    -0.007 A 
HETATM    2  C9  UNL     1      -8.084  22.529   9.976  1.00  0.00     0.014 A 
HETATM    3  C10 UNL     1      -8.037  22.899   8.627  1.00  0.00     0.018 A 
HETATM    4  C11 UNL     1      -6.824  23.205   8.072  1.00  0.00     0.061 A 
HETATM    5  C13 UNL     1      -5.665  23.158   8.792  1.00  0.00     0.025 A 
HETATM    6  C14 UNL     1      -4.332  23.412   8.479  1.00  0.00     0.121 A 
HETATM    7  N2  UNL     1      -3.639  23.197   9.603  1.00  0.00    -0.311 N 
ATOM      8  H2  UNL     1      -2.628  23.300   9.697  1.00  0.00     0.186 HD
HETATM    9  N3  UNL     1      -4.455  22.831  10.570  1.00  0.00    -0.299 N 
ATOM     10  H3  UNL     1      -4.166  22.608  11.522  1.00  0.00     0.187 HD
HETATM   11  C15 UNL     1      -5.731  22.791  10.118  1.00  0.00     0.070 A 
ENDROOT
BRANCH   1  12
HETATM   12  C7  UNL     1      -6.925  22.092  12.137  1.00  0.00     0.014 C 
HETATM   13  C6  UNL     1      -7.999  21.898  12.819  1.00  0.00     0.015 C 
BRANCH  13  14
HETATM   14  C5  UNL     1      -8.184  21.526  14.201  1.00  0.00    -0.006 A 
HETATM   15  C3  UNL     1      -7.961  20.232  14.709  1.00  0.00     0.016 A 
HETATM   16  N1  UNL     1      -8.232  20.271  16.014  1.00  0.00    -0.362 N 
HETATM   17  C4  UNL     1      -7.507  19.066  13.900  1.00  0.00     0.069 C 
HETATM   18  C2  UNL     1      -8.606  21.485  16.365  1.00  0.00     0.012 A 
ATOM     19  H1  UNL     1      -8.161  19.476  16.649  1.00  0.00     0.165 HD
HETATM   20  C1  UNL     1      -8.989  21.919  17.735  1.00  0.00     0.068 C 
HETATM   21  C16 UNL     1      -8.589  22.320  15.239  1.00  0.00    -0.028 A 
HETATM   22  C17 UNL     1      -8.961  23.759  15.300  1.00  0.00     0.051 C 
ENDBRANCH  13  14
ENDBRANCH   1  12
BRANCH   4  23
HETATM   23  C12 UNL     1      -6.742  23.601   6.646  1.00  0.00     0.418 C 
HETATM   24  F1  UNL     1      -7.820  23.091   5.951  1.00  0.00    -0.166 F 
HETATM   25  F2  UNL     1      -6.754  24.991   6.541  1.00  0.00    -0.166 F 
HETATM   26  F3  UNL     1      -5.594  23.103   6.056  1.00  0.00    -0.166 F 
ENDBRANCH   4  23
TORSDOF 3
ENDMDL
MODEL 2
REMARK VINA RESULT: -7.862039082      0.801      2.038
REMARK  3 active torsions:
REMARK  status: ('A' for Active; 'I' for Inactive)
REMARK    1  A    between atoms: C5_7  and  C6_8 
REMARK    2  A    between atoms: C7_9  and  C8_10 
REMARK    3  A    between atoms: C11_13  and  C12_14 
ROOT
HETATM    1  C8  UNL     1      -6.939  22.475  10.487  1.00  0.00    -0.007 A 
HETATM    2  C9  UNL     1      -8.117  22.659   9.854  1.00  0.00     0.014 A 
HETATM    3  C10 UNL     1      -8.149  23.145   8.541  1.00  0.00     0.018 A 
HETATM    4  C11 UNL     1      -6.964  23.428   7.917  1.00  0.00     0.061 A 
HETATM    5  C13 UNL     1      -5.759  23.250   8.535  1.00  0.00     0.025 A 
HETATM    6  C14 UNL     1      -4.440  23.454   8.138  1.00  0.00     0.121 A 
HETATM    7  N2  UNL     1      -3.679  23.099   9.181  1.00  0.00    -0.311 N 
ATOM      8  H2  UNL     1      -2.660  23.136   9.201  1.00  0.00     0.186 HD
HETATM    9  N3  UNL     1      -4.442  22.696  10.176  1.00  0.00    -0.299 N 
ATOM     10  H3  UNL     1      -4.098  22.374  11.080  1.00  0.00     0.187 HD
HETATM   11  C15 UNL     1      -5.749  22.771   9.827  1.00  0.00     0.070 A 
ENDROOT
BRANCH   1  12
HETATM   12  C7  UNL     1      -6.830  21.966  11.869  1.00  0.00     0.014 C 
HETATM   13  C6  UNL     1      -7.834  21.934  12.674  1.00  0.00     0.015 C 
BRANCH  13  14
HETATM   14  C5  UNL     1      -7.933  21.483  14.041  1.00  0.00    -0.006 A 
HETATM   15  C3  UNL     1      -8.074  22.340  15.149  1.00  0.00     0.016 A 
HETATM   16  N1  UNL     1      -8.133  21.570  16.236  1.00  0.00    -0.362 N 
HETATM   17  C4  UNL     1      -8.139  23.827  15.073  1.00  0.00     0.069 C 
HETATM   18  C2  UNL     1      -8.042  20.299  15.899  1.00  0.00     0.012 A 
ATOM     19  H1  UNL     1      -8.235  21.914  17.191  1.00  0.00     0.165 HD
HETATM   20  C1  UNL     1      -8.069  19.143  16.833  1.00  0.00     0.068 C 
HETATM   21  C16 UNL     1      -7.913  20.195  14.506  1.00  0.00    -0.028 A 
HETATM   22  C17 UNL     1      -7.787  18.890  13.805  1.00  0.00     0.051 C 
ENDBRANCH  13  14
ENDBRANCH   1  12
BRANCH   4  23
HETATM   23  C12 UNL     1      -6.964  23.944   6.528  1.00  0.00     0.418 C 
HETATM   24  F1  UNL     1      -6.430  25.216   6.496  1.00  0.00    -0.166 F 
HETATM   25  F2  UNL     1      -6.196  23.111   5.716  1.00  0.00    -0.166 F 
HETATM   26  F3  UNL     1      -8.250  24.021   6.025  1.00  0.00    -0.166 F 
ENDBRANCH   4  23
TORSDOF 3
ENDMDL
MODEL 3
REMARK VINA RESULT: -7.367628750      1.045      1.341
REMARK  3 active torsions:
REMARK  status: ('A' for Active; 'I' for Inactive)
REMARK    1  A    between atoms: C5_7  and  C6_8 
REMARK    2  A    between atoms: C7_9  and  C8_10 
REMARK    3  A    between atoms: C11_13  and  C12_14 
ROOT
HETATM    1  C8  UNL     1      -7.314  22.267  10.845  1.00  0.00    -0.007 A 
HETATM    2  C9  UNL     1      -8.354  22.470  10.008  1.00  0.00     0.014 A 
HETATM    3  C10 UNL     1      -8.134  22.922   8.701  1.00  0.00     0.018 A 
HETATM    4  C11 UNL     1      -6.848  23.151   8.293  1.00  0.00     0.061 A 
HETATM    5  C13 UNL     1      -5.779  22.952   9.120  1.00  0.00     0.025 A 
HETATM    6  C14 UNL     1      -4.404  23.104   8.961  1.00  0.00     0.121 A 
HETATM    7  N2  UNL     1      -3.854  22.754  10.130  1.00  0.00    -0.311 N 
ATOM      8  H2  UNL     1      -2.854  22.760  10.332  1.00  0.00     0.186 HD
HETATM    9  N3  UNL     1      -4.795  22.402  10.981  1.00  0.00    -0.299 N 
ATOM     10  H3  UNL     1      -4.629  22.094  11.939  1.00  0.00     0.187 HD
HETATM   11  C15 UNL     1      -6.016  22.508  10.403  1.00  0.00     0.070 A 
ENDROOT
BRANCH   1  12
HETATM   12  C7  UNL     1      -7.471  21.792  12.235  1.00  0.00     0.014 C 
HETATM   13  C6  UNL     1      -7.283  22.559  13.251  1.00  0.00     0.015 C 
BRANCH  13  14
HETATM   14  C5  UNL     1      -7.383  22.293  14.666  1.00  0.00    -0.006 A 
HETATM   15  C3  UNL     1      -6.442  21.544  15.398  1.00  0.00     0.016 A 
HETATM   16  N1  UNL     1      -6.864  21.513  16.663  1.00  0.00    -0.362 N 
HETATM   17  C4  UNL     1      -5.216  20.921  14.824  1.00  0.00     0.069 C 
HETATM   18  C2  UNL     1      -7.993  22.182  16.782  1.00  0.00     0.012 A 
ATOM     19  H1  UNL     1      -6.384  21.039  17.428  1.00  0.00     0.165 HD
HETATM   20  C1  UNL     1      -8.769  22.370  18.037  1.00  0.00     0.068 C 
HETATM   21  C16 UNL     1      -8.363  22.698  15.532  1.00  0.00    -0.028 A 
HETATM   22  C17 UNL     1      -9.594  23.505  15.327  1.00  0.00     0.051 C 
ENDBRANCH  13  14
ENDBRANCH   1  12
BRANCH   4  23
HETATM   23  C12 UNL     1      -6.582  23.629   6.915  1.00  0.00     0.418 C 
HETATM   24  F1  UNL     1      -5.332  23.212   6.504  1.00  0.00    -0.166 F 
HETATM   25  F2  UNL     1      -7.541  23.111   6.045  1.00  0.00    -0.166 F 
HETATM   26  F3  UNL     1      -6.602  25.010   6.855  1.00  0.00    -0.166 F 
ENDBRANCH   4  23
TORSDOF 3
ENDMDL
MODEL 4
REMARK VINA RESULT: -7.282616183      1.393      2.165
REMARK  3 active torsions:
REMARK  status: ('A' for Active; 'I' for Inactive)
REMARK    1  A    between atoms: C5_7  and  C6_8 
REMARK    2  A    between atoms: C7_9  and  C8_10 
REMARK    3  A    between atoms: C11_13  and  C12_14 
ROOT
HETATM    1  C8  UNL     1      -7.104  22.533  10.471  1.00  0.00    -0.007 A 
HETATM    2  C9  UNL     1      -8.271  22.728   9.822  1.00  0.00     0.014 A 
HETATM    3  C10 UNL     1      -8.280  23.222   8.512  1.00  0.00     0.018 A 
HETATM    4  C11 UNL     1      -7.084  23.503   7.908  1.00  0.00     0.061 A 
HETATM    5  C13 UNL     1      -5.890  23.314   8.543  1.00  0.00     0.025 A 
HETATM    6  C14 UNL     1      -4.564  23.512   8.168  1.00  0.00     0.121 A 
HETATM    7  N2  UNL     1      -3.821  23.147   9.219  1.00  0.00    -0.311 N 
ATOM      8  H2  UNL     1      -2.802  23.177   9.255  1.00  0.00     0.186 HD
HETATM    9  N3  UNL     1      -4.601  22.742  10.200  1.00  0.00    -0.299 N 
ATOM     10  H3  UNL     1      -4.272  22.411  11.107  1.00  0.00     0.187 HD
HETATM   11  C15 UNL     1      -5.902  22.826   9.832  1.00  0.00     0.070 A 
ENDROOT
BRANCH   1  12
HETATM   12  C7  UNL     1      -7.018  22.014  11.852  1.00  0.00     0.014 C 
HETATM   13  C6  UNL     1      -6.889  22.787  12.872  1.00  0.00     0.015 C 
BRANCH  13  14
HETATM   14  C5  UNL     1      -6.788  22.484  14.280  1.00  0.00    -0.006 A 
HETATM   15  C3  UNL     1      -7.254  23.326  15.307  1.00  0.00     0.016 A 
HETATM   16  N1  UNL     1      -6.991  22.717  16.463  1.00  0.00    -0.362 N 
HETATM   17  C4  UNL     1      -7.913  24.646  15.093  1.00  0.00     0.069 C 
HETATM   18  C2  UNL     1      -6.398  21.561  16.245  1.00  0.00     0.012 A 
ATOM     19  H1  UNL     1      -7.215  23.092  17.385  1.00  0.00     0.165 HD
HETATM   20  C1  UNL     1      -5.951  20.597  17.285  1.00  0.00     0.068 C 
HETATM   21  C16 UNL     1      -6.248  21.369  14.863  1.00  0.00    -0.028 A 
HETATM   22  C17 UNL     1      -5.613  20.156  14.284  1.00  0.00     0.051 C 
ENDBRANCH  13  14
ENDBRANCH   1  12
BRANCH   4  23
HETATM   23  C12 UNL     1      -7.061  24.028   6.522  1.00  0.00     0.418 C 
HETATM   24  F1  UNL     1      -8.350  24.193   6.058  1.00  0.00    -0.166 F 
HETATM   25  F2  UNL     1      -6.409  25.260   6.496  1.00  0.00    -0.166 F 
HETATM   26  F3  UNL     1      -6.420  23.148   5.668  1.00  0.00    -0.166 F 
ENDBRANCH   4  23
TORSDOF 3
ENDMDL
MODEL 5
REMARK VINA RESULT: -7.189806965      0.850      1.019
REMARK  3 active torsions:
REMARK  status: ('A' for Active; 'I' for Inactive)
REMARK    1  A    between atoms: C5_7  and  C6_8 
REMARK    2  A    between atoms: C7_9  and  C8_10 
REMARK    3  A    between atoms: C11_13  and  C12_14 
ROOT
HETATM    1  C8  UNL     1      -7.267  22.374  10.937  1.00  0.00    -0.007 A 
HETATM    2  C9  UNL     1      -8.315  22.513  10.098  1.00  0.00     0.014 A 
HETATM    3  C10 UNL     1      -8.112  22.891   8.766  1.00  0.00     0.018 A 
HETATM    4  C11 UNL     1      -6.832  23.114   8.335  1.00  0.00     0.061 A 
HETATM    5  C13 UNL     1      -5.755  22.980   9.163  1.00  0.00     0.025 A 
HETATM    6  C14 UNL     1      -4.384  23.141   8.985  1.00  0.00     0.121 A 
HETATM    7  N2  UNL     1      -3.820  22.868  10.168  1.00  0.00    -0.311 N 
ATOM      8  H2  UNL     1      -2.819  22.900  10.360  1.00  0.00     0.186 HD
HETATM    9  N3  UNL     1      -4.750  22.553  11.045  1.00  0.00    -0.299 N 
ATOM     10  H3  UNL     1      -4.572  22.303  12.018  1.00  0.00     0.187 HD
HETATM   11  C15 UNL     1      -5.976  22.607  10.472  1.00  0.00     0.070 A 
ENDROOT
BRANCH   1  12
HETATM   12  C7  UNL     1      -7.407  21.978  12.354  1.00  0.00     0.014 C 
HETATM   13  C6  UNL     1      -7.786  20.801  12.708  1.00  0.00     0.015 C 
BRANCH  13  14
HETATM   14  C5  UNL     1      -7.982  20.226  14.017  1.00  0.00    -0.006 A 
HETATM   15  C3  UNL     1      -8.013  18.843  14.278  1.00  0.00     0.016 A 
HETATM   16  N1  UNL     1      -8.211  18.695  15.588  1.00  0.00    -0.362 N 
HETATM   17  C4  UNL     1      -7.850  17.778  13.248  1.00  0.00     0.069 C 
HETATM   18  C2  UNL     1      -8.306  19.874  16.170  1.00  0.00     0.012 A 
ATOM     19  H1  UNL     1      -8.280  17.799  16.071  1.00  0.00     0.165 HD
HETATM   20  C1  UNL     1      -8.528  20.117  17.619  1.00  0.00     0.068 C 
HETATM   21  C16 UNL     1      -8.166  20.882  15.205  1.00  0.00    -0.028 A 
HETATM   22  C17 UNL     1      -8.225  22.329  15.539  1.00  0.00     0.051 C 
ENDBRANCH  13  14
ENDBRANCH   1  12
BRANCH   4  23
HETATM   23  C12 UNL     1      -6.584  23.515   6.930  1.00  0.00     0.418 C 
HETATM   24  F1  UNL     1      -7.538  22.955   6.103  1.00  0.00    -0.166 F 
HETATM   25  F2  UNL     1      -6.647  24.903   6.817  1.00  0.00    -0.166 F 
HETATM   26  F3  UNL     1      -5.347  23.072   6.497  1.00  0.00    -0.166 F 
ENDBRANCH   4  23
TORSDOF 3
ENDMDL
