MODEL 1
REMARK VINA RESULT: -8.655727652      0.000      0.000
REMARK  18 active torsions:
REMARK  status: ('A' for Active; 'I' for Inactive)
REMARK    1  A    between atoms: N1_1  and  N2_4 
REMARK       I    between atoms: N2_4  and  C1_6 
REMARK    2  A    between atoms: C1_6  and  O2_8 
REMARK    3  A    between atoms: O2_8  and  C2_9 
REMARK    4  A    between atoms: C2_9  and  O3_10 
REMARK    5  A    between atoms: C2_9  and  C3_12 
REMARK    6  A    between atoms: C3_12  and  N3_13 
REMARK    7  A    between atoms: C3_12  and  C4_17 
REMARK    8  A    between atoms: C4_17  and  N4_18 
REMARK    9  A    between atoms: C4_17  and  C5_22 
REMARK   10  A    between atoms: C5_22  and  C6_23 
REMARK   11  A    between atoms: C8_25  and  N5_26 
REMARK   12  A    between atoms: N5_26  and  O4_28 
REMARK   13  A    between atoms: C9_32  and  N7_33 
REMARK       I    between atoms: N7_33  and  C10_35 
REMARK   14  A    between atoms: C10_35  and  C11_37 
REMARK   15  A    between atoms: C11_37  and  N8_38 
REMARK   16  A    between atoms: C11_37  and  C12_42 
REMARK   17  A    between atoms: C12_42  and  O6_43 
REMARK   18  A    between atoms: C12_42  and  C13_45 
ROOT
HETATM    1  C6  UNL     1      26.964 -31.584 280.851  1.00  0.00     0.032 A 
HETATM    2  C7  UNL     1      27.968 -31.282 281.747  1.00  0.00     0.076 A 
HETATM    3  C8  UNL     1      27.813 -31.370 283.116  1.00  0.00     0.142 A 
HETATM    4  N6  UNL     1      26.592 -31.778 283.546  1.00  0.00    -0.175 N 
ATOM      5  H6  UNL     1      26.432 -31.857 284.551  1.00  0.00     0.186 HD
HETATM    6  C9  UNL     1      25.592 -32.082 282.717  1.00  0.00     0.686 A 
HETATM    7  N10 UNL     1      25.783 -31.984 281.397  1.00  0.00    -0.195 N 
ATOM      8  H10 UNL     1      25.010 -32.218 280.773  1.00  0.00     0.184 HD
ENDROOT
BRANCH   1   9
HETATM    9  C5  UNL     1      27.220 -31.465 279.435  1.00  0.00     0.092 C 
BRANCH   9  10
HETATM   10  C4  UNL     1      27.645 -32.655 278.662  1.00  0.00     0.224 C 
BRANCH  10  11
HETATM   11  C3  UNL     1      26.602 -33.314 277.816  1.00  0.00     0.269 C 
BRANCH  11  12
HETATM   12  C2  UNL     1      26.159 -34.590 278.552  1.00  0.00     0.300 C 
BRANCH  12  13
HETATM   13  O2  UNL     1      24.890 -34.329 279.174  1.00  0.00    -0.269 OA
BRANCH  13  14
HETATM   14  C1  UNL     1      24.398 -35.183 280.136  1.00  0.00     0.381 C 
HETATM   15  N2  UNL     1      24.238 -36.577 279.905  1.00  0.00    -0.252 N 
ATOM     16  H2  UNL     1      24.489 -36.981 279.003  1.00  0.00     0.191 HD
HETATM   17  O1  UNL     1      24.081 -34.694 281.268  1.00  0.00    -0.237 OA
BRANCH  15  18
HETATM   18  N1  UNL     1      23.735 -37.388 280.924  1.00  0.00    -0.341 N 
ATOM     19  H12 UNL     1      22.792 -37.220 281.276  1.00  0.00     0.177 HD
ATOM     20  H11 UNL     1      24.315 -38.137 281.302  1.00  0.00     0.177 HD
ENDBRANCH  15  18
ENDBRANCH  13  14
ENDBRANCH  12  13
BRANCH  12  21
HETATM   21  O3  UNL     1      25.855 -35.580 277.592  1.00  0.00    -0.368 OA
ATOM     22  H3  UNL     1      26.468 -36.277 277.793  1.00  0.00     0.212 HD
ENDBRANCH  12  21
ENDBRANCH  11  12
BRANCH  11  23
HETATM   23  N3  UNL     1      25.393 -32.502 277.704  1.00  0.00    -0.068 N 
ATOM     24  H33 UNL     1      24.780 -32.560 278.516  1.00  0.00     0.275 HD
ATOM     25  H32 UNL     1      25.565 -31.497 277.759  1.00  0.00     0.275 HD
ATOM     26  H31 UNL     1      24.954 -32.799 276.833  1.00  0.00     0.275 HD
ENDBRANCH  11  23
ENDBRANCH  10  11
BRANCH  10  27
HETATM   27  N4  UNL     1      28.655 -32.131 277.702  1.00  0.00    -0.072 N 
ATOM     28  H43 UNL     1      29.364 -32.814 277.439  1.00  0.00     0.274 HD
ATOM     29  H42 UNL     1      28.287 -31.973 276.763  1.00  0.00     0.274 HD
ATOM     30  H41 UNL     1      29.034 -31.292 278.142  1.00  0.00     0.274 HD
ENDBRANCH  10  27
ENDBRANCH   9  10
ENDBRANCH   1   9
BRANCH   3  31
HETATM   31  N5  UNL     1      28.760 -31.086 283.945  1.00  0.00    -0.253 N 
ATOM     32  H5  UNL     1      28.918 -31.647 284.781  1.00  0.00     0.196 HD
BRANCH  31  33
HETATM   33  O4  UNL     1      29.545 -29.999 283.655  1.00  0.00    -0.288 OA
ATOM     34  H4  UNL     1      30.069 -29.640 284.360  1.00  0.00     0.244 HD
ENDBRANCH  31  33
ENDBRANCH   3  31
BRANCH   6  35
HETATM   35  N7  UNL     1      24.434 -32.472 283.175  1.00  0.00    -0.158 N 
HETATM   36  C10 UNL     1      24.064 -32.300 284.525  1.00  0.00     0.269 C 
HETATM   37  O5  UNL     1      23.814 -31.134 284.923  1.00  0.00    -0.270 OA
ATOM     38  H7  UNL     1      23.775 -32.917 282.536  1.00  0.00     0.187 HD
BRANCH  36  39
HETATM   39  C11 UNL     1      23.951 -33.410 285.499  1.00  0.00     0.312 C 
BRANCH  39  40
HETATM   40  N8  UNL     1      23.244 -32.888 286.661  1.00  0.00    -0.064 N 
ATOM     41  H83 UNL     1      22.246 -33.099 286.651  1.00  0.00     0.275 HD
ATOM     42  H82 UNL     1      23.473 -33.382 287.524  1.00  0.00     0.275 HD
ATOM     43  H81 UNL     1      23.442 -31.888 286.708  1.00  0.00     0.275 HD
ENDBRANCH  39  40
BRANCH  39  44
HETATM   44  C12 UNL     1      25.303 -33.897 285.981  1.00  0.00     0.246 C 
BRANCH  44  45
HETATM   45  O6  UNL     1      26.202 -32.838 286.097  1.00  0.00    -0.384 OA
ATOM     46  H6  UNL     1      26.828 -32.844 285.383  1.00  0.00     0.210 HD
ENDBRANCH  44  45
BRANCH  44  47
HETATM   47  C13 UNL     1      25.064 -34.429 287.365  1.00  0.00     0.262 C 
HETATM   48  N9  UNL     1      25.622 -33.827 288.512  1.00  0.00    -0.060 NA
HETATM   49  O7  UNL     1      24.342 -35.448 287.513  1.00  0.00    -0.274 OA
ENDBRANCH  44  47
ENDBRANCH  39  44
ENDBRANCH  36  39
ENDBRANCH   6  35
TORSDOF 18
ENDMDL
MODEL 2
REMARK VINA RESULT: -8.604535040      0.900      1.114
REMARK  18 active torsions:
REMARK  status: ('A' for Active; 'I' for Inactive)
REMARK    1  A    between atoms: N1_1  and  N2_4 
REMARK       I    between atoms: N2_4  and  C1_6 
REMARK    2  A    between atoms: C1_6  and  O2_8 
REMARK    3  A    between atoms: O2_8  and  C2_9 
REMARK    4  A    between atoms: C2_9  and  O3_10 
REMARK    5  A    between atoms: C2_9  and  C3_12 
REMARK    6  A    between atoms: C3_12  and  N3_13 
REMARK    7  A    between atoms: C3_12  and  C4_17 
REMARK    8  A    between atoms: C4_17  and  N4_18 
REMARK    9  A    between atoms: C4_17  and  C5_22 
REMARK   10  A    between atoms: C5_22  and  C6_23 
REMARK   11  A    between atoms: C8_25  and  N5_26 
REMARK   12  A    between atoms: N5_26  and  O4_28 
REMARK   13  A    between atoms: C9_32  and  N7_33 
REMARK       I    between atoms: N7_33  and  C10_35 
REMARK   14  A    between atoms: C10_35  and  C11_37 
REMARK   15  A    between atoms: C11_37  and  N8_38 
REMARK   16  A    between atoms: C11_37  and  C12_42 
REMARK   17  A    between atoms: C12_42  and  O6_43 
REMARK   18  A    between atoms: C12_42  and  C13_45 
ROOT
HETATM    1  C6  UNL     1      27.333 -31.944 281.009  1.00  0.00     0.032 A 
HETATM    2  C7  UNL     1      28.271 -31.364 281.836  1.00  0.00     0.076 A 
HETATM    3  C8  UNL     1      28.137 -31.306 283.209  1.00  0.00     0.142 A 
HETATM    4  N6  UNL     1      27.007 -31.864 283.715  1.00  0.00    -0.175 N 
ATOM      5  H6  UNL     1      26.866 -31.843 284.725  1.00  0.00     0.186 HD
HETATM    6  C9  UNL     1      26.073 -32.436 282.954  1.00  0.00     0.686 A 
HETATM    7  N10 UNL     1      26.240 -32.471 281.628  1.00  0.00    -0.195 N 
ATOM      8  H10 UNL     1      25.519 -32.912 281.055  1.00  0.00     0.184 HD
ENDROOT
BRANCH   1   9
HETATM    9  C5  UNL     1      27.560 -31.959 279.583  1.00  0.00     0.092 C 
BRANCH   9  10
HETATM   10  C4  UNL     1      26.893 -32.980 278.742  1.00  0.00     0.224 C 
BRANCH  10  11
HETATM   11  C3  UNL     1      25.552 -32.621 278.185  1.00  0.00     0.269 C 
BRANCH  11  12
HETATM   12  C2  UNL     1      24.518 -33.537 278.861  1.00  0.00     0.300 C 
BRANCH  12  13
HETATM   13  O2  UNL     1      25.219 -34.654 279.433  1.00  0.00    -0.269 OA
BRANCH  13  14
HETATM   14  C1  UNL     1      24.570 -35.516 280.289  1.00  0.00     0.381 C 
HETATM   15  N2  UNL     1      24.144 -36.812 279.886  1.00  0.00    -0.252 N 
ATOM     16  H2  UNL     1      24.313 -37.135 278.934  1.00  0.00     0.191 HD
HETATM   17  O1  UNL     1      24.351 -35.127 281.482  1.00  0.00    -0.237 OA
BRANCH  15  18
HETATM   18  N1  UNL     1      23.491 -37.637 280.804  1.00  0.00    -0.341 N 
ATOM     19  H12 UNL     1      22.503 -37.480 281.002  1.00  0.00     0.177 HD
ATOM     20  H11 UNL     1      24.011 -38.385 281.264  1.00  0.00     0.177 HD
ENDBRANCH  15  18
ENDBRANCH  13  14
ENDBRANCH  12  13
BRANCH  12  21
HETATM   21  O3  UNL     1      23.993 -32.867 279.988  1.00  0.00    -0.368 OA
ATOM     22  H3  UNL     1      23.271 -33.422 280.258  1.00  0.00     0.212 HD
ENDBRANCH  12  21
ENDBRANCH  11  12
BRANCH  11  23
HETATM   23  N3  UNL     1      25.153 -31.264 278.548  1.00  0.00    -0.068 N 
ATOM     24  H33 UNL     1      25.747 -30.538 278.149  1.00  0.00     0.275 HD
ATOM     25  H32 UNL     1      24.284 -30.959 278.110  1.00  0.00     0.275 HD
ATOM     26  H31 UNL     1      25.127 -31.260 279.568  1.00  0.00     0.275 HD
ENDBRANCH  11  23
ENDBRANCH  10  11
BRANCH  10  27
HETATM   27  N4  UNL     1      27.784 -33.125 277.559  1.00  0.00    -0.072 N 
ATOM     28  H43 UNL     1      27.291 -33.099 276.667  1.00  0.00     0.274 HD
ATOM     29  H42 UNL     1      28.379 -32.313 277.390  1.00  0.00     0.274 HD
ATOM     30  H41 UNL     1      28.303 -33.989 277.718  1.00  0.00     0.274 HD
ENDBRANCH  10  27
ENDBRANCH   9  10
ENDBRANCH   1   9
BRANCH   3  31
HETATM   31  N5  UNL     1      29.022 -30.763 283.974  1.00  0.00    -0.253 N 
ATOM     32  H5  UNL     1      28.753 -30.247 284.812  1.00  0.00     0.196 HD
BRANCH  31  33
HETATM   33  O4  UNL     1      30.337 -30.906 283.614  1.00  0.00    -0.288 OA
ATOM     34  H4  UNL     1      30.992 -30.575 284.217  1.00  0.00     0.244 HD
ENDBRANCH  31  33
ENDBRANCH   3  31
BRANCH   6  35
HETATM   35  N7  UNL     1      25.002 -32.961 283.484  1.00  0.00    -0.158 N 
HETATM   36  C10 UNL     1      24.375 -32.404 284.617  1.00  0.00     0.269 C 
HETATM   37  O5  UNL     1      23.757 -31.319 284.475  1.00  0.00    -0.270 OA
ATOM     38  H7  UNL     1      24.606 -33.802 283.065  1.00  0.00     0.187 HD
BRANCH  36  39
HETATM   39  C11 UNL     1      24.401 -33.022 285.963  1.00  0.00     0.312 C 
BRANCH  39  40
HETATM   40  N8  UNL     1      24.674 -31.955 286.918  1.00  0.00    -0.064 N 
ATOM     41  H83 UNL     1      24.675 -32.275 287.887  1.00  0.00     0.275 HD
ATOM     42  H82 UNL     1      25.640 -31.628 286.887  1.00  0.00     0.275 HD
ATOM     43  H81 UNL     1      23.995 -31.215 286.741  1.00  0.00     0.275 HD
ENDBRANCH  39  40
BRANCH  39  44
HETATM   44  C12 UNL     1      25.510 -34.045 286.109  1.00  0.00     0.246 C 
BRANCH  44  45
HETATM   45  O6  UNL     1      26.759 -33.429 286.123  1.00  0.00    -0.384 OA
ATOM     46  H6  UNL     1      27.213 -33.560 285.299  1.00  0.00     0.210 HD
ENDBRANCH  44  45
BRANCH  44  47
HETATM   47  C13 UNL     1      25.305 -34.663 287.464  1.00  0.00     0.262 C 
HETATM   48  N9  UNL     1      25.794 -34.068 288.645  1.00  0.00    -0.060 NA
HETATM   49  O7  UNL     1      24.677 -35.748 287.553  1.00  0.00    -0.274 OA
ENDBRANCH  44  47
ENDBRANCH  39  44
ENDBRANCH  36  39
ENDBRANCH   6  35
TORSDOF 18
ENDMDL
MODEL 3
REMARK VINA RESULT: -8.548831895      1.817      2.409
REMARK  18 active torsions:
REMARK  status: ('A' for Active; 'I' for Inactive)
REMARK    1  A    between atoms: N1_1  and  N2_4 
REMARK       I    between atoms: N2_4  and  C1_6 
REMARK    2  A    between atoms: C1_6  and  O2_8 
REMARK    3  A    between atoms: O2_8  and  C2_9 
REMARK    4  A    between atoms: C2_9  and  O3_10 
REMARK    5  A    between atoms: C2_9  and  C3_12 
REMARK    6  A    between atoms: C3_12  and  N3_13 
REMARK    7  A    between atoms: C3_12  and  C4_17 
REMARK    8  A    between atoms: C4_17  and  N4_18 
REMARK    9  A    between atoms: C4_17  and  C5_22 
REMARK   10  A    between atoms: C5_22  and  C6_23 
REMARK   11  A    between atoms: C8_25  and  N5_26 
REMARK   12  A    between atoms: N5_26  and  O4_28 
REMARK   13  A    between atoms: C9_32  and  N7_33 
REMARK       I    between atoms: N7_33  and  C10_35 
REMARK   14  A    between atoms: C10_35  and  C11_37 
REMARK   15  A    between atoms: C11_37  and  N8_38 
REMARK   16  A    between atoms: C11_37  and  C12_42 
REMARK   17  A    between atoms: C12_42  and  O6_43 
REMARK   18  A    between atoms: C12_42  and  C13_45 
ROOT
HETATM    1  C6  UNL     1      26.026 -31.558 280.416  1.00  0.00     0.032 A 
HETATM    2  C7  UNL     1      24.866 -30.813 280.434  1.00  0.00     0.076 A 
HETATM    3  C8  UNL     1      23.925 -30.901 281.440  1.00  0.00     0.142 A 
HETATM    4  N6  UNL     1      24.207 -31.780 282.436  1.00  0.00    -0.175 N 
ATOM      5  H6  UNL     1      23.538 -31.879 283.200  1.00  0.00     0.186 HD
HETATM    6  C9  UNL     1      25.316 -32.521 282.461  1.00  0.00     0.686 A 
HETATM    7  N10 UNL     1      26.203 -32.406 281.467  1.00  0.00    -0.195 N 
ATOM      8  H10 UNL     1      27.048 -32.977 281.497  1.00  0.00     0.184 HD
ENDROOT
BRANCH   1   9
HETATM    9  C5  UNL     1      26.954 -31.396 279.321  1.00  0.00     0.092 C 
BRANCH   9  10
HETATM   10  C4  UNL     1      27.547 -32.591 278.677  1.00  0.00     0.224 C 
BRANCH  10  11
HETATM   11  C3  UNL     1      26.705 -33.294 277.660  1.00  0.00     0.269 C 
BRANCH  11  12
HETATM   12  C2  UNL     1      26.373 -34.685 278.227  1.00  0.00     0.300 C 
BRANCH  12  13
HETATM   13  O2  UNL     1      25.203 -34.563 279.052  1.00  0.00    -0.269 OA
BRANCH  13  14
HETATM   14  C1  UNL     1      24.737 -35.647 279.762  1.00  0.00     0.381 C 
HETATM   15  N2  UNL     1      24.030 -35.507 280.988  1.00  0.00    -0.252 N 
ATOM     16  H2  UNL     1      23.850 -34.580 281.375  1.00  0.00     0.191 HD
HETATM   17  O1  UNL     1      24.954 -36.811 279.292  1.00  0.00    -0.237 OA
BRANCH  15  18
HETATM   18  N1  UNL     1      23.585 -36.647 281.658  1.00  0.00    -0.341 N 
ATOM     19  H12 UNL     1      23.044 -37.346 281.148  1.00  0.00     0.177 HD
ATOM     20  H11 UNL     1      23.805 -36.767 282.647  1.00  0.00     0.177 HD
ENDBRANCH  15  18
ENDBRANCH  13  14
ENDBRANCH  12  13
BRANCH  12  21
HETATM   21  O3  UNL     1      25.941 -35.511 277.166  1.00  0.00    -0.368 OA
ATOM     22  H3  UNL     1      26.349 -36.347 277.358  1.00  0.00     0.212 HD
ENDBRANCH  12  21
ENDBRANCH  11  12
BRANCH  11  23
HETATM   23  N3  UNL     1      25.412 -32.642 277.474  1.00  0.00    -0.068 N 
ATOM     24  H33 UNL     1      24.640 -33.113 277.945  1.00  0.00     0.275 HD
ATOM     25  H32 UNL     1      25.324 -31.752 277.966  1.00  0.00     0.275 HD
ATOM     26  H31 UNL     1      25.295 -32.569 276.463  1.00  0.00     0.275 HD
ENDBRANCH  11  23
ENDBRANCH  10  11
BRANCH  10  27
HETATM   27  N4  UNL     1      28.715 -32.062 277.922  1.00  0.00    -0.072 N 
ATOM     28  H43 UNL     1      28.503 -31.815 276.956  1.00  0.00     0.274 HD
ATOM     29  H42 UNL     1      29.012 -31.132 278.220  1.00  0.00     0.274 HD
ATOM     30  H41 UNL     1      29.440 -32.775 278.015  1.00  0.00     0.274 HD
ENDBRANCH  10  27
ENDBRANCH   9  10
ENDBRANCH   1   9
BRANCH   3  31
HETATM   31  N5  UNL     1      22.843 -30.199 281.447  1.00  0.00    -0.253 N 
ATOM     32  H5  UNL     1      22.207 -30.197 280.650  1.00  0.00     0.196 HD
BRANCH  31  33
HETATM   33  O4  UNL     1      22.584 -29.454 282.569  1.00  0.00    -0.288 OA
ATOM     34  H4  UNL     1      22.198 -29.904 283.311  1.00  0.00     0.244 HD
ENDBRANCH  31  33
ENDBRANCH   3  31
BRANCH   6  35
HETATM   35  N7  UNL     1      25.547 -33.353 283.439  1.00  0.00    -0.158 N 
HETATM   36  C10 UNL     1      24.526 -33.798 284.304  1.00  0.00     0.269 C 
HETATM   37  O5  UNL     1      23.671 -34.596 283.844  1.00  0.00    -0.270 OA
ATOM     38  H7  UNL     1      26.498 -33.692 283.584  1.00  0.00     0.187 HD
BRANCH  36  39
HETATM   39  C11 UNL     1      24.402 -33.381 285.719  1.00  0.00     0.312 C 
BRANCH  39  40
HETATM   40  N8  UNL     1      24.747 -31.966 285.780  1.00  0.00    -0.064 N 
ATOM     41  H83 UNL     1      25.618 -31.745 285.297  1.00  0.00     0.275 HD
ATOM     42  H82 UNL     1      24.132 -31.379 285.216  1.00  0.00     0.275 HD
ATOM     43  H81 UNL     1      24.758 -31.704 286.766  1.00  0.00     0.275 HD
ENDBRANCH  39  40
BRANCH  39  44
HETATM   44  C12 UNL     1      25.370 -34.115 286.626  1.00  0.00     0.246 C 
BRANCH  44  45
HETATM   45  O6  UNL     1      26.676 -33.673 286.423  1.00  0.00    -0.384 OA
ATOM     46  H6  UNL     1      26.836 -33.495 285.504  1.00  0.00     0.210 HD
ENDBRANCH  44  45
BRANCH  44  47
HETATM   47  C13 UNL     1      24.982 -33.722 288.024  1.00  0.00     0.262 C 
HETATM   48  N9  UNL     1      25.906 -33.713 289.089  1.00  0.00    -0.060 NA
HETATM   49  O7  UNL     1      23.793 -33.389 288.258  1.00  0.00    -0.274 OA
ENDBRANCH  44  47
ENDBRANCH  39  44
ENDBRANCH  36  39
ENDBRANCH   6  35
TORSDOF 18
ENDMDL
MODEL 4
REMARK VINA RESULT: -8.449808316      2.091      2.465
REMARK  18 active torsions:
REMARK  status: ('A' for Active; 'I' for Inactive)
REMARK    1  A    between atoms: N1_1  and  N2_4 
REMARK       I    between atoms: N2_4  and  C1_6 
REMARK    2  A    between atoms: C1_6  and  O2_8 
REMARK    3  A    between atoms: O2_8  and  C2_9 
REMARK    4  A    between atoms: C2_9  and  O3_10 
REMARK    5  A    between atoms: C2_9  and  C3_12 
REMARK    6  A    between atoms: C3_12  and  N3_13 
REMARK    7  A    between atoms: C3_12  and  C4_17 
REMARK    8  A    between atoms: C4_17  and  N4_18 
REMARK    9  A    between atoms: C4_17  and  C5_22 
REMARK   10  A    between atoms: C5_22  and  C6_23 
REMARK   11  A    between atoms: C8_25  and  N5_26 
REMARK   12  A    between atoms: N5_26  and  O4_28 
REMARK   13  A    between atoms: C9_32  and  N7_33 
REMARK       I    between atoms: N7_33  and  C10_35 
REMARK   14  A    between atoms: C10_35  and  C11_37 
REMARK   15  A    between atoms: C11_37  and  N8_38 
REMARK   16  A    between atoms: C11_37  and  C12_42 
REMARK   17  A    between atoms: C12_42  and  O6_43 
REMARK   18  A    between atoms: C12_42  and  C13_45 
ROOT
HETATM    1  C6  UNL     1      25.217 -31.388 280.838  1.00  0.00     0.032 A 
HETATM    2  C7  UNL     1      24.413 -30.410 281.384  1.00  0.00     0.076 A 
HETATM    3  C8  UNL     1      23.883 -30.488 282.657  1.00  0.00     0.142 A 
HETATM    4  N6  UNL     1      24.201 -31.605 283.360  1.00  0.00    -0.175 N 
ATOM      5  H6  UNL     1      23.830 -31.706 284.305  1.00  0.00     0.186 HD
HETATM    6  C9  UNL     1      24.974 -32.578 282.873  1.00  0.00     0.686 A 
HETATM    7  N10 UNL     1      25.468 -32.463 281.635  1.00  0.00    -0.195 N 
ATOM      8  H10 UNL     1      26.058 -33.213 281.273  1.00  0.00     0.184 HD
ENDROOT
BRANCH   1   9
HETATM    9  C5  UNL     1      25.727 -31.218 279.498  1.00  0.00     0.092 C 
BRANCH   9  10
HETATM   10  C4  UNL     1      26.585 -32.266 278.899  1.00  0.00     0.224 C 
BRANCH  10  11
HETATM   11  C3  UNL     1      25.919 -33.234 277.974  1.00  0.00     0.269 C 
BRANCH  11  12
HETATM   12  C2  UNL     1      25.773 -34.563 278.735  1.00  0.00     0.300 C 
BRANCH  12  13
HETATM   13  O2  UNL     1      24.458 -34.604 279.314  1.00  0.00    -0.269 OA
BRANCH  13  14
HETATM   14  C1  UNL     1      24.125 -35.593 280.212  1.00  0.00     0.381 C 
HETATM   15  N2  UNL     1      24.015 -36.959 279.834  1.00  0.00    -0.252 N 
ATOM     16  H2  UNL     1      24.183 -37.240 278.868  1.00  0.00     0.191 HD
HETATM   17  O1  UNL     1      23.911 -35.258 281.422  1.00  0.00    -0.237 OA
BRANCH  15  18
HETATM   18  N1  UNL     1      23.674 -37.913 280.795  1.00  0.00    -0.341 N 
ATOM     19  H12 UNL     1      24.336 -38.129 281.540  1.00  0.00     0.177 HD
ATOM     20  H11 UNL     1      22.768 -38.379 280.740  1.00  0.00     0.177 HD
ENDBRANCH  15  18
ENDBRANCH  13  14
ENDBRANCH  12  13
BRANCH  12  21
HETATM   21  O3  UNL     1      25.750 -35.618 277.796  1.00  0.00    -0.368 OA
ATOM     22  H3  UNL     1      25.360 -36.336 278.281  1.00  0.00     0.212 HD
ENDBRANCH  12  21
ENDBRANCH  11  12
BRANCH  11  23
HETATM   23  N3  UNL     1      24.553 -32.830 277.650  1.00  0.00    -0.068 N 
ATOM     24  H33 UNL     1      24.477 -32.286 276.792  1.00  0.00     0.275 HD
ATOM     25  H32 UNL     1      23.955 -33.602 277.354  1.00  0.00     0.275 HD
ATOM     26  H31 UNL     1      24.218 -32.342 278.480  1.00  0.00     0.275 HD
ENDBRANCH  11  23
ENDBRANCH  10  11
BRANCH  10  27
HETATM   27  N4  UNL     1      27.550 -31.514 278.051  1.00  0.00    -0.072 N 
ATOM     28  H43 UNL     1      28.248 -30.995 278.584  1.00  0.00     0.274 HD
ATOM     29  H42 UNL     1      28.206 -32.111 277.546  1.00  0.00     0.274 HD
ATOM     30  H41 UNL     1      26.976 -30.929 277.445  1.00  0.00     0.274 HD
ENDBRANCH  10  27
ENDBRANCH   9  10
ENDBRANCH   1   9
BRANCH   3  31
HETATM   31  N5  UNL     1      23.134 -29.566 283.158  1.00  0.00    -0.253 N 
ATOM     32  H5  UNL     1      22.190 -29.770 283.487  1.00  0.00     0.196 HD
BRANCH  31  33
HETATM   33  O4  UNL     1      23.658 -28.301 283.231  1.00  0.00    -0.288 OA
ATOM     34  H4  UNL     1      23.964 -27.909 282.422  1.00  0.00     0.244 HD
ENDBRANCH  31  33
ENDBRANCH   3  31
BRANCH   6  35
HETATM   35  N7  UNL     1      25.255 -33.634 283.585  1.00  0.00    -0.158 N 
HETATM   36  C10 UNL     1      24.569 -33.939 284.778  1.00  0.00     0.269 C 
HETATM   37  O5  UNL     1      23.378 -34.331 284.689  1.00  0.00    -0.270 OA
ATOM     38  H7  UNL     1      25.996 -34.260 283.269  1.00  0.00     0.187 HD
BRANCH  36  39
HETATM   39  C11 UNL     1      25.167 -33.825 286.128  1.00  0.00     0.312 C 
BRANCH  39  40
HETATM   40  N8  UNL     1      25.961 -35.028 286.347  1.00  0.00    -0.064 N 
ATOM     41  H83 UNL     1      26.609 -34.944 287.130  1.00  0.00     0.275 HD
ATOM     42  H82 UNL     1      25.414 -35.807 286.713  1.00  0.00     0.275 HD
ATOM     43  H81 UNL     1      26.424 -35.245 285.464  1.00  0.00     0.275 HD
ENDBRANCH  39  40
BRANCH  39  44
HETATM   44  C12 UNL     1      24.121 -33.777 287.224  1.00  0.00     0.246 C 
BRANCH  44  45
HETATM   45  O6  UNL     1      23.547 -35.032 287.421  1.00  0.00    -0.384 OA
ATOM     46  H6  UNL     1      24.187 -35.722 287.298  1.00  0.00     0.210 HD
ENDBRANCH  44  45
BRANCH  44  47
HETATM   47  C13 UNL     1      24.873 -33.432 288.478  1.00  0.00     0.262 C 
HETATM   48  N9  UNL     1      25.643 -34.381 289.181  1.00  0.00    -0.060 NA
HETATM   49  O7  UNL     1      24.817 -32.257 288.921  1.00  0.00    -0.274 OA
ENDBRANCH  44  47
ENDBRANCH  39  44
ENDBRANCH  36  39
ENDBRANCH   6  35
TORSDOF 18
ENDMDL
MODEL 5
REMARK VINA RESULT: -8.388715177      1.204      1.271
REMARK  18 active torsions:
REMARK  status: ('A' for Active; 'I' for Inactive)
REMARK    1  A    between atoms: N1_1  and  N2_4 
REMARK       I    between atoms: N2_4  and  C1_6 
REMARK    2  A    between atoms: C1_6  and  O2_8 
REMARK    3  A    between atoms: O2_8  and  C2_9 
REMARK    4  A    between atoms: C2_9  and  O3_10 
REMARK    5  A    between atoms: C2_9  and  C3_12 
REMARK    6  A    between atoms: C3_12  and  N3_13 
REMARK    7  A    between atoms: C3_12  and  C4_17 
REMARK    8  A    between atoms: C4_17  and  N4_18 
REMARK    9  A    between atoms: C4_17  and  C5_22 
REMARK   10  A    between atoms: C5_22  and  C6_23 
REMARK   11  A    between atoms: C8_25  and  N5_26 
REMARK   12  A    between atoms: N5_26  and  O4_28 
REMARK   13  A    between atoms: C9_32  and  N7_33 
REMARK       I    between atoms: N7_33  and  C10_35 
REMARK   14  A    between atoms: C10_35  and  C11_37 
REMARK   15  A    between atoms: C11_37  and  N8_38 
REMARK   16  A    between atoms: C11_37  and  C12_42 
REMARK   17  A    between atoms: C12_42  and  O6_43 
REMARK   18  A    between atoms: C12_42  and  C13_45 
ROOT
HETATM    1  C6  UNL     1      27.073 -31.566 280.696  1.00  0.00     0.032 A 
HETATM    2  C7  UNL     1      28.120 -30.942 281.341  1.00  0.00     0.076 A 
HETATM    3  C8  UNL     1      28.318 -31.011 282.706  1.00  0.00     0.142 A 
HETATM    4  N6  UNL     1      27.407 -31.742 283.397  1.00  0.00    -0.175 N 
ATOM      5  H6  UNL     1      27.513 -31.820 284.409  1.00  0.00     0.186 HD
HETATM    6  C9  UNL     1      26.378 -32.363 282.817  1.00  0.00     0.686 A 
HETATM    7  N10 UNL     1      26.222 -32.271 281.492  1.00  0.00    -0.195 N 
ATOM      8  H10 UNL     1      25.432 -32.750 281.058  1.00  0.00     0.184 HD
ENDROOT
BRANCH   1   9
HETATM    9  C5  UNL     1      26.948 -31.438 279.263  1.00  0.00     0.092 C 
BRANCH   9  10
HETATM   10  C4  UNL     1      27.386 -32.549 278.386  1.00  0.00     0.224 C 
BRANCH  10  11
HETATM   11  C3  UNL     1      26.309 -33.341 277.716  1.00  0.00     0.269 C 
BRANCH  11  12
HETATM   12  C2  UNL     1      26.052 -34.584 278.585  1.00  0.00     0.300 C 
BRANCH  12  13
HETATM   13  O2  UNL     1      24.804 -34.396 279.274  1.00  0.00    -0.269 OA
BRANCH  13  14
HETATM   14  C1  UNL     1      24.422 -35.267 280.269  1.00  0.00     0.381 C 
HETATM   15  N2  UNL     1      24.048 -36.613 280.000  1.00  0.00    -0.252 N 
ATOM     16  H2  UNL     1      24.056 -36.967 279.043  1.00  0.00     0.191 HD
HETATM   17  O1  UNL     1      24.408 -34.841 281.469  1.00  0.00    -0.237 OA
BRANCH  15  18
HETATM   18  N1  UNL     1      23.671 -37.446 281.055  1.00  0.00    -0.341 N 
ATOM     19  H12 UNL     1      24.178 -37.392 281.939  1.00  0.00     0.177 HD
ATOM     20  H11 UNL     1      22.895 -38.095 280.929  1.00  0.00     0.177 HD
ENDBRANCH  15  18
ENDBRANCH  13  14
ENDBRANCH  12  13
BRANCH  12  21
HETATM   21  O3  UNL     1      25.793 -35.682 277.734  1.00  0.00    -0.368 OA
ATOM     22  H3  UNL     1      25.791 -36.424 278.327  1.00  0.00     0.212 HD
ENDBRANCH  12  21
ENDBRANCH  11  12
BRANCH  11  23
HETATM   23  N3  UNL     1      25.037 -32.625 277.691  1.00  0.00    -0.068 N 
ATOM     24  H33 UNL     1      24.498 -32.710 278.553  1.00  0.00     0.275 HD
ATOM     25  H32 UNL     1      25.135 -31.610 277.713  1.00  0.00     0.275 HD
ATOM     26  H31 UNL     1      24.552 -32.976 276.865  1.00  0.00     0.275 HD
ENDBRANCH  11  23
ENDBRANCH  10  11
BRANCH  10  27
HETATM   27  N4  UNL     1      28.124 -31.877 277.281  1.00  0.00    -0.072 N 
ATOM     28  H43 UNL     1      27.735 -32.060 276.357  1.00  0.00     0.274 HD
ATOM     29  H42 UNL     1      28.005 -30.864 277.263  1.00  0.00     0.274 HD
ATOM     30  H41 UNL     1      29.094 -32.176 277.386  1.00  0.00     0.274 HD
ENDBRANCH  10  27
ENDBRANCH   9  10
ENDBRANCH   1   9
BRANCH   3  31
HETATM   31  N5  UNL     1      29.302 -30.425 283.298  1.00  0.00    -0.253 N 
ATOM     32  H5  UNL     1      29.186 -29.516 283.745  1.00  0.00     0.196 HD
BRANCH  31  33
HETATM   33  O4  UNL     1      30.511 -31.074 283.302  1.00  0.00    -0.288 OA
ATOM     34  H4  UNL     1      31.293 -30.538 283.268  1.00  0.00     0.244 HD
ENDBRANCH  31  33
ENDBRANCH   3  31
BRANCH   6  35
HETATM   35  N7  UNL     1      25.526 -33.056 283.521  1.00  0.00    -0.158 N 
HETATM   36  C10 UNL     1      24.811 -32.495 284.599  1.00  0.00     0.269 C 
HETATM   37  O5  UNL     1      23.902 -31.669 284.336  1.00  0.00    -0.270 OA
ATOM     38  H7  UNL     1      25.372 -34.036 283.284  1.00  0.00     0.187 HD
BRANCH  36  39
HETATM   39  C11 UNL     1      25.068 -32.823 286.020  1.00  0.00     0.312 C 
BRANCH  39  40
HETATM   40  N8  UNL     1      25.966 -33.971 286.039  1.00  0.00    -0.064 N 
ATOM     41  H83 UNL     1      26.017 -34.454 285.141  1.00  0.00     0.275 HD
ATOM     42  H82 UNL     1      26.950 -33.708 286.102  1.00  0.00     0.275 HD
ATOM     43  H81 UNL     1      25.663 -34.575 286.803  1.00  0.00     0.275 HD
ENDBRANCH  39  40
BRANCH  39  44
HETATM   44  C12 UNL     1      23.808 -33.232 286.757  1.00  0.00     0.246 C 
BRANCH  44  45
HETATM   45  O6  UNL     1      23.033 -34.092 285.980  1.00  0.00    -0.384 OA
ATOM     46  H6  UNL     1      22.312 -33.626 285.573  1.00  0.00     0.210 HD
ENDBRANCH  44  45
BRANCH  44  47
HETATM   47  C13 UNL     1      24.280 -34.016 287.949  1.00  0.00     0.262 C 
HETATM   48  N9  UNL     1      23.957 -35.377 288.132  1.00  0.00    -0.060 NA
HETATM   49  O7  UNL     1      24.987 -33.445 288.816  1.00  0.00    -0.274 OA
ENDBRANCH  44  47
ENDBRANCH  39  44
ENDBRANCH  36  39
ENDBRANCH   6  35
TORSDOF 18
ENDMDL
