MODEL 1
REMARK VINA RESULT: -9.508850183      0.000      0.000
REMARK  16 active torsions:
REMARK  status: ('A' for Active; 'I' for Inactive)
REMARK    1  A    between atoms: N1_1  and  C1_4 
REMARK    2  A    between atoms: C3_11  and  N4_12 
REMARK       I    between atoms: N4_12  and  C4_14 
REMARK    3  A    between atoms: C4_14  and  C5_16 
REMARK    4  A    between atoms: C5_16  and  N5_17 
REMARK    5  A    between atoms: C5_16  and  C12_35 
REMARK    6  A    between atoms: N5_17  and  N6_18 
REMARK       I    between atoms: N6_18  and  C6_20 
REMARK    7  A    between atoms: C6_20  and  C7_22 
REMARK    8  A    between atoms: C7_22  and  O4_23 
REMARK    9  A    between atoms: C7_22  and  C8_25 
REMARK   10  A    between atoms: C8_25  and  C9_26 
REMARK   11  A    between atoms: C9_26  and  O5_27 
REMARK   12  A    between atoms: C9_26  and  C10_29 
REMARK   13  A    between atoms: C10_29  and  O6_30 
REMARK   14  A    between atoms: C10_29  and  C11_32 
REMARK   15  A    between atoms: C11_32  and  O7_33 
REMARK   16  A    between atoms: C13_38  and  N8_39 
ROOT
HETATM    1  C5  UNL     1      26.650 -31.672 282.831  1.00  0.00     0.260 C 
ENDROOT
BRANCH   1   2
HETATM    2  C4  UNL     1      27.516 -31.130 281.770  1.00  0.00     0.264 C 
HETATM    3  N4  UNL     1      28.230 -31.998 280.920  1.00  0.00    -0.157 N 
ATOM      4  H4  UNL     1      28.986 -32.559 281.313  1.00  0.00     0.187 HD
HETATM    5  O2  UNL     1      27.625 -29.904 281.611  1.00  0.00    -0.270 OA
BRANCH   3   6
HETATM    6  C3  UNL     1      27.958 -32.111 279.647  1.00  0.00     0.703 A 
HETATM    7  N3  UNL     1      28.439 -31.237 278.752  1.00  0.00    -0.140 N 
HETATM    8  C2  UNL     1      28.155 -31.342 277.424  1.00  0.00     0.352 A 
ATOM      9  H3  UNL     1      29.032 -30.472 279.074  1.00  0.00     0.189 HD
HETATM   10  N2  UNL     1      27.370 -32.350 276.986  1.00  0.00    -0.141 N 
HETATM   11  O1  UNL     1      28.597 -30.532 276.564  1.00  0.00    -0.246 OA
HETATM   12  C1  UNL     1      26.878 -33.236 277.863  1.00  0.00     0.694 A 
ATOM     13  H2  UNL     1      27.152 -32.436 275.994  1.00  0.00     0.189 HD
HETATM   14  N11 UNL     1      27.180 -33.105 279.193  1.00  0.00    -0.022 N 
ATOM     15  H11 UNL     1      26.802 -33.782 279.857  1.00  0.00     0.203 HD
BRANCH  12  16
HETATM   16  N1  UNL     1      26.116 -34.223 277.498  1.00  0.00    -0.234 N 
ATOM     17  H12 UNL     1      25.438 -34.060 276.754  1.00  0.00     0.174 HD
ATOM     18  H11 UNL     1      26.176 -35.145 277.928  1.00  0.00     0.174 HD
ENDBRANCH  12  16
ENDBRANCH   3   6
ENDBRANCH   1   2
BRANCH   1  19
HETATM   19  N5  UNL     1      27.448 -32.027 283.982  1.00  0.00    -0.116 NA
BRANCH  19  20
HETATM   20  N6  UNL     1      28.576 -31.253 284.076  1.00  0.00    -0.271 N 
HETATM   21  C6  UNL     1      29.638 -31.640 284.926  1.00  0.00     0.262 C 
HETATM   22  O3  UNL     1      29.551 -32.688 285.591  1.00  0.00    -0.269 OA
ATOM     23  H6  UNL     1      28.649 -30.394 283.530  1.00  0.00     0.185 HD
BRANCH  21  24
HETATM   24  C7  UNL     1      30.833 -30.771 284.993  1.00  0.00     0.213 C 
BRANCH  24  25
HETATM   25  O4  UNL     1      30.503 -29.437 284.796  1.00  0.00    -0.386 OA
ATOM     26  H4  UNL     1      29.607 -29.258 285.057  1.00  0.00     0.210 HD
ENDBRANCH  24  25
BRANCH  24  27
HETATM   27  C8  UNL     1      31.853 -31.294 284.002  1.00  0.00     0.076 C 
BRANCH  27  28
HETATM   28  C9  UNL     1      33.171 -31.400 284.749  1.00  0.00     0.151 C 
BRANCH  28  29
HETATM   29  O5  UNL     1      33.236 -30.271 285.579  1.00  0.00    -0.393 OA
ATOM     30  H5  UNL     1      33.823 -30.502 286.289  1.00  0.00     0.210 HD
ENDBRANCH  28  29
BRANCH  28  31
HETATM   31  C10 UNL     1      33.262 -32.627 285.614  1.00  0.00     0.170 C 
BRANCH  31  32
HETATM   32  O6  UNL     1      32.505 -33.667 285.121  1.00  0.00    -0.391 OA
ATOM     33  H6  UNL     1      32.492 -34.411 285.710  1.00  0.00     0.210 HD
ENDBRANCH  31  32
BRANCH  31  34
HETATM   34  C11 UNL     1      34.693 -32.961 285.875  1.00  0.00     0.198 C 
BRANCH  34  35
HETATM   35  O7  UNL     1      34.930 -34.322 285.649  1.00  0.00    -0.398 OA
ATOM     36  H7  UNL     1      34.433 -34.853 286.261  1.00  0.00     0.209 HD
ENDBRANCH  34  35
ENDBRANCH  31  34
ENDBRANCH  28  31
ENDBRANCH  27  28
ENDBRANCH  24  27
ENDBRANCH  21  24
ENDBRANCH  19  20
ENDBRANCH   1  19
BRANCH   1  37
HETATM   37  C12 UNL     1      25.566 -30.744 283.203  1.00  0.00     0.125 A 
HETATM   38  N7  UNL     1      25.099 -30.556 284.379  1.00  0.00    -0.333 N 
HETATM   39  C13 UNL     1      24.048 -29.564 284.302  1.00  0.00     0.402 A 
ATOM     40  H7  UNL     1      25.415 -31.026 285.228  1.00  0.00     0.164 HD
HETATM   41  N9  UNL     1      23.995 -29.224 282.913  1.00  0.00    -0.288 N 
HETATM   42  N10 UNL     1      24.866 -29.908 282.311  1.00  0.00    -0.288 N 
ATOM     43  H9  UNL     1      23.364 -28.547 282.486  1.00  0.00     0.184 HD
ATOM     44  H10 UNL     1      25.041 -29.862 281.306  1.00  0.00     0.188 HD
BRANCH  39  45
HETATM   45  N8  UNL     1      22.798 -30.133 284.727  1.00  0.00    -0.039 N 
ATOM     46  H83 UNL     1      22.275 -29.498 285.329  1.00  0.00     0.279 HD
ATOM     47  H82 UNL     1      22.128 -30.199 283.960  1.00  0.00     0.279 HD
ATOM     48  H81 UNL     1      22.957 -31.037 285.174  1.00  0.00     0.279 HD
ENDBRANCH  39  45
ENDBRANCH   1  37
TORSDOF 16
ENDMDL
MODEL 2
REMARK VINA RESULT: -9.465371279      3.855      8.243
REMARK  16 active torsions:
REMARK  status: ('A' for Active; 'I' for Inactive)
REMARK    1  A    between atoms: N1_1  and  C1_4 
REMARK    2  A    between atoms: C3_11  and  N4_12 
REMARK       I    between atoms: N4_12  and  C4_14 
REMARK    3  A    between atoms: C4_14  and  C5_16 
REMARK    4  A    between atoms: C5_16  and  N5_17 
REMARK    5  A    between atoms: C5_16  and  C12_35 
REMARK    6  A    between atoms: N5_17  and  N6_18 
REMARK       I    between atoms: N6_18  and  C6_20 
REMARK    7  A    between atoms: C6_20  and  C7_22 
REMARK    8  A    between atoms: C7_22  and  O4_23 
REMARK    9  A    between atoms: C7_22  and  C8_25 
REMARK   10  A    between atoms: C8_25  and  C9_26 
REMARK   11  A    between atoms: C9_26  and  O5_27 
REMARK   12  A    between atoms: C9_26  and  C10_29 
REMARK   13  A    between atoms: C10_29  and  O6_30 
REMARK   14  A    between atoms: C10_29  and  C11_32 
REMARK   15  A    between atoms: C11_32  and  O7_33 
REMARK   16  A    between atoms: C13_38  and  N8_39 
ROOT
HETATM    1  C5  UNL     1      25.992 -32.464 283.869  1.00  0.00     0.260 C 
ENDROOT
BRANCH   1   2
HETATM    2  C4  UNL     1      25.746 -32.644 285.311  1.00  0.00     0.264 C 
HETATM    3  N4  UNL     1      24.717 -31.925 285.953  1.00  0.00    -0.157 N 
ATOM      4  H4  UNL     1      24.809 -30.914 286.048  1.00  0.00     0.187 HD
HETATM    5  O2  UNL     1      26.440 -33.429 285.975  1.00  0.00    -0.270 OA
BRANCH   3   6
HETATM    6  C3  UNL     1      23.650 -32.509 286.430  1.00  0.00     0.703 A 
HETATM    7  N3  UNL     1      23.724 -33.689 287.062  1.00  0.00    -0.140 N 
HETATM    8  C2  UNL     1      22.616 -34.308 287.557  1.00  0.00     0.352 A 
ATOM      9  H3  UNL     1      24.634 -34.134 287.175  1.00  0.00     0.189 HD
HETATM   10  N2  UNL     1      21.406 -33.727 287.412  1.00  0.00    -0.141 N 
HETATM   11  O1  UNL     1      22.662 -35.417 288.155  1.00  0.00    -0.246 OA
HETATM   12  C1  UNL     1      21.307 -32.548 286.784  1.00  0.00     0.694 A 
ATOM     13  H2  UNL     1      20.571 -34.183 287.779  1.00  0.00     0.189 HD
HETATM   14  N11 UNL     1      22.438 -31.948 286.296  1.00  0.00    -0.022 N 
ATOM     15  H11 UNL     1      22.358 -31.050 285.818  1.00  0.00     0.203 HD
BRANCH  12  16
HETATM   16  N1  UNL     1      20.168 -31.945 286.613  1.00  0.00    -0.234 N 
ATOM     17  H12 UNL     1      19.347 -32.321 287.087  1.00  0.00     0.174 HD
ATOM     18  H11 UNL     1      20.073 -31.115 286.029  1.00  0.00     0.174 HD
ENDBRANCH  12  16
ENDBRANCH   3   6
ENDBRANCH   1   2
BRANCH   1  19
HETATM   19  N5  UNL     1      24.855 -31.818 283.255  1.00  0.00    -0.116 NA
BRANCH  19  20
HETATM   20  N6  UNL     1      24.439 -32.484 282.130  1.00  0.00    -0.271 N 
HETATM   21  C6  UNL     1      24.635 -31.914 280.851  1.00  0.00     0.262 C 
HETATM   22  O3  UNL     1      25.189 -30.805 280.743  1.00  0.00    -0.269 OA
ATOM     23  H6  UNL     1      23.985 -33.394 282.218  1.00  0.00     0.185 HD
BRANCH  21  24
HETATM   24  C7  UNL     1      24.168 -32.671 279.669  1.00  0.00     0.213 C 
BRANCH  24  25
HETATM   25  O4  UNL     1      24.036 -34.024 279.951  1.00  0.00    -0.386 OA
ATOM     26  H4  UNL     1      23.920 -34.175 280.882  1.00  0.00     0.210 HD
ENDBRANCH  24  25
BRANCH  24  27
HETATM   27  C8  UNL     1      25.113 -32.383 278.520  1.00  0.00     0.076 C 
BRANCH  27  28
HETATM   28  C9  UNL     1      26.258 -33.373 278.639  1.00  0.00     0.151 C 
BRANCH  28  29
HETATM   29  O5  UNL     1      25.894 -34.478 277.853  1.00  0.00    -0.393 OA
ATOM     30  H5  UNL     1      25.143 -34.869 278.284  1.00  0.00     0.210 HD
ENDBRANCH  28  29
BRANCH  28  31
HETATM   31  C10 UNL     1      27.562 -32.834 278.120  1.00  0.00     0.170 C 
BRANCH  31  32
HETATM   32  O6  UNL     1      27.519 -32.591 276.765  1.00  0.00    -0.391 OA
ATOM     33  H6  UNL     1      28.351 -32.772 276.343  1.00  0.00     0.210 HD
ENDBRANCH  31  32
BRANCH  31  34
HETATM   34  C11 UNL     1      28.000 -31.674 278.952  1.00  0.00     0.198 C 
BRANCH  34  35
HETATM   35  O7  UNL     1      28.073 -32.037 280.301  1.00  0.00    -0.398 OA
ATOM     36  H7  UNL     1      27.236 -31.898 280.730  1.00  0.00     0.209 HD
ENDBRANCH  34  35
ENDBRANCH  31  34
ENDBRANCH  28  31
ENDBRANCH  27  28
ENDBRANCH  24  27
ENDBRANCH  21  24
ENDBRANCH  19  20
ENDBRANCH   1  19
BRANCH   1  37
HETATM   37  C12 UNL     1      27.236 -31.719 283.598  1.00  0.00     0.125 A 
HETATM   38  N7  UNL     1      28.393 -31.978 284.076  1.00  0.00    -0.333 N 
HETATM   39  C13 UNL     1      29.331 -31.005 283.556  1.00  0.00     0.402 A 
ATOM     40  H7  UNL     1      28.618 -32.740 284.716  1.00  0.00     0.164 HD
HETATM   41  N9  UNL     1      28.530 -30.168 282.717  1.00  0.00    -0.288 N 
HETATM   42  N10 UNL     1      27.345 -30.593 282.758  1.00  0.00    -0.288 N 
ATOM     43  H9  UNL     1      28.861 -29.367 282.180  1.00  0.00     0.184 HD
ATOM     44  H10 UNL     1      26.565 -30.175 282.250  1.00  0.00     0.188 HD
BRANCH  39  45
HETATM   45  N8  UNL     1      29.901 -30.241 284.632  1.00  0.00    -0.039 N 
ATOM     46  H83 UNL     1      29.293 -29.474 284.918  1.00  0.00     0.279 HD
ATOM     47  H82 UNL     1      29.906 -30.763 285.509  1.00  0.00     0.279 HD
ATOM     48  H81 UNL     1      30.833 -29.914 284.377  1.00  0.00     0.279 HD
ENDBRANCH  39  45
ENDBRANCH   1  37
TORSDOF 16
ENDMDL
MODEL 3
REMARK VINA RESULT: -9.437003610      1.180      1.892
REMARK  16 active torsions:
REMARK  status: ('A' for Active; 'I' for Inactive)
REMARK    1  A    between atoms: N1_1  and  C1_4 
REMARK    2  A    between atoms: C3_11  and  N4_12 
REMARK       I    between atoms: N4_12  and  C4_14 
REMARK    3  A    between atoms: C4_14  and  C5_16 
REMARK    4  A    between atoms: C5_16  and  N5_17 
REMARK    5  A    between atoms: C5_16  and  C12_35 
REMARK    6  A    between atoms: N5_17  and  N6_18 
REMARK       I    between atoms: N6_18  and  C6_20 
REMARK    7  A    between atoms: C6_20  and  C7_22 
REMARK    8  A    between atoms: C7_22  and  O4_23 
REMARK    9  A    between atoms: C7_22  and  C8_25 
REMARK   10  A    between atoms: C8_25  and  C9_26 
REMARK   11  A    between atoms: C9_26  and  O5_27 
REMARK   12  A    between atoms: C9_26  and  C10_29 
REMARK   13  A    between atoms: C10_29  and  O6_30 
REMARK   14  A    between atoms: C10_29  and  C11_32 
REMARK   15  A    between atoms: C11_32  and  O7_33 
REMARK   16  A    between atoms: C13_38  and  N8_39 
ROOT
HETATM    1  C5  UNL     1      26.257 -31.899 283.012  1.00  0.00     0.260 C 
ENDROOT
BRANCH   1   2
HETATM    2  C4  UNL     1      27.054 -31.263 281.948  1.00  0.00     0.264 C 
HETATM    3  N4  UNL     1      27.874 -32.044 281.109  1.00  0.00    -0.157 N 
ATOM      4  H4  UNL     1      28.691 -32.504 281.510  1.00  0.00     0.187 HD
HETATM    5  O2  UNL     1      27.013 -30.034 281.779  1.00  0.00    -0.270 OA
BRANCH   3   6
HETATM    6  C3  UNL     1      27.623 -32.201 279.836  1.00  0.00     0.703 A 
HETATM    7  N3  UNL     1      26.783 -33.150 279.402  1.00  0.00    -0.140 N 
HETATM    8  C2  UNL     1      26.521 -33.325 278.077  1.00  0.00     0.352 A 
ATOM      9  H3  UNL     1      26.327 -33.758 280.083  1.00  0.00     0.189 HD
HETATM   10  N2  UNL     1      27.119 -32.526 277.167  1.00  0.00    -0.141 N 
HETATM   11  O1  UNL     1      25.734 -34.211 277.646  1.00  0.00    -0.246 OA
HETATM   12  C1  UNL     1      27.963 -31.569 277.578  1.00  0.00     0.694 A 
ATOM     13  H2  UNL     1      26.929 -32.649 276.173  1.00  0.00     0.189 HD
HETATM   14  N11 UNL     1      28.208 -31.416 278.917  1.00  0.00    -0.022 N 
ATOM     15  H11 UNL     1      28.852 -30.687 279.224  1.00  0.00     0.203 HD
BRANCH  12  16
HETATM   16  N1  UNL     1      28.568 -30.774 276.747  1.00  0.00    -0.234 N 
ATOM     17  H12 UNL     1      28.450 -29.768 276.867  1.00  0.00     0.174 HD
ATOM     18  H11 UNL     1      29.153 -31.122 275.988  1.00  0.00     0.174 HD
ENDBRANCH  12  16
ENDBRANCH   3   6
ENDBRANCH   1   2
BRANCH   1  19
HETATM   19  N5  UNL     1      27.119 -32.293 284.102  1.00  0.00    -0.116 NA
BRANCH  19  20
HETATM   20  N6  UNL     1      28.260 -31.533 284.148  1.00  0.00    -0.271 N 
HETATM   21  C6  UNL     1      29.328 -31.902 284.999  1.00  0.00     0.262 C 
HETATM   22  O3  UNL     1      29.235 -32.920 285.708  1.00  0.00    -0.269 OA
ATOM     23  H6  UNL     1      28.338 -30.698 283.566  1.00  0.00     0.185 HD
BRANCH  21  24
HETATM   24  C7  UNL     1      30.537 -31.048 285.013  1.00  0.00     0.213 C 
BRANCH  24  25
HETATM   25  O4  UNL     1      30.277 -29.789 284.490  1.00  0.00    -0.386 OA
ATOM     26  H4  UNL     1      30.372 -29.779 283.544  1.00  0.00     0.210 HD
ENDBRANCH  24  25
BRANCH  24  27
HETATM   27  C8  UNL     1      31.644 -31.787 284.289  1.00  0.00     0.076 C 
BRANCH  27  28
HETATM   28  C9  UNL     1      32.441 -32.526 285.350  1.00  0.00     0.151 C 
BRANCH  28  29
HETATM   29  O5  UNL     1      32.335 -33.889 285.031  1.00  0.00    -0.393 OA
ATOM     30  H5  UNL     1      32.473 -33.948 284.092  1.00  0.00     0.210 HD
ENDBRANCH  28  29
BRANCH  28  31
HETATM   31  C10 UNL     1      33.898 -32.156 285.357  1.00  0.00     0.170 C 
BRANCH  31  32
HETATM   32  O6  UNL     1      34.095 -30.831 285.676  1.00  0.00    -0.391 OA
ATOM     33  H6  UNL     1      33.589 -30.250 285.120  1.00  0.00     0.210 HD
ENDBRANCH  31  32
BRANCH  31  34
HETATM   34  C11 UNL     1      34.665 -33.124 286.197  1.00  0.00     0.198 C 
BRANCH  34  35
HETATM   35  O7  UNL     1      35.023 -34.249 285.447  1.00  0.00    -0.398 OA
ATOM     36  H7  UNL     1      34.798 -34.127 284.532  1.00  0.00     0.209 HD
ENDBRANCH  34  35
ENDBRANCH  31  34
ENDBRANCH  28  31
ENDBRANCH  27  28
ENDBRANCH  24  27
ENDBRANCH  21  24
ENDBRANCH  19  20
ENDBRANCH   1  19
BRANCH   1  37
HETATM   37  C12 UNL     1      25.162 -31.034 283.488  1.00  0.00     0.125 A 
HETATM   38  N7  UNL     1      23.933 -31.106 283.142  1.00  0.00    -0.333 N 
HETATM   39  C13 UNL     1      23.197 -30.075 283.843  1.00  0.00     0.402 A 
ATOM     40  H7  UNL     1      23.538 -31.777 282.483  1.00  0.00     0.164 HD
HETATM   41  N9  UNL     1      24.193 -29.418 284.633  1.00  0.00    -0.288 N 
HETATM   42  N10 UNL     1      25.299 -29.979 284.413  1.00  0.00    -0.288 N 
ATOM     43  H9  UNL     1      24.034 -28.632 285.263  1.00  0.00     0.184 HD
ATOM     44  H10 UNL     1      26.180 -29.706 284.849  1.00  0.00     0.188 HD
BRANCH  39  45
HETATM   45  N8  UNL     1      22.614 -29.157 282.903  1.00  0.00    -0.039 N 
ATOM     46  H83 UNL     1      21.700 -29.473 282.579  1.00  0.00     0.279 HD
ATOM     47  H82 UNL     1      22.323 -28.287 283.350  1.00  0.00     0.279 HD
ATOM     48  H81 UNL     1      23.257 -28.990 282.129  1.00  0.00     0.279 HD
ENDBRANCH  39  45
ENDBRANCH   1  37
TORSDOF 16
ENDMDL
MODEL 4
REMARK VINA RESULT: -9.436895758      2.094      2.651
REMARK  16 active torsions:
REMARK  status: ('A' for Active; 'I' for Inactive)
REMARK    1  A    between atoms: N1_1  and  C1_4 
REMARK    2  A    between atoms: C3_11  and  N4_12 
REMARK       I    between atoms: N4_12  and  C4_14 
REMARK    3  A    between atoms: C4_14  and  C5_16 
REMARK    4  A    between atoms: C5_16  and  N5_17 
REMARK    5  A    between atoms: C5_16  and  C12_35 
REMARK    6  A    between atoms: N5_17  and  N6_18 
REMARK       I    between atoms: N6_18  and  C6_20 
REMARK    7  A    between atoms: C6_20  and  C7_22 
REMARK    8  A    between atoms: C7_22  and  O4_23 
REMARK    9  A    between atoms: C7_22  and  C8_25 
REMARK   10  A    between atoms: C8_25  and  C9_26 
REMARK   11  A    between atoms: C9_26  and  O5_27 
REMARK   12  A    between atoms: C9_26  and  C10_29 
REMARK   13  A    between atoms: C10_29  and  O6_30 
REMARK   14  A    between atoms: C10_29  and  C11_32 
REMARK   15  A    between atoms: C11_32  and  O7_33 
REMARK   16  A    between atoms: C13_38  and  N8_39 
ROOT
HETATM    1  C5  UNL     1      26.100 -32.310 282.974  1.00  0.00     0.260 C 
ENDROOT
BRANCH   1   2
HETATM    2  C4  UNL     1      25.377 -32.657 281.738  1.00  0.00     0.264 C 
HETATM    3  N4  UNL     1      25.534 -31.874 280.577  1.00  0.00    -0.157 N 
ATOM      4  H4  UNL     1      25.173 -30.920 280.575  1.00  0.00     0.187 HD
HETATM    5  O2  UNL     1      24.623 -33.642 281.705  1.00  0.00    -0.270 OA
BRANCH   3   6
HETATM    6  C3  UNL     1      26.126 -32.326 279.504  1.00  0.00     0.703 A 
HETATM    7  N3  UNL     1      25.840 -33.537 279.008  1.00  0.00    -0.140 N 
HETATM    8  C2  UNL     1      26.457 -34.020 277.893  1.00  0.00     0.352 A 
ATOM      9  H3  UNL     1      25.142 -34.114 279.478  1.00  0.00     0.189 HD
HETATM   10  N2  UNL     1      27.383 -33.266 277.263  1.00  0.00    -0.141 N 
HETATM   11  O1  UNL     1      26.203 -35.156 277.409  1.00  0.00    -0.246 OA
HETATM   12  C1  UNL     1      27.686 -32.051 277.741  1.00  0.00     0.694 A 
ATOM     13  H2  UNL     1      27.851 -33.619 276.429  1.00  0.00     0.189 HD
HETATM   14  N11 UNL     1      27.049 -31.591 278.864  1.00  0.00    -0.022 N 
ATOM     15  H11 UNL     1      27.284 -30.665 279.224  1.00  0.00     0.203 HD
BRANCH  12  16
HETATM   16  N1  UNL     1      28.571 -31.284 277.177  1.00  0.00    -0.234 N 
ATOM     17  H12 UNL     1      28.921 -30.483 277.703  1.00  0.00     0.174 HD
ATOM     18  H11 UNL     1      28.923 -31.459 276.237  1.00  0.00     0.174 HD
ENDBRANCH  12  16
ENDBRANCH   3   6
ENDBRANCH   1   2
BRANCH   1  19
HETATM   19  N5  UNL     1      26.805 -31.062 282.796  1.00  0.00    -0.116 NA
BRANCH  19  20
HETATM   20  N6  UNL     1      27.778 -30.888 283.746  1.00  0.00    -0.271 N 
HETATM   21  C6  UNL     1      29.142 -31.056 283.410  1.00  0.00     0.262 C 
HETATM   22  O3  UNL     1      29.462 -31.363 282.248  1.00  0.00    -0.269 OA
ATOM     23  H6  UNL     1      27.517 -30.635 284.700  1.00  0.00     0.185 HD
BRANCH  21  24
HETATM   24  C7  UNL     1      30.154 -30.858 284.472  1.00  0.00     0.213 C 
BRANCH  24  25
HETATM   25  O4  UNL     1      30.422 -29.511 284.672  1.00  0.00    -0.386 OA
ATOM     26  H4  UNL     1      30.781 -29.353 285.538  1.00  0.00     0.210 HD
ENDBRANCH  24  25
BRANCH  24  27
HETATM   27  C8  UNL     1      31.380 -31.672 284.111  1.00  0.00     0.076 C 
BRANCH  27  28
HETATM   28  C9  UNL     1      32.062 -32.034 285.419  1.00  0.00     0.151 C 
BRANCH  28  29
HETATM   29  O5  UNL     1      31.723 -33.372 285.673  1.00  0.00    -0.393 OA
ATOM     30  H5  UNL     1      31.593 -33.434 286.612  1.00  0.00     0.210 HD
ENDBRANCH  28  29
BRANCH  28  31
HETATM   31  C10 UNL     1      33.561 -31.933 285.350  1.00  0.00     0.170 C 
BRANCH  31  32
HETATM   32  O6  UNL     1      34.007 -30.655 285.606  1.00  0.00    -0.391 OA
ATOM     33  H6  UNL     1      34.217 -30.527 286.523  1.00  0.00     0.210 HD
ENDBRANCH  31  32
BRANCH  31  34
HETATM   34  C11 UNL     1      34.182 -32.995 286.196  1.00  0.00     0.198 C 
BRANCH  34  35
HETATM   35  O7  UNL     1      34.595 -34.073 285.405  1.00  0.00    -0.398 OA
ATOM     36  H7  UNL     1      33.850 -34.484 284.983  1.00  0.00     0.209 HD
ENDBRANCH  34  35
ENDBRANCH  31  34
ENDBRANCH  28  31
ENDBRANCH  27  28
ENDBRANCH  24  27
ENDBRANCH  21  24
ENDBRANCH  19  20
ENDBRANCH   1  19
BRANCH   1  37
HETATM   37  C12 UNL     1      25.213 -32.255 284.150  1.00  0.00     0.125 A 
HETATM   38  N7  UNL     1      25.502 -32.632 285.337  1.00  0.00    -0.333 N 
HETATM   39  C13 UNL     1      24.350 -32.404 286.184  1.00  0.00     0.402 A 
ATOM     40  H7  UNL     1      26.394 -33.027 285.636  1.00  0.00     0.164 HD
HETATM   41  N9  UNL     1      23.377 -31.843 285.299  1.00  0.00    -0.288 N 
HETATM   42  N10 UNL     1      23.889 -31.769 284.150  1.00  0.00    -0.288 N 
ATOM     43  H9  UNL     1      22.433 -31.554 285.554  1.00  0.00     0.184 HD
ATOM     44  H10 UNL     1      23.409 -31.405 283.327  1.00  0.00     0.188 HD
BRANCH  39  45
HETATM   45  N8  UNL     1      23.879 -33.650 286.725  1.00  0.00    -0.039 N 
ATOM     46  H83 UNL     1      24.642 -34.219 287.091  1.00  0.00     0.279 HD
ATOM     47  H82 UNL     1      23.360 -33.517 287.593  1.00  0.00     0.279 HD
ATOM     48  H81 UNL     1      23.331 -34.152 286.027  1.00  0.00     0.279 HD
ENDBRANCH  39  45
ENDBRANCH   1  37
TORSDOF 16
ENDMDL
MODEL 5
REMARK VINA RESULT: -9.415384178      3.264      7.266
REMARK  16 active torsions:
REMARK  status: ('A' for Active; 'I' for Inactive)
REMARK    1  A    between atoms: N1_1  and  C1_4 
REMARK    2  A    between atoms: C3_11  and  N4_12 
REMARK       I    between atoms: N4_12  and  C4_14 
REMARK    3  A    between atoms: C4_14  and  C5_16 
REMARK    4  A    between atoms: C5_16  and  N5_17 
REMARK    5  A    between atoms: C5_16  and  C12_35 
REMARK    6  A    between atoms: N5_17  and  N6_18 
REMARK       I    between atoms: N6_18  and  C6_20 
REMARK    7  A    between atoms: C6_20  and  C7_22 
REMARK    8  A    between atoms: C7_22  and  O4_23 
REMARK    9  A    between atoms: C7_22  and  C8_25 
REMARK   10  A    between atoms: C8_25  and  C9_26 
REMARK   11  A    between atoms: C9_26  and  O5_27 
REMARK   12  A    between atoms: C9_26  and  C10_29 
REMARK   13  A    between atoms: C10_29  and  O6_30 
REMARK   14  A    between atoms: C10_29  and  C11_32 
REMARK   15  A    between atoms: C11_32  and  O7_33 
REMARK   16  A    between atoms: C13_38  and  N8_39 
ROOT
HETATM    1  C5  UNL     1      28.343 -31.705 283.168  1.00  0.00     0.260 C 
ENDROOT
BRANCH   1   2
HETATM    2  C4  UNL     1      27.003 -31.638 283.777  1.00  0.00     0.264 C 
HETATM    3  N4  UNL     1      26.265 -30.438 283.743  1.00  0.00    -0.157 N 
ATOM      4  H4  UNL     1      26.599 -29.639 284.282  1.00  0.00     0.187 HD
HETATM    5  O2  UNL     1      26.510 -32.636 284.325  1.00  0.00    -0.270 OA
BRANCH   3   6
HETATM    6  C3  UNL     1      25.166 -30.313 283.046  1.00  0.00     0.703 A 
HETATM    7  N3  UNL     1      24.189 -29.480 283.429  1.00  0.00    -0.140 N 
HETATM    8  C2  UNL     1      23.038 -29.347 282.712  1.00  0.00     0.352 A 
ATOM      9  H3  UNL     1      24.310 -28.931 284.280  1.00  0.00     0.189 HD
HETATM   10  N2  UNL     1      22.867 -30.070 281.584  1.00  0.00    -0.141 N 
HETATM   11  O1  UNL     1      22.106 -28.570 283.053  1.00  0.00    -0.246 OA
HETATM   12  C1  UNL     1      23.831 -30.909 281.182  1.00  0.00     0.694 A 
ATOM     13  H2  UNL     1      22.008 -29.978 281.042  1.00  0.00     0.189 HD
HETATM   14  N11 UNL     1      24.978 -31.022 281.922  1.00  0.00    -0.022 N 
ATOM     15  H11 UNL     1      25.709 -31.663 281.611  1.00  0.00     0.203 HD
BRANCH  12  16
HETATM   16  N1  UNL     1      23.718 -31.631 280.107  1.00  0.00    -0.234 N 
ATOM     17  H12 UNL     1      23.367 -32.584 280.199  1.00  0.00     0.174 HD
ATOM     18  H11 UNL     1      23.965 -31.276 279.184  1.00  0.00     0.174 HD
ENDBRANCH  12  16
ENDBRANCH   3   6
ENDBRANCH   1   2
BRANCH   1  19
HETATM   19  N5  UNL     1      28.369 -30.922 281.954  1.00  0.00    -0.116 NA
BRANCH  19  20
HETATM   20  N6  UNL     1      28.541 -31.710 280.845  1.00  0.00    -0.271 N 
HETATM   21  C6  UNL     1      27.669 -31.582 279.738  1.00  0.00     0.262 C 
HETATM   22  O3  UNL     1      26.744 -30.751 279.768  1.00  0.00    -0.269 OA
ATOM     23  H6  UNL     1      29.300 -32.391 280.818  1.00  0.00     0.185 HD
BRANCH  21  24
HETATM   24  C7  UNL     1      27.895 -32.456 278.565  1.00  0.00     0.213 C 
BRANCH  24  25
HETATM   25  O4  UNL     1      28.964 -32.011 277.798  1.00  0.00    -0.386 OA
ATOM     26  H4  UNL     1      29.559 -32.721 277.587  1.00  0.00     0.210 HD
ENDBRANCH  24  25
BRANCH  24  27
HETATM   27  C8  UNL     1      26.595 -32.552 277.792  1.00  0.00     0.076 C 
BRANCH  27  28
HETATM   28  C9  UNL     1      26.319 -34.031 277.589  1.00  0.00     0.151 C 
BRANCH  28  29
HETATM   29  O5  UNL     1      27.568 -34.630 277.364  1.00  0.00    -0.393 OA
ATOM     30  H5  UNL     1      27.537 -34.974 276.479  1.00  0.00     0.210 HD
ENDBRANCH  28  29
BRANCH  28  31
HETATM   31  C10 UNL     1      25.693 -34.685 278.790  1.00  0.00     0.170 C 
BRANCH  31  32
HETATM   32  O6  UNL     1      24.409 -34.239 279.013  1.00  0.00    -0.391 OA
ATOM     33  H6  UNL     1      24.389 -33.475 279.577  1.00  0.00     0.210 HD
ENDBRANCH  31  32
BRANCH  31  34
HETATM   34  C11 UNL     1      25.834 -36.168 278.694  1.00  0.00     0.198 C 
BRANCH  34  35
HETATM   35  O7  UNL     1      24.664 -36.803 279.124  1.00  0.00    -0.398 OA
ATOM     36  H7  UNL     1      24.142 -37.082 278.381  1.00  0.00     0.209 HD
ENDBRANCH  34  35
ENDBRANCH  31  34
ENDBRANCH  28  31
ENDBRANCH  27  28
ENDBRANCH  24  27
ENDBRANCH  21  24
ENDBRANCH  19  20
ENDBRANCH   1  19
BRANCH   1  37
HETATM   37  C12 UNL     1      29.406 -31.279 284.097  1.00  0.00     0.125 A 
HETATM   38  N7  UNL     1      29.999 -30.146 284.102  1.00  0.00    -0.333 N 
HETATM   39  C13 UNL     1      30.972 -30.143 285.174  1.00  0.00     0.402 A 
ATOM     40  H7  UNL     1      29.817 -29.375 283.459  1.00  0.00     0.164 HD
HETATM   41  N9  UNL     1      30.836 -31.437 285.768  1.00  0.00    -0.288 N 
HETATM   42  N10 UNL     1      29.942 -32.063 285.138  1.00  0.00    -0.288 N 
ATOM     43  H9  UNL     1      31.369 -31.791 286.561  1.00  0.00     0.184 HD
ATOM     44  H10 UNL     1      29.644 -33.015 285.354  1.00  0.00     0.188 HD
BRANCH  39  45
HETATM   45  N8  UNL     1      32.296 -29.972 284.640  1.00  0.00    -0.039 N 
ATOM     46  H83 UNL     1      32.279 -29.633 283.679  1.00  0.00     0.279 HD
ATOM     47  H82 UNL     1      32.782 -29.183 285.069  1.00  0.00     0.279 HD
ATOM     48  H81 UNL     1      32.826 -30.839 284.729  1.00  0.00     0.279 HD
ENDBRANCH  39  45
ENDBRANCH   1  37
TORSDOF 16
ENDMDL
