MODEL 1
REMARK VINA RESULT: -8.679622015      0.000      0.000
REMARK  14 active torsions:
REMARK  status: ('A' for Active; 'I' for Inactive)
REMARK    1  A    between atoms: N1_1  and  C1_5 
REMARK    2  A    between atoms: C1_5  and  C2_6 
REMARK    3  A    between atoms: C2_6  and  N2_7 
REMARK    4  A    between atoms: N2_7  and  N3_9 
REMARK    5  A    between atoms: N3_9  and  C3_11 
REMARK    6  A    between atoms: N7_22  and  C7_23 
REMARK    7  A    between atoms: C8_27  and  C9_28 
REMARK    8  A    between atoms: C9_28  and  N9_29 
REMARK       I    between atoms: N9_29  and  C10_31 
REMARK    9  A    between atoms: C10_31  and  C11_33 
REMARK   10  A    between atoms: C11_33  and  N10_34 
REMARK   11  A    between atoms: C11_33  and  C12_38 
REMARK   12  A    between atoms: C12_38  and  N11_39 
REMARK   13  A    between atoms: C12_38  and  C13_43 
REMARK       I    between atoms: C13_43  and  N12_45 
REMARK   14  A    between atoms: N12_45  and  N13_47 
ROOT
HETATM    1  C7  UNL     1      25.231 -30.620 281.568  1.00  0.00     0.444 C 
HETATM    2  N8  UNL     1      23.844 -30.207 281.843  1.00  0.00    -0.002 N 
ATOM      3  H81 UNL     1      23.040 -30.816 281.692  1.00  0.00     0.285 HD
ATOM      4  H82 UNL     1      23.344 -29.519 281.278  1.00  0.00     0.285 HD
HETATM    5  C8  UNL     1      24.385 -29.910 283.169  1.00  0.00     0.347 C 
HETATM    6  O4  UNL     1      25.512 -30.635 282.931  1.00  0.00    -0.308 OA
ENDROOT
BRANCH   1   7
HETATM    7  N7  UNL     1      25.197 -31.914 280.918  1.00  0.00    -0.242 N 
HETATM    8  C6  UNL     1      25.093 -32.980 281.728  1.00  0.00     0.163 A 
HETATM    9  C5  UNL     1      24.698 -34.274 281.466  1.00  0.00     0.162 A 
HETATM   10  N6  UNL     1      25.263 -33.389 282.996  1.00  0.00    -0.282 N 
HETATM   11  C4  UNL     1      24.309 -34.728 280.224  1.00  0.00     0.279 C 
HETATM   12  N5  UNL     1      24.885 -34.631 282.755  1.00  0.00    -0.291 N 
HETATM   13  N4  UNL     1      24.429 -34.130 279.001  1.00  0.00    -0.302 N 
HETATM   14  O1  UNL     1      23.764 -35.861 280.252  1.00  0.00    -0.265 OA
HETATM   15  C3  UNL     1      25.035 -32.975 278.673  1.00  0.00     0.192 C 
ATOM     16  H4  UNL     1      23.997 -34.633 278.225  1.00  0.00     0.171 HD
HETATM   17  C14 UNL     1      25.273 -31.929 279.565  1.00  0.00     0.298 C 
HETATM   18  O5  UNL     1      25.603 -30.868 279.005  1.00  0.00    -0.264 OA
ATOM     19  H5  UNL     1      24.781 -35.486 283.302  1.00  0.00     0.187 HD
ATOM     20  H6  UNL     1      25.573 -32.911 283.842  1.00  0.00     0.188 HD
BRANCH  15  21
HETATM   21  N3  UNL     1      25.431 -32.794 277.470  1.00  0.00    -0.285 N 
ATOM     22  H3  UNL     1      24.723 -32.471 276.810  1.00  0.00     0.188 HD
BRANCH  21  23
HETATM   23  N2  UNL     1      26.684 -32.979 276.958  1.00  0.00    -0.333 N 
ATOM     24  H2  UNL     1      26.838 -32.923 275.951  1.00  0.00     0.180 HD
BRANCH  23  25
HETATM   25  C2  UNL     1      27.791 -33.253 277.843  1.00  0.00     0.166 C 
BRANCH  25  26
HETATM   26  C1  UNL     1      28.623 -31.995 278.088  1.00  0.00     0.250 C 
BRANCH  26  27
HETATM   27  N1  UNL     1      28.271 -30.978 277.132  1.00  0.00    -0.078 N 
ATOM     28  H13 UNL     1      28.642 -31.181 276.204  1.00  0.00     0.274 HD
ATOM     29  H12 UNL     1      27.277 -30.996 276.902  1.00  0.00     0.274 HD
ATOM     30  H11 UNL     1      28.568 -30.063 277.471  1.00  0.00     0.274 HD
ENDBRANCH  26  27
ENDBRANCH  25  26
ENDBRANCH  23  25
ENDBRANCH  21  23
ENDBRANCH  15  21
ENDBRANCH   1   7
BRANCH   5  31
HETATM   31  C9  UNL     1      23.497 -30.429 284.242  1.00  0.00     0.184 C 
BRANCH  31  32
HETATM   32  N9  UNL     1      24.193 -30.990 285.337  1.00  0.00    -0.355 N 
HETATM   33  C10 UNL     1      24.152 -32.307 285.800  1.00  0.00     0.251 C 
HETATM   34  O2  UNL     1      23.436 -33.185 285.265  1.00  0.00    -0.271 OA
ATOM     35  H9  UNL     1      24.800 -30.354 285.853  1.00  0.00     0.162 HD
BRANCH  33  36
HETATM   36  C11 UNL     1      24.973 -32.758 286.978  1.00  0.00     0.314 C 
BRANCH  36  37
HETATM   37  N10 UNL     1      24.457 -32.135 288.204  1.00  0.00    -0.064 N 
ATOM     38 3H10 UNL     1      24.124 -31.184 288.042  1.00  0.00     0.275 HD
ATOM     39 2H10 UNL     1      23.576 -32.550 288.505  1.00  0.00     0.275 HD
ATOM     40 1H10 UNL     1      25.170 -32.174 288.933  1.00  0.00     0.275 HD
ENDBRANCH  36  37
BRANCH  36  41
HETATM   41  C12 UNL     1      24.796 -34.242 287.170  1.00  0.00     0.315 C 
BRANCH  41  42
HETATM   42  N11 UNL     1      25.848 -34.860 286.334  1.00  0.00    -0.064 N 
ATOM     43 3H11 UNL     1      25.971 -34.412 285.426  1.00  0.00     0.275 HD
ATOM     44 2H11 UNL     1      26.796 -34.696 286.673  1.00  0.00     0.275 HD
ATOM     45 1H11 UNL     1      25.591 -35.845 286.279  1.00  0.00     0.275 HD
ENDBRANCH  41  42
BRANCH  41  46
HETATM   46  C13 UNL     1      25.111 -34.648 288.567  1.00  0.00     0.268 C 
HETATM   47  O3  UNL     1      26.149 -34.226 289.147  1.00  0.00    -0.269 OA
HETATM   48  N12 UNL     1      24.246 -35.516 289.253  1.00  0.00    -0.275 N 
ATOM     49  H12 UNL     1      23.403 -35.873 288.801  1.00  0.00     0.189 HD
BRANCH  48  50
HETATM   50  N13 UNL     1      24.558 -35.887 290.572  1.00  0.00    -0.343 N 
ATOM     51 2H13 UNL     1      23.853 -35.788 291.302  1.00  0.00     0.176 HD
ATOM     52 1H13 UNL     1      25.489 -36.250 290.776  1.00  0.00     0.176 HD
ENDBRANCH  48  50
ENDBRANCH  41  46
ENDBRANCH  36  41
ENDBRANCH  33  36
ENDBRANCH  31  32
ENDBRANCH   5  31
TORSDOF 14
ENDMDL
MODEL 2
REMARK VINA RESULT: -8.437680042      0.889      1.199
REMARK  14 active torsions:
REMARK  status: ('A' for Active; 'I' for Inactive)
REMARK    1  A    between atoms: N1_1  and  C1_5 
REMARK    2  A    between atoms: C1_5  and  C2_6 
REMARK    3  A    between atoms: C2_6  and  N2_7 
REMARK    4  A    between atoms: N2_7  and  N3_9 
REMARK    5  A    between atoms: N3_9  and  C3_11 
REMARK    6  A    between atoms: N7_22  and  C7_23 
REMARK    7  A    between atoms: C8_27  and  C9_28 
REMARK    8  A    between atoms: C9_28  and  N9_29 
REMARK       I    between atoms: N9_29  and  C10_31 
REMARK    9  A    between atoms: C10_31  and  C11_33 
REMARK   10  A    between atoms: C11_33  and  N10_34 
REMARK   11  A    between atoms: C11_33  and  C12_38 
REMARK   12  A    between atoms: C12_38  and  N11_39 
REMARK   13  A    between atoms: C12_38  and  C13_43 
REMARK       I    between atoms: C13_43  and  N12_45 
REMARK   14  A    between atoms: N12_45  and  N13_47 
ROOT
HETATM    1  C7  UNL     1      25.085 -31.015 282.349  1.00  0.00     0.444 C 
HETATM    2  N8  UNL     1      23.697 -30.650 282.684  1.00  0.00    -0.002 N 
ATOM      3  H81 UNL     1      22.892 -31.222 282.426  1.00  0.00     0.285 HD
ATOM      4  H82 UNL     1      23.203 -29.874 282.243  1.00  0.00     0.285 HD
HETATM    5  C8  UNL     1      24.232 -30.589 284.044  1.00  0.00     0.347 C 
HETATM    6  O4  UNL     1      25.358 -31.266 283.690  1.00  0.00    -0.308 OA
ENDROOT
BRANCH   1   7
HETATM    7  N7  UNL     1      25.051 -32.177 281.485  1.00  0.00    -0.242 N 
HETATM    8  C6  UNL     1      24.940 -33.367 282.099  1.00  0.00     0.163 A 
HETATM    9  C5  UNL     1      24.542 -34.594 281.615  1.00  0.00     0.162 A 
HETATM   10  N6  UNL     1      25.101 -33.988 283.278  1.00  0.00    -0.282 N 
HETATM   11  C4  UNL     1      24.159 -34.826 280.312  1.00  0.00     0.279 C 
HETATM   12  N5  UNL     1      24.721 -35.169 282.825  1.00  0.00    -0.291 N 
HETATM   13  N4  UNL     1      24.289 -34.027 279.210  1.00  0.00    -0.302 N 
HETATM   14  O1  UNL     1      23.611 -35.945 280.141  1.00  0.00    -0.265 OA
HETATM   15  C3  UNL     1      24.900 -32.835 279.090  1.00  0.00     0.192 C 
ATOM     16  H4  UNL     1      23.860 -34.387 278.357  1.00  0.00     0.171 HD
HETATM   17  C14 UNL     1      25.135 -31.959 280.150  1.00  0.00     0.298 C 
HETATM   18  O5  UNL     1      25.471 -30.819 279.783  1.00  0.00    -0.264 OA
ATOM     19  H5  UNL     1      24.611 -36.105 283.216  1.00  0.00     0.187 HD
ATOM     20  H6  UNL     1      25.407 -33.664 284.196  1.00  0.00     0.188 HD
BRANCH  15  21
HETATM   21  N3  UNL     1      25.304 -32.451 277.939  1.00  0.00    -0.285 N 
ATOM     22  H3  UNL     1      24.705 -31.780 277.456  1.00  0.00     0.188 HD
BRANCH  21  23
HETATM   23  N2  UNL     1      26.437 -32.826 277.274  1.00  0.00    -0.333 N 
ATOM     24  H2  UNL     1      26.426 -32.917 276.258  1.00  0.00     0.180 HD
BRANCH  23  25
HETATM   25  C2  UNL     1      27.649 -33.092 278.010  1.00  0.00     0.166 C 
BRANCH  25  26
HETATM   26  C1  UNL     1      28.461 -31.813 278.213  1.00  0.00     0.250 C 
BRANCH  26  27
HETATM   27  N1  UNL     1      28.364 -30.978 277.045  1.00  0.00    -0.078 N 
ATOM     28  H13 UNL     1      29.168 -31.090 276.427  1.00  0.00     0.274 HD
ATOM     29  H12 UNL     1      27.638 -31.299 276.404  1.00  0.00     0.274 HD
ATOM     30  H11 UNL     1      28.226 -30.006 277.322  1.00  0.00     0.274 HD
ENDBRANCH  26  27
ENDBRANCH  25  26
ENDBRANCH  23  25
ENDBRANCH  21  23
ENDBRANCH  15  21
ENDBRANCH   1   7
BRANCH   5  31
HETATM   31  C9  UNL     1      23.336 -31.282 285.007  1.00  0.00     0.184 C 
BRANCH  31  32
HETATM   32  N9  UNL     1      24.017 -32.129 285.910  1.00  0.00    -0.355 N 
HETATM   33  C10 UNL     1      23.844 -33.502 286.100  1.00  0.00     0.251 C 
HETATM   34  O2  UNL     1      23.002 -34.168 285.455  1.00  0.00    -0.271 OA
ATOM     35  H9  UNL     1      24.722 -31.682 286.497  1.00  0.00     0.162 HD
BRANCH  33  36
HETATM   36  C11 UNL     1      24.666 -34.273 287.097  1.00  0.00     0.314 C 
BRANCH  36  37
HETATM   37  N10 UNL     1      26.095 -34.061 286.826  1.00  0.00    -0.064 N 
ATOM     38 3H10 UNL     1      26.612 -34.939 286.774  1.00  0.00     0.275 HD
ATOM     39 2H10 UNL     1      26.261 -33.737 285.874  1.00  0.00     0.275 HD
ATOM     40 1H10 UNL     1      26.484 -33.425 287.522  1.00  0.00     0.275 HD
ENDBRANCH  36  37
BRANCH  36  41
HETATM   41  C12 UNL     1      24.428 -33.717 288.477  1.00  0.00     0.315 C 
BRANCH  41  42
HETATM   42  N11 UNL     1      23.098 -34.233 288.868  1.00  0.00    -0.064 N 
ATOM     43 3H11 UNL     1      22.909 -35.181 288.540  1.00  0.00     0.275 HD
ATOM     44 2H11 UNL     1      23.008 -34.436 289.863  1.00  0.00     0.275 HD
ATOM     45 1H11 UNL     1      22.437 -33.537 288.525  1.00  0.00     0.275 HD
ENDBRANCH  41  42
BRANCH  41  46
HETATM   46  C13 UNL     1      25.381 -34.291 289.464  1.00  0.00     0.268 C 
HETATM   47  O3  UNL     1      26.481 -33.725 289.710  1.00  0.00    -0.269 OA
HETATM   48  N12 UNL     1      25.059 -35.484 290.135  1.00  0.00    -0.275 N 
ATOM     49  H12 UNL     1      24.176 -35.961 289.948  1.00  0.00     0.189 HD
BRANCH  48  50
HETATM   50  N13 UNL     1      25.970 -36.009 291.065  1.00  0.00    -0.343 N 
ATOM     51 2H13 UNL     1      25.942 -35.689 292.033  1.00  0.00     0.176 HD
ATOM     52 1H13 UNL     1      26.648 -36.706 290.755  1.00  0.00     0.176 HD
ENDBRANCH  48  50
ENDBRANCH  41  46
ENDBRANCH  36  41
ENDBRANCH  33  36
ENDBRANCH  31  32
ENDBRANCH   5  31
TORSDOF 14
ENDMDL
MODEL 3
REMARK VINA RESULT: -8.431534449      3.209      4.182
REMARK  14 active torsions:
REMARK  status: ('A' for Active; 'I' for Inactive)
REMARK    1  A    between atoms: N1_1  and  C1_5 
REMARK    2  A    between atoms: C1_5  and  C2_6 
REMARK    3  A    between atoms: C2_6  and  N2_7 
REMARK    4  A    between atoms: N2_7  and  N3_9 
REMARK    5  A    between atoms: N3_9  and  C3_11 
REMARK    6  A    between atoms: N7_22  and  C7_23 
REMARK    7  A    between atoms: C8_27  and  C9_28 
REMARK    8  A    between atoms: C9_28  and  N9_29 
REMARK       I    between atoms: N9_29  and  C10_31 
REMARK    9  A    between atoms: C10_31  and  C11_33 
REMARK   10  A    between atoms: C11_33  and  N10_34 
REMARK   11  A    between atoms: C11_33  and  C12_38 
REMARK   12  A    between atoms: C12_38  and  N11_39 
REMARK   13  A    between atoms: C12_38  and  C13_43 
REMARK       I    between atoms: C13_43  and  N12_45 
REMARK   14  A    between atoms: N12_45  and  N13_47 
ROOT
HETATM    1  C7  UNL     1      24.060 -30.939 280.781  1.00  0.00     0.444 C 
HETATM    2  N8  UNL     1      23.511 -31.118 282.136  1.00  0.00    -0.002 N 
ATOM      3  H81 UNL     1      23.605 -31.984 282.666  1.00  0.00     0.285 HD
ATOM      4  H82 UNL     1      22.511 -31.186 282.328  1.00  0.00     0.285 HD
HETATM    5  C8  UNL     1      24.299 -29.918 282.418  1.00  0.00     0.347 C 
HETATM    6  O4  UNL     1      25.014 -30.050 281.268  1.00  0.00    -0.308 OA
ENDROOT
BRANCH   1   7
HETATM    7  N7  UNL     1      24.565 -32.218 280.326  1.00  0.00    -0.242 N 
HETATM    8  C6  UNL     1      24.534 -33.218 281.222  1.00  0.00     0.163 A 
HETATM    9  C5  UNL     1      24.598 -34.584 281.047  1.00  0.00     0.162 A 
HETATM   10  N6  UNL     1      24.446 -33.484 282.535  1.00  0.00    -0.282 N 
HETATM   11  C4  UNL     1      24.713 -35.204 279.821  1.00  0.00     0.279 C 
HETATM   12  N5  UNL     1      24.506 -34.795 282.379  1.00  0.00    -0.291 N 
HETATM   13  N4  UNL     1      25.004 -34.668 278.598  1.00  0.00    -0.302 N 
HETATM   14  O1  UNL     1      24.514 -36.444 279.865  1.00  0.00    -0.265 OA
HETATM   15  C3  UNL     1      25.337 -33.404 278.279  1.00  0.00     0.192 C 
ATOM     16  H4  UNL     1      24.962 -35.320 277.815  1.00  0.00     0.171 HD
HETATM   17  C14 UNL     1      25.019 -32.286 279.051  1.00  0.00     0.298 C 
HETATM   18  O5  UNL     1      25.190 -31.209 278.453  1.00  0.00    -0.264 OA
ATOM     19  H5  UNL     1      24.490 -35.609 282.993  1.00  0.00     0.187 HD
ATOM     20  H6  UNL     1      24.363 -32.888 283.358  1.00  0.00     0.188 HD
BRANCH  15  21
HETATM   21  N3  UNL     1      25.990 -33.181 277.202  1.00  0.00    -0.285 N 
ATOM     22  H3  UNL     1      25.430 -33.044 276.361  1.00  0.00     0.188 HD
BRANCH  21  23
HETATM   23  N2  UNL     1      27.344 -33.103 277.037  1.00  0.00    -0.333 N 
ATOM     24  H2  UNL     1      27.757 -33.266 276.119  1.00  0.00     0.180 HD
BRANCH  23  25
HETATM   25  C2  UNL     1      28.190 -32.790 278.163  1.00  0.00     0.166 C 
BRANCH  25  26
HETATM   26  C1  UNL     1      28.566 -31.308 278.172  1.00  0.00     0.250 C 
BRANCH  26  27
HETATM   27  N1  UNL     1      28.491 -30.773 276.838  1.00  0.00    -0.078 N 
ATOM     28  H13 UNL     1      27.753 -31.215 276.289  1.00  0.00     0.274 HD
ATOM     29  H12 UNL     1      28.133 -29.819 276.828  1.00  0.00     0.274 HD
ATOM     30  H11 UNL     1      29.401 -30.845 276.382  1.00  0.00     0.274 HD
ENDBRANCH  26  27
ENDBRANCH  25  26
ENDBRANCH  23  25
ENDBRANCH  21  23
ENDBRANCH  15  21
ENDBRANCH   1   7
BRANCH   5  31
HETATM   31  C9  UNL     1      25.071 -30.065 283.680  1.00  0.00     0.184 C 
BRANCH  31  32
HETATM   32  N9  UNL     1      26.457 -30.260 283.481  1.00  0.00    -0.355 N 
HETATM   33  C10 UNL     1      27.194 -31.435 283.652  1.00  0.00     0.251 C 
HETATM   34  O2  UNL     1      26.671 -32.505 284.038  1.00  0.00    -0.271 OA
ATOM     35  H9  UNL     1      26.983 -29.443 283.175  1.00  0.00     0.162 HD
BRANCH  33  36
HETATM   36  C11 UNL     1      28.673 -31.487 283.380  1.00  0.00     0.314 C 
BRANCH  36  37
HETATM   37  N10 UNL     1      29.064 -30.328 282.566  1.00  0.00    -0.064 N 
ATOM     38 3H10 UNL     1      29.309 -30.592 281.612  1.00  0.00     0.275 HD
ATOM     39 2H10 UNL     1      28.272 -29.723 282.352  1.00  0.00     0.275 HD
ATOM     40 1H10 UNL     1      29.819 -29.823 283.032  1.00  0.00     0.275 HD
ENDBRANCH  36  37
BRANCH  36  41
HETATM   41  C12 UNL     1      29.425 -31.346 284.677  1.00  0.00     0.315 C 
BRANCH  41  42
HETATM   42  N11 UNL     1      29.338 -32.679 285.312  1.00  0.00    -0.064 N 
ATOM     43 3H11 UNL     1      28.611 -33.277 284.920  1.00  0.00     0.275 HD
ATOM     44 2H11 UNL     1      30.123 -33.293 285.095  1.00  0.00     0.275 HD
ATOM     45 1H11 UNL     1      29.225 -32.487 286.307  1.00  0.00     0.275 HD
ENDBRANCH  41  42
BRANCH  41  46
HETATM   46  C13 UNL     1      30.875 -31.114 284.440  1.00  0.00     0.268 C 
HETATM   47  O3  UNL     1      31.528 -31.844 283.645  1.00  0.00    -0.269 OA
HETATM   48  N12 UNL     1      31.535 -30.070 285.111  1.00  0.00    -0.275 N 
ATOM     49  H12 UNL     1      31.027 -29.470 285.762  1.00  0.00     0.189 HD
BRANCH  48  50
HETATM   50  N13 UNL     1      32.904 -29.864 284.873  1.00  0.00    -0.343 N 
ATOM     51 2H13 UNL     1      33.548 -30.653 284.926  1.00  0.00     0.176 HD
ATOM     52 1H13 UNL     1      33.231 -28.924 284.649  1.00  0.00     0.176 HD
ENDBRANCH  48  50
ENDBRANCH  41  46
ENDBRANCH  36  41
ENDBRANCH  33  36
ENDBRANCH  31  32
ENDBRANCH   5  31
TORSDOF 14
ENDMDL
MODEL 4
REMARK VINA RESULT: -8.275657771      1.358      1.531
REMARK  14 active torsions:
REMARK  status: ('A' for Active; 'I' for Inactive)
REMARK    1  A    between atoms: N1_1  and  C1_5 
REMARK    2  A    between atoms: C1_5  and  C2_6 
REMARK    3  A    between atoms: C2_6  and  N2_7 
REMARK    4  A    between atoms: N2_7  and  N3_9 
REMARK    5  A    between atoms: N3_9  and  C3_11 
REMARK    6  A    between atoms: N7_22  and  C7_23 
REMARK    7  A    between atoms: C8_27  and  C9_28 
REMARK    8  A    between atoms: C9_28  and  N9_29 
REMARK       I    between atoms: N9_29  and  C10_31 
REMARK    9  A    between atoms: C10_31  and  C11_33 
REMARK   10  A    between atoms: C11_33  and  N10_34 
REMARK   11  A    between atoms: C11_33  and  C12_38 
REMARK   12  A    between atoms: C12_38  and  N11_39 
REMARK   13  A    between atoms: C12_38  and  C13_43 
REMARK       I    between atoms: C13_43  and  N12_45 
REMARK   14  A    between atoms: N12_45  and  N13_47 
ROOT
HETATM    1  C7  UNL     1      25.110 -31.180 282.778  1.00  0.00     0.444 C 
HETATM    2  N8  UNL     1      23.726 -30.877 283.180  1.00  0.00    -0.002 N 
ATOM      3  H81 UNL     1      22.924 -31.435 282.885  1.00  0.00     0.285 HD
ATOM      4  H82 UNL     1      23.207 -30.070 282.832  1.00  0.00     0.285 HD
HETATM    5  C8  UNL     1      24.293 -30.943 284.527  1.00  0.00     0.347 C 
HETATM    6  O4  UNL     1      25.421 -31.559 284.081  1.00  0.00    -0.308 OA
ENDROOT
BRANCH   1   7
HETATM    7  N7  UNL     1      25.074 -32.249 281.803  1.00  0.00    -0.242 N 
HETATM    8  C6  UNL     1      24.913 -33.490 282.291  1.00  0.00     0.163 A 
HETATM    9  C5  UNL     1      24.500 -34.652 281.676  1.00  0.00     0.162 A 
HETATM   10  N6  UNL     1      25.020 -34.229 283.407  1.00  0.00    -0.282 N 
HETATM   11  C4  UNL     1      24.153 -34.743 280.345  1.00  0.00     0.279 C 
HETATM   12  N5  UNL     1      24.625 -35.349 282.827  1.00  0.00    -0.291 N 
HETATM   13  N4  UNL     1      24.339 -33.843 279.334  1.00  0.00    -0.302 N 
HETATM   14  O1  UNL     1      23.582 -35.823 280.048  1.00  0.00    -0.265 OA
HETATM   15  C3  UNL     1      24.984 -32.663 279.351  1.00  0.00     0.192 C 
ATOM     16  H4  UNL     1      23.929 -34.104 278.437  1.00  0.00     0.171 HD
HETATM   17  C14 UNL     1      25.207 -31.903 280.499  1.00  0.00     0.298 C 
HETATM   18  O5  UNL     1      25.584 -30.742 280.258  1.00  0.00    -0.264 OA
ATOM     19  H5  UNL     1      24.478 -36.315 283.120  1.00  0.00     0.187 HD
ATOM     20  H6  UNL     1      25.305 -34.007 284.361  1.00  0.00     0.188 HD
BRANCH  15  21
HETATM   21  N3  UNL     1      25.434 -32.178 278.256  1.00  0.00    -0.285 N 
ATOM     22  H3  UNL     1      25.045 -31.279 277.972  1.00  0.00     0.188 HD
BRANCH  21  23
HETATM   23  N2  UNL     1      26.371 -32.715 277.419  1.00  0.00    -0.333 N 
ATOM     24  H2  UNL     1      26.144 -32.884 276.439  1.00  0.00     0.180 HD
BRANCH  23  25
HETATM   25  C2  UNL     1      27.684 -33.042 277.921  1.00  0.00     0.166 C 
BRANCH  25  26
HETATM   26  C1  UNL     1      28.519 -31.780 278.137  1.00  0.00     0.250 C 
BRANCH  26  27
HETATM   27  N1  UNL     1      28.419 -30.921 276.986  1.00  0.00    -0.078 N 
ATOM     28  H13 UNL     1      27.897 -31.358 276.227  1.00  0.00     0.274 HD
ATOM     29  H12 UNL     1      27.801 -30.127 277.154  1.00  0.00     0.274 HD
ATOM     30  H11 UNL     1      29.350 -30.625 276.690  1.00  0.00     0.274 HD
ENDBRANCH  26  27
ENDBRANCH  25  26
ENDBRANCH  23  25
ENDBRANCH  21  23
ENDBRANCH  15  21
ENDBRANCH   1   7
BRANCH   5  31
HETATM   31  C9  UNL     1      23.433 -31.746 285.435  1.00  0.00     0.184 C 
BRANCH  31  32
HETATM   32  N9  UNL     1      24.150 -32.422 286.449  1.00  0.00    -0.355 N 
HETATM   33  C10 UNL     1      23.870 -33.669 287.015  1.00  0.00     0.251 C 
HETATM   34  O2  UNL     1      22.882 -34.357 286.670  1.00  0.00    -0.271 OA
ATOM     35  H9  UNL     1      24.972 -31.941 286.811  1.00  0.00     0.162 HD
BRANCH  33  36
HETATM   36  C11 UNL     1      24.747 -34.268 288.082  1.00  0.00     0.314 C 
BRANCH  36  37
HETATM   37  N10 UNL     1      23.962 -34.469 289.307  1.00  0.00    -0.064 N 
ATOM     38 3H10 UNL     1      24.553 -34.665 290.116  1.00  0.00     0.275 HD
ATOM     39 2H10 UNL     1      23.541 -33.603 289.641  1.00  0.00     0.275 HD
ATOM     40 1H10 UNL     1      23.268 -35.200 289.152  1.00  0.00     0.275 HD
ENDBRANCH  36  37
BRANCH  36  41
HETATM   41  C12 UNL     1      25.189 -35.642 287.651  1.00  0.00     0.315 C 
BRANCH  41  42
HETATM   42  N11 UNL     1      25.996 -35.415 286.432  1.00  0.00    -0.064 N 
ATOM     43 3H11 UNL     1      26.991 -35.286 286.613  1.00  0.00     0.275 HD
ATOM     44 2H11 UNL     1      26.092 -36.239 285.840  1.00  0.00     0.275 HD
ATOM     45 1H11 UNL     1      25.552 -34.622 285.970  1.00  0.00     0.275 HD
ENDBRANCH  41  42
BRANCH  41  46
HETATM   46  C13 UNL     1      26.125 -36.244 288.639  1.00  0.00     0.268 C 
HETATM   47  O3  UNL     1      26.507 -35.595 289.651  1.00  0.00    -0.269 OA
HETATM   48  N12 UNL     1      26.596 -37.554 288.446  1.00  0.00    -0.275 N 
ATOM     49  H12 UNL     1      26.303 -38.095 287.632  1.00  0.00     0.189 HD
BRANCH  48  50
HETATM   50  N13 UNL     1      27.477 -38.107 289.390  1.00  0.00    -0.343 N 
ATOM     51 2H13 UNL     1      28.273 -37.559 289.716  1.00  0.00     0.176 HD
ATOM     52 1H13 UNL     1      27.303 -39.051 289.734  1.00  0.00     0.176 HD
ENDBRANCH  48  50
ENDBRANCH  41  46
ENDBRANCH  36  41
ENDBRANCH  33  36
ENDBRANCH  31  32
ENDBRANCH   5  31
TORSDOF 14
ENDMDL
MODEL 5
REMARK VINA RESULT: -8.233949307      2.159      9.153
REMARK  14 active torsions:
REMARK  status: ('A' for Active; 'I' for Inactive)
REMARK    1  A    between atoms: N1_1  and  C1_5 
REMARK    2  A    between atoms: C1_5  and  C2_6 
REMARK    3  A    between atoms: C2_6  and  N2_7 
REMARK    4  A    between atoms: N2_7  and  N3_9 
REMARK    5  A    between atoms: N3_9  and  C3_11 
REMARK    6  A    between atoms: N7_22  and  C7_23 
REMARK    7  A    between atoms: C8_27  and  C9_28 
REMARK    8  A    between atoms: C9_28  and  N9_29 
REMARK       I    between atoms: N9_29  and  C10_31 
REMARK    9  A    between atoms: C10_31  and  C11_33 
REMARK   10  A    between atoms: C11_33  and  N10_34 
REMARK   11  A    between atoms: C11_33  and  C12_38 
REMARK   12  A    between atoms: C12_38  and  N11_39 
REMARK   13  A    between atoms: C12_38  and  C13_43 
REMARK       I    between atoms: C13_43  and  N12_45 
REMARK   14  A    between atoms: N12_45  and  N13_47 
ROOT
HETATM    1  C7  UNL     1      25.180 -32.765 286.353  1.00  0.00     0.444 C 
HETATM    2  N8  UNL     1      25.563 -33.873 285.461  1.00  0.00    -0.002 N 
ATOM      3  H81 UNL     1      25.129 -34.795 285.500  1.00  0.00     0.285 HD
ATOM      4  H82 UNL     1      26.455 -34.363 285.532  1.00  0.00     0.285 HD
HETATM    5  C8  UNL     1      25.269 -32.894 284.415  1.00  0.00     0.347 C 
HETATM    6  O4  UNL     1      24.607 -32.083 285.284  1.00  0.00    -0.308 OA
ENDROOT
BRANCH   1   7
HETATM    7  N7  UNL     1      24.254 -33.278 287.341  1.00  0.00    -0.242 N 
HETATM    8  C6  UNL     1      22.951 -33.047 287.107  1.00  0.00     0.163 A 
HETATM    9  C5  UNL     1      21.824 -33.657 287.614  1.00  0.00     0.162 A 
HETATM   10  N6  UNL     1      22.104 -32.273 286.410  1.00  0.00    -0.282 N 
HETATM   11  C4  UNL     1      21.847 -34.695 288.522  1.00  0.00     0.279 C 
HETATM   12  N5  UNL     1      21.018 -32.851 286.890  1.00  0.00    -0.291 N 
HETATM   13  N4  UNL     1      22.888 -35.181 289.262  1.00  0.00    -0.302 N 
HETATM   14  O1  UNL     1      20.733 -35.258 288.668  1.00  0.00    -0.265 OA
HETATM   15  C3  UNL     1      24.149 -34.724 289.364  1.00  0.00     0.192 C 
ATOM     16  H4  UNL     1      22.678 -36.011 289.817  1.00  0.00     0.171 HD
HETATM   17  C14 UNL     1      24.782 -33.937 288.401  1.00  0.00     0.298 C 
HETATM   18  O5  UNL     1      26.011 -33.845 288.569  1.00  0.00    -0.264 OA
ATOM     19  H5  UNL     1      20.012 -32.738 286.768  1.00  0.00     0.187 HD
ATOM     20  H6  UNL     1      22.248 -31.510 285.748  1.00  0.00     0.188 HD
BRANCH  15  21
HETATM   21  N3  UNL     1      24.839 -35.013 290.401  1.00  0.00    -0.285 N 
ATOM     22  H3  UNL     1      25.069 -34.232 291.016  1.00  0.00     0.188 HD
BRANCH  21  23
HETATM   23  N2  UNL     1      25.307 -36.236 290.789  1.00  0.00    -0.333 N 
ATOM     24  H2  UNL     1      24.665 -36.932 291.169  1.00  0.00     0.180 HD
BRANCH  23  25
HETATM   25  C2  UNL     1      26.711 -36.545 290.660  1.00  0.00     0.166 C 
BRANCH  25  26
HETATM   26  C1  UNL     1      26.983 -37.342 289.384  1.00  0.00     0.250 C 
BRANCH  26  27
HETATM   27  N1  UNL     1      27.939 -38.384 289.650  1.00  0.00    -0.078 N 
ATOM     28  H13 UNL     1      28.114 -38.962 288.828  1.00  0.00     0.274 HD
ATOM     29  H12 UNL     1      28.882 -38.016 289.777  1.00  0.00     0.274 HD
ATOM     30  H11 UNL     1      27.635 -38.940 290.450  1.00  0.00     0.274 HD
ENDBRANCH  26  27
ENDBRANCH  25  26
ENDBRANCH  23  25
ENDBRANCH  21  23
ENDBRANCH  15  21
ENDBRANCH   1   7
BRANCH   5  31
HETATM   31  C9  UNL     1      24.443 -33.493 283.333  1.00  0.00     0.184 C 
BRANCH  31  32
HETATM   32  N9  UNL     1      24.765 -33.020 282.041  1.00  0.00    -0.355 N 
HETATM   33  C10 UNL     1      24.555 -33.655 280.815  1.00  0.00     0.251 C 
HETATM   34  O2  UNL     1      24.036 -34.791 280.727  1.00  0.00    -0.271 OA
ATOM     35  H9  UNL     1      25.206 -32.102 281.999  1.00  0.00     0.162 HD
BRANCH  33  36
HETATM   36  C11 UNL     1      24.940 -33.007 279.512  1.00  0.00     0.314 C 
BRANCH  36  37
HETATM   37  N10 UNL     1      25.223 -31.582 279.736  1.00  0.00    -0.064 N 
ATOM     38 3H10 UNL     1      26.109 -31.437 280.220  1.00  0.00     0.275 HD
ATOM     39 2H10 UNL     1      25.447 -31.094 278.870  1.00  0.00     0.275 HD
ATOM     40 1H10 UNL     1      24.440 -31.152 280.229  1.00  0.00     0.275 HD
ENDBRANCH  36  37
BRANCH  36  41
HETATM   41  C12 UNL     1      26.232 -33.605 279.019  1.00  0.00     0.315 C 
BRANCH  41  42
HETATM   42  N11 UNL     1      25.891 -34.220 277.718  1.00  0.00    -0.064 N 
ATOM     43 3H11 UNL     1      24.889 -34.311 277.553  1.00  0.00     0.275 HD
ATOM     44 2H11 UNL     1      26.088 -33.625 276.914  1.00  0.00     0.275 HD
ATOM     45 1H11 UNL     1      26.394 -35.107 277.710  1.00  0.00     0.275 HD
ENDBRANCH  41  42
BRANCH  41  46
HETATM   46  C13 UNL     1      27.233 -32.550 278.709  1.00  0.00     0.268 C 
HETATM   47  O3  UNL     1      27.974 -32.072 279.611  1.00  0.00    -0.269 OA
HETATM   48  N12 UNL     1      27.360 -32.073 277.393  1.00  0.00    -0.275 N 
ATOM     49  H12 UNL     1      26.768 -32.443 276.648  1.00  0.00     0.189 HD
BRANCH  48  50
HETATM   50  N13 UNL     1      28.313 -31.078 277.118  1.00  0.00    -0.343 N 
ATOM     51 2H13 UNL     1      28.019 -30.104 277.055  1.00  0.00     0.176 HD
ATOM     52 1H13 UNL     1      29.287 -31.350 276.985  1.00  0.00     0.176 HD
ENDBRANCH  48  50
ENDBRANCH  41  46
ENDBRANCH  36  41
ENDBRANCH  33  36
ENDBRANCH  31  32
ENDBRANCH   5  31
TORSDOF 14
ENDMDL
