MODEL 1
REMARK VINA RESULT: -8.914312064      0.000      0.000
REMARK  8 active torsions:
REMARK  status: ('A' for Active; 'I' for Inactive)
REMARK    1  A    between atoms: C2_2  and  O1_3 
REMARK    2  A    between atoms: C2_2  and  C3_5 
REMARK    3  A    between atoms: C3_5  and  O2_6 
REMARK    4  A    between atoms: C3_5  and  C4_8 
REMARK    5  A    between atoms: C8_14  and  N1_15 
REMARK    6  A    between atoms: C14_21  and  C15_22 
REMARK    7  A    between atoms: C25_33  and  C26_34 
REMARK    8  A    between atoms: C26_34  and  O4_35 
ROOT
HETATM    1  N1  UNL     1      -9.274  80.021  12.818  1.00  0.00    -0.407 N 
HETATM    2  C9  UNL     1     -10.429  79.546  13.486  1.00  0.00     0.118 C 
HETATM    3  C10 UNL     1     -10.958  80.684  14.348  1.00  0.00     0.035 C 
HETATM    4  C11 UNL     1      -9.880  81.254  15.237  1.00  0.00     0.003 C 
HETATM    5  C12 UNL     1     -10.486  82.362  16.017  1.00  0.00    -0.014 A 
HETATM    6  C13 UNL     1     -11.694  82.968  15.682  1.00  0.00     0.022 A 
HETATM    7  C14 UNL     1     -12.230  83.997  16.419  1.00  0.00    -0.029 A 
HETATM    8  C21 UNL     1     -11.564  84.465  17.538  1.00  0.00     0.014 A 
HETATM    9  C22 UNL     1     -10.368  83.868  17.876  1.00  0.00     0.038 A 
HETATM   10  C23 UNL     1      -9.818  82.829  17.137  1.00  0.00     0.075 A 
HETATM   11  O3  UNL     1      -8.625  82.225  17.465  1.00  0.00    -0.350 OA
HETATM   12  C24 UNL     1      -8.467  80.860  17.281  1.00  0.00     0.183 C 
HETATM   13  C25 UNL     1      -9.346  80.255  16.221  1.00  0.00     0.047 C 
HETATM   14  C27 UNL     1      -8.853  81.833  14.304  1.00  0.00     0.013 C 
HETATM   15  C28 UNL     1      -7.435  81.457  14.552  1.00  0.00     0.012 C 
HETATM   16  C29 UNL     1      -9.113  81.426  12.844  1.00  0.00     0.122 C 
ENDROOT
BRANCH  13  17
HETATM   17  C26 UNL     1     -10.443  79.511  16.961  1.00  0.00     0.172 C 
BRANCH  17  18
HETATM   18  O4  UNL     1     -10.273  78.130  16.855  1.00  0.00    -0.400 OA
ATOM     19  H4  UNL     1     -10.294  77.717  17.710  1.00  0.00     0.209 HD
ENDBRANCH  17  18
ENDBRANCH  13  17
BRANCH   1  20
HETATM   20  C8  UNL     1      -8.966  79.416  11.551  1.00  0.00     0.091 C 
HETATM   21  C4  UNL     1      -7.997  78.280  11.608  1.00  0.00     0.045 C 
HETATM   22  C5  UNL     1      -8.419  77.335  10.512  1.00  0.00     0.088 C 
HETATM   23  C6  UNL     1      -9.896  77.596  10.276  1.00  0.00     0.246 C 
HETATM   24  F1  UNL     1     -10.230  77.530   8.940  1.00  0.00    -0.206 F 
HETATM   25  F2  UNL     1     -10.624  76.683  11.007  1.00  0.00    -0.206 F 
HETATM   26  C7  UNL     1     -10.163  79.008  10.770  1.00  0.00     0.104 C 
BRANCH  21  27
HETATM   27  C3  UNL     1      -6.574  78.711  11.366  1.00  0.00     0.152 C 
BRANCH  27  28
HETATM   28  C2  UNL     1      -5.771  78.659  12.616  1.00  0.00     0.143 C 
HETATM   29  C1  UNL     1      -4.454  77.943  12.423  1.00  0.00     0.042 C 
BRANCH  28  30
HETATM   30  O1  UNL     1      -6.442  78.188  13.711  1.00  0.00    -0.393 OA
ATOM     31  H1  UNL     1      -6.455  78.827  14.414  1.00  0.00     0.210 HD
ENDBRANCH  28  30
ENDBRANCH  27  28
BRANCH  27  32
HETATM   32  O2  UNL     1      -6.615  80.047  10.922  1.00  0.00    -0.393 OA
ATOM     33  H2  UNL     1      -7.390  80.160  10.385  1.00  0.00     0.210 HD
ENDBRANCH  27  32
ENDBRANCH  21  27
ENDBRANCH   1  20
BRANCH   7  34
HETATM   34  C15 UNL     1     -13.510  84.593  16.002  1.00  0.00    -0.052 C 
HETATM   35  C16 UNL     1     -14.214  84.071  14.979  1.00  0.00    -0.019 C 
HETATM   36  C17 UNL     1     -15.503  84.786  14.664  1.00  0.00     0.028 C 
HETATM   37  C18 UNL     1     -16.307  84.758  15.950  1.00  0.00     0.004 C 
HETATM   38  C19 UNL     1     -15.543  85.417  17.065  1.00  0.00     0.005 C 
HETATM   39  C20 UNL     1     -14.115  85.765  16.639  1.00  0.00     0.039 C 
ENDBRANCH   7  34
TORSDOF 8
ENDMDL
MODEL 2
REMARK VINA RESULT: -8.839947782      5.372      8.540
REMARK  8 active torsions:
REMARK  status: ('A' for Active; 'I' for Inactive)
REMARK    1  A    between atoms: C2_2  and  O1_3 
REMARK    2  A    between atoms: C2_2  and  C3_5 
REMARK    3  A    between atoms: C3_5  and  O2_6 
REMARK    4  A    between atoms: C3_5  and  C4_8 
REMARK    5  A    between atoms: C8_14  and  N1_15 
REMARK    6  A    between atoms: C14_21  and  C15_22 
REMARK    7  A    between atoms: C25_33  and  C26_34 
REMARK    8  A    between atoms: C26_34  and  O4_35 
ROOT
HETATM    1  N1  UNL     1      -9.771  84.391  19.337  1.00  0.00    -0.407 N 
HETATM    2  C9  UNL     1      -9.769  85.574  18.558  1.00  0.00     0.118 C 
HETATM    3  C10 UNL     1     -11.119  85.664  17.860  1.00  0.00     0.035 C 
HETATM    4  C11 UNL     1     -11.443  84.392  17.113  1.00  0.00     0.003 C 
HETATM    5  C12 UNL     1     -12.778  84.571  16.489  1.00  0.00    -0.014 A 
HETATM    6  C13 UNL     1     -13.675  85.568  16.864  1.00  0.00     0.022 A 
HETATM    7  C14 UNL     1     -14.909  85.707  16.272  1.00  0.00    -0.029 A 
HETATM    8  C21 UNL     1     -15.294  84.838  15.266  1.00  0.00     0.014 A 
HETATM    9  C22 UNL     1     -14.409  83.850  14.890  1.00  0.00     0.038 A 
HETATM   10  C23 UNL     1     -13.162  83.701  15.482  1.00  0.00     0.075 A 
HETATM   11  O3  UNL     1     -12.270  82.718  15.115  1.00  0.00    -0.350 OA
HETATM   12  C24 UNL     1     -10.911  82.992  15.093  1.00  0.00     0.183 C 
HETATM   13  C25 UNL     1     -10.469  84.098  16.011  1.00  0.00     0.047 C 
HETATM   14  C27 UNL     1     -11.547  83.324  18.165  1.00  0.00     0.013 C 
HETATM   15  C28 UNL     1     -10.789  82.066  17.921  1.00  0.00     0.012 C 
HETATM   16  C29 UNL     1     -11.048  83.817  19.534  1.00  0.00     0.122 C 
ENDROOT
BRANCH  13  17
HETATM   17  C26 UNL     1     -10.205  85.300  15.121  1.00  0.00     0.172 C 
BRANCH  17  18
HETATM   18  O4  UNL     1     -10.472  85.002  13.784  1.00  0.00    -0.400 OA
ATOM     19  H4  UNL     1     -10.749  85.778  13.311  1.00  0.00     0.209 HD
ENDBRANCH  17  18
ENDBRANCH  13  17
BRANCH   1  20
HETATM   20  C8  UNL     1      -8.937  84.388  20.508  1.00  0.00     0.091 C 
HETATM   21  C4  UNL     1      -9.658  84.582  21.802  1.00  0.00     0.045 C 
HETATM   22  C5  UNL     1      -8.890  83.774  22.817  1.00  0.00     0.088 C 
HETATM   23  C6  UNL     1      -8.170  82.690  22.033  1.00  0.00     0.246 C 
HETATM   24  F1  UNL     1      -6.904  82.446  22.524  1.00  0.00    -0.206 F 
HETATM   25  F2  UNL     1      -8.935  81.545  22.066  1.00  0.00    -0.206 F 
HETATM   26  C7  UNL     1      -8.043  83.206  20.610  1.00  0.00     0.104 C 
BRANCH  21  27
HETATM   27  C3  UNL     1      -9.695  86.021  22.244  1.00  0.00     0.152 C 
BRANCH  27  28
HETATM   28  C2  UNL     1      -8.410  86.712  21.952  1.00  0.00     0.143 C 
HETATM   29  C1  UNL     1      -7.702  87.160  23.210  1.00  0.00     0.042 C 
BRANCH  28  30
HETATM   30  O1  UNL     1      -8.497  87.724  21.037  1.00  0.00    -0.393 OA
ATOM     31  H1  UNL     1      -8.475  87.392  20.147  1.00  0.00     0.210 HD
ENDBRANCH  28  30
ENDBRANCH  27  28
BRANCH  27  32
HETATM   32  O2  UNL     1      -9.892  86.023  23.638  1.00  0.00    -0.393 OA
ATOM     33  H2  UNL     1     -10.817  85.894  23.809  1.00  0.00     0.210 HD
ENDBRANCH  27  32
ENDBRANCH  21  27
ENDBRANCH   1  20
BRANCH   7  34
HETATM   34  C15 UNL     1     -15.808  86.781  16.723  1.00  0.00    -0.052 C 
HETATM   35  C16 UNL     1     -16.585  86.619  17.811  1.00  0.00    -0.019 C 
HETATM   36  C17 UNL     1     -17.454  87.803  18.153  1.00  0.00     0.028 C 
HETATM   37  C18 UNL     1     -16.501  88.968  18.332  1.00  0.00     0.004 C 
HETATM   38  C19 UNL     1     -15.697  89.190  17.080  1.00  0.00     0.005 C 
HETATM   39  C20 UNL     1     -15.936  88.078  16.055  1.00  0.00     0.039 C 
ENDBRANCH   7  34
TORSDOF 8
ENDMDL
MODEL 3
REMARK VINA RESULT: -8.746873295      2.806      8.583
REMARK  8 active torsions:
REMARK  status: ('A' for Active; 'I' for Inactive)
REMARK    1  A    between atoms: C2_2  and  O1_3 
REMARK    2  A    between atoms: C2_2  and  C3_5 
REMARK    3  A    between atoms: C3_5  and  O2_6 
REMARK    4  A    between atoms: C3_5  and  C4_8 
REMARK    5  A    between atoms: C8_14  and  N1_15 
REMARK    6  A    between atoms: C14_21  and  C15_22 
REMARK    7  A    between atoms: C25_33  and  C26_34 
REMARK    8  A    between atoms: C26_34  and  O4_35 
ROOT
HETATM    1  N1  UNL     1     -10.037  80.348  14.206  1.00  0.00    -0.407 N 
HETATM    2  C9  UNL     1      -9.931  78.937  14.183  1.00  0.00     0.118 C 
HETATM    3  C10 UNL     1      -8.498  78.592  13.802  1.00  0.00     0.035 C 
HETATM    4  C11 UNL     1      -8.076  79.297  12.535  1.00  0.00     0.003 C 
HETATM    5  C12 UNL     1      -6.668  78.916  12.261  1.00  0.00    -0.014 A 
HETATM    6  C13 UNL     1      -5.829  78.337  13.210  1.00  0.00     0.022 A 
HETATM    7  C14 UNL     1      -4.526  77.998  12.930  1.00  0.00    -0.029 A 
HETATM    8  C21 UNL     1      -4.008  78.231  11.669  1.00  0.00     0.014 A 
HETATM    9  C22 UNL     1      -4.834  78.803  10.724  1.00  0.00     0.038 A 
HETATM   10  C23 UNL     1      -6.151  79.149  10.997  1.00  0.00     0.075 A 
HETATM   11  O3  UNL     1      -6.986  79.720  10.063  1.00  0.00    -0.350 OA
HETATM   12  C24 UNL     1      -8.329  79.377  10.034  1.00  0.00     0.183 C 
HETATM   13  C25 UNL     1      -8.891  78.892  11.342  1.00  0.00     0.047 C 
HETATM   14  C27 UNL     1      -8.118  80.765  12.859  1.00  0.00     0.013 C 
HETATM   15  C28 UNL     1      -8.837  81.643  11.897  1.00  0.00     0.012 C 
HETATM   16  C29 UNL     1      -8.800  81.033  14.212  1.00  0.00     0.122 C 
ENDROOT
BRANCH  13  17
HETATM   17  C26 UNL     1      -9.028  77.386  11.207  1.00  0.00     0.172 C 
BRANCH  17  18
HETATM   18  O4  UNL     1      -8.528  76.945   9.981  1.00  0.00    -0.400 OA
ATOM     19  H4  UNL     1      -8.548  77.640   9.334  1.00  0.00     0.209 HD
ENDBRANCH  17  18
ENDBRANCH  13  17
BRANCH   1  20
HETATM   20  C8  UNL     1     -11.024  80.907  15.089  1.00  0.00     0.091 C 
HETATM   21  C4  UNL     1     -10.478  81.711  16.225  1.00  0.00     0.045 C 
HETATM   22  C5  UNL     1     -11.493  82.795  16.477  1.00  0.00     0.088 C 
HETATM   23  C6  UNL     1     -12.241  82.984  15.168  1.00  0.00     0.246 C 
HETATM   24  F1  UNL     1     -13.586  83.216  15.365  1.00  0.00    -0.206 F 
HETATM   25  F2  UNL     1     -11.661  84.027  14.480  1.00  0.00    -0.206 F 
HETATM   26  C7  UNL     1     -12.085  81.684  14.397  1.00  0.00     0.104 C 
BRANCH  21  27
HETATM   27  C3  UNL     1     -10.299  80.901  17.483  1.00  0.00     0.152 C 
BRANCH  27  28
HETATM   28  C2  UNL     1      -8.860  80.714  17.808  1.00  0.00     0.143 C 
HETATM   29  C1  UNL     1      -8.034  81.938  17.484  1.00  0.00     0.042 C 
BRANCH  28  30
HETATM   30  O1  UNL     1      -8.297  79.579  17.292  1.00  0.00    -0.393 OA
ATOM     31  H1  UNL     1      -8.958  78.942  17.048  1.00  0.00     0.210 HD
ENDBRANCH  28  30
ENDBRANCH  27  28
BRANCH  27  32
HETATM   32  O2  UNL     1     -10.867  79.635  17.246  1.00  0.00    -0.393 OA
ATOM     33  H2  UNL     1     -10.182  79.051  16.946  1.00  0.00     0.210 HD
ENDBRANCH  27  32
ENDBRANCH  21  27
ENDBRANCH   1  20
BRANCH   7  34
HETATM   34  C15 UNL     1      -3.695  77.394  13.985  1.00  0.00    -0.052 C 
HETATM   35  C16 UNL     1      -3.713  77.881  15.240  1.00  0.00    -0.019 C 
HETATM   36  C17 UNL     1      -2.812  77.163  16.213  1.00  0.00     0.028 C 
HETATM   37  C18 UNL     1      -3.257  75.713  16.183  1.00  0.00     0.004 C 
HETATM   38  C19 UNL     1      -3.155  75.158  14.790  1.00  0.00     0.005 C 
HETATM   39  C20 UNL     1      -2.808  76.249  13.774  1.00  0.00     0.039 C 
ENDBRANCH   7  34
TORSDOF 8
ENDMDL
MODEL 4
REMARK VINA RESULT: -8.517101352      3.228      8.893
REMARK  8 active torsions:
REMARK  status: ('A' for Active; 'I' for Inactive)
REMARK    1  A    between atoms: C2_2  and  O1_3 
REMARK    2  A    between atoms: C2_2  and  C3_5 
REMARK    3  A    between atoms: C3_5  and  O2_6 
REMARK    4  A    between atoms: C3_5  and  C4_8 
REMARK    5  A    between atoms: C8_14  and  N1_15 
REMARK    6  A    between atoms: C14_21  and  C15_22 
REMARK    7  A    between atoms: C25_33  and  C26_34 
REMARK    8  A    between atoms: C26_34  and  O4_35 
ROOT
HETATM    1  N1  UNL     1      -9.774  81.678  13.230  1.00  0.00    -0.407 N 
HETATM    2  C9  UNL     1      -9.633  80.597  14.133  1.00  0.00     0.118 C 
HETATM    3  C10 UNL     1      -8.377  79.832  13.738  1.00  0.00     0.035 C 
HETATM    4  C11 UNL     1      -8.391  79.462  12.274  1.00  0.00     0.003 C 
HETATM    5  C12 UNL     1      -7.124  78.744  11.985  1.00  0.00    -0.014 A 
HETATM    6  C13 UNL     1      -6.014  78.772  12.825  1.00  0.00     0.022 A 
HETATM    7  C14 UNL     1      -4.850  78.102  12.529  1.00  0.00    -0.029 A 
HETATM    8  C21 UNL     1      -4.755  77.366  11.362  1.00  0.00     0.014 A 
HETATM    9  C22 UNL     1      -5.852  77.333  10.526  1.00  0.00     0.038 A 
HETATM   10  C23 UNL     1      -7.031  78.007  10.815  1.00  0.00     0.075 A 
HETATM   11  O3  UNL     1      -8.132  77.981   9.989  1.00  0.00    -0.350 OA
HETATM   12  C24 UNL     1      -9.406  77.953  10.536  1.00  0.00     0.183 C 
HETATM   13  C25 UNL     1      -9.520  78.541  11.916  1.00  0.00     0.047 C 
HETATM   14  C27 UNL     1      -8.380  80.767  11.529  1.00  0.00     0.013 C 
HETATM   15  C28 UNL     1      -9.390  80.930  10.448  1.00  0.00     0.012 C 
HETATM   16  C29 UNL     1      -8.619  81.963  12.465  1.00  0.00     0.122 C 
ENDROOT
BRANCH  13  17
HETATM   17  C26 UNL     1      -9.641  77.361  12.864  1.00  0.00     0.172 C 
BRANCH  17  18
HETATM   18  O4  UNL     1      -9.680  76.156  12.163  1.00  0.00    -0.400 OA
ATOM     19  H4  UNL     1     -10.478  75.677  12.351  1.00  0.00     0.209 HD
ENDBRANCH  17  18
ENDBRANCH  13  17
BRANCH   1  20
HETATM   20  C8  UNL     1     -10.457  82.843  13.721  1.00  0.00     0.091 C 
HETATM   21  C4  UNL     1     -10.709  82.859  15.195  1.00  0.00     0.045 C 
HETATM   22  C5  UNL     1     -10.624  84.307  15.603  1.00  0.00     0.088 C 
HETATM   23  C6  UNL     1      -9.754  84.988  14.561  1.00  0.00     0.246 C 
HETATM   24  F1  UNL     1     -10.207  86.254  14.250  1.00  0.00    -0.206 F 
HETATM   25  F2  UNL     1      -8.461  85.036  15.034  1.00  0.00    -0.206 F 
HETATM   26  C7  UNL     1      -9.834  84.128  13.311  1.00  0.00     0.104 C 
BRANCH  21  27
HETATM   27  C3  UNL     1     -12.066  82.320  15.564  1.00  0.00     0.152 C 
BRANCH  27  28
HETATM   28  C2  UNL     1     -13.042  82.502  14.456  1.00  0.00     0.143 C 
HETATM   29  C1  UNL     1     -14.123  83.500  14.801  1.00  0.00     0.042 C 
BRANCH  28  30
HETATM   30  O1  UNL     1     -13.570  81.341  13.960  1.00  0.00    -0.393 OA
ATOM     31  H1  UNL     1     -13.107  80.579  14.288  1.00  0.00     0.210 HD
ENDBRANCH  28  30
ENDBRANCH  27  28
BRANCH  27  32
HETATM   32  O2  UNL     1     -12.516  83.057  16.676  1.00  0.00    -0.393 OA
ATOM     33  H2  UNL     1     -12.222  82.618  17.464  1.00  0.00     0.210 HD
ENDBRANCH  27  32
ENDBRANCH  21  27
ENDBRANCH   1  20
BRANCH   7  34
HETATM   34  C15 UNL     1      -3.715  78.181  13.463  1.00  0.00    -0.052 C 
HETATM   35  C16 UNL     1      -3.875  78.679  14.704  1.00  0.00    -0.019 C 
HETATM   36  C17 UNL     1      -2.626  78.700  15.547  1.00  0.00     0.028 C 
HETATM   37  C18 UNL     1      -2.145  77.262  15.594  1.00  0.00     0.004 C 
HETATM   38  C19 UNL     1      -1.891  76.745  14.205  1.00  0.00     0.005 C 
HETATM   39  C20 UNL     1      -2.356  77.742  13.140  1.00  0.00     0.039 C 
ENDBRANCH   7  34
TORSDOF 8
ENDMDL
MODEL 5
REMARK VINA RESULT: -8.510570876      5.207      8.327
REMARK  8 active torsions:
REMARK  status: ('A' for Active; 'I' for Inactive)
REMARK    1  A    between atoms: C2_2  and  O1_3 
REMARK    2  A    between atoms: C2_2  and  C3_5 
REMARK    3  A    between atoms: C3_5  and  O2_6 
REMARK    4  A    between atoms: C3_5  and  C4_8 
REMARK    5  A    between atoms: C8_14  and  N1_15 
REMARK    6  A    between atoms: C14_21  and  C15_22 
REMARK    7  A    between atoms: C25_33  and  C26_34 
REMARK    8  A    between atoms: C26_34  and  O4_35 
ROOT
HETATM    1  N1  UNL     1     -12.155  84.424  17.847  1.00  0.00    -0.407 N 
HETATM    2  C9  UNL     1     -12.785  84.309  19.110  1.00  0.00     0.118 C 
HETATM    3  C10 UNL     1     -11.688  84.191  20.159  1.00  0.00     0.035 C 
HETATM    4  C11 UNL     1     -10.708  83.094  19.816  1.00  0.00     0.003 C 
HETATM    5  C12 UNL     1      -9.674  83.073  20.880  1.00  0.00    -0.014 A 
HETATM    6  C13 UNL     1      -9.471  84.119  21.777  1.00  0.00     0.022 A 
HETATM    7  C14 UNL     1      -8.500  84.075  22.750  1.00  0.00    -0.029 A 
HETATM    8  C21 UNL     1      -7.684  82.964  22.862  1.00  0.00     0.014 A 
HETATM    9  C22 UNL     1      -7.881  81.924  21.977  1.00  0.00     0.038 A 
HETATM   10  C23 UNL     1      -8.857  81.959  20.991  1.00  0.00     0.075 A 
HETATM   11  O3  UNL     1      -9.064  80.927  20.103  1.00  0.00    -0.350 OA
HETATM   12  C24 UNL     1     -10.351  80.606  19.703  1.00  0.00     0.183 C 
HETATM   13  C25 UNL     1     -11.343  81.735  19.782  1.00  0.00     0.047 C 
HETATM   14  C27 UNL     1     -10.060  83.521  18.529  1.00  0.00     0.013 C 
HETATM   15  C28 UNL     1     -10.007  82.509  17.438  1.00  0.00     0.012 C 
HETATM   16  C29 UNL     1     -10.775  84.729  17.901  1.00  0.00     0.122 C 
ENDROOT
BRANCH  13  17
HETATM   17  C26 UNL     1     -12.200  81.454  21.004  1.00  0.00     0.172 C 
BRANCH  17  18
HETATM   18  O4  UNL     1     -12.815  80.205  20.908  1.00  0.00    -0.400 OA
ATOM     19  H4  UNL     1     -13.254  80.103  20.072  1.00  0.00     0.209 HD
ENDBRANCH  17  18
ENDBRANCH  13  17
BRANCH   1  20
HETATM   20  C8  UNL     1     -12.876  85.138  16.829  1.00  0.00     0.091 C 
HETATM   21  C4  UNL     1     -13.777  84.298  15.982  1.00  0.00     0.045 C 
HETATM   22  C5  UNL     1     -14.945  85.185  15.633  1.00  0.00     0.088 C 
HETATM   23  C6  UNL     1     -15.018  86.234  16.728  1.00  0.00     0.246 C 
HETATM   24  F1  UNL     1     -15.355  87.478  16.237  1.00  0.00    -0.206 F 
HETATM   25  F2  UNL     1     -15.933  85.818  17.672  1.00  0.00    -0.206 F 
HETATM   26  C7  UNL     1     -13.628  86.316  17.334  1.00  0.00     0.104 C 
BRANCH  21  27
HETATM   27  C3  UNL     1     -13.117  83.829  14.711  1.00  0.00     0.152 C 
BRANCH  27  28
HETATM   28  C2  UNL     1     -12.894  82.359  14.726  1.00  0.00     0.143 C 
HETATM   29  C1  UNL     1     -11.721  81.948  13.865  1.00  0.00     0.042 C 
BRANCH  28  30
HETATM   30  O1  UNL     1     -14.003  81.607  14.455  1.00  0.00    -0.393 OA
ATOM     31  H1  UNL     1     -14.150  80.949  15.124  1.00  0.00     0.210 HD
ENDBRANCH  28  30
ENDBRANCH  27  28
BRANCH  27  32
HETATM   32  O2  UNL     1     -11.864  84.467  14.635  1.00  0.00    -0.393 OA
ATOM     33  H2  UNL     1     -11.371  84.251  15.417  1.00  0.00     0.210 HD
ENDBRANCH  27  32
ENDBRANCH  21  27
ENDBRANCH   1  20
BRANCH   7  34
HETATM   34  C15 UNL     1      -8.340  85.221  23.661  1.00  0.00    -0.052 C 
HETATM   35  C16 UNL     1      -7.304  86.071  23.525  1.00  0.00    -0.019 C 
HETATM   36  C17 UNL     1      -7.269  87.195  24.528  1.00  0.00     0.028 C 
HETATM   37  C18 UNL     1      -8.592  87.919  24.373  1.00  0.00     0.004 C 
HETATM   38  C19 UNL     1      -9.740  86.976  24.608  1.00  0.00     0.005 C 
HETATM   39  C20 UNL     1      -9.259  85.531  24.758  1.00  0.00     0.039 C 
ENDBRANCH   7  34
TORSDOF 8
ENDMDL
