MODEL 1
REMARK VINA RESULT: -7.036870459      0.000      0.000
REMARK  10 active torsions:
REMARK  status: ('A' for Active; 'I' for Inactive)
REMARK    1  A    between atoms: N1_1  and  C1_4 
REMARK    2  A    between atoms: N3_10  and  C3_11 
REMARK    3  A    between atoms: C3_11  and  N4_12 
REMARK    4  A    between atoms: N4_12  and  C4_15 
REMARK    5  A    between atoms: N6_17  and  C5_18 
REMARK    6  A    between atoms: C5_18  and  C6_19 
REMARK    7  A    between atoms: C6_19  and  O3_20 
REMARK    8  A    between atoms: N9_27  and  C9_28 
REMARK    9  A    between atoms: C12_31  and  O4_32 
REMARK   10  A    between atoms: C13_34  and  N10_35 
ROOT
HETATM    1  C4  UNL     1     -32.854   8.897 -26.547  1.00  0.00     0.347 C 
HETATM    2  N5  UNL     1     -33.259  10.034 -27.382  1.00  0.00    -0.124 NA
HETATM    3  N6  UNL     1     -32.897  11.236 -26.814  1.00  0.00    -0.225 NA
HETATM    4  C7  UNL     1     -31.469  11.450 -26.877  1.00  0.00     0.170 C 
HETATM    5  C8  UNL     1     -30.775  10.182 -26.612  1.00  0.00     0.066 A 
HETATM    6  N7  UNL     1     -29.434   9.962 -26.479  1.00  0.00    -0.284 N 
ATOM      7  H7  UNL     1     -28.700  10.666 -26.543  1.00  0.00     0.184 HD
HETATM    8  N8  UNL     1     -29.261   8.670 -26.251  1.00  0.00    -0.015 NA
HETATM    9  N9  UNL     1     -30.438   8.061 -26.235  1.00  0.00    -0.239 N 
HETATM   10  C15 UNL     1     -31.400   8.963 -26.454  1.00  0.00     0.105 A 
ENDROOT
BRANCH   1  11
HETATM   11  N4  UNL     1     -33.396   7.700 -27.090  1.00  0.00    -0.033 N 
ATOM     12  H42 UNL     1     -34.146   7.323 -26.511  1.00  0.00     0.281 HD
ATOM     13  H41 UNL     1     -32.744   6.919 -27.018  1.00  0.00     0.281 HD
BRANCH  11  14
HETATM   14  C3  UNL     1     -33.823   7.922 -28.450  1.00  0.00     0.388 C 
BRANCH  14  15
HETATM   15  N3  UNL     1     -33.065   7.204 -29.421  1.00  0.00    -0.098 N 
HETATM   16  C1  UNL     1     -32.019   7.718 -30.092  1.00  0.00     0.704 A 
HETATM   17  N2  UNL     1     -31.564   6.763 -30.910  1.00  0.00    -0.086 N 
HETATM   18  O1  UNL     1     -32.301   5.708 -30.744  1.00  0.00    -0.165 OA
ATOM     19  H2  UNL     1     -30.775   6.848 -31.551  1.00  0.00     0.214 HD
HETATM   20  C2  UNL     1     -33.213   5.943 -29.855  1.00  0.00     0.405 A 
HETATM   21  O2  UNL     1     -34.076   5.108 -29.485  1.00  0.00    -0.235 OA
BRANCH  16  22
HETATM   22  N1  UNL     1     -31.525   8.926 -29.980  1.00  0.00    -0.233 N 
ATOM     23  H12 UNL     1     -31.314   9.577 -30.736  1.00  0.00     0.174 HD
ATOM     24  H11 UNL     1     -31.279   9.388 -29.104  1.00  0.00     0.174 HD
ENDBRANCH  16  22
ENDBRANCH  14  15
ENDBRANCH  11  14
ENDBRANCH   1  11
BRANCH   3  25
HETATM   25  C5  UNL     1     -33.486  12.285 -27.652  1.00  0.00     0.136 C 
BRANCH  25  26
HETATM   26  C6  UNL     1     -33.993  11.639 -28.924  1.00  0.00     0.180 C 
BRANCH  26  27
HETATM   27  O3  UNL     1     -32.988  11.612 -29.881  1.00  0.00    -0.400 OA
ATOM     28  H3  UNL     1     -33.323  11.263 -30.698  1.00  0.00     0.209 HD
ENDBRANCH  26  27
ENDBRANCH  25  26
ENDBRANCH   3  25
BRANCH   9  29
HETATM   29  C9  UNL     1     -30.676   6.680 -26.027  1.00  0.00     0.057 A 
HETATM   30  C10 UNL     1     -30.567   5.789 -27.069  1.00  0.00     0.034 A 
HETATM   31  C11 UNL     1     -30.789   4.444 -26.915  1.00  0.00     0.041 A 
HETATM   32  C12 UNL     1     -31.145   3.890 -25.668  1.00  0.00     0.098 A 
HETATM   33  C13 UNL     1     -31.256   4.768 -24.623  1.00  0.00     0.138 A 
HETATM   34  C14 UNL     1     -31.023   6.141 -24.813  1.00  0.00     0.070 A 
BRANCH  32  35
HETATM   35  O4  UNL     1     -31.355   2.526 -25.593  1.00  0.00    -0.358 OA
ATOM     36  H4  UNL     1     -30.597   1.957 -25.531  1.00  0.00     0.217 HD
ENDBRANCH  32  35
BRANCH  33  37
HETATM   37  N10 UNL     1     -31.612   4.313 -23.336  1.00  0.00    -0.113 N 
HETATM   38  O5  UNL     1     -32.334   5.096 -22.643  1.00  0.00    -0.532 OA
HETATM   39  O6  UNL     1     -31.266   3.147 -22.784  1.00  0.00    -0.532 OA
ENDBRANCH  33  37
ENDBRANCH   9  29
TORSDOF 10
ENDMDL
MODEL 2
REMARK VINA RESULT: -6.927001921      0.871      1.374
REMARK  10 active torsions:
REMARK  status: ('A' for Active; 'I' for Inactive)
REMARK    1  A    between atoms: N1_1  and  C1_4 
REMARK    2  A    between atoms: N3_10  and  C3_11 
REMARK    3  A    between atoms: C3_11  and  N4_12 
REMARK    4  A    between atoms: N4_12  and  C4_15 
REMARK    5  A    between atoms: N6_17  and  C5_18 
REMARK    6  A    between atoms: C5_18  and  C6_19 
REMARK    7  A    between atoms: C6_19  and  O3_20 
REMARK    8  A    between atoms: N9_27  and  C9_28 
REMARK    9  A    between atoms: C12_31  and  O4_32 
REMARK   10  A    between atoms: C13_34  and  N10_35 
ROOT
HETATM    1  C4  UNL     1     -32.930   8.931 -26.644  1.00  0.00     0.347 C 
HETATM    2  N5  UNL     1     -33.387  10.051 -27.473  1.00  0.00    -0.124 NA
HETATM    3  N6  UNL     1     -33.092  11.266 -26.895  1.00  0.00    -0.225 NA
HETATM    4  C7  UNL     1     -31.678  11.555 -26.946  1.00  0.00     0.170 C 
HETATM    5  C8  UNL     1     -30.919  10.323 -26.686  1.00  0.00     0.066 A 
HETATM    6  N7  UNL     1     -29.570  10.172 -26.545  1.00  0.00    -0.284 N 
ATOM      7  H7  UNL     1     -28.873  10.914 -26.600  1.00  0.00     0.184 HD
HETATM    8  N8  UNL     1     -29.331   8.890 -26.326  1.00  0.00    -0.015 NA
HETATM    9  N9  UNL     1     -30.475   8.220 -26.322  1.00  0.00    -0.239 N 
HETATM   10  C15 UNL     1     -31.481   9.072 -26.541  1.00  0.00     0.105 A 
ENDROOT
BRANCH   1  11
HETATM   11  N4  UNL     1     -33.404   7.711 -27.200  1.00  0.00    -0.033 N 
ATOM     12  H42 UNL     1     -34.150   7.300 -26.637  1.00  0.00     0.281 HD
ATOM     13  H41 UNL     1     -32.720   6.961 -27.113  1.00  0.00     0.281 HD
BRANCH  11  14
HETATM   14  C3  UNL     1     -33.811   7.915 -28.568  1.00  0.00     0.388 C 
BRANCH  14  15
HETATM   15  N3  UNL     1     -32.971   7.273 -29.525  1.00  0.00    -0.098 N 
HETATM   16  C1  UNL     1     -33.142   6.009 -29.951  1.00  0.00     0.704 A 
HETATM   17  N2  UNL     1     -32.174   5.753 -30.837  1.00  0.00    -0.086 N 
HETATM   18  O1  UNL     1     -31.441   6.818 -30.948  1.00  0.00    -0.165 OA
ATOM     19  H2  UNL     1     -32.035   4.875 -31.337  1.00  0.00     0.214 HD
HETATM   20  C2  UNL     1     -31.895   7.749 -30.171  1.00  0.00     0.405 A 
HETATM   21  O2  UNL     1     -31.390   8.895 -30.065  1.00  0.00    -0.235 OA
BRANCH  16  22
HETATM   22  N1  UNL     1     -34.076   5.170 -29.578  1.00  0.00    -0.233 N 
ATOM     23  H12 UNL     1     -34.973   5.004 -30.037  1.00  0.00     0.174 HD
ATOM     24  H11 UNL     1     -34.035   4.558 -28.763  1.00  0.00     0.174 HD
ENDBRANCH  16  22
ENDBRANCH  14  15
ENDBRANCH  11  14
ENDBRANCH   1  11
BRANCH   3  25
HETATM   25  C5  UNL     1     -33.731  12.289 -27.729  1.00  0.00     0.136 C 
BRANCH  25  26
HETATM   26  C6  UNL     1     -32.858  12.512 -28.947  1.00  0.00     0.180 C 
BRANCH  26  27
HETATM   27  O3  UNL     1     -33.067  11.505 -29.877  1.00  0.00    -0.400 OA
ATOM     28  H3  UNL     1     -32.443  11.581 -30.589  1.00  0.00     0.209 HD
ENDBRANCH  26  27
ENDBRANCH  25  26
ENDBRANCH   3  25
BRANCH   9  29
HETATM   29  C9  UNL     1     -30.642   6.827 -26.125  1.00  0.00     0.057 A 
HETATM   30  C10 UNL     1     -30.484   5.951 -27.173  1.00  0.00     0.034 A 
HETATM   31  C11 UNL     1     -30.636   4.595 -27.030  1.00  0.00     0.041 A 
HETATM   32  C12 UNL     1     -30.967   4.013 -25.788  1.00  0.00     0.098 A 
HETATM   33  C13 UNL     1     -31.127   4.876 -24.737  1.00  0.00     0.138 A 
HETATM   34  C14 UNL     1     -30.964   6.261 -24.916  1.00  0.00     0.070 A 
BRANCH  32  35
HETATM   35  O4  UNL     1     -31.106   2.640 -25.725  1.00  0.00    -0.358 OA
ATOM     36  H4  UNL     1     -31.321   2.248 -24.886  1.00  0.00     0.217 HD
ENDBRANCH  32  35
BRANCH  33  37
HETATM   37  N10 UNL     1     -31.462   4.394 -23.455  1.00  0.00    -0.113 N 
HETATM   38  O5  UNL     1     -32.383   5.019 -22.843  1.00  0.00    -0.532 OA
HETATM   39  O6  UNL     1     -30.908   3.350 -22.831  1.00  0.00    -0.532 OA
ENDBRANCH  33  37
ENDBRANCH   9  29
TORSDOF 10
ENDMDL
MODEL 3
REMARK VINA RESULT: -6.665702670      1.278      1.511
REMARK  10 active torsions:
REMARK  status: ('A' for Active; 'I' for Inactive)
REMARK    1  A    between atoms: N1_1  and  C1_4 
REMARK    2  A    between atoms: N3_10  and  C3_11 
REMARK    3  A    between atoms: C3_11  and  N4_12 
REMARK    4  A    between atoms: N4_12  and  C4_15 
REMARK    5  A    between atoms: N6_17  and  C5_18 
REMARK    6  A    between atoms: C5_18  and  C6_19 
REMARK    7  A    between atoms: C6_19  and  O3_20 
REMARK    8  A    between atoms: N9_27  and  C9_28 
REMARK    9  A    between atoms: C12_31  and  O4_32 
REMARK   10  A    between atoms: C13_34  and  N10_35 
ROOT
HETATM    1  C4  UNL     1     -32.811   8.727 -26.979  1.00  0.00     0.347 C 
HETATM    2  N5  UNL     1     -33.303   9.884 -27.735  1.00  0.00    -0.124 NA
HETATM    3  N6  UNL     1     -33.182  11.052 -27.013  1.00  0.00    -0.225 NA
HETATM    4  C7  UNL     1     -31.804  11.470 -26.898  1.00  0.00     0.170 C 
HETATM    5  C8  UNL     1     -30.953  10.290 -26.687  1.00  0.00     0.066 A 
HETATM    6  N7  UNL     1     -29.613  10.247 -26.431  1.00  0.00    -0.284 N 
ATOM      7  H7  UNL     1     -28.991  11.050 -26.344  1.00  0.00     0.184 HD
HETATM    8  N8  UNL     1     -29.268   8.975 -26.317  1.00  0.00    -0.015 NA
HETATM    9  N9  UNL     1     -30.336   8.209 -26.490  1.00  0.00    -0.239 N 
HETATM   10  C15 UNL     1     -31.398   8.986 -26.722  1.00  0.00     0.105 A 
ENDROOT
BRANCH   1  11
HETATM   11  N4  UNL     1     -33.111   7.536 -27.696  1.00  0.00    -0.033 N 
ATOM     12  H42 UNL     1     -34.050   7.194 -27.491  1.00  0.00     0.281 HD
ATOM     13  H41 UNL     1     -32.581   6.738 -27.348  1.00  0.00     0.281 HD
BRANCH  11  14
HETATM   14  C3  UNL     1     -32.908   7.744 -29.108  1.00  0.00     0.388 C 
BRANCH  14  15
HETATM   15  N3  UNL     1     -34.035   7.402 -29.913  1.00  0.00    -0.098 N 
HETATM   16  C1  UNL     1     -34.718   8.281 -30.668  1.00  0.00     0.704 A 
HETATM   17  N2  UNL     1     -35.699   7.605 -31.275  1.00  0.00    -0.086 N 
HETATM   18  O1  UNL     1     -35.618   6.364 -30.907  1.00  0.00    -0.165 OA
ATOM     19  H2  UNL     1     -36.390   7.997 -31.915  1.00  0.00     0.214 HD
HETATM   20  C2  UNL     1     -34.628   6.211 -30.087  1.00  0.00     0.405 A 
HETATM   21  O2  UNL     1     -34.303   5.116 -29.562  1.00  0.00    -0.235 OA
BRANCH  16  22
HETATM   22  N1  UNL     1     -34.481   9.563 -30.796  1.00  0.00    -0.233 N 
ATOM     23  H12 UNL     1     -33.782  10.113 -30.296  1.00  0.00     0.174 HD
ATOM     24  H11 UNL     1     -34.973  10.198 -31.425  1.00  0.00     0.174 HD
ENDBRANCH  16  22
ENDBRANCH  14  15
ENDBRANCH  11  14
ENDBRANCH   1  11
BRANCH   3  25
HETATM   25  C5  UNL     1     -33.844  12.097 -27.801  1.00  0.00     0.136 C 
BRANCH  25  26
HETATM   26  C6  UNL     1     -32.844  12.629 -28.805  1.00  0.00     0.180 C 
BRANCH  26  27
HETATM   27  O3  UNL     1     -32.977  11.963 -30.015  1.00  0.00    -0.400 OA
ATOM     28  H3  UNL     1     -32.268  11.340 -30.126  1.00  0.00     0.209 HD
ENDBRANCH  26  27
ENDBRANCH  25  26
ENDBRANCH   3  25
BRANCH   9  29
HETATM   29  C9  UNL     1     -30.379   6.794 -26.449  1.00  0.00     0.057 A 
HETATM   30  C10 UNL     1     -29.913   6.051 -27.508  1.00  0.00     0.034 A 
HETATM   31  C11 UNL     1     -29.937   4.678 -27.513  1.00  0.00     0.041 A 
HETATM   32  C12 UNL     1     -30.444   3.942 -26.423  1.00  0.00     0.098 A 
HETATM   33  C13 UNL     1     -30.911   4.672 -25.362  1.00  0.00     0.138 A 
HETATM   34  C14 UNL     1     -30.874   6.077 -25.388  1.00  0.00     0.070 A 
BRANCH  32  35
HETATM   35  O4  UNL     1     -30.437   2.563 -26.504  1.00  0.00    -0.358 OA
ATOM     36  H4  UNL     1     -30.067   2.072 -25.779  1.00  0.00     0.217 HD
ENDBRANCH  32  35
BRANCH  33  37
HETATM   37  N10 UNL     1     -31.443   4.029 -24.225  1.00  0.00    -0.113 N 
HETATM   38  O5  UNL     1     -32.396   3.215 -24.433  1.00  0.00    -0.532 OA
HETATM   39  O6  UNL     1     -31.041   4.195 -22.961  1.00  0.00    -0.532 OA
ENDBRANCH  33  37
ENDBRANCH   9  29
TORSDOF 10
ENDMDL
MODEL 4
REMARK VINA RESULT: -6.602964486      3.237      4.914
REMARK  10 active torsions:
REMARK  status: ('A' for Active; 'I' for Inactive)
REMARK    1  A    between atoms: N1_1  and  C1_4 
REMARK    2  A    between atoms: N3_10  and  C3_11 
REMARK    3  A    between atoms: C3_11  and  N4_12 
REMARK    4  A    between atoms: N4_12  and  C4_15 
REMARK    5  A    between atoms: N6_17  and  C5_18 
REMARK    6  A    between atoms: C5_18  and  C6_19 
REMARK    7  A    between atoms: C6_19  and  O3_20 
REMARK    8  A    between atoms: N9_27  and  C9_28 
REMARK    9  A    between atoms: C12_31  and  O4_32 
REMARK   10  A    between atoms: C13_34  and  N10_35 
ROOT
HETATM    1  C4  UNL     1     -33.940   9.000 -24.277  1.00  0.00     0.347 C 
HETATM    2  N5  UNL     1     -34.471  10.265 -23.758  1.00  0.00    -0.124 NA
HETATM    3  N6  UNL     1     -35.466  10.055 -22.828  1.00  0.00    -0.225 NA
HETATM    4  C7  UNL     1     -34.937   9.544 -21.584  1.00  0.00     0.170 C 
HETATM    5  C8  UNL     1     -33.871   8.573 -21.871  1.00  0.00     0.066 A 
HETATM    6  N7  UNL     1     -33.182   7.788 -20.992  1.00  0.00    -0.284 N 
ATOM      7  H7  UNL     1     -33.312   7.759 -19.982  1.00  0.00     0.184 HD
HETATM    8  N8  UNL     1     -32.315   7.072 -21.690  1.00  0.00    -0.015 NA
HETATM    9  N9  UNL     1     -32.426   7.373 -22.976  1.00  0.00    -0.239 N 
HETATM   10  C15 UNL     1     -33.379   8.297 -23.128  1.00  0.00     0.105 A 
ENDROOT
BRANCH   1  11
HETATM   11  N4  UNL     1     -33.043   9.272 -25.347  1.00  0.00    -0.033 N 
ATOM     12  H42 UNL     1     -32.695   8.416 -25.780  1.00  0.00     0.281 HD
ATOM     13  H41 UNL     1     -32.154   9.644 -25.014  1.00  0.00     0.281 HD
BRANCH  11  14
HETATM   14  C3  UNL     1     -33.668  10.148 -26.307  1.00  0.00     0.388 C 
BRANCH  14  15
HETATM   15  N3  UNL     1     -32.905  11.313 -26.612  1.00  0.00    -0.098 N 
HETATM   16  C1  UNL     1     -33.442  12.514 -26.895  1.00  0.00     0.704 A 
HETATM   17  N2  UNL     1     -32.429  13.356 -27.128  1.00  0.00    -0.086 N 
HETATM   18  O1  UNL     1     -31.320  12.697 -26.992  1.00  0.00    -0.165 OA
ATOM     19  H2  UNL     1     -32.515  14.344 -27.369  1.00  0.00     0.214 HD
HETATM   20  C2  UNL     1     -31.574  11.466 -26.683  1.00  0.00     0.405 A 
HETATM   21  O2  UNL     1     -30.697  10.587 -26.488  1.00  0.00    -0.235 OA
BRANCH  16  22
HETATM   22  N1  UNL     1     -34.714  12.819 -26.939  1.00  0.00    -0.233 N 
ATOM     23  H12 UNL     1     -35.124  13.709 -27.225  1.00  0.00     0.174 HD
ATOM     24  H11 UNL     1     -35.483  12.198 -26.687  1.00  0.00     0.174 HD
ENDBRANCH  16  22
ENDBRANCH  14  15
ENDBRANCH  11  14
ENDBRANCH   1  11
BRANCH   3  25
HETATM   25  C5  UNL     1     -36.017  11.375 -22.505  1.00  0.00     0.136 C 
BRANCH  25  26
HETATM   26  C6  UNL     1     -35.217  12.415 -23.260  1.00  0.00     0.180 C 
BRANCH  26  27
HETATM   27  O3  UNL     1     -35.948  12.891 -24.340  1.00  0.00    -0.400 OA
ATOM     28  H3  UNL     1     -36.197  13.795 -24.194  1.00  0.00     0.209 HD
ENDBRANCH  26  27
ENDBRANCH  25  26
ENDBRANCH   3  25
BRANCH   9  29
HETATM   29  C9  UNL     1     -31.671   6.825 -24.043  1.00  0.00     0.057 A 
HETATM   30  C10 UNL     1     -30.800   7.614 -24.757  1.00  0.00     0.034 A 
HETATM   31  C11 UNL     1     -30.050   7.128 -25.799  1.00  0.00     0.041 A 
HETATM   32  C12 UNL     1     -30.128   5.779 -26.202  1.00  0.00     0.098 A 
HETATM   33  C13 UNL     1     -30.992   4.984 -25.498  1.00  0.00     0.138 A 
HETATM   34  C14 UNL     1     -31.747   5.512 -24.436  1.00  0.00     0.070 A 
BRANCH  32  35
HETATM   35  O4  UNL     1     -29.344   5.366 -27.261  1.00  0.00    -0.358 OA
ATOM     36  H4  UNL     1     -29.559   4.543 -27.686  1.00  0.00     0.217 HD
ENDBRANCH  32  35
BRANCH  33  37
HETATM   37  N10 UNL     1     -31.146   3.621 -25.826  1.00  0.00    -0.113 N 
HETATM   38  O5  UNL     1     -32.159   3.035 -25.332  1.00  0.00    -0.532 OA
HETATM   39  O6  UNL     1     -30.334   2.896 -26.601  1.00  0.00    -0.532 OA
ENDBRANCH  33  37
ENDBRANCH   9  29
TORSDOF 10
ENDMDL
MODEL 5
REMARK VINA RESULT: -6.595506426      3.516      4.570
REMARK  10 active torsions:
REMARK  status: ('A' for Active; 'I' for Inactive)
REMARK    1  A    between atoms: N1_1  and  C1_4 
REMARK    2  A    between atoms: N3_10  and  C3_11 
REMARK    3  A    between atoms: C3_11  and  N4_12 
REMARK    4  A    between atoms: N4_12  and  C4_15 
REMARK    5  A    between atoms: N6_17  and  C5_18 
REMARK    6  A    between atoms: C5_18  and  C6_19 
REMARK    7  A    between atoms: C6_19  and  O3_20 
REMARK    8  A    between atoms: N9_27  and  C9_28 
REMARK    9  A    between atoms: C12_31  and  O4_32 
REMARK   10  A    between atoms: C13_34  and  N10_35 
ROOT
HETATM    1  C4  UNL     1     -34.080   8.970 -24.106  1.00  0.00     0.347 C 
HETATM    2  N5  UNL     1     -34.631  10.221 -23.574  1.00  0.00    -0.124 NA
HETATM    3  N6  UNL     1     -35.579   9.986 -22.601  1.00  0.00    -0.225 NA
HETATM    4  C7  UNL     1     -34.983   9.503 -21.377  1.00  0.00     0.170 C 
HETATM    5  C8  UNL     1     -33.899   8.565 -21.701  1.00  0.00     0.066 A 
HETATM    6  N7  UNL     1     -33.148   7.810 -20.847  1.00  0.00    -0.284 N 
ATOM      7  H7  UNL     1     -33.236   7.785 -19.831  1.00  0.00     0.184 HD
HETATM    8  N8  UNL     1     -32.288   7.117 -21.574  1.00  0.00    -0.015 NA
HETATM    9  N9  UNL     1     -32.462   7.402 -22.857  1.00  0.00    -0.239 N 
HETATM   10  C15 UNL     1     -33.450   8.294 -22.976  1.00  0.00     0.105 A 
ENDROOT
BRANCH   1  11
HETATM   11  N4  UNL     1     -33.238   9.261 -25.213  1.00  0.00    -0.033 N 
ATOM     12  H42 UNL     1     -32.298   8.886 -25.087  1.00  0.00     0.281 HD
ATOM     13  H41 UNL     1     -33.000  10.251 -25.261  1.00  0.00     0.281 HD
BRANCH  11  14
HETATM   14  C3  UNL     1     -33.846   8.793 -26.435  1.00  0.00     0.388 C 
BRANCH  14  15
HETATM   15  N3  UNL     1     -32.982   8.838 -27.568  1.00  0.00    -0.098 N 
HETATM   16  C1  UNL     1     -33.029   7.964 -28.588  1.00  0.00     0.704 A 
HETATM   17  N2  UNL     1     -32.077   8.316 -29.458  1.00  0.00    -0.086 N 
HETATM   18  O1  UNL     1     -31.473   9.365 -28.989  1.00  0.00    -0.165 OA
ATOM     19  H2  UNL     1     -31.863   7.844 -30.337  1.00  0.00     0.214 HD
HETATM   20  C2  UNL     1     -31.995   9.702 -27.853  1.00  0.00     0.405 A 
HETATM   21  O2  UNL     1     -31.617  10.680 -27.160  1.00  0.00    -0.235 OA
BRANCH  16  22
HETATM   22  N1  UNL     1     -33.847   6.949 -28.721  1.00  0.00    -0.233 N 
ATOM     23  H12 UNL     1     -33.809   6.217 -29.431  1.00  0.00     0.174 HD
ATOM     24  H11 UNL     1     -34.649   6.750 -28.123  1.00  0.00     0.174 HD
ENDBRANCH  16  22
ENDBRANCH  14  15
ENDBRANCH  11  14
ENDBRANCH   1  11
BRANCH   3  25
HETATM   25  C5  UNL     1     -36.160  11.290 -22.265  1.00  0.00     0.136 C 
BRANCH  25  26
HETATM   26  C6  UNL     1     -36.054  11.477 -20.766  1.00  0.00     0.180 C 
BRANCH  26  27
HETATM   27  O3  UNL     1     -35.626  12.764 -20.472  1.00  0.00    -0.400 OA
ATOM     28  H3  UNL     1     -36.318  13.389 -20.653  1.00  0.00     0.209 HD
ENDBRANCH  26  27
ENDBRANCH  25  26
ENDBRANCH   3  25
BRANCH   9  29
HETATM   29  C9  UNL     1     -31.735   6.871 -23.950  1.00  0.00     0.057 A 
HETATM   30  C10 UNL     1     -30.908   7.678 -24.696  1.00  0.00     0.034 A 
HETATM   31  C11 UNL     1     -30.185   7.208 -25.764  1.00  0.00     0.041 A 
HETATM   32  C12 UNL     1     -30.248   5.857 -26.163  1.00  0.00     0.098 A 
HETATM   33  C13 UNL     1     -31.068   5.044 -25.428  1.00  0.00     0.138 A 
HETATM   34  C14 UNL     1     -31.796   5.556 -24.340  1.00  0.00     0.070 A 
BRANCH  32  35
HETATM   35  O4  UNL     1     -29.493   5.460 -27.251  1.00  0.00    -0.358 OA
ATOM     36  H4  UNL     1     -29.134   4.580 -27.252  1.00  0.00     0.217 HD
ENDBRANCH  32  35
BRANCH  33  37
HETATM   37  N10 UNL     1     -31.204   3.677 -25.751  1.00  0.00    -0.113 N 
HETATM   38  O5  UNL     1     -32.205   3.078 -25.248  1.00  0.00    -0.532 OA
HETATM   39  O6  UNL     1     -30.386   2.962 -26.529  1.00  0.00    -0.532 OA
ENDBRANCH  33  37
ENDBRANCH   9  29
TORSDOF 10
ENDMDL
