MODEL 1
REMARK VINA RESULT: -6.263619998      0.000      0.000
REMARK  1 active torsions:
REMARK  status: ('A' for Active; 'I' for Inactive)
REMARK    1  A    between atoms: C4_6  and  C6_8 
ROOT
HETATM    1  C1  UNL     1      -1.533  -0.584  15.435  1.00  0.00     0.046 C 
HETATM    2  C2  UNL     1      -1.698  -1.914  16.138  1.00  0.00     0.192 A 
HETATM    3  O1  UNL     1      -2.892  -2.622  15.951  1.00  0.00    -0.336 OA
HETATM    4  C3  UNL     1      -2.515  -2.109  17.299  1.00  0.00     0.256 A 
HETATM    5  O2  UNL     1      -3.508  -1.277  17.738  1.00  0.00    -0.329 OA
HETATM    6  C4  UNL     1      -3.539  -1.062  19.087  1.00  0.00     0.115 C 
HETATM    7  C5  UNL     1      -2.202  -0.448  19.487  1.00  0.00     0.054 C 
HETATM    8  C7  UNL     1      -3.806  -2.302  19.900  1.00  0.00     0.061 C 
HETATM    9  C8  UNL     1      -3.038  -3.499  19.431  1.00  0.00     0.022 C 
HETATM   10  C9  UNL     1      -4.000  -4.594  18.961  1.00  0.00     0.023 C 
HETATM   11  C10 UNL     1      -2.185  -4.105  20.544  1.00  0.00     0.023 C 
HETATM   12  C11 UNL     1      -2.179  -3.171  18.261  1.00  0.00     0.199 C 
HETATM   13  O4  UNL     1      -1.159  -3.824  18.117  1.00  0.00    -0.291 OA
ENDROOT
BRANCH   6  14
HETATM   14  C6  UNL     1      -4.626  -0.089  19.385  1.00  0.00     0.269 C 
HETATM   15  O3  UNL     1      -4.846   0.269  20.524  1.00  0.00    -0.304 OA
ENDBRANCH   6  14
TORSDOF 1
ENDMDL
MODEL 2
REMARK VINA RESULT: -5.969360575      3.861      6.139
REMARK  1 active torsions:
REMARK  status: ('A' for Active; 'I' for Inactive)
REMARK    1  A    between atoms: C4_6  and  C6_8 
ROOT
HETATM    1  C1  UNL     1      -2.832  -0.024  18.788  1.00  0.00     0.046 C 
HETATM    2  C2  UNL     1      -3.421   0.703  17.600  1.00  0.00     0.192 A 
HETATM    3  O1  UNL     1      -2.839   1.913  17.204  1.00  0.00    -0.336 OA
HETATM    4  C3  UNL     1      -4.242   1.874  17.705  1.00  0.00     0.256 A 
HETATM    5  O2  UNL     1      -4.336   2.700  18.791  1.00  0.00    -0.329 OA
HETATM    6  C4  UNL     1      -5.601   3.110  19.109  1.00  0.00     0.115 C 
HETATM    7  C5  UNL     1      -6.430   1.864  19.394  1.00  0.00     0.054 C 
HETATM    8  C7  UNL     1      -6.261   3.941  18.041  1.00  0.00     0.061 C 
HETATM    9  C8  UNL     1      -6.059   3.407  16.657  1.00  0.00     0.022 C 
HETATM   10  C9  UNL     1      -5.281   4.416  15.808  1.00  0.00     0.023 C 
HETATM   11  C10 UNL     1      -7.384   3.152  15.941  1.00  0.00     0.023 C 
HETATM   12  C11 UNL     1      -5.247   2.160  16.669  1.00  0.00     0.199 C 
HETATM   13  O4  UNL     1      -5.441   1.358  15.771  1.00  0.00    -0.291 OA
ENDROOT
BRANCH   6  14
HETATM   14  C6  UNL     1      -5.532   3.938  20.343  1.00  0.00     0.269 C 
HETATM   15  O3  UNL     1      -4.702   4.818  20.457  1.00  0.00    -0.304 OA
ENDBRANCH   6  14
TORSDOF 1
ENDMDL
MODEL 3
REMARK VINA RESULT: -5.872527598      7.575      9.131
REMARK  1 active torsions:
REMARK  status: ('A' for Active; 'I' for Inactive)
REMARK    1  A    between atoms: C4_6  and  C6_8 
ROOT
HETATM    1  C1  UNL     1      -8.446   2.972  16.789  1.00  0.00     0.046 C 
HETATM    2  C2  UNL     1      -7.448   3.322  15.706  1.00  0.00     0.192 A 
HETATM    3  O1  UNL     1      -6.114   2.934  15.880  1.00  0.00    -0.336 OA
HETATM    4  C3  UNL     1      -6.484   4.376  15.818  1.00  0.00     0.256 A 
HETATM    5  O2  UNL     1      -6.074   4.977  16.976  1.00  0.00    -0.329 OA
HETATM    6  C4  UNL     1      -5.945   6.337  16.918  1.00  0.00     0.115 C 
HETATM    7  C5  UNL     1      -7.307   6.913  16.547  1.00  0.00     0.054 C 
HETATM    8  C7  UNL     1      -4.898   6.812  15.946  1.00  0.00     0.061 C 
HETATM    9  C8  UNL     1      -4.924   6.086  14.637  1.00  0.00     0.022 C 
HETATM   10  C9  UNL     1      -3.607   5.335  14.422  1.00  0.00     0.023 C 
HETATM   11  C10 UNL     1      -5.090   7.040  13.455  1.00  0.00     0.023 C 
HETATM   12  C11 UNL     1      -5.999   5.058  14.607  1.00  0.00     0.199 C 
HETATM   13  O4  UNL     1      -6.482   4.787  13.520  1.00  0.00    -0.291 OA
ENDROOT
BRANCH   6  14
HETATM   14  C6  UNL     1      -5.562   6.833  18.268  1.00  0.00     0.269 C 
HETATM   15  O3  UNL     1      -5.566   6.089  19.228  1.00  0.00    -0.304 OA
ENDBRANCH   6  14
TORSDOF 1
ENDMDL
MODEL 4
REMARK VINA RESULT: -5.758845336      4.906      7.353
REMARK  1 active torsions:
REMARK  status: ('A' for Active; 'I' for Inactive)
REMARK    1  A    between atoms: C4_6  and  C6_8 
ROOT
HETATM    1  C1  UNL     1      -5.020   0.897  19.678  1.00  0.00     0.046 C 
HETATM    2  C2  UNL     1      -5.029   1.377  18.243  1.00  0.00     0.192 A 
HETATM    3  O1  UNL     1      -3.922   2.096  17.774  1.00  0.00    -0.336 OA
HETATM    4  C3  UNL     1      -5.265   2.737  17.856  1.00  0.00     0.256 A 
HETATM    5  O2  UNL     1      -5.170   3.836  18.665  1.00  0.00    -0.329 OA
HETATM    6  C4  UNL     1      -6.166   4.762  18.517  1.00  0.00     0.115 C 
HETATM    7  C5  UNL     1      -7.488   4.068  18.820  1.00  0.00     0.054 C 
HETATM    8  C7  UNL     1      -6.213   5.396  17.152  1.00  0.00     0.061 C 
HETATM    9  C8  UNL     1      -6.036   4.419  16.031  1.00  0.00     0.022 C 
HETATM   10  C9  UNL     1      -4.768   4.746  15.238  1.00  0.00     0.023 C 
HETATM   11  C10 UNL     1      -7.201   4.460  15.044  1.00  0.00     0.023 C 
HETATM   12  C11 UNL     1      -5.859   3.032  16.542  1.00  0.00     0.199 C 
HETATM   13  O4  UNL     1      -6.230   2.120  15.822  1.00  0.00    -0.291 OA
ENDROOT
BRANCH   6  14
HETATM   14  C6  UNL     1      -5.950   5.849  19.509  1.00  0.00     0.269 C 
HETATM   15  O3  UNL     1      -5.992   5.620  20.701  1.00  0.00    -0.304 OA
ENDBRANCH   6  14
TORSDOF 1
ENDMDL
MODEL 5
REMARK VINA RESULT: -5.757059362      4.783      6.513
REMARK  1 active torsions:
REMARK  status: ('A' for Active; 'I' for Inactive)
REMARK    1  A    between atoms: C4_6  and  C6_8 
ROOT
HETATM    1  C1  UNL     1      -2.569   1.421  17.259  1.00  0.00     0.046 C 
HETATM    2  C2  UNL     1      -3.818   1.928  16.572  1.00  0.00     0.192 A 
HETATM    3  O1  UNL     1      -3.907   3.294  16.275  1.00  0.00    -0.336 OA
HETATM    4  C3  UNL     1      -4.855   2.662  17.235  1.00  0.00     0.256 A 
HETATM    5  O2  UNL     1      -4.746   3.307  18.436  1.00  0.00    -0.329 OA
HETATM    6  C4  UNL     1      -5.809   3.154  19.283  1.00  0.00     0.115 C 
HETATM    7  C5  UNL     1      -5.963   1.663  19.563  1.00  0.00     0.054 C 
HETATM    8  C7  UNL     1      -7.100   3.720  18.754  1.00  0.00     0.061 C 
HETATM    9  C8  UNL     1      -7.344   3.404  17.311  1.00  0.00     0.022 C 
HETATM   10  C9  UNL     1      -7.395   4.694  16.488  1.00  0.00     0.023 C 
HETATM   11  C10 UNL     1      -8.676   2.687  17.097  1.00  0.00     0.023 C 
HETATM   12  C11 UNL     1      -6.238   2.589  16.738  1.00  0.00     0.199 C 
HETATM   13  O4  UNL     1      -6.516   1.838  15.818  1.00  0.00    -0.291 OA
ENDROOT
BRANCH   6  14
HETATM   14  C6  UNL     1      -5.501   3.856  20.558  1.00  0.00     0.269 C 
HETATM   15  O3  UNL     1      -4.736   4.799  20.580  1.00  0.00    -0.304 OA
ENDBRANCH   6  14
TORSDOF 1
ENDMDL
