MODEL 1
REMARK VINA RESULT: -6.032531737      0.000      0.000
REMARK  1 active torsions:
REMARK  status: ('A' for Active; 'I' for Inactive)
REMARK    1  A    between atoms: C2_2  and  C3_4 
ROOT
HETATM    1  C3  UNL     1      -5.801   4.599  14.815  1.00  0.00     0.085 C 
HETATM    2  C4  UNL     1      -6.821   4.650  15.623  1.00  0.00     0.094 C 
HETATM    3  O2  UNL     1      -7.816   5.592  15.398  1.00  0.00    -0.278 OA
HETATM    4  C5  UNL     1      -8.938   5.480  16.207  1.00  0.00     0.298 C 
HETATM    5  O3  UNL     1     -10.100   5.809  15.822  1.00  0.00    -0.261 OA
HETATM    6  C6  UNL     1      -8.780   4.963  17.558  1.00  0.00     0.143 C 
HETATM    7  C7  UNL     1     -10.057   4.183  17.900  1.00  0.00     0.057 C 
HETATM    8  C8  UNL     1      -8.733   6.147  18.507  1.00  0.00     0.057 C 
HETATM    9  O4  UNL     1      -7.694   4.198  17.807  1.00  0.00    -0.354 OA
HETATM   10  C9  UNL     1      -6.951   3.743  16.765  1.00  0.00     0.104 C 
HETATM   11  C10 UNL     1      -5.549   3.485  17.306  1.00  0.00     0.053 C 
HETATM   12  C11 UNL     1      -7.500   2.382  16.368  1.00  0.00     0.053 C 
ENDROOT
BRANCH   1  13
HETATM   13  C2  UNL     1      -5.625   5.477  13.666  1.00  0.00     0.147 C 
HETATM   14  C1  UNL     1      -5.118   6.845  13.742  1.00  0.00     0.096 C 
HETATM   15  O1  UNL     1      -5.930   5.040  12.503  1.00  0.00    -0.294 OA
ENDBRANCH   1  13
TORSDOF 1
ENDMDL
MODEL 2
REMARK VINA RESULT: -5.846741852      1.699      2.989
REMARK  1 active torsions:
REMARK  status: ('A' for Active; 'I' for Inactive)
REMARK    1  A    between atoms: C2_2  and  C3_4 
ROOT
HETATM    1  C3  UNL     1      -5.913   5.852  14.730  1.00  0.00     0.085 C 
HETATM    2  C4  UNL     1      -6.269   4.942  15.591  1.00  0.00     0.094 C 
HETATM    3  O2  UNL     1      -6.053   3.604  15.291  1.00  0.00    -0.278 OA
HETATM    4  C5  UNL     1      -6.317   2.711  16.320  1.00  0.00     0.298 C 
HETATM    5  O3  UNL     1      -5.688   1.621  16.463  1.00  0.00    -0.261 OA
HETATM    6  C6  UNL     1      -7.362   3.037  17.280  1.00  0.00     0.143 C 
HETATM    7  C7  UNL     1      -6.931   2.459  18.635  1.00  0.00     0.057 C 
HETATM    8  C8  UNL     1      -8.618   2.287  16.873  1.00  0.00     0.057 C 
HETATM    9  O4  UNL     1      -7.692   4.339  17.420  1.00  0.00    -0.354 OA
HETATM   10  C9  UNL     1      -6.893   5.289  16.870  1.00  0.00     0.104 C 
HETATM   11  C10 UNL     1      -7.767   6.516  16.635  1.00  0.00     0.053 C 
HETATM   12  C11 UNL     1      -5.874   5.699  17.922  1.00  0.00     0.053 C 
ENDROOT
BRANCH   1  13
HETATM   13  C2  UNL     1      -5.289   5.560  13.446  1.00  0.00     0.147 C 
HETATM   14  C1  UNL     1      -3.881   5.797  13.139  1.00  0.00     0.096 C 
HETATM   15  O1  UNL     1      -6.006   5.062  12.511  1.00  0.00    -0.294 OA
ENDBRANCH   1  13
TORSDOF 1
ENDMDL
MODEL 3
REMARK VINA RESULT: -5.832872588      7.025      8.945
REMARK  1 active torsions:
REMARK  status: ('A' for Active; 'I' for Inactive)
REMARK    1  A    between atoms: C2_2  and  C3_4 
ROOT
HETATM    1  C3  UNL     1      -3.549  -0.354  16.989  1.00  0.00     0.085 C 
HETATM    2  C4  UNL     1      -3.246  -1.327  17.799  1.00  0.00     0.094 C 
HETATM    3  O2  UNL     1      -2.716  -2.500  17.280  1.00  0.00    -0.278 OA
HETATM    4  C5  UNL     1      -2.278  -3.424  18.218  1.00  0.00     0.298 C 
HETATM    5  O3  UNL     1      -1.311  -4.216  18.006  1.00  0.00    -0.261 OA
HETATM    6  C6  UNL     1      -2.955  -3.491  19.505  1.00  0.00     0.143 C 
HETATM    7  C7  UNL     1      -1.901  -3.871  20.555  1.00  0.00     0.057 C 
HETATM    8  C8  UNL     1      -3.942  -4.643  19.452  1.00  0.00     0.057 C 
HETATM    9  O4  UNL     1      -3.630  -2.393  19.909  1.00  0.00    -0.354 OA
HETATM   10  C9  UNL     1      -3.450  -1.222  19.246  1.00  0.00     0.104 C 
HETATM   11  C10 UNL     1      -4.708  -0.391  19.471  1.00  0.00     0.053 C 
HETATM   12  C11 UNL     1      -2.324  -0.470  19.938  1.00  0.00     0.053 C 
ENDROOT
BRANCH   1  13
HETATM   13  C2  UNL     1      -3.366  -0.408  15.545  1.00  0.00     0.147 C 
HETATM   14  C1  UNL     1      -2.069  -0.369  14.875  1.00  0.00     0.096 C 
HETATM   15  O1  UNL     1      -4.399  -0.494  14.794  1.00  0.00    -0.294 OA
ENDBRANCH   1  13
TORSDOF 1
ENDMDL
MODEL 4
REMARK VINA RESULT: -5.776529699      3.070      4.815
REMARK  1 active torsions:
REMARK  status: ('A' for Active; 'I' for Inactive)
REMARK    1  A    between atoms: C2_2  and  C3_4 
ROOT
HETATM    1  C3  UNL     1      -5.385   4.765  15.343  1.00  0.00     0.085 C 
HETATM    2  C4  UNL     1      -5.000   3.652  15.900  1.00  0.00     0.094 C 
HETATM    3  O2  UNL     1      -3.652   3.322  15.894  1.00  0.00    -0.278 OA
HETATM    4  C5  UNL     1      -3.308   2.203  16.640  1.00  0.00     0.298 C 
HETATM    5  O3  UNL     1      -2.185   2.078  17.214  1.00  0.00    -0.261 OA
HETATM    6  C6  UNL     1      -4.275   1.123  16.770  1.00  0.00     0.143 C 
HETATM    7  C7  UNL     1      -4.080   0.503  18.160  1.00  0.00     0.057 C 
HETATM    8  C8  UNL     1      -3.908   0.046  15.764  1.00  0.00     0.057 C 
HETATM    9  O4  UNL     1      -5.577   1.430  16.582  1.00  0.00    -0.354 OA
HETATM   10  C9  UNL     1      -5.951   2.735  16.533  1.00  0.00     0.104 C 
HETATM   11  C10 UNL     1      -7.245   2.791  15.729  1.00  0.00     0.053 C 
HETATM   12  C11 UNL     1      -6.319   3.162  17.945  1.00  0.00     0.053 C 
ENDROOT
BRANCH   1  13
HETATM   13  C2  UNL     1      -4.481   5.711  14.702  1.00  0.00     0.147 C 
HETATM   14  C1  UNL     1      -3.979   5.578  13.337  1.00  0.00     0.096 C 
HETATM   15  O1  UNL     1      -4.087   6.733  15.363  1.00  0.00    -0.294 OA
ENDBRANCH   1  13
TORSDOF 1
ENDMDL
MODEL 5
REMARK VINA RESULT: -5.739190781      2.203      3.306
REMARK  1 active torsions:
REMARK  status: ('A' for Active; 'I' for Inactive)
REMARK    1  A    between atoms: C2_2  and  C3_4 
ROOT
HETATM    1  C3  UNL     1      -5.459   1.930  17.492  1.00  0.00     0.085 C 
HETATM    2  C4  UNL     1      -6.264   2.902  17.173  1.00  0.00     0.094 C 
HETATM    3  O2  UNL     1      -6.094   3.552  15.958  1.00  0.00    -0.278 OA
HETATM    4  C5  UNL     1      -7.082   4.467  15.627  1.00  0.00     0.298 C 
HETATM    5  O3  UNL     1      -7.424   4.709  14.430  1.00  0.00    -0.261 OA
HETATM    6  C6  UNL     1      -7.760   5.186  16.696  1.00  0.00     0.143 C 
HETATM    7  C7  UNL     1      -9.207   5.421  16.241  1.00  0.00     0.057 C 
HETATM    8  C8  UNL     1      -7.119   6.557  16.815  1.00  0.00     0.057 C 
HETATM    9  O4  UNL     1      -7.750   4.623  17.925  1.00  0.00    -0.354 OA
HETATM   10  C9  UNL     1      -7.346   3.333  18.061  1.00  0.00     0.104 C 
HETATM   11  C10 UNL     1      -6.852   3.177  19.494  1.00  0.00     0.053 C 
HETATM   12  C11 UNL     1      -8.579   2.450  17.947  1.00  0.00     0.053 C 
ENDROOT
BRANCH   1  13
HETATM   13  C2  UNL     1      -4.369   1.462  16.646  1.00  0.00     0.147 C 
HETATM   14  C1  UNL     1      -3.004   1.980  16.696  1.00  0.00     0.096 C 
HETATM   15  O1  UNL     1      -4.603   0.537  15.793  1.00  0.00    -0.294 OA
ENDBRANCH   1  13
TORSDOF 1
ENDMDL
