MODEL 1
REMARK VINA RESULT: -7.695295478      0.000      0.000
REMARK  7 active torsions:
REMARK  status: ('A' for Active; 'I' for Inactive)
REMARK    1  A    between atoms: C4_4  and  C5_5 
REMARK    2  A    between atoms: C6_12  and  N3_13 
REMARK       I    between atoms: N3_13  and  C7_15 
REMARK    3  A    between atoms: C7_15  and  C8_17 
REMARK    4  A    between atoms: C10_19  and  C11_20 
REMARK    5  A    between atoms: C12_21  and  S1_22 
REMARK    6  A    between atoms: C14_27  and  O5_28 
REMARK    7  A    between atoms: C16_30  and  O6_31 
ROOT
HETATM    1  C1  UNL     1     -15.350  84.654  15.410  1.00  0.00     0.018 C 
HETATM    2  C2  UNL     1     -15.088  85.120  16.489  1.00  0.00    -0.072 C 
HETATM    3  C3  UNL     1     -14.793  85.698  17.766  1.00  0.00     0.089 A 
HETATM    4  C4  UNL     1     -15.336  86.898  18.195  1.00  0.00     0.081 A 
HETATM    5  N1  UNL     1     -14.858  87.150  19.423  1.00  0.00    -0.299 N 
ATOM      6  H1  UNL     1     -15.084  87.966  19.992  1.00  0.00     0.186 HD
HETATM    7  N2  UNL     1     -14.057  86.178  19.771  1.00  0.00    -0.284 N 
ATOM      8  H2  UNL     1     -13.560  86.124  20.660  1.00  0.00     0.188 HD
HETATM    9  C6  UNL     1     -13.978  85.245  18.776  1.00  0.00     0.143 A 
ENDROOT
BRANCH   4  10
HETATM   10  C5  UNL     1     -16.262  87.745  17.452  1.00  0.00     0.230 C 
HETATM   11 CL1  UNL     1     -15.398  88.897  16.374  1.00  0.00    -0.101 Cl
HETATM   12 CL2  UNL     1     -17.333  88.695  18.479  1.00  0.00    -0.101 Cl
ENDBRANCH   4  10
BRANCH   9  13
HETATM   13  N3  UNL     1     -13.287  84.177  18.795  1.00  0.00    -0.306 N 
HETATM   14  C7  UNL     1     -11.930  84.001  18.509  1.00  0.00     0.260 C 
HETATM   15  O1  UNL     1     -11.081  84.196  19.406  1.00  0.00    -0.267 OA
ATOM     16  H3  UNL     1     -13.794  83.331  19.056  1.00  0.00     0.170 HD
BRANCH  14  17
HETATM   17  C8  UNL     1     -11.490  83.597  17.192  1.00  0.00     0.069 A 
HETATM   18  C9  UNL     1     -11.185  82.272  16.954  1.00  0.00     0.031 A 
HETATM   19  C10 UNL     1     -10.768  81.814  15.705  1.00  0.00    -0.032 A 
HETATM   20  C13 UNL     1     -10.672  82.746  14.702  1.00  0.00     0.051 A 
HETATM   21  C14 UNL     1     -10.981  84.087  14.941  1.00  0.00     0.103 A 
HETATM   22  C16 UNL     1     -11.394  84.528  16.189  1.00  0.00     0.117 A 
BRANCH  19  23
HETATM   23  C11 UNL     1     -10.460  80.396  15.521  1.00  0.00     0.026 C 
HETATM   24  C12 UNL     1      -9.599  79.925  14.651  1.00  0.00     0.134 C 
BRANCH  24  25
HETATM   25  S1  UNL     1      -9.310  78.205  14.520  1.00  0.00     0.126 S 
HETATM   26  O2  UNL     1      -7.832  77.899  14.535  1.00  0.00    -0.592 OA
HETATM   27  O3  UNL     1      -9.897  77.704  13.240  1.00  0.00    -0.592 OA
HETATM   28  O4  UNL     1     -10.038  77.474  15.855  1.00  0.00    -0.592 OA
ENDBRANCH  24  25
ENDBRANCH  19  23
BRANCH  21  29
HETATM   29  O5  UNL     1     -10.879  85.015  13.918  1.00  0.00    -0.353 OA
HETATM   30  C15 UNL     1      -9.588  85.435  13.528  1.00  0.00     0.210 C 
ENDBRANCH  21  29
BRANCH  22  31
HETATM   31  O6  UNL     1     -11.674  85.878  16.320  1.00  0.00    -0.352 OA
HETATM   32  C17 UNL     1     -10.799  86.825  16.898  1.00  0.00     0.210 C 
ENDBRANCH  22  31
ENDBRANCH  14  17
ENDBRANCH   9  13
TORSDOF 7
ENDMDL
MODEL 2
REMARK VINA RESULT: -7.358752892      2.960      3.881
REMARK  7 active torsions:
REMARK  status: ('A' for Active; 'I' for Inactive)
REMARK    1  A    between atoms: C4_4  and  C5_5 
REMARK    2  A    between atoms: C6_12  and  N3_13 
REMARK       I    between atoms: N3_13  and  C7_15 
REMARK    3  A    between atoms: C7_15  and  C8_17 
REMARK    4  A    between atoms: C10_19  and  C11_20 
REMARK    5  A    between atoms: C12_21  and  S1_22 
REMARK    6  A    between atoms: C14_27  and  O5_28 
REMARK    7  A    between atoms: C16_30  and  O6_31 
ROOT
HETATM    1  C1  UNL     1     -14.400  87.385  17.294  1.00  0.00     0.018 C 
HETATM    2  C2  UNL     1     -13.819  86.342  17.449  1.00  0.00    -0.072 C 
HETATM    3  C3  UNL     1     -13.126  85.105  17.663  1.00  0.00     0.089 A 
HETATM    4  C4  UNL     1     -12.792  84.636  18.923  1.00  0.00     0.081 A 
HETATM    5  N1  UNL     1     -12.158  83.464  18.769  1.00  0.00    -0.299 N 
ATOM      6  H1  UNL     1     -11.793  82.883  19.524  1.00  0.00     0.186 HD
HETATM    7  N2  UNL     1     -12.083  83.188  17.494  1.00  0.00    -0.284 N 
ATOM      8  H2  UNL     1     -11.648  82.352  17.104  1.00  0.00     0.188 HD
HETATM    9  C6  UNL     1     -12.671  84.178  16.758  1.00  0.00     0.143 A 
ENDROOT
BRANCH   4  10
HETATM   10  C5  UNL     1     -13.075  85.290  20.195  1.00  0.00     0.230 C 
HETATM   11 CL1  UNL     1     -11.580  85.544  21.163  1.00  0.00    -0.101 Cl
HETATM   12 CL2  UNL     1     -14.211  84.405  21.211  1.00  0.00    -0.101 Cl
ENDBRANCH   4  10
BRANCH   9  13
HETATM   13  N3  UNL     1     -12.770  84.218  15.490  1.00  0.00    -0.306 N 
HETATM   14  C7  UNL     1     -12.770  83.161  14.574  1.00  0.00     0.260 C 
HETATM   15  O1  UNL     1     -13.838  82.560  14.326  1.00  0.00    -0.267 OA
ATOM     16  H3  UNL     1     -12.863  85.149  15.086  1.00  0.00     0.170 HD
BRANCH  14  17
HETATM   17  C8  UNL     1     -11.554  82.751  13.906  1.00  0.00     0.069 A 
HETATM   18  C9  UNL     1     -11.421  81.445  13.479  1.00  0.00     0.031 A 
HETATM   19  C10 UNL     1     -10.282  80.987  12.818  1.00  0.00    -0.032 A 
HETATM   20  C13 UNL     1      -9.281  81.902  12.602  1.00  0.00     0.051 A 
HETATM   21  C14 UNL     1      -9.414  83.223  13.032  1.00  0.00     0.103 A 
HETATM   22  C16 UNL     1     -10.553  83.663  13.690  1.00  0.00     0.117 A 
BRANCH  19  23
HETATM   23  C11 UNL     1     -10.205  79.590  12.393  1.00  0.00     0.026 C 
HETATM   24  C12 UNL     1      -9.520  79.160  11.361  1.00  0.00     0.134 C 
BRANCH  24  25
HETATM   25  S1  UNL     1      -9.500  77.461  10.947  1.00  0.00     0.126 S 
HETATM   26  O2  UNL     1     -10.508  77.152   9.866  1.00  0.00    -0.592 OA
HETATM   27  O3  UNL     1      -9.830  76.655  12.161  1.00  0.00    -0.592 OA
HETATM   28  O4  UNL     1      -7.954  77.104  10.375  1.00  0.00    -0.592 OA
ENDBRANCH  24  25
ENDBRANCH  19  23
BRANCH  21  29
HETATM   29  O5  UNL     1      -8.394  84.133  12.807  1.00  0.00    -0.353 OA
HETATM   30  C15 UNL     1      -7.732  84.091  11.560  1.00  0.00     0.210 C 
ENDBRANCH  21  29
BRANCH  22  31
HETATM   31  O6  UNL     1     -10.584  84.993  14.076  1.00  0.00    -0.352 OA
HETATM   32  C17 UNL     1      -9.752  85.559  15.068  1.00  0.00     0.210 C 
ENDBRANCH  22  31
ENDBRANCH  14  17
ENDBRANCH   9  13
TORSDOF 7
ENDMDL
MODEL 3
REMARK VINA RESULT: -7.356004451      2.698      4.365
REMARK  7 active torsions:
REMARK  status: ('A' for Active; 'I' for Inactive)
REMARK    1  A    between atoms: C4_4  and  C5_5 
REMARK    2  A    between atoms: C6_12  and  N3_13 
REMARK       I    between atoms: N3_13  and  C7_15 
REMARK    3  A    between atoms: C7_15  and  C8_17 
REMARK    4  A    between atoms: C10_19  and  C11_20 
REMARK    5  A    between atoms: C12_21  and  S1_22 
REMARK    6  A    between atoms: C14_27  and  O5_28 
REMARK    7  A    between atoms: C16_30  and  O6_31 
ROOT
HETATM    1  C1  UNL     1     -12.344  86.951  18.025  1.00  0.00     0.018 C 
HETATM    2  C2  UNL     1     -12.662  86.002  17.355  1.00  0.00    -0.072 C 
HETATM    3  C3  UNL     1     -13.068  84.885  16.555  1.00  0.00     0.089 A 
HETATM    4  C4  UNL     1     -14.335  84.770  16.007  1.00  0.00     0.081 A 
HETATM    5  N1  UNL     1     -14.383  83.617  15.323  1.00  0.00    -0.299 N 
ATOM      6  H1  UNL     1     -15.191  83.264  14.811  1.00  0.00     0.186 HD
HETATM    7  N2  UNL     1     -13.224  83.021  15.419  1.00  0.00    -0.284 N 
ATOM      8  H2  UNL     1     -12.993  82.125  14.988  1.00  0.00     0.188 HD
HETATM    9  C6  UNL     1     -12.366  83.767  16.176  1.00  0.00     0.143 A 
ENDROOT
BRANCH   4  10
HETATM   10  C5  UNL     1     -15.428  85.724  16.144  1.00  0.00     0.230 C 
HETATM   11 CL1  UNL     1     -15.954  85.899  17.855  1.00  0.00    -0.101 Cl
HETATM   12 CL2  UNL     1     -16.856  85.306  15.200  1.00  0.00    -0.101 Cl
ENDBRANCH   4  10
BRANCH   9  13
HETATM   13  N3  UNL     1     -11.161  83.472  16.463  1.00  0.00    -0.306 N 
HETATM   14  C7  UNL     1     -10.252  82.690  15.745  1.00  0.00     0.260 C 
HETATM   15  O1  UNL     1      -9.577  83.211  14.830  1.00  0.00    -0.267 OA
ATOM     16  H3  UNL     1     -10.810  83.861  17.338  1.00  0.00     0.170 HD
BRANCH  14  17
HETATM   17  C8  UNL     1     -10.076  81.285  16.042  1.00  0.00     0.069 A 
HETATM   18  C9  UNL     1      -9.983  80.378  15.005  1.00  0.00     0.031 A 
HETATM   19  C10 UNL     1      -9.800  79.012  15.220  1.00  0.00    -0.032 A 
HETATM   20  C13 UNL     1      -9.714  78.597  16.526  1.00  0.00     0.051 A 
HETATM   21  C14 UNL     1      -9.808  79.513  17.576  1.00  0.00     0.103 A 
HETATM   22  C16 UNL     1      -9.991  80.868  17.345  1.00  0.00     0.117 A 
BRANCH  19  23
HETATM   23  C11 UNL     1      -9.709  78.106  14.077  1.00  0.00     0.026 C 
HETATM   24  C12 UNL     1      -9.755  78.480  12.821  1.00  0.00     0.134 C 
BRANCH  24  25
HETATM   25  S1  UNL     1      -9.636  77.304  11.532  1.00  0.00     0.126 S 
HETATM   26  O2  UNL     1      -8.228  77.231  10.991  1.00  0.00    -0.592 OA
HETATM   27  O3  UNL     1     -10.562  77.691  10.426  1.00  0.00    -0.592 OA
HETATM   28  O4  UNL     1     -10.052  75.805  12.185  1.00  0.00    -0.592 OA
ENDBRANCH  24  25
ENDBRANCH  19  23
BRANCH  21  29
HETATM   29  O5  UNL     1      -9.719  79.077  18.887  1.00  0.00    -0.353 OA
HETATM   30  C15 UNL     1      -8.471  78.601  19.345  1.00  0.00     0.210 C 
ENDBRANCH  21  29
BRANCH  22  31
HETATM   31  O6  UNL     1     -10.073  81.691  18.456  1.00  0.00    -0.352 OA
HETATM   32  C17 UNL     1      -8.971  82.341  19.055  1.00  0.00     0.210 C 
ENDBRANCH  22  31
ENDBRANCH  14  17
ENDBRANCH   9  13
TORSDOF 7
ENDMDL
MODEL 4
REMARK VINA RESULT: -7.283657533      1.995      2.450
REMARK  7 active torsions:
REMARK  status: ('A' for Active; 'I' for Inactive)
REMARK    1  A    between atoms: C4_4  and  C5_5 
REMARK    2  A    between atoms: C6_12  and  N3_13 
REMARK       I    between atoms: N3_13  and  C7_15 
REMARK    3  A    between atoms: C7_15  and  C8_17 
REMARK    4  A    between atoms: C10_19  and  C11_20 
REMARK    5  A    between atoms: C12_21  and  S1_22 
REMARK    6  A    between atoms: C14_27  and  O5_28 
REMARK    7  A    between atoms: C16_30  and  O6_31 
ROOT
HETATM    1  C1  UNL     1     -16.470  84.999  15.307  1.00  0.00     0.018 C 
HETATM    2  C2  UNL     1     -15.516  85.232  16.003  1.00  0.00    -0.072 C 
HETATM    3  C3  UNL     1     -14.393  85.534  16.840  1.00  0.00     0.089 A 
HETATM    4  C4  UNL     1     -14.337  86.655  17.652  1.00  0.00     0.081 A 
HETATM    5  N1  UNL     1     -13.160  86.637  18.296  1.00  0.00    -0.299 N 
ATOM      6  H1  UNL     1     -12.838  87.338  18.964  1.00  0.00     0.186 HD
HETATM    7  N2  UNL     1     -12.494  85.575  17.928  1.00  0.00    -0.284 N 
ATOM      8  H2  UNL     1     -11.567  85.322  18.270  1.00  0.00     0.188 HD
HETATM    9  C6  UNL     1     -13.215  84.851  17.021  1.00  0.00     0.143 A 
ENDROOT
BRANCH   4  10
HETATM   10  C5  UNL     1     -15.366  87.678  17.789  1.00  0.00     0.230 C 
HETATM   11 CL1  UNL     1     -15.366  88.819  16.398  1.00  0.00    -0.101 Cl
HETATM   12 CL2  UNL     1     -15.215  88.644  19.256  1.00  0.00    -0.101 Cl
ENDBRANCH   4  10
BRANCH   9  13
HETATM   13  N3  UNL     1     -12.855  83.764  16.466  1.00  0.00    -0.306 N 
HETATM   14  C7  UNL     1     -11.589  83.172  16.427  1.00  0.00     0.260 C 
HETATM   15  O1  UNL     1     -11.218  82.446  17.376  1.00  0.00    -0.267 OA
ATOM     16  H3  UNL     1     -13.593  83.252  15.982  1.00  0.00     0.170 HD
BRANCH  14  17
HETATM   17  C8  UNL     1     -10.698  83.386  15.308  1.00  0.00     0.069 A 
HETATM   18  C9  UNL     1     -10.562  82.401  14.350  1.00  0.00     0.031 A 
HETATM   19  C10 UNL     1      -9.731  82.548  13.240  1.00  0.00    -0.032 A 
HETATM   20  C13 UNL     1      -9.042  83.730  13.133  1.00  0.00     0.051 A 
HETATM   21  C14 UNL     1      -9.178  84.727  14.101  1.00  0.00     0.103 A 
HETATM   22  C16 UNL     1     -10.008  84.567  15.200  1.00  0.00     0.117 A 
BRANCH  19  23
HETATM   23  C11 UNL     1      -9.633  81.464  12.262  1.00  0.00     0.026 C 
HETATM   24  C12 UNL     1      -8.915  80.379  12.419  1.00  0.00     0.134 C 
BRANCH  24  25
HETATM   25  S1  UNL     1      -8.875  79.146  11.179  1.00  0.00     0.126 S 
HETATM   26  O2  UNL     1      -8.113  77.929  11.646  1.00  0.00    -0.592 OA
HETATM   27  O3  UNL     1      -8.208  79.697   9.960  1.00  0.00    -0.592 OA
HETATM   28  O4  UNL     1     -10.472  78.708  10.859  1.00  0.00    -0.592 OA
ENDBRANCH  24  25
ENDBRANCH  19  23
BRANCH  21  29
HETATM   29  O5  UNL     1      -8.476  85.914  13.977  1.00  0.00    -0.353 OA
HETATM   30  C15 UNL     1      -8.761  86.742  12.869  1.00  0.00     0.210 C 
ENDBRANCH  21  29
BRANCH  22  31
HETATM   31  O6  UNL     1     -10.071  85.615  16.102  1.00  0.00    -0.352 OA
HETATM   32  C17 UNL     1      -9.214  85.767  17.215  1.00  0.00     0.210 C 
ENDBRANCH  22  31
ENDBRANCH  14  17
ENDBRANCH   9  13
TORSDOF 7
ENDMDL
MODEL 5
REMARK VINA RESULT: -7.244099022      3.415      5.699
REMARK  7 active torsions:
REMARK  status: ('A' for Active; 'I' for Inactive)
REMARK    1  A    between atoms: C4_4  and  C5_5 
REMARK    2  A    between atoms: C6_12  and  N3_13 
REMARK       I    between atoms: N3_13  and  C7_15 
REMARK    3  A    between atoms: C7_15  and  C8_17 
REMARK    4  A    between atoms: C10_19  and  C11_20 
REMARK    5  A    between atoms: C12_21  and  S1_22 
REMARK    6  A    between atoms: C14_27  and  O5_28 
REMARK    7  A    between atoms: C16_30  and  O6_31 
ROOT
HETATM    1  C1  UNL     1      -9.341  85.944  13.724  1.00  0.00     0.018 C 
HETATM    2  C2  UNL     1     -10.202  85.300  14.265  1.00  0.00    -0.072 C 
HETATM    3  C3  UNL     1     -11.228  84.553  14.930  1.00  0.00     0.089 A 
HETATM    4  C4  UNL     1     -11.830  84.978  16.104  1.00  0.00     0.081 A 
HETATM    5  N1  UNL     1     -12.739  84.056  16.456  1.00  0.00    -0.299 N 
ATOM      6  H1  UNL     1     -13.339  84.098  17.279  1.00  0.00     0.186 HD
HETATM    7  N2  UNL     1     -12.730  83.094  15.570  1.00  0.00    -0.284 N 
ATOM      8  H2  UNL     1     -13.328  82.269  15.602  1.00  0.00     0.188 HD
HETATM    9  C6  UNL     1     -11.806  83.352  14.597  1.00  0.00     0.143 A 
ENDROOT
BRANCH   4  10
HETATM   10  C5  UNL     1     -11.536  86.205  16.834  1.00  0.00     0.230 C 
HETATM   11 CL1  UNL     1     -10.051  86.046  17.837  1.00  0.00    -0.101 Cl
HETATM   12 CL2  UNL     1     -12.837  86.721  17.905  1.00  0.00    -0.101 Cl
ENDBRANCH   4  10
BRANCH   9  13
HETATM   13  N3  UNL     1     -11.547  82.619  13.590  1.00  0.00    -0.306 N 
HETATM   14  C7  UNL     1     -11.851  81.271  13.381  1.00  0.00     0.260 C 
HETATM   15  O1  UNL     1     -12.973  80.955  12.928  1.00  0.00    -0.267 OA
ATOM     16  H3  UNL     1     -11.048  83.079  12.829  1.00  0.00     0.170 HD
BRANCH  14  17
HETATM   17  C8  UNL     1     -10.890  80.232  13.680  1.00  0.00     0.069 A 
HETATM   18  C9  UNL     1     -10.605  79.928  14.996  1.00  0.00     0.031 A 
HETATM   19  C10 UNL     1      -9.699  78.930  15.354  1.00  0.00    -0.032 A 
HETATM   20  C13 UNL     1      -9.092  78.248  14.329  1.00  0.00     0.051 A 
HETATM   21  C14 UNL     1      -9.380  78.553  12.998  1.00  0.00     0.103 A 
HETATM   22  C16 UNL     1     -10.282  79.549  12.657  1.00  0.00     0.117 A 
BRANCH  19  23
HETATM   23  C11 UNL     1      -9.443  78.660  16.768  1.00  0.00     0.026 C 
HETATM   24  C12 UNL     1      -8.537  79.271  17.493  1.00  0.00     0.134 C 
BRANCH  24  25
HETATM   25  S1  UNL     1      -8.319  78.864  19.180  1.00  0.00     0.126 S 
HETATM   26  O2  UNL     1      -7.556  77.571  19.334  1.00  0.00    -0.592 OA
HETATM   27  O3  UNL     1      -9.658  78.718  19.827  1.00  0.00    -0.592 OA
HETATM   28  O4  UNL     1      -7.431  80.114  19.884  1.00  0.00    -0.592 OA
ENDBRANCH  24  25
ENDBRANCH  19  23
BRANCH  21  29
HETATM   29  O5  UNL     1      -8.758  77.855  11.976  1.00  0.00    -0.353 OA
HETATM   30  C15 UNL     1      -7.438  78.220  11.630  1.00  0.00     0.210 C 
ENDBRANCH  21  29
BRANCH  22  31
HETATM   31  O6  UNL     1     -10.495  79.774  11.308  1.00  0.00    -0.352 OA
HETATM   32  C17 UNL     1      -9.702  80.621  10.502  1.00  0.00     0.210 C 
ENDBRANCH  22  31
ENDBRANCH  14  17
ENDBRANCH   9  13
TORSDOF 7
ENDMDL
