MODEL 1
REMARK VINA RESULT: -8.075661011      0.000      0.000
REMARK  7 active torsions:
REMARK  status: ('A' for Active; 'I' for Inactive)
REMARK    1  A    between atoms: C2_2  and  C3_3 
REMARK    2  A    between atoms: C3_3  and  O1_5 
REMARK    3  A    between atoms: C3_3  and  C5_7 
REMARK    4  A    between atoms: C7_9  and  C8_10 
REMARK    5  A    between atoms: C10_14  and  N2_15 
REMARK    6  A    between atoms: N2_15  and  C11_17 
REMARK    7  A    between atoms: C11_17  and  C12_18 
ROOT
HETATM    1  C8  UNL     1       6.349  54.682   1.582  1.00  0.00     0.031 A 
HETATM    2  C9  UNL     1       6.218  53.580   0.767  1.00  0.00     0.121 A 
HETATM    3  N1  UNL     1       6.643  52.388   1.229  1.00  0.00    -0.201 N 
ATOM      4  H1  UNL     1       6.548  51.568   0.629  1.00  0.00     0.183 HD
HETATM    5  C10 UNL     1       7.193  52.235   2.461  1.00  0.00     0.678 A 
HETATM    6  N4  UNL     1       7.305  53.316   3.220  1.00  0.00    -0.195 N 
ATOM      7  H4  UNL     1       7.719  53.204   4.145  1.00  0.00     0.184 HD
HETATM    8  C15 UNL     1       6.908  54.563   2.852  1.00  0.00     0.036 A 
HETATM    9  C16 UNL     1       7.109  55.728   3.736  1.00  0.00     0.070 C 
ENDROOT
BRANCH   1  10
HETATM   10  C7  UNL     1       5.977  56.049   1.210  1.00  0.00     0.063 A 
HETATM   11  C6  UNL     1       6.724  56.974   0.521  1.00  0.00     0.061 A 
HETATM   12  C5  UNL     1       5.974  58.156   0.513  1.00  0.00     0.064 A 
HETATM   13  N6  UNL     1       4.828  57.943   1.168  1.00  0.00    -0.297 N 
HETATM   14  N5  UNL     1       4.850  56.698   1.573  1.00  0.00    -0.298 N 
HETATM   15  C17 UNL     1       3.738  58.910   1.361  1.00  0.00     0.177 C 
ATOM     16  H5  UNL     1       4.096  56.264   2.105  1.00  0.00     0.187 HD
BRANCH  12  17
HETATM   17  C3  UNL     1       6.452  59.415  -0.078  1.00  0.00     0.097 C 
HETATM   18  C4  UNL     1       5.949  60.581   0.790  1.00  0.00     0.053 C 
BRANCH  17  19
HETATM   19  C2  UNL     1       7.948  59.511  -0.134  1.00  0.00     0.039 C 
HETATM   20  C1  UNL     1       8.413  59.261  -1.551  1.00  0.00     0.008 C 
ENDBRANCH  17  19
BRANCH  17  21
HETATM   21  O1  UNL     1       5.888  59.661  -1.343  1.00  0.00    -0.384 OA
ATOM     22  H1  UNL     1       5.017  59.286  -1.403  1.00  0.00     0.211 HD
ENDBRANCH  17  21
ENDBRANCH  12  17
ENDBRANCH   1  10
BRANCH   5  23
HETATM   23  N2  UNL     1       7.562  51.035   2.849  1.00  0.00    -0.221 N 
ATOM     24  H2  UNL     1       8.203  50.897   3.630  1.00  0.00     0.178 HD
BRANCH  23  25
HETATM   25  C11 UNL     1       7.011  49.923   2.110  1.00  0.00     0.189 C 
BRANCH  25  26
HETATM   26  C12 UNL     1       5.777  49.459   2.844  1.00  0.00     0.058 A 
HETATM   27  S1  UNL     1       5.567  48.559   4.274  1.00  0.00    -0.083 SA
HETATM   28  C13 UNL     1       3.859  48.504   4.298  1.00  0.00     0.141 A 
HETATM   29  N3  UNL     1       3.543  49.181   3.201  1.00  0.00    -0.336 N 
HETATM   30  C14 UNL     1       4.484  49.670   2.454  1.00  0.00     0.203 A 
ATOM     31  H3  UNL     1       2.565  49.316   2.947  1.00  0.00     0.168 HD
HETATM   32  F1  UNL     1       4.196  50.383   1.300  1.00  0.00    -0.185 F 
ENDBRANCH  25  26
ENDBRANCH  23  25
ENDBRANCH   5  23
TORSDOF 7
ENDMDL
MODEL 2
REMARK VINA RESULT: -7.811929434      6.246      9.717
REMARK  7 active torsions:
REMARK  status: ('A' for Active; 'I' for Inactive)
REMARK    1  A    between atoms: C2_2  and  C3_3 
REMARK    2  A    between atoms: C3_3  and  O1_5 
REMARK    3  A    between atoms: C3_3  and  C5_7 
REMARK    4  A    between atoms: C7_9  and  C8_10 
REMARK    5  A    between atoms: C10_14  and  N2_15 
REMARK    6  A    between atoms: N2_15  and  C11_17 
REMARK    7  A    between atoms: C11_17  and  C12_18 
ROOT
HETATM    1  C8  UNL     1       8.687  57.685  -1.028  1.00  0.00     0.031 A 
HETATM    2  C9  UNL     1       9.694  56.986  -1.655  1.00  0.00     0.121 A 
HETATM    3  N1  UNL     1      10.560  57.668  -2.431  1.00  0.00    -0.201 N 
ATOM      4  H1  UNL     1      11.308  57.155  -2.897  1.00  0.00     0.183 HD
HETATM    5  C10 UNL     1      10.474  59.010  -2.616  1.00  0.00     0.678 A 
HETATM    6  N4  UNL     1       9.493  59.652  -1.999  1.00  0.00    -0.195 N 
ATOM      7  H4  UNL     1       9.426  60.660  -2.137  1.00  0.00     0.184 HD
HETATM    8  C15 UNL     1       8.569  59.063  -1.196  1.00  0.00     0.036 A 
HETATM    9  C16 UNL     1       7.475  59.839  -0.579  1.00  0.00     0.070 C 
ENDROOT
BRANCH   1  10
HETATM   10  C7  UNL     1       7.645  57.085  -0.192  1.00  0.00     0.063 A 
HETATM   11  C6  UNL     1       7.725  55.952   0.581  1.00  0.00     0.061 A 
HETATM   12  C5  UNL     1       6.442  55.739   1.098  1.00  0.00     0.064 A 
HETATM   13  N6  UNL     1       5.633  56.705   0.654  1.00  0.00    -0.297 N 
HETATM   14  N5  UNL     1       6.359  57.486  -0.105  1.00  0.00    -0.298 N 
HETATM   15  C17 UNL     1       4.211  56.878   0.988  1.00  0.00     0.177 C 
ATOM     16  H5  UNL     1       5.992  58.310  -0.582  1.00  0.00     0.187 HD
BRANCH  12  17
HETATM   17  C3  UNL     1       6.088  54.582   1.936  1.00  0.00     0.097 C 
HETATM   18  C4  UNL     1       5.995  53.339   1.034  1.00  0.00     0.053 C 
BRANCH  17  19
HETATM   19  C2  UNL     1       7.105  54.289   2.999  1.00  0.00     0.039 C 
HETATM   20  C1  UNL     1       7.126  55.424   3.999  1.00  0.00     0.008 C 
ENDBRANCH  17  19
BRANCH  17  21
HETATM   21  O1  UNL     1       4.803  54.699   2.494  1.00  0.00    -0.384 OA
ATOM     22  H1  UNL     1       4.833  54.591   3.438  1.00  0.00     0.211 HD
ENDBRANCH  17  21
ENDBRANCH  12  17
ENDBRANCH   1  10
BRANCH   5  23
HETATM   23  N2  UNL     1      11.371  59.607  -3.369  1.00  0.00    -0.221 N 
ATOM     24  H2  UNL     1      11.391  60.622  -3.478  1.00  0.00     0.178 HD
BRANCH  23  25
HETATM   25  C11 UNL     1      12.326  58.750  -4.033  1.00  0.00     0.189 C 
BRANCH  25  26
HETATM   26  C12 UNL     1      13.644  59.482  -4.067  1.00  0.00     0.058 A 
HETATM   27  S1  UNL     1      14.445  60.342  -5.299  1.00  0.00    -0.083 SA
HETATM   28  C13 UNL     1      15.854  60.779  -4.437  1.00  0.00     0.141 A 
HETATM   29  N3  UNL     1      15.631  60.238  -3.246  1.00  0.00    -0.336 N 
HETATM   30  C14 UNL     1      14.533  59.583  -3.033  1.00  0.00     0.203 A 
ATOM     31  H3  UNL     1      16.321  60.337  -2.501  1.00  0.00     0.168 HD
HETATM   32  F1  UNL     1      14.263  59.002  -1.803  1.00  0.00    -0.185 F 
ENDBRANCH  25  26
ENDBRANCH  23  25
ENDBRANCH   5  23
TORSDOF 7
ENDMDL
MODEL 3
REMARK VINA RESULT: -7.730058816      2.535      3.459
REMARK  7 active torsions:
REMARK  status: ('A' for Active; 'I' for Inactive)
REMARK    1  A    between atoms: C2_2  and  C3_3 
REMARK    2  A    between atoms: C3_3  and  O1_5 
REMARK    3  A    between atoms: C3_3  and  C5_7 
REMARK    4  A    between atoms: C7_9  and  C8_10 
REMARK    5  A    between atoms: C10_14  and  N2_15 
REMARK    6  A    between atoms: N2_15  and  C11_17 
REMARK    7  A    between atoms: C11_17  and  C12_18 
ROOT
HETATM    1  C8  UNL     1       6.437  54.586   1.389  1.00  0.00     0.031 A 
HETATM    2  C9  UNL     1       6.324  53.530   0.513  1.00  0.00     0.121 A 
HETATM    3  N1  UNL     1       6.789  52.325   0.899  1.00  0.00    -0.201 N 
ATOM      4  H1  UNL     1       6.707  51.539   0.254  1.00  0.00     0.183 HD
HETATM    5  C10 UNL     1       7.362  52.118   2.112  1.00  0.00     0.678 A 
HETATM    6  N4  UNL     1       7.455  53.155   2.931  1.00  0.00    -0.195 N 
ATOM      7  H4  UNL     1       7.886  53.003   3.842  1.00  0.00     0.184 HD
HETATM    8  C15 UNL     1       7.019  54.410   2.641  1.00  0.00     0.036 A 
HETATM    9  C16 UNL     1       7.201  55.527   3.589  1.00  0.00     0.070 C 
ENDROOT
BRANCH   1  10
HETATM   10  C7  UNL     1       6.023  55.961   1.102  1.00  0.00     0.063 A 
HETATM   11  C6  UNL     1       6.719  56.935   0.428  1.00  0.00     0.061 A 
HETATM   12  C5  UNL     1       5.947  58.099   0.511  1.00  0.00     0.064 A 
HETATM   13  N6  UNL     1       4.836  57.830   1.204  1.00  0.00    -0.297 N 
HETATM   14  N5  UNL     1       4.900  56.567   1.545  1.00  0.00    -0.298 N 
HETATM   15  C17 UNL     1       3.737  58.763   1.492  1.00  0.00     0.177 C 
ATOM     16  H5  UNL     1       4.179  56.091   2.087  1.00  0.00     0.187 HD
BRANCH  12  17
HETATM   17  C3  UNL     1       6.373  59.396  -0.037  1.00  0.00     0.097 C 
HETATM   18  C4  UNL     1       5.832  60.511   0.875  1.00  0.00     0.053 C 
BRANCH  17  19
HETATM   19  C2  UNL     1       7.864  59.550  -0.097  1.00  0.00     0.039 C 
HETATM   20  C1  UNL     1       8.344  59.238  -1.498  1.00  0.00     0.008 C 
ENDBRANCH  17  19
BRANCH  17  21
HETATM   21  O1  UNL     1       5.793  59.665  -1.289  1.00  0.00    -0.384 OA
ATOM     22  H1  UNL     1       6.197  59.138  -1.969  1.00  0.00     0.211 HD
ENDBRANCH  17  21
ENDBRANCH  12  17
ENDBRANCH   1  10
BRANCH   5  23
HETATM   23  N2  UNL     1       7.769  50.908   2.425  1.00  0.00    -0.221 N 
ATOM     24  H2  UNL     1       7.112  50.145   2.585  1.00  0.00     0.178 HD
BRANCH  23  25
HETATM   25  C11 UNL     1       9.197  50.718   2.529  1.00  0.00     0.189 C 
BRANCH  25  26
HETATM   26  C12 UNL     1       9.767  50.790   1.134  1.00  0.00     0.058 A 
HETATM   27  S1  UNL     1       9.941  49.622  -0.092  1.00  0.00    -0.083 SA
HETATM   28  C13 UNL     1      10.700  50.596  -1.273  1.00  0.00     0.141 A 
HETATM   29  N3  UNL     1      10.779  51.769  -0.658  1.00  0.00    -0.336 N 
HETATM   30  C14 UNL     1      10.319  51.895   0.548  1.00  0.00     0.203 A 
ATOM     31  H3  UNL     1      11.199  52.569  -1.132  1.00  0.00     0.168 HD
HETATM   32  F1  UNL     1      10.384  53.103   1.226  1.00  0.00    -0.185 F 
ENDBRANCH  25  26
ENDBRANCH  23  25
ENDBRANCH   5  23
TORSDOF 7
ENDMDL
MODEL 4
REMARK VINA RESULT: -7.689787288      4.442      8.358
REMARK  7 active torsions:
REMARK  status: ('A' for Active; 'I' for Inactive)
REMARK    1  A    between atoms: C2_2  and  C3_3 
REMARK    2  A    between atoms: C3_3  and  O1_5 
REMARK    3  A    between atoms: C3_3  and  C5_7 
REMARK    4  A    between atoms: C7_9  and  C8_10 
REMARK    5  A    between atoms: C10_14  and  N2_15 
REMARK    6  A    between atoms: N2_15  and  C11_17 
REMARK    7  A    between atoms: C11_17  and  C12_18 
ROOT
HETATM    1  C8  UNL     1       7.309  53.872   2.043  1.00  0.00     0.031 A 
HETATM    2  C9  UNL     1       7.392  54.859   3.001  1.00  0.00     0.121 A 
HETATM    3  N1  UNL     1       6.599  55.941   2.876  1.00  0.00    -0.201 N 
ATOM      4  H1  UNL     1       6.657  56.675   3.582  1.00  0.00     0.183 HD
HETATM    5  C10 UNL     1       5.727  56.093   1.846  1.00  0.00     0.678 A 
HETATM    6  N4  UNL     1       5.672  55.125   0.942  1.00  0.00    -0.195 N 
ATOM      7  H4  UNL     1       5.019  55.237   0.167  1.00  0.00     0.184 HD
HETATM    8  C15 UNL     1       6.425  53.994   0.974  1.00  0.00     0.036 A 
HETATM    9  C16 UNL     1       6.341  52.981  -0.097  1.00  0.00     0.070 C 
ENDROOT
BRANCH   1  10
HETATM   10  C7  UNL     1       8.131  52.661   2.014  1.00  0.00     0.063 A 
HETATM   11  C6  UNL     1       9.342  52.471   1.392  1.00  0.00     0.061 A 
HETATM   12  C5  UNL     1       9.666  51.121   1.567  1.00  0.00     0.064 A 
HETATM   13  N6  UNL     1       8.691  50.531   2.265  1.00  0.00    -0.297 N 
HETATM   14  N5  UNL     1       7.796  51.454   2.517  1.00  0.00    -0.298 N 
HETATM   15  C17 UNL     1       8.652  49.128   2.700  1.00  0.00     0.177 C 
ATOM     16  H5  UNL     1       6.936  51.279   3.038  1.00  0.00     0.187 HD
BRANCH  12  17
HETATM   17  C3  UNL     1      10.867  50.495   0.993  1.00  0.00     0.097 C 
HETATM   18  C4  UNL     1      10.470  49.789  -0.315  1.00  0.00     0.053 C 
BRANCH  17  19
HETATM   19  C2  UNL     1      11.945  51.483   0.659  1.00  0.00     0.039 C 
HETATM   20  C1  UNL     1      13.261  51.001   1.230  1.00  0.00     0.008 C 
ENDBRANCH  17  19
BRANCH  17  21
HETATM   21  O1  UNL     1      11.370  49.461   1.802  1.00  0.00    -0.384 OA
ATOM     22  H1  UNL     1      10.945  49.460   2.651  1.00  0.00     0.211 HD
ENDBRANCH  17  21
ENDBRANCH  12  17
ENDBRANCH   1  10
BRANCH   5  23
HETATM   23  N2  UNL     1       4.970  57.166   1.806  1.00  0.00    -0.221 N 
ATOM     24  H2  UNL     1       4.554  57.562   2.650  1.00  0.00     0.178 HD
BRANCH  23  25
HETATM   25  C11 UNL     1       4.759  57.756   0.505  1.00  0.00     0.189 C 
BRANCH  25  26
HETATM   26  C12 UNL     1       6.065  58.373   0.070  1.00  0.00     0.058 A 
HETATM   27  S1  UNL     1       7.478  57.705  -0.607  1.00  0.00    -0.083 SA
HETATM   28  C13 UNL     1       8.407  59.133  -0.731  1.00  0.00     0.141 A 
HETATM   29  N3  UNL     1       7.579  60.048  -0.244  1.00  0.00    -0.336 N 
HETATM   30  C14 UNL     1       6.400  59.695   0.164  1.00  0.00     0.203 A 
ATOM     31  H3  UNL     1       7.869  61.025  -0.191  1.00  0.00     0.168 HD
HETATM   32  F1  UNL     1       5.505  60.620   0.681  1.00  0.00    -0.185 F 
ENDBRANCH  25  26
ENDBRANCH  23  25
ENDBRANCH   5  23
TORSDOF 7
ENDMDL
MODEL 5
REMARK VINA RESULT: -7.674040263      6.108      9.351
REMARK  7 active torsions:
REMARK  status: ('A' for Active; 'I' for Inactive)
REMARK    1  A    between atoms: C2_2  and  C3_3 
REMARK    2  A    between atoms: C3_3  and  O1_5 
REMARK    3  A    between atoms: C3_3  and  C5_7 
REMARK    4  A    between atoms: C7_9  and  C8_10 
REMARK    5  A    between atoms: C10_14  and  N2_15 
REMARK    6  A    between atoms: N2_15  and  C11_17 
REMARK    7  A    between atoms: C11_17  and  C12_18 
ROOT
HETATM    1  C8  UNL     1       8.766  57.543  -1.090  1.00  0.00     0.031 A 
HETATM    2  C9  UNL     1       9.740  56.785  -1.700  1.00  0.00     0.121 A 
HETATM    3  N1  UNL     1      10.621  57.406  -2.509  1.00  0.00    -0.201 N 
ATOM      4  H1  UNL     1      11.345  56.849  -2.963  1.00  0.00     0.183 HD
HETATM    5  C10 UNL     1      10.583  58.743  -2.742  1.00  0.00     0.678 A 
HETATM    6  N4  UNL     1       9.633  59.443  -2.139  1.00  0.00    -0.195 N 
ATOM      7  H4  UNL     1       9.601  60.447  -2.313  1.00  0.00     0.184 HD
HETATM    8  C15 UNL     1       8.696  58.917  -1.306  1.00  0.00     0.036 A 
HETATM    9  C16 UNL     1       7.639  59.755  -0.708  1.00  0.00     0.070 C 
ENDROOT
BRANCH   1  10
HETATM   10  C7  UNL     1       7.711  57.013  -0.222  1.00  0.00     0.063 A 
HETATM   11  C6  UNL     1       7.747  55.889   0.567  1.00  0.00     0.061 A 
HETATM   12  C5  UNL     1       6.466  55.753   1.114  1.00  0.00     0.064 A 
HETATM   13  N6  UNL     1       5.700  56.755   0.672  1.00  0.00    -0.297 N 
HETATM   14  N5  UNL     1       6.451  57.484  -0.115  1.00  0.00    -0.298 N 
HETATM   15  C17 UNL     1       4.298  57.009   1.032  1.00  0.00     0.177 C 
ATOM     16  H5  UNL     1       6.119  58.320  -0.597  1.00  0.00     0.187 HD
BRANCH  12  17
HETATM   17  C3  UNL     1       6.068  54.630   1.977  1.00  0.00     0.097 C 
HETATM   18  C4  UNL     1       5.928  53.371   1.104  1.00  0.00     0.053 C 
BRANCH  17  19
HETATM   19  C2  UNL     1       7.074  54.322   3.047  1.00  0.00     0.039 C 
HETATM   20  C1  UNL     1       7.154  55.487   4.009  1.00  0.00     0.008 C 
ENDBRANCH  17  19
BRANCH  17  21
HETATM   21  O1  UNL     1       4.788  54.807   2.531  1.00  0.00    -0.384 OA
ATOM     22  H1  UNL     1       4.725  54.380   3.378  1.00  0.00     0.211 HD
ENDBRANCH  17  21
ENDBRANCH  12  17
ENDBRANCH   1  10
BRANCH   5  23
HETATM   23  N2  UNL     1      11.493  59.278  -3.524  1.00  0.00    -0.221 N 
ATOM     24  H2  UNL     1      11.243  59.752  -4.393  1.00  0.00     0.178 HD
BRANCH  23  25
HETATM   25  C11 UNL     1      12.865  59.161  -3.088  1.00  0.00     0.189 C 
BRANCH  25  26
HETATM   26  C12 UNL     1      13.679  58.700  -4.272  1.00  0.00     0.058 A 
HETATM   27  S1  UNL     1      14.596  59.546  -5.430  1.00  0.00    -0.083 SA
HETATM   28  C13 UNL     1      15.115  58.218  -6.372  1.00  0.00     0.141 A 
HETATM   29  N3  UNL     1      14.553  57.194  -5.743  1.00  0.00    -0.336 N 
HETATM   30  C14 UNL     1      13.828  57.406  -4.688  1.00  0.00     0.203 A 
ATOM     31  H3  UNL     1      14.690  56.244  -6.087  1.00  0.00     0.168 HD
HETATM   32  F1  UNL     1      13.223  56.363  -4.004  1.00  0.00    -0.185 F 
ENDBRANCH  25  26
ENDBRANCH  23  25
ENDBRANCH   5  23
TORSDOF 7
ENDMDL
