MODEL 1
REMARK VINA RESULT: -8.884525650      0.000      0.000
REMARK  5 active torsions:
REMARK  status: ('A' for Active; 'I' for Inactive)
REMARK    1  A    between atoms: C2_2  and  O1_3 
REMARK    2  A    between atoms: O1_3  and  C3_4 
REMARK    3  A    between atoms: C3_4  and  O3_6 
REMARK    4  A    between atoms: O3_6  and  C4_7 
REMARK    5  A    between atoms: C12_15  and  C13_16 
ROOT
HETATM    1  C4  UNL     1      57.139 -29.263  33.289  1.00  0.00     0.149 C 
HETATM    2  C5  UNL     1      56.990 -28.369  32.086  1.00  0.00     0.034 C 
HETATM    3  C6  UNL     1      58.280 -27.755  31.642  1.00  0.00     0.012 C 
HETATM    4  C7  UNL     1      59.398 -28.751  31.479  1.00  0.00    -0.039 C 
HETATM    5  C8  UNL     1      59.541 -29.320  30.086  1.00  0.00     0.015 C 
HETATM    6  C9  UNL     1      60.745 -28.273  31.979  1.00  0.00     0.010 C 
HETATM    7  C10 UNL     1      60.899 -29.575  32.706  1.00  0.00     0.007 C 
HETATM    8  C11 UNL     1      59.405 -29.791  32.577  1.00  0.00     0.010 C 
HETATM    9  C12 UNL     1      58.586 -29.238  33.721  1.00  0.00     0.121 C 
ENDROOT
BRANCH   1  10
HETATM   10  O3  UNL     1      56.718 -30.571  32.947  1.00  0.00    -0.292 OA
BRANCH  10  11
HETATM   11  C3  UNL     1      55.467 -30.834  32.405  1.00  0.00     0.406 C 
HETATM   12  O2  UNL     1      54.473 -30.554  33.136  1.00  0.00    -0.229 OA
BRANCH  11  13
HETATM   13  O1  UNL     1      55.263 -31.365  31.163  1.00  0.00    -0.298 OA
BRANCH  13  14
HETATM   14  C2  UNL     1      55.472 -32.737  30.846  1.00  0.00     0.176 C 
HETATM   15  C1  UNL     1      54.800 -33.667  31.799  1.00  0.00     0.034 C 
ENDBRANCH  13  14
ENDBRANCH  11  13
ENDBRANCH  10  11
ENDBRANCH   1  10
BRANCH   9  16
HETATM   16  C13 UNL     1      58.807 -29.966  34.985  1.00  0.00     0.180 C 
HETATM   17  O4  UNL     1      58.517 -31.184  35.114  1.00  0.00    -0.648 OA
HETATM   18  O5  UNL     1      59.355 -29.248  36.046  1.00  0.00    -0.648 OA
ENDBRANCH   9  16
TORSDOF 5
ENDMDL
MODEL 2
REMARK VINA RESULT: -7.972759032      1.004      1.298
REMARK  5 active torsions:
REMARK  status: ('A' for Active; 'I' for Inactive)
REMARK    1  A    between atoms: C2_2  and  O1_3 
REMARK    2  A    between atoms: O1_3  and  C3_4 
REMARK    3  A    between atoms: C3_4  and  O3_6 
REMARK    4  A    between atoms: O3_6  and  C4_7 
REMARK    5  A    between atoms: C12_15  and  C13_16 
ROOT
HETATM    1  C4  UNL     1      57.342 -29.170  33.681  1.00  0.00     0.149 C 
HETATM    2  C5  UNL     1      57.222 -28.205  32.532  1.00  0.00     0.034 C 
HETATM    3  C6  UNL     1      58.537 -27.652  32.083  1.00  0.00     0.012 C 
HETATM    4  C7  UNL     1      59.584 -28.707  31.837  1.00  0.00    -0.039 C 
HETATM    5  C8  UNL     1      59.654 -29.208  30.413  1.00  0.00     0.015 C 
HETATM    6  C9  UNL     1      60.971 -28.342  32.323  1.00  0.00     0.010 C 
HETATM    7  C10 UNL     1      61.058 -29.688  32.977  1.00  0.00     0.007 C 
HETATM    8  C11 UNL     1      59.550 -29.802  32.879  1.00  0.00     0.010 C 
HETATM    9  C12 UNL     1      58.798 -29.260  34.073  1.00  0.00     0.121 C 
ENDROOT
BRANCH   1  10
HETATM   10  O3  UNL     1      56.829 -30.429  33.285  1.00  0.00    -0.292 OA
BRANCH  10  11
HETATM   11  C3  UNL     1      55.556 -30.580  32.751  1.00  0.00     0.406 C 
HETATM   12  O2  UNL     1      54.597 -30.198  33.481  1.00  0.00    -0.229 OA
BRANCH  11  13
HETATM   13  O1  UNL     1      55.297 -31.106  31.518  1.00  0.00    -0.298 OA
BRANCH  13  14
HETATM   14  C2  UNL     1      56.066 -30.813  30.356  1.00  0.00     0.176 C 
HETATM   15  C1  UNL     1      55.959 -29.387  29.927  1.00  0.00     0.034 C 
ENDBRANCH  13  14
ENDBRANCH  11  13
ENDBRANCH  10  11
ENDBRANCH   1  10
BRANCH   9  16
HETATM   16  C13 UNL     1      59.003 -30.067  35.291  1.00  0.00     0.180 C 
HETATM   17  O4  UNL     1      58.725 -31.293  35.334  1.00  0.00    -0.648 OA
HETATM   18  O5  UNL     1      59.522 -29.414  36.407  1.00  0.00    -0.648 OA
ENDBRANCH   9  16
TORSDOF 5
ENDMDL
MODEL 3
REMARK VINA RESULT: -7.676522610      2.342      4.313
REMARK  5 active torsions:
REMARK  status: ('A' for Active; 'I' for Inactive)
REMARK    1  A    between atoms: C2_2  and  O1_3 
REMARK    2  A    between atoms: O1_3  and  C3_4 
REMARK    3  A    between atoms: C3_4  and  O3_6 
REMARK    4  A    between atoms: O3_6  and  C4_7 
REMARK    5  A    between atoms: C12_15  and  C13_16 
ROOT
HETATM    1  C4  UNL     1      58.918 -28.600  33.463  1.00  0.00     0.149 C 
HETATM    2  C5  UNL     1      57.631 -27.907  33.103  1.00  0.00     0.034 C 
HETATM    3  C6  UNL     1      57.543 -27.534  31.657  1.00  0.00     0.012 C 
HETATM    4  C7  UNL     1      57.862 -28.669  30.720  1.00  0.00    -0.039 C 
HETATM    5  C8  UNL     1      56.665 -29.474  30.271  1.00  0.00     0.015 C 
HETATM    6  C9  UNL     1      58.698 -28.278  29.520  1.00  0.00     0.010 C 
HETATM    7  C10 UNL     1      59.590 -29.449  29.802  1.00  0.00     0.007 C 
HETATM    8  C11 UNL     1      59.025 -29.505  31.207  1.00  0.00     0.010 C 
HETATM    9  C12 UNL     1      59.777 -28.676  32.223  1.00  0.00     0.121 C 
ENDROOT
BRANCH   1  10
HETATM   10  O3  UNL     1      58.624 -29.887  33.974  1.00  0.00    -0.292 OA
BRANCH  10  11
HETATM   11  C3  UNL     1      59.126 -30.341  35.186  1.00  0.00     0.406 C 
HETATM   12  O2  UNL     1      58.458 -31.246  35.763  1.00  0.00    -0.229 OA
BRANCH  11  13
HETATM   13  O1  UNL     1      60.269 -29.871  35.769  1.00  0.00    -0.298 OA
BRANCH  13  14
HETATM   14  C2  UNL     1      61.236 -30.706  36.399  1.00  0.00     0.176 C 
HETATM   15  C1  UNL     1      62.395 -31.028  35.517  1.00  0.00     0.034 C 
ENDBRANCH  13  14
ENDBRANCH  11  13
ENDBRANCH  10  11
ENDBRANCH   1  10
BRANCH   9  16
HETATM   16  C13 UNL     1      61.125 -29.203  32.505  1.00  0.00     0.180 C 
HETATM   17  O4  UNL     1      61.533 -30.290  32.017  1.00  0.00    -0.648 OA
HETATM   18  O5  UNL     1      61.943 -28.447  33.342  1.00  0.00    -0.648 OA
ENDBRANCH   9  16
TORSDOF 5
ENDMDL
MODEL 4
REMARK VINA RESULT: -7.676423439      2.078      4.552
REMARK  5 active torsions:
REMARK  status: ('A' for Active; 'I' for Inactive)
REMARK    1  A    between atoms: C2_2  and  O1_3 
REMARK    2  A    between atoms: O1_3  and  C3_4 
REMARK    3  A    between atoms: C3_4  and  O3_6 
REMARK    4  A    between atoms: O3_6  and  C4_7 
REMARK    5  A    between atoms: C12_15  and  C13_16 
ROOT
HETATM    1  C4  UNL     1      57.239 -29.337  33.603  1.00  0.00     0.149 C 
HETATM    2  C5  UNL     1      55.902 -29.987  33.363  1.00  0.00     0.034 C 
HETATM    3  C6  UNL     1      55.354 -29.726  31.996  1.00  0.00     0.012 C 
HETATM    4  C7  UNL     1      56.334 -30.008  30.888  1.00  0.00    -0.039 C 
HETATM    5  C8  UNL     1      56.259 -31.406  30.318  1.00  0.00     0.015 C 
HETATM    6  C9  UNL     1      56.322 -28.993  29.764  1.00  0.00     0.010 C 
HETATM    7  C10 UNL     1      57.817 -28.929  29.851  1.00  0.00     0.007 C 
HETATM    8  C11 UNL     1      57.735 -29.552  31.231  1.00  0.00     0.010 C 
HETATM    9  C12 UNL     1      57.616 -28.559  32.364  1.00  0.00     0.121 C 
ENDROOT
BRANCH   1  10
HETATM   10  O3  UNL     1      58.194 -30.338  33.901  1.00  0.00    -0.292 OA
BRANCH  10  11
HETATM   11  C3  UNL     1      58.969 -30.310  35.053  1.00  0.00     0.406 C 
HETATM   12  O2  UNL     1      58.554 -31.011  36.021  1.00  0.00    -0.229 OA
BRANCH  11  13
HETATM   13  O1  UNL     1      60.119 -29.586  35.189  1.00  0.00    -0.298 OA
BRANCH  13  14
HETATM   14  C2  UNL     1      61.400 -30.053  34.779  1.00  0.00     0.176 C 
HETATM   15  C1  UNL     1      62.059 -30.923  35.797  1.00  0.00     0.034 C 
ENDBRANCH  13  14
ENDBRANCH  11  13
ENDBRANCH  10  11
ENDBRANCH   1  10
BRANCH   9  16
HETATM   16  C13 UNL     1      58.841 -27.761  32.554  1.00  0.00     0.180 C 
HETATM   17  O4  UNL     1      58.825 -26.637  33.122  1.00  0.00    -0.648 OA
HETATM   18  O5  UNL     1      60.034 -28.301  32.078  1.00  0.00    -0.648 OA
ENDBRANCH   9  16
TORSDOF 5
ENDMDL
MODEL 5
REMARK VINA RESULT: -7.667345168      2.894      4.752
REMARK  5 active torsions:
REMARK  status: ('A' for Active; 'I' for Inactive)
REMARK    1  A    between atoms: C2_2  and  O1_3 
REMARK    2  A    between atoms: O1_3  and  C3_4 
REMARK    3  A    between atoms: C3_4  and  O3_6 
REMARK    4  A    between atoms: O3_6  and  C4_7 
REMARK    5  A    between atoms: C12_15  and  C13_16 
ROOT
HETATM    1  C4  UNL     1      59.154 -29.474  33.840  1.00  0.00     0.149 C 
HETATM    2  C5  UNL     1      58.297 -30.120  34.896  1.00  0.00     0.034 C 
HETATM    3  C6  UNL     1      59.026 -31.149  35.702  1.00  0.00     0.012 C 
HETATM    4  C7  UNL     1      60.342 -30.666  36.251  1.00  0.00    -0.039 C 
HETATM    5  C8  UNL     1      60.269 -30.072  37.639  1.00  0.00     0.015 C 
HETATM    6  C9  UNL     1      61.463 -31.681  36.185  1.00  0.00     0.010 C 
HETATM    7  C10 UNL     1      62.344 -30.620  35.597  1.00  0.00     0.007 C 
HETATM    8  C11 UNL     1      61.104 -29.820  35.254  1.00  0.00     0.010 C 
HETATM    9  C12 UNL     1      60.524 -30.109  33.889  1.00  0.00     0.121 C 
ENDROOT
BRANCH   1  10
HETATM   10  O3  UNL     1      59.216 -28.081  34.083  1.00  0.00    -0.292 OA
BRANCH  10  11
HETATM   11  C3  UNL     1      58.444 -27.167  33.378  1.00  0.00     0.406 C 
HETATM   12  O2  UNL     1      58.652 -25.946  33.636  1.00  0.00    -0.229 OA
BRANCH  11  13
HETATM   13  O1  UNL     1      57.502 -27.509  32.450  1.00  0.00    -0.298 OA
BRANCH  13  14
HETATM   14  C2  UNL     1      57.770 -27.623  31.056  1.00  0.00     0.176 C 
HETATM   15  C1  UNL     1      57.076 -28.779  30.418  1.00  0.00     0.034 C 
ENDBRANCH  13  14
ENDBRANCH  11  13
ENDBRANCH  10  11
ENDBRANCH   1  10
BRANCH   9  16
HETATM   16  C13 UNL     1      61.394 -29.649  32.790  1.00  0.00     0.180 C 
HETATM   17  O4  UNL     1      62.561 -29.225  32.996  1.00  0.00    -0.648 OA
HETATM   18  O5  UNL     1      60.873 -29.703  31.499  1.00  0.00    -0.648 OA
ENDBRANCH   9  16
TORSDOF 5
ENDMDL
