MODEL 1
REMARK VINA RESULT: -8.252523742      0.000      0.000
REMARK  13 active torsions:
REMARK  status: ('A' for Active; 'I' for Inactive)
REMARK    1  A    between atoms: C2_2  and  C3_3 
REMARK    2  A    between atoms: C2_2  and  O1_5 
REMARK    3  A    between atoms: O1_5  and  C5_6 
REMARK    4  A    between atoms: C7_8  and  S1_9 
REMARK    5  A    between atoms: S1_9  and  C8_10 
REMARK    6  A    between atoms: C9_12  and  O3_13 
REMARK    7  A    between atoms: C11_15  and  N1_16 
REMARK    8  A    between atoms: N1_16  and  C12_18 
REMARK    9  A    between atoms: C13_21  and  O4_22 
REMARK   10  A    between atoms: C14_24  and  O5_25 
REMARK   11  A    between atoms: C15_28  and  C16_29 
REMARK   12  A    between atoms: C16_29  and  O7_30 
REMARK   13  A    between atoms: C17_32  and  O8_33 
ROOT
HETATM    1  C8  UNL     1     143.165  13.991 -80.412  1.00  0.00     0.219 C 
HETATM    2  O2  UNL     1     143.869  15.124 -80.664  1.00  0.00    -0.341 OA
HETATM    3  C9  UNL     1     144.628  15.551 -79.559  1.00  0.00     0.285 C 
HETATM    4  C11 UNL     1     143.619  16.129 -78.588  1.00  0.00     0.170 C 
HETATM    5  C13 UNL     1     142.615  15.082 -78.219  1.00  0.00     0.177 C 
HETATM    6  C14 UNL     1     142.711  13.807 -79.002  1.00  0.00     0.188 C 
ENDROOT
BRANCH   1   7
HETATM    7  S1  UNL     1     144.127  12.564 -80.932  1.00  0.00    -0.103 SA
BRANCH   7   8
HETATM    8  C7  UNL     1     145.519  13.006 -82.011  1.00  0.00     0.188 C 
HETATM    9  C6  UNL     1     145.123  13.886 -83.134  1.00  0.00     0.078 C 
HETATM   10  C5  UNL     1     145.927  13.540 -84.368  1.00  0.00     0.163 C 
HETATM   11  C17 UNL     1     145.580  12.118 -84.770  1.00  0.00     0.178 C 
HETATM   12  C15 UNL     1     145.467  11.242 -83.534  1.00  0.00     0.177 C 
HETATM   13  O6  UNL     1     146.074  11.838 -82.444  1.00  0.00    -0.365 OA
BRANCH  10  14
HETATM   14  O1  UNL     1     145.613  14.400 -85.437  1.00  0.00    -0.348 OA
BRANCH  14  15
HETATM   15  C2  UNL     1     144.356  14.847 -85.765  1.00  0.00     0.037 C 
HETATM   16  C1  UNL     1     143.397  13.978 -86.019  1.00  0.00     0.046 C 
BRANCH  15  17
HETATM   17  C3  UNL     1     144.076  16.290 -85.836  1.00  0.00     0.059 C 
HETATM   18  C4  UNL     1     144.110  16.871 -87.210  1.00  0.00     0.012 C 
ENDBRANCH  15  17
ENDBRANCH  14  15
ENDBRANCH  10  14
BRANCH  11  19
HETATM   19  O8  UNL     1     146.542  11.575 -85.593  1.00  0.00    -0.390 OA
ATOM     20  H8  UNL     1     146.154  11.052 -86.286  1.00  0.00     0.210 HD
ENDBRANCH  11  19
BRANCH  12  21
HETATM   21  C16 UNL     1     146.020   9.858 -83.785  1.00  0.00     0.198 C 
BRANCH  21  22
HETATM   22  O7  UNL     1     145.276   9.266 -84.795  1.00  0.00    -0.398 OA
ATOM     23  H7  UNL     1     144.358   9.309 -84.555  1.00  0.00     0.209 HD
ENDBRANCH  21  22
ENDBRANCH  12  21
ENDBRANCH   7   8
ENDBRANCH   1   7
BRANCH   6  24
HETATM   24  O5  UNL     1     143.481  12.819 -78.390  1.00  0.00    -0.389 OA
ATOM     25  H5  UNL     1     143.821  13.146 -77.566  1.00  0.00     0.210 HD
ENDBRANCH   6  24
BRANCH   3  26
HETATM   26  O3  UNL     1     145.454  16.601 -79.959  1.00  0.00    -0.364 OA
HETATM   27  C10 UNL     1     145.175  17.149 -81.175  1.00  0.00     0.204 C 
ENDBRANCH   3  26
BRANCH   5  28
HETATM   28  O4  UNL     1     142.585  14.757 -76.867  1.00  0.00    -0.391 OA
ATOM     29  H4  UNL     1     141.716  14.608 -76.514  1.00  0.00     0.210 HD
ENDBRANCH   5  28
BRANCH   4  30
HETATM   30  N1  UNL     1     144.166  16.895 -77.530  1.00  0.00    -0.357 N 
ATOM     31  H1  UNL     1     144.788  16.388 -76.902  1.00  0.00     0.162 HD
BRANCH  30  32
HETATM   32  C12 UNL     1     143.976  18.256 -77.219  1.00  0.00     0.181 C 
HETATM   33  N2  UNL     1     143.214  18.651 -76.094  1.00  0.00    -0.070 NA
HETATM   34  S2  UNL     1     144.614  19.457 -78.111  1.00  0.00    -0.044 SA
ENDBRANCH  30  32
ENDBRANCH   4  30
TORSDOF 13
ENDMDL
MODEL 2
REMARK VINA RESULT: -8.009792890      2.360      4.724
REMARK  13 active torsions:
REMARK  status: ('A' for Active; 'I' for Inactive)
REMARK    1  A    between atoms: C2_2  and  C3_3 
REMARK    2  A    between atoms: C2_2  and  O1_5 
REMARK    3  A    between atoms: O1_5  and  C5_6 
REMARK    4  A    between atoms: C7_8  and  S1_9 
REMARK    5  A    between atoms: S1_9  and  C8_10 
REMARK    6  A    between atoms: C9_12  and  O3_13 
REMARK    7  A    between atoms: C11_15  and  N1_16 
REMARK    8  A    between atoms: N1_16  and  C12_18 
REMARK    9  A    between atoms: C13_21  and  O4_22 
REMARK   10  A    between atoms: C14_24  and  O5_25 
REMARK   11  A    between atoms: C15_28  and  C16_29 
REMARK   12  A    between atoms: C16_29  and  O7_30 
REMARK   13  A    between atoms: C17_32  and  O8_33 
ROOT
HETATM    1  C8  UNL     1     145.172  16.527 -80.724  1.00  0.00     0.219 C 
HETATM    2  O2  UNL     1     144.232  16.072 -79.858  1.00  0.00    -0.341 OA
HETATM    3  C9  UNL     1     143.302  17.063 -79.492  1.00  0.00     0.285 C 
HETATM    4  C11 UNL     1     144.052  17.976 -78.545  1.00  0.00     0.170 C 
HETATM    5  C13 UNL     1     145.251  18.547 -79.236  1.00  0.00     0.177 C 
HETATM    6  C14 UNL     1     145.540  17.968 -80.589  1.00  0.00     0.188 C 
ENDROOT
BRANCH   1   7
HETATM    7  S1  UNL     1     144.641  16.192 -82.409  1.00  0.00    -0.103 SA
BRANCH   7   8
HETATM    8  C7  UNL     1     143.948  14.527 -82.613  1.00  0.00     0.188 C 
HETATM    9  C6  UNL     1     143.795  13.803 -81.330  1.00  0.00     0.078 C 
HETATM   10  C5  UNL     1     144.077  12.331 -81.533  1.00  0.00     0.163 C 
HETATM   11  C17 UNL     1     145.527  12.186 -81.958  1.00  0.00     0.178 C 
HETATM   12  C15 UNL     1     145.891  13.282 -82.944  1.00  0.00     0.177 C 
HETATM   13  O6  UNL     1     144.759  13.862 -83.485  1.00  0.00    -0.365 OA
BRANCH  10  14
HETATM   14  O1  UNL     1     143.881  11.608 -80.341  1.00  0.00    -0.348 OA
BRANCH  14  15
HETATM   15  C2  UNL     1     142.691  11.477 -79.669  1.00  0.00     0.037 C 
HETATM   16  C1  UNL     1     142.587  11.909 -78.427  1.00  0.00     0.046 C 
BRANCH  15  17
HETATM   17  C3  UNL     1     141.531  10.854 -80.327  1.00  0.00     0.059 C 
HETATM   18  C4  UNL     1     140.621  10.098 -79.417  1.00  0.00     0.012 C 
ENDBRANCH  15  17
ENDBRANCH  14  15
ENDBRANCH  10  14
BRANCH  11  19
HETATM   19  O8  UNL     1     145.758  10.971 -82.564  1.00  0.00    -0.390 OA
ATOM     20  H8  UNL     1     145.464  10.970 -83.468  1.00  0.00     0.210 HD
ENDBRANCH  11  19
BRANCH  12  21
HETATM   21  C16 UNL     1     146.818  12.771 -84.022  1.00  0.00     0.198 C 
BRANCH  21  22
HETATM   22  O7  UNL     1     147.170  13.838 -84.837  1.00  0.00    -0.398 OA
ATOM     23  H7  UNL     1     147.515  14.532 -84.288  1.00  0.00     0.209 HD
ENDBRANCH  21  22
ENDBRANCH  12  21
ENDBRANCH   7   8
ENDBRANCH   1   7
BRANCH   6  24
HETATM   24  O5  UNL     1     144.993  18.690 -81.647  1.00  0.00    -0.389 OA
ATOM     25  H5  UNL     1     144.976  19.614 -81.426  1.00  0.00     0.210 HD
ENDBRANCH   6  24
BRANCH   3  26
HETATM   26  O3  UNL     1     142.276  16.469 -78.758  1.00  0.00    -0.364 OA
HETATM   27  C10 UNL     1     142.614  15.345 -78.065  1.00  0.00     0.204 C 
ENDBRANCH   3  26
BRANCH   5  28
HETATM   28  O4  UNL     1     145.250  19.933 -79.352  1.00  0.00    -0.391 OA
ATOM     29  H4  UNL     1     145.589  20.395 -78.594  1.00  0.00     0.210 HD
ENDBRANCH   5  28
BRANCH   4  30
HETATM   30  N1  UNL     1     143.247  18.878 -77.808  1.00  0.00    -0.357 N 
ATOM     31  H1  UNL     1     142.362  19.131 -78.247  1.00  0.00     0.162 HD
BRANCH  30  32
HETATM   32  C12 UNL     1     143.489  19.476 -76.556  1.00  0.00     0.181 C 
HETATM   33  N2  UNL     1     144.802  19.793 -76.136  1.00  0.00    -0.070 NA
HETATM   34  S2  UNL     1     142.294  19.848 -75.516  1.00  0.00    -0.044 SA
ENDBRANCH  30  32
ENDBRANCH   4  30
TORSDOF 13
ENDMDL
MODEL 3
REMARK VINA RESULT: -7.996755375      3.543      7.647
REMARK  13 active torsions:
REMARK  status: ('A' for Active; 'I' for Inactive)
REMARK    1  A    between atoms: C2_2  and  C3_3 
REMARK    2  A    between atoms: C2_2  and  O1_5 
REMARK    3  A    between atoms: O1_5  and  C5_6 
REMARK    4  A    between atoms: C7_8  and  S1_9 
REMARK    5  A    between atoms: S1_9  and  C8_10 
REMARK    6  A    between atoms: C9_12  and  O3_13 
REMARK    7  A    between atoms: C11_15  and  N1_16 
REMARK    8  A    between atoms: N1_16  and  C12_18 
REMARK    9  A    between atoms: C13_21  and  O4_22 
REMARK   10  A    between atoms: C14_24  and  O5_25 
REMARK   11  A    between atoms: C15_28  and  C16_29 
REMARK   12  A    between atoms: C16_29  and  O7_30 
REMARK   13  A    between atoms: C17_32  and  O8_33 
ROOT
HETATM    1  C8  UNL     1     143.873  13.360 -79.806  1.00  0.00     0.219 C 
HETATM    2  O2  UNL     1     145.113  13.418 -80.355  1.00  0.00    -0.341 OA
HETATM    3  C9  UNL     1     145.085  13.465 -81.762  1.00  0.00     0.285 C 
HETATM    4  C11 UNL     1     144.716  12.061 -82.195  1.00  0.00     0.170 C 
HETATM    5  C13 UNL     1     143.391  11.683 -81.611  1.00  0.00     0.177 C 
HETATM    6  C14 UNL     1     142.835  12.658 -80.616  1.00  0.00     0.188 C 
ENDROOT
BRANCH   1   7
HETATM    7  S1  UNL     1     143.316  15.025 -79.416  1.00  0.00    -0.103 SA
BRANCH   7   8
HETATM    8  C7  UNL     1     144.622  16.053 -78.686  1.00  0.00     0.188 C 
HETATM    9  C6  UNL     1     144.108  17.012 -77.681  1.00  0.00     0.078 C 
HETATM   10  C5  UNL     1     144.890  18.304 -77.754  1.00  0.00     0.163 C 
HETATM   11  C17 UNL     1     144.653  18.919 -79.121  1.00  0.00     0.178 C 
HETATM   12  C15 UNL     1     144.664  17.836 -80.187  1.00  0.00     0.177 C 
HETATM   13  O6  UNL     1     145.258  16.680 -79.716  1.00  0.00    -0.365 OA
BRANCH  10  14
HETATM   14  O1  UNL     1     144.462  19.213 -76.769  1.00  0.00    -0.348 OA
BRANCH  14  15
HETATM   15  C2  UNL     1     143.177  19.669 -76.602  1.00  0.00     0.037 C 
HETATM   16  C1  UNL     1     142.544  20.232 -77.613  1.00  0.00     0.046 C 
BRANCH  15  17
HETATM   17  C3  UNL     1     142.505  19.533 -75.300  1.00  0.00     0.059 C 
HETATM   18  C4  UNL     1     141.331  20.432 -75.100  1.00  0.00     0.012 C 
ENDBRANCH  15  17
ENDBRANCH  14  15
ENDBRANCH  10  14
BRANCH  11  19
HETATM   19  O8  UNL     1     145.625  19.841 -79.438  1.00  0.00    -0.390 OA
ATOM     20  H8  UNL     1     146.359  19.436 -79.885  1.00  0.00     0.210 HD
ENDBRANCH  11  19
BRANCH  12  21
HETATM   21  C16 UNL     1     145.325  18.318 -81.458  1.00  0.00     0.198 C 
BRANCH  21  22
HETATM   22  O7  UNL     1     145.327  17.273 -82.372  1.00  0.00    -0.398 OA
ATOM     23  H7  UNL     1     145.319  17.642 -83.247  1.00  0.00     0.209 HD
ENDBRANCH  21  22
ENDBRANCH  12  21
ENDBRANCH   7   8
ENDBRANCH   1   7
BRANCH   6  24
HETATM   24  O5  UNL     1     141.959  13.593 -81.163  1.00  0.00    -0.389 OA
ATOM     25  H5  UNL     1     141.742  13.342 -82.053  1.00  0.00     0.210 HD
ENDBRANCH   6  24
BRANCH   3  26
HETATM   26  O3  UNL     1     146.376  13.710 -82.230  1.00  0.00    -0.364 OA
HETATM   27  C10 UNL     1     147.355  12.908 -81.724  1.00  0.00     0.204 C 
ENDBRANCH   3  26
BRANCH   5  28
HETATM   28  O4  UNL     1     142.400  11.410 -82.548  1.00  0.00    -0.391 OA
ATOM     29  H4  UNL     1     142.671  11.510 -83.453  1.00  0.00     0.210 HD
ENDBRANCH   5  28
BRANCH   4  30
HETATM   30  N1  UNL     1     144.917  11.779 -83.568  1.00  0.00    -0.357 N 
ATOM     31  H1  UNL     1     145.295  10.854 -83.771  1.00  0.00     0.162 HD
BRANCH  30  32
HETATM   32  C12 UNL     1     144.671  12.589 -84.694  1.00  0.00     0.181 C 
HETATM   33  N2  UNL     1     143.355  12.953 -85.062  1.00  0.00    -0.070 NA
HETATM   34  S2  UNL     1     145.865  13.162 -85.640  1.00  0.00    -0.044 SA
ENDBRANCH  30  32
ENDBRANCH   4  30
TORSDOF 13
ENDMDL
MODEL 4
REMARK VINA RESULT: -7.825253878      2.243      4.386
REMARK  13 active torsions:
REMARK  status: ('A' for Active; 'I' for Inactive)
REMARK    1  A    between atoms: C2_2  and  C3_3 
REMARK    2  A    between atoms: C2_2  and  O1_5 
REMARK    3  A    between atoms: O1_5  and  C5_6 
REMARK    4  A    between atoms: C7_8  and  S1_9 
REMARK    5  A    between atoms: S1_9  and  C8_10 
REMARK    6  A    between atoms: C9_12  and  O3_13 
REMARK    7  A    between atoms: C11_15  and  N1_16 
REMARK    8  A    between atoms: N1_16  and  C12_18 
REMARK    9  A    between atoms: C13_21  and  O4_22 
REMARK   10  A    between atoms: C14_24  and  O5_25 
REMARK   11  A    between atoms: C15_28  and  C16_29 
REMARK   12  A    between atoms: C16_29  and  O7_30 
REMARK   13  A    between atoms: C17_32  and  O8_33 
ROOT
HETATM    1  C8  UNL     1     145.675  17.021 -79.913  1.00  0.00     0.219 C 
HETATM    2  O2  UNL     1     145.218  16.588 -78.711  1.00  0.00    -0.341 OA
HETATM    3  C9  UNL     1     144.258  17.452 -78.149  1.00  0.00     0.285 C 
HETATM    4  C11 UNL     1     145.045  18.653 -77.668  1.00  0.00     0.170 C 
HETATM    5  C13 UNL     1     145.770  19.278 -78.819  1.00  0.00     0.177 C 
HETATM    6  C14 UNL     1     145.715  18.501 -80.100  1.00  0.00     0.188 C 
ENDROOT
BRANCH   1   7
HETATM    7  S1  UNL     1     144.703  16.268 -81.225  1.00  0.00    -0.103 SA
BRANCH   7   8
HETATM    8  C7  UNL     1     145.098  14.515 -81.480  1.00  0.00     0.188 C 
HETATM    9  C6  UNL     1     144.755  14.037 -82.839  1.00  0.00     0.078 C 
HETATM   10  C5  UNL     1     144.265  12.607 -82.773  1.00  0.00     0.163 C 
HETATM   11  C17 UNL     1     142.986  12.587 -81.956  1.00  0.00     0.178 C 
HETATM   12  C15 UNL     1     143.120  13.513 -80.759  1.00  0.00     0.177 C 
HETATM   13  O6  UNL     1     144.445  13.815 -80.508  1.00  0.00    -0.365 OA
BRANCH  10  14
HETATM   14  O1  UNL     1     143.987  12.106 -84.058  1.00  0.00    -0.348 OA
BRANCH  14  15
HETATM   15  C2  UNL     1     144.876  12.041 -85.104  1.00  0.00     0.037 C 
HETATM   16  C1  UNL     1     144.646  12.730 -86.204  1.00  0.00     0.046 C 
BRANCH  15  17
HETATM   17  C3  UNL     1     146.083  11.204 -85.001  1.00  0.00     0.059 C 
HETATM   18  C4  UNL     1     145.859   9.844 -84.427  1.00  0.00     0.012 C 
ENDBRANCH  15  17
ENDBRANCH  14  15
ENDBRANCH  10  14
BRANCH  11  19
HETATM   19  O8  UNL     1     142.704  11.322 -81.488  1.00  0.00    -0.390 OA
ATOM     20  H8  UNL     1     143.064  11.182 -80.619  1.00  0.00     0.210 HD
ENDBRANCH  11  19
BRANCH  12  21
HETATM   21  C16 UNL     1     142.443  12.939 -79.536  1.00  0.00     0.198 C 
BRANCH  21  22
HETATM   22  O7  UNL     1     143.416  12.375 -78.723  1.00  0.00    -0.398 OA
ATOM     23  H7  UNL     1     142.983  11.895 -78.028  1.00  0.00     0.209 HD
ENDBRANCH  21  22
ENDBRANCH  12  21
ENDBRANCH   7   8
ENDBRANCH   1   7
BRANCH   6  24
HETATM   24  O5  UNL     1     144.689  18.890 -80.959  1.00  0.00    -0.389 OA
ATOM     25  H5  UNL     1     143.890  18.432 -80.727  1.00  0.00     0.210 HD
ENDBRANCH   6  24
BRANCH   3  26
HETATM   26  O3  UNL     1     143.712  16.844 -77.019  1.00  0.00    -0.364 OA
HETATM   27  C10 UNL     1     143.485  15.504 -77.115  1.00  0.00     0.204 C 
ENDBRANCH   3  26
BRANCH   5  28
HETATM   28  O4  UNL     1     145.402  20.591 -79.094  1.00  0.00    -0.391 OA
ATOM     29  H4  UNL     1     146.041  21.245 -78.837  1.00  0.00     0.210 HD
ENDBRANCH   5  28
BRANCH   4  30
HETATM   30  N1  UNL     1     144.346  19.527 -76.800  1.00  0.00    -0.357 N 
ATOM     31  H1  UNL     1     144.897  19.910 -76.032  1.00  0.00     0.162 HD
BRANCH  30  32
HETATM   32  C12 UNL     1     143.001  19.943 -76.841  1.00  0.00     0.181 C 
HETATM   33  N2  UNL     1     142.403  20.372 -78.049  1.00  0.00    -0.070 NA
HETATM   34  S2  UNL     1     142.047  19.958 -75.523  1.00  0.00    -0.044 SA
ENDBRANCH  30  32
ENDBRANCH   4  30
TORSDOF 13
ENDMDL
MODEL 5
REMARK VINA RESULT: -7.739042477      3.594      7.051
REMARK  13 active torsions:
REMARK  status: ('A' for Active; 'I' for Inactive)
REMARK    1  A    between atoms: C2_2  and  C3_3 
REMARK    2  A    between atoms: C2_2  and  O1_5 
REMARK    3  A    between atoms: O1_5  and  C5_6 
REMARK    4  A    between atoms: C7_8  and  S1_9 
REMARK    5  A    between atoms: S1_9  and  C8_10 
REMARK    6  A    between atoms: C9_12  and  O3_13 
REMARK    7  A    between atoms: C11_15  and  N1_16 
REMARK    8  A    between atoms: N1_16  and  C12_18 
REMARK    9  A    between atoms: C13_21  and  O4_22 
REMARK   10  A    between atoms: C14_24  and  O5_25 
REMARK   11  A    between atoms: C15_28  and  C16_29 
REMARK   12  A    between atoms: C16_29  and  O7_30 
REMARK   13  A    between atoms: C17_32  and  O8_33 
ROOT
HETATM    1  C8  UNL     1     143.404  12.504 -79.463  1.00  0.00     0.219 C 
HETATM    2  O2  UNL     1     143.909  13.580 -80.117  1.00  0.00    -0.341 OA
HETATM    3  C9  UNL     1     143.175  13.909 -81.272  1.00  0.00     0.285 C 
HETATM    4  C11 UNL     1     143.539  12.844 -82.286  1.00  0.00     0.170 C 
HETATM    5  C13 UNL     1     143.182  11.492 -81.750  1.00  0.00     0.177 C 
HETATM    6  C14 UNL     1     142.740  11.475 -80.317  1.00  0.00     0.188 C 
ENDROOT
BRANCH   1   7
HETATM    7  S1  UNL     1     142.265  13.061 -78.188  1.00  0.00    -0.103 SA
BRANCH   7   8
HETATM    8  C7  UNL     1     142.804  14.596 -77.382  1.00  0.00     0.188 C 
HETATM    9  C6  UNL     1     142.721  15.776 -78.273  1.00  0.00     0.078 C 
HETATM   10  C5  UNL     1     143.867  16.720 -77.986  1.00  0.00     0.163 C 
HETATM   11  C17 UNL     1     145.161  15.999 -78.318  1.00  0.00     0.178 C 
HETATM   12  C15 UNL     1     145.088  14.557 -77.849  1.00  0.00     0.177 C 
HETATM   13  O6  UNL     1     144.071  14.383 -76.927  1.00  0.00    -0.365 OA
BRANCH  10  14
HETATM   14  O1  UNL     1     143.781  17.880 -78.778  1.00  0.00    -0.348 OA
BRANCH  14  15
HETATM   15  C2  UNL     1     144.003  19.165 -78.346  1.00  0.00     0.037 C 
HETATM   16  C1  UNL     1     145.154  19.754 -78.604  1.00  0.00     0.046 C 
BRANCH  15  17
HETATM   17  C3  UNL     1     142.962  19.886 -77.596  1.00  0.00     0.059 C 
HETATM   18  C4  UNL     1     142.991  19.676 -76.118  1.00  0.00     0.012 C 
ENDBRANCH  15  17
ENDBRANCH  14  15
ENDBRANCH  10  14
BRANCH  11  19
HETATM   19  O8  UNL     1     146.243  16.593 -77.706  1.00  0.00    -0.390 OA
ATOM     20  H8  UNL     1     146.134  17.535 -77.640  1.00  0.00     0.210 HD
ENDBRANCH  11  19
BRANCH  12  21
HETATM   21  C16 UNL     1     146.414  14.083 -77.302  1.00  0.00     0.198 C 
BRANCH  21  22
HETATM   22  O7  UNL     1     146.169  13.239 -76.228  1.00  0.00    -0.398 OA
ATOM     23  H7  UNL     1     145.263  12.957 -76.272  1.00  0.00     0.209 HD
ENDBRANCH  21  22
ENDBRANCH  12  21
ENDBRANCH   7   8
ENDBRANCH   1   7
BRANCH   6  24
HETATM   24  O5  UNL     1     141.360  11.547 -80.145  1.00  0.00    -0.389 OA
ATOM     25  H5  UNL     1     140.983  12.090 -80.827  1.00  0.00     0.210 HD
ENDBRANCH   6  24
BRANCH   3  26
HETATM   26  O3  UNL     1     143.644  15.124 -81.772  1.00  0.00    -0.364 OA
HETATM   27  C10 UNL     1     144.996  15.297 -81.745  1.00  0.00     0.204 C 
ENDBRANCH   3  26
BRANCH   5  28
HETATM   28  O4  UNL     1     142.238  10.801 -82.501  1.00  0.00    -0.391 OA
ATOM     29  H4  UNL     1     141.499  10.471 -82.004  1.00  0.00     0.210 HD
ENDBRANCH   5  28
BRANCH   4  30
HETATM   30  N1  UNL     1     143.163  13.125 -83.621  1.00  0.00    -0.357 N 
ATOM     31  H1  UNL     1     142.176  13.344 -83.759  1.00  0.00     0.162 HD
BRANCH  30  32
HETATM   32  C12 UNL     1     143.951  13.146 -84.789  1.00  0.00     0.181 C 
HETATM   33  N2  UNL     1     143.600  13.954 -85.896  1.00  0.00    -0.070 NA
HETATM   34  S2  UNL     1     145.306  12.259 -84.949  1.00  0.00    -0.044 SA
ENDBRANCH  30  32
ENDBRANCH   4  30
TORSDOF 13
ENDMDL
