MODEL 1
REMARK VINA RESULT: -7.151776383      0.000      0.000
REMARK  6 active torsions:
REMARK  status: ('A' for Active; 'I' for Inactive)
REMARK    1  A    between atoms: C2_2  and  O1_3 
REMARK    2  A    between atoms: O1_3  and  C3_4 
REMARK    3  A    between atoms: C5_7  and  C6_8 
REMARK    4  A    between atoms: C6_8  and  O3_10 
REMARK    5  A    between atoms: C8_12  and  C9_13 
REMARK       I    between atoms: C9_13  and  N1_15 
REMARK    6  A    between atoms: N1_15  and  N2_17 
REMARK       I    between atoms: N2_17  and  C10_19 
REMARK       I    between atoms: C10_19  and  N3_21 
ROOT
HETATM    1  C3  UNL     1      14.255  -7.170 -26.667  1.00  0.00     0.126 A 
HETATM    2  S1  UNL     1      13.349  -8.451 -27.274  1.00  0.00    -0.075 SA
HETATM    3  C4  UNL     1      14.524  -9.667 -27.251  1.00  0.00     0.071 A 
HETATM    4  C5  UNL     1      15.656  -9.028 -26.750  1.00  0.00     0.065 A 
HETATM    5  C8  UNL     1      15.519  -7.721 -26.440  1.00  0.00     0.090 A 
ENDROOT
BRANCH   5   6
HETATM    6  C9  UNL     1      16.575  -6.810 -25.890  1.00  0.00     0.274 C 
HETATM    7  O4  UNL     1      17.684  -6.755 -26.535  1.00  0.00    -0.266 OA
HETATM    8  N1  UNL     1      16.453  -6.018 -24.757  1.00  0.00    -0.262 N 
ATOM      9  H1  UNL     1      15.587  -6.021 -24.220  1.00  0.00     0.190 HD
BRANCH   8  10
HETATM   10  N2  UNL     1      17.545  -5.206 -24.352  1.00  0.00    -0.249 N 
HETATM   11  C10 UNL     1      17.362  -3.808 -24.166  1.00  0.00     0.334 C 
HETATM   12  O5  UNL     1      16.253  -3.274 -24.353  1.00  0.00    -0.246 OA
HETATM   13  N3  UNL     1      18.464  -3.023 -23.762  1.00  0.00    -0.346 N 
HETATM   14  C11 UNL     1      18.318  -1.603 -23.565  1.00  0.00     0.151 C 
ATOM     15  H3  UNL     1      19.370  -3.464 -23.609  1.00  0.00     0.163 HD
ATOM     16  H2  UNL     1      18.461  -5.625 -24.195  1.00  0.00     0.192 HD
ENDBRANCH   8  10
ENDBRANCH   5   6
BRANCH   1  17
HETATM   17  O1  UNL     1      13.884  -5.825 -26.421  1.00  0.00    -0.343 OA
BRANCH  17  18
HETATM   18  C2  UNL     1      13.829  -5.006 -27.573  1.00  0.00     0.172 C 
HETATM   19  C1  UNL     1      14.953  -3.999 -27.602  1.00  0.00     0.034 C 
ENDBRANCH  17  18
ENDBRANCH   1  17
BRANCH   4  20
HETATM   20  C6  UNL     1      16.928  -9.818 -26.718  1.00  0.00     0.294 C 
HETATM   21  O2  UNL     1      17.687  -9.960 -27.694  1.00  0.00    -0.259 OA
BRANCH  20  22
HETATM   22  O3  UNL     1      17.339 -10.455 -25.555  1.00  0.00    -0.322 OA
HETATM   23  C7  UNL     1      18.574 -10.129 -24.935  1.00  0.00     0.213 C 
ENDBRANCH  20  22
ENDBRANCH   4  20
TORSDOF 6
ENDMDL
MODEL 2
REMARK VINA RESULT: -6.696086939      3.593      5.992
REMARK  6 active torsions:
REMARK  status: ('A' for Active; 'I' for Inactive)
REMARK    1  A    between atoms: C2_2  and  O1_3 
REMARK    2  A    between atoms: O1_3  and  C3_4 
REMARK    3  A    between atoms: C5_7  and  C6_8 
REMARK    4  A    between atoms: C6_8  and  O3_10 
REMARK    5  A    between atoms: C8_12  and  C9_13 
REMARK       I    between atoms: C9_13  and  N1_15 
REMARK    6  A    between atoms: N1_15  and  N2_17 
REMARK       I    between atoms: N2_17  and  C10_19 
REMARK       I    between atoms: C10_19  and  N3_21 
ROOT
HETATM    1  C3  UNL     1      15.254  -6.931 -26.474  1.00  0.00     0.126 A 
HETATM    2  S1  UNL     1      16.386  -5.708 -26.238  1.00  0.00    -0.075 SA
HETATM    3  C4  UNL     1      17.806  -6.626 -26.266  1.00  0.00     0.071 A 
HETATM    4  C5  UNL     1      17.356  -7.929 -26.465  1.00  0.00     0.065 A 
HETATM    5  C8  UNL     1      16.021  -8.094 -26.578  1.00  0.00     0.090 A 
ENDROOT
BRANCH   5   6
HETATM    6  C9  UNL     1      15.287  -9.383 -26.793  1.00  0.00     0.274 C 
HETATM    7  O4  UNL     1      15.843 -10.448 -26.339  1.00  0.00    -0.266 OA
HETATM    8  N1  UNL     1      14.061  -9.521 -27.427  1.00  0.00    -0.262 N 
ATOM      9  H1  UNL     1      13.577  -8.701 -27.793  1.00  0.00     0.190 HD
BRANCH   8  10
HETATM   10  N2  UNL     1      13.487 -10.812 -27.563  1.00  0.00    -0.249 N 
HETATM   11  C10 UNL     1      12.283 -10.983 -28.300  1.00  0.00     0.334 C 
HETATM   12  O5  UNL     1      11.714 -10.014 -28.834  1.00  0.00    -0.246 OA
HETATM   13  N3  UNL     1      11.733 -12.278 -28.420  1.00  0.00    -0.346 N 
HETATM   14  C11 UNL     1      10.514 -12.490 -29.157  1.00  0.00     0.151 C 
ATOM     15  H3  UNL     1      12.203 -13.069 -27.981  1.00  0.00     0.163 HD
ATOM     16  H2  UNL     1      13.938 -11.618 -27.130  1.00  0.00     0.192 HD
ENDBRANCH   8  10
ENDBRANCH   5   6
BRANCH   1  17
HETATM   17  O1  UNL     1      13.841  -6.864 -26.556  1.00  0.00    -0.343 OA
BRANCH  17  18
HETATM   18  C2  UNL     1      13.345  -5.888 -27.454  1.00  0.00     0.172 C 
HETATM   19  C1  UNL     1      13.631  -6.250 -28.891  1.00  0.00     0.034 C 
ENDBRANCH  17  18
ENDBRANCH   1  17
BRANCH   4  20
HETATM   20  C6  UNL     1      18.383  -9.019 -26.416  1.00  0.00     0.294 C 
HETATM   21  O2  UNL     1      18.733  -9.693 -27.402  1.00  0.00    -0.259 OA
BRANCH  20  22
HETATM   22  O3  UNL     1      19.018  -9.344 -25.225  1.00  0.00    -0.322 OA
HETATM   23  C7  UNL     1      18.286  -9.496 -24.018  1.00  0.00     0.213 C 
ENDBRANCH  20  22
ENDBRANCH   4  20
TORSDOF 6
ENDMDL
MODEL 3
REMARK VINA RESULT: -6.646536232      3.715      6.141
REMARK  6 active torsions:
REMARK  status: ('A' for Active; 'I' for Inactive)
REMARK    1  A    between atoms: C2_2  and  O1_3 
REMARK    2  A    between atoms: O1_3  and  C3_4 
REMARK    3  A    between atoms: C5_7  and  C6_8 
REMARK    4  A    between atoms: C6_8  and  O3_10 
REMARK    5  A    between atoms: C8_12  and  C9_13 
REMARK       I    between atoms: C9_13  and  N1_15 
REMARK    6  A    between atoms: N1_15  and  N2_17 
REMARK       I    between atoms: N2_17  and  C10_19 
REMARK       I    between atoms: C10_19  and  N3_21 
ROOT
HETATM    1  C3  UNL     1      15.658  -6.877 -28.029  1.00  0.00     0.126 A 
HETATM    2  S1  UNL     1      16.685  -5.578 -27.735  1.00  0.00    -0.075 SA
HETATM    3  C4  UNL     1      17.687  -6.268 -26.560  1.00  0.00     0.071 A 
HETATM    4  C5  UNL     1      17.182  -7.557 -26.407  1.00  0.00     0.065 A 
HETATM    5  C8  UNL     1      16.121  -7.882 -27.176  1.00  0.00     0.090 A 
ENDROOT
BRANCH   5   6
HETATM    6  C9  UNL     1      15.395  -9.193 -27.203  1.00  0.00     0.274 C 
HETATM    7  O4  UNL     1      16.101 -10.249 -27.017  1.00  0.00    -0.266 OA
HETATM    8  N1  UNL     1      14.032  -9.360 -27.399  1.00  0.00    -0.262 N 
ATOM      9  H1  UNL     1      13.430  -8.549 -27.539  1.00  0.00     0.190 HD
BRANCH   8  10
HETATM   10  N2  UNL     1      13.483 -10.670 -27.403  1.00  0.00    -0.249 N 
HETATM   11  C10 UNL     1      12.365 -10.971 -28.230  1.00  0.00     0.334 C 
HETATM   12  O5  UNL     1      11.851 -10.102 -28.957  1.00  0.00    -0.246 OA
HETATM   13  N3  UNL     1      11.839 -12.281 -28.216  1.00  0.00    -0.346 N 
HETATM   14  C11 UNL     1      10.706 -12.624 -29.037  1.00  0.00     0.151 C 
ATOM     15  H3  UNL     1      12.264 -12.990 -27.619  1.00  0.00     0.163 HD
ATOM     16  H2  UNL     1      13.890 -11.395 -26.813  1.00  0.00     0.192 HD
ENDBRANCH   8  10
ENDBRANCH   5   6
BRANCH   1  17
HETATM   17  O1  UNL     1      14.560  -6.990 -28.918  1.00  0.00    -0.343 OA
BRANCH  17  18
HETATM   18  C2  UNL     1      14.588  -6.091 -30.011  1.00  0.00     0.172 C 
HETATM   19  C1  UNL     1      14.898  -6.795 -31.310  1.00  0.00     0.034 C 
ENDBRANCH  17  18
ENDBRANCH   1  17
BRANCH   4  20
HETATM   20  C6  UNL     1      17.788  -8.404 -25.330  1.00  0.00     0.294 C 
HETATM   21  O2  UNL     1      17.418  -8.394 -24.142  1.00  0.00    -0.259 OA
BRANCH  20  22
HETATM   22  O3  UNL     1      18.832  -9.275 -25.614  1.00  0.00    -0.322 OA
HETATM   23  C7  UNL     1      19.053 -10.438 -24.831  1.00  0.00     0.213 C 
ENDBRANCH  20  22
ENDBRANCH   4  20
TORSDOF 6
ENDMDL
MODEL 4
REMARK VINA RESULT: -6.570963787      1.061      3.945
REMARK  6 active torsions:
REMARK  status: ('A' for Active; 'I' for Inactive)
REMARK    1  A    between atoms: C2_2  and  O1_3 
REMARK    2  A    between atoms: O1_3  and  C3_4 
REMARK    3  A    between atoms: C5_7  and  C6_8 
REMARK    4  A    between atoms: C6_8  and  O3_10 
REMARK    5  A    between atoms: C8_12  and  C9_13 
REMARK       I    between atoms: C9_13  and  N1_15 
REMARK    6  A    between atoms: N1_15  and  N2_17 
REMARK       I    between atoms: N2_17  and  C10_19 
REMARK       I    between atoms: C10_19  and  N3_21 
ROOT
HETATM    1  C3  UNL     1      15.767  -9.567 -26.845  1.00  0.00     0.126 A 
HETATM    2  S1  UNL     1      14.409 -10.413 -27.365  1.00  0.00    -0.075 SA
HETATM    3  C4  UNL     1      13.309  -9.135 -27.491  1.00  0.00     0.071 A 
HETATM    4  C5  UNL     1      14.049  -8.019 -27.107  1.00  0.00     0.065 A 
HETATM    5  C8  UNL     1      15.338  -8.239 -26.771  1.00  0.00     0.090 A 
ENDROOT
BRANCH   5   6
HETATM    6  C9  UNL     1      16.341  -7.218 -26.324  1.00  0.00     0.274 C 
HETATM    7  O4  UNL     1      17.183  -6.812 -27.204  1.00  0.00    -0.266 OA
HETATM    8  N1  UNL     1      16.428  -6.670 -25.053  1.00  0.00    -0.262 N 
ATOM      9  H1  UNL     1      15.773  -6.954 -24.325  1.00  0.00     0.190 HD
BRANCH   8  10
HETATM   10  N2  UNL     1      17.438  -5.712 -24.774  1.00  0.00    -0.249 N 
HETATM   11  C10 UNL     1      17.079  -4.395 -24.375  1.00  0.00     0.334 C 
HETATM   12  O5  UNL     1      15.886  -4.059 -24.265  1.00  0.00    -0.246 OA
HETATM   13  N3  UNL     1      18.103  -3.462 -24.102  1.00  0.00    -0.346 N 
HETATM   14  C11 UNL     1      17.779  -2.118 -23.697  1.00  0.00     0.151 C 
ATOM     15  H3  UNL     1      19.080  -3.741 -24.192  1.00  0.00     0.163 HD
ATOM     16  H2  UNL     1      18.421  -5.968 -24.859  1.00  0.00     0.192 HD
ENDBRANCH   8  10
ENDBRANCH   5   6
BRANCH   1  17
HETATM   17  O1  UNL     1      17.070 -10.032 -26.536  1.00  0.00    -0.343 OA
BRANCH  17  18
HETATM   18  C2  UNL     1      17.265 -10.390 -25.181  1.00  0.00     0.172 C 
HETATM   19  C1  UNL     1      18.490  -9.730 -24.596  1.00  0.00     0.034 C 
ENDBRANCH  17  18
ENDBRANCH   1  17
BRANCH   4  20
HETATM   20  C6  UNL     1      13.314  -6.718 -26.995  1.00  0.00     0.294 C 
HETATM   21  O2  UNL     1      12.163  -6.527 -27.428  1.00  0.00    -0.259 OA
BRANCH  20  22
HETATM   22  O3  UNL     1      13.901  -5.622 -26.378  1.00  0.00    -0.322 OA
HETATM   23  C7  UNL     1      14.028  -4.379 -27.053  1.00  0.00     0.213 C 
ENDBRANCH  20  22
ENDBRANCH   4  20
TORSDOF 6
ENDMDL
MODEL 5
REMARK VINA RESULT: -6.523352412      3.339      7.282
REMARK  6 active torsions:
REMARK  status: ('A' for Active; 'I' for Inactive)
REMARK    1  A    between atoms: C2_2  and  O1_3 
REMARK    2  A    between atoms: O1_3  and  C3_4 
REMARK    3  A    between atoms: C5_7  and  C6_8 
REMARK    4  A    between atoms: C6_8  and  O3_10 
REMARK    5  A    between atoms: C8_12  and  C9_13 
REMARK       I    between atoms: C9_13  and  N1_15 
REMARK    6  A    between atoms: N1_15  and  N2_17 
REMARK       I    between atoms: N2_17  and  C10_19 
REMARK       I    between atoms: C10_19  and  N3_21 
ROOT
HETATM    1  C3  UNL     1      17.770  -1.567 -23.145  1.00  0.00     0.126 A 
HETATM    2  S1  UNL     1      17.178  -0.481 -22.004  1.00  0.00    -0.075 SA
HETATM    3  C4  UNL     1      15.563  -0.979 -21.950  1.00  0.00     0.071 A 
HETATM    4  C5  UNL     1      15.506  -2.028 -22.864  1.00  0.00     0.065 A 
HETATM    5  C8  UNL     1      16.660  -2.343 -23.490  1.00  0.00     0.090 A 
ENDROOT
BRANCH   5   6
HETATM    6  C9  UNL     1      16.867  -3.421 -24.511  1.00  0.00     0.274 C 
HETATM    7  O4  UNL     1      16.345  -3.228 -25.669  1.00  0.00    -0.266 OA
HETATM    8  N1  UNL     1      17.577  -4.595 -24.316  1.00  0.00    -0.262 N 
ATOM      9  H1  UNL     1      18.019  -4.786 -23.417  1.00  0.00     0.190 HD
BRANCH   8  10
HETATM   10  N2  UNL     1      17.685  -5.531 -25.379  1.00  0.00    -0.249 N 
HETATM   11  C10 UNL     1      16.767  -6.613 -25.472  1.00  0.00     0.334 C 
HETATM   12  O5  UNL     1      15.862  -6.761 -24.632  1.00  0.00    -0.246 OA
HETATM   13  N3  UNL     1      16.897  -7.528 -26.539  1.00  0.00    -0.346 N 
HETATM   14  C11 UNL     1      15.988  -8.638 -26.666  1.00  0.00     0.151 C 
ATOM     15  H3  UNL     1      17.640  -7.402 -27.226  1.00  0.00     0.163 HD
ATOM     16  H2  UNL     1      18.422  -5.426 -26.076  1.00  0.00     0.192 HD
ENDBRANCH   8  10
ENDBRANCH   5   6
BRANCH   1  17
HETATM   17  O1  UNL     1      19.075  -1.713 -23.676  1.00  0.00    -0.343 OA
BRANCH  17  18
HETATM   18  C2  UNL     1      20.056  -2.110 -22.737  1.00  0.00     0.172 C 
HETATM   19  C1  UNL     1      21.005  -0.983 -22.405  1.00  0.00     0.034 C 
ENDBRANCH  17  18
ENDBRANCH   1  17
BRANCH   4  20
HETATM   20  C6  UNL     1      14.157  -2.618 -23.142  1.00  0.00     0.294 C 
HETATM   21  O2  UNL     1      13.515  -3.307 -22.329  1.00  0.00    -0.259 OA
BRANCH  20  22
HETATM   22  O3  UNL     1      13.533  -2.418 -24.366  1.00  0.00    -0.322 OA
HETATM   23  C7  UNL     1      12.119  -2.351 -24.468  1.00  0.00     0.213 C 
ENDBRANCH  20  22
ENDBRANCH   4  20
TORSDOF 6
ENDMDL
