MODEL 1
REMARK VINA RESULT: -6.270495711      0.000      0.000
REMARK  2 active torsions:
REMARK  status: ('A' for Active; 'I' for Inactive)
REMARK    1  A    between atoms: C2_2  and  N1_4 
REMARK    2  A    between atoms: C18_29  and  N7_30 
ROOT
HETATM    1  N1  UNL     1      -9.404   2.275  -1.466  1.00  0.00    -0.244 N 
HETATM    2  N2  UNL     1      -9.465   3.447  -1.973  1.00  0.00    -0.235 N 
ATOM      3  H2  UNL     1      -9.322   4.319  -1.462  1.00  0.00     0.209 HD
HETATM    4  N3  UNL     1      -9.737   3.355  -3.241  1.00  0.00    -0.283 N 
ATOM      5  H3  UNL     1      -9.846   4.127  -3.899  1.00  0.00     0.188 HD
HETATM    6  C4  UNL     1      -9.844   2.081  -3.508  1.00  0.00     0.088 A 
HETATM    7  C5  UNL     1      -9.649   1.252  -2.376  1.00  0.00     0.099 A 
HETATM    8  C6  UNL     1      -9.814  -0.185  -2.143  1.00  0.00     0.022 A 
HETATM    9  C7  UNL     1     -10.623  -0.323  -0.936  1.00  0.00     0.016 A 
HETATM   10  C8  UNL     1     -10.995  -1.455  -0.313  1.00  0.00     0.001 A 
HETATM   11  C9  UNL     1     -10.590  -2.631  -0.839  1.00  0.00     0.002 A 
HETATM   12  C10 UNL     1      -9.836  -2.574  -1.966  1.00  0.00     0.030 A 
HETATM   13  C11 UNL     1      -9.424  -1.376  -2.661  1.00  0.00     0.045 A 
HETATM   14  N4  UNL     1      -8.779  -1.859  -3.852  1.00  0.00    -0.353 N 
ATOM     15  H4  UNL     1      -8.931  -2.860  -3.970  1.00  0.00     0.166 HD
HETATM   16  C12 UNL     1      -7.994  -1.338  -4.905  1.00  0.00     0.072 C 
HETATM   17  C13 UNL     1      -8.630  -1.878  -6.127  1.00  0.00     0.138 C 
HETATM   18  N5  UNL     1      -9.143  -1.264  -7.244  1.00  0.00    -0.313 N 
ATOM     19  H5  UNL     1      -9.176  -1.828  -8.093  1.00  0.00     0.185 HD
HETATM   20  N6  UNL     1      -9.637   0.080  -7.354  1.00  0.00    -0.323 N 
ATOM     21  H6  UNL     1      -9.776   0.520  -8.264  1.00  0.00     0.181 HD
HETATM   22  C14 UNL     1      -9.932   0.787  -6.129  1.00  0.00     0.165 A 
HETATM   23  C15 UNL     1      -9.958   1.439  -4.836  1.00  0.00     0.006 A 
HETATM   24  C16 UNL     1      -8.706   1.074  -5.380  1.00  0.00    -0.035 A 
HETATM   25  C17 UNL     1      -7.435   1.002  -5.132  1.00  0.00     0.096 C 
HETATM   26  C18 UNL     1      -6.957  -0.426  -4.837  1.00  0.00     0.035 C 
ENDROOT
BRANCH   1  27
HETATM   27  C2  UNL     1      -9.054   2.181  -0.067  1.00  0.00     0.023 C 
HETATM   28  C1  UNL     1      -8.023   1.433   0.242  1.00  0.00     0.040 C 
HETATM   29  C3  UNL     1      -9.787   2.870   0.991  1.00  0.00     0.069 C 
ENDBRANCH   1  27
BRANCH  26  30
HETATM   30  N7  UNL     1      -5.647  -0.406  -4.591  1.00  0.00    -0.400 N 
ATOM     31  H72 UNL     1      -5.394  -1.237  -4.056  1.00  0.00     0.156 HD
ATOM     32  H71 UNL     1      -4.837   0.186  -4.776  1.00  0.00     0.156 HD
ENDBRANCH  26  30
TORSDOF 2
ENDMDL
MODEL 2
REMARK VINA RESULT: -5.635412641      1.678      2.237
REMARK  2 active torsions:
REMARK  status: ('A' for Active; 'I' for Inactive)
REMARK    1  A    between atoms: C2_2  and  N1_4 
REMARK    2  A    between atoms: C18_29  and  N7_30 
ROOT
HETATM    1  N1  UNL     1      -9.613   1.752  -2.598  1.00  0.00    -0.244 N 
HETATM    2  N2  UNL     1      -9.247   2.504  -3.565  1.00  0.00    -0.235 N 
ATOM      3  H2  UNL     1      -9.065   3.506  -3.497  1.00  0.00     0.209 HD
HETATM    4  N3  UNL     1      -9.142   1.793  -4.649  1.00  0.00    -0.283 N 
ATOM      5  H3  UNL     1      -8.868   2.127  -5.573  1.00  0.00     0.188 HD
HETATM    6  C4  UNL     1      -9.456   0.568  -4.323  1.00  0.00     0.088 A 
HETATM    7  C5  UNL     1      -9.806   0.422  -2.958  1.00  0.00     0.099 A 
HETATM    8  C6  UNL     1     -10.360  -0.686  -2.176  1.00  0.00     0.022 A 
HETATM    9  C7  UNL     1     -11.501  -0.149  -1.441  1.00  0.00     0.016 A 
HETATM   10  C8  UNL     1     -12.294  -0.787  -0.561  1.00  0.00     0.001 A 
HETATM   11  C9  UNL     1     -12.034  -2.085  -0.298  1.00  0.00     0.002 A 
HETATM   12  C10 UNL     1     -10.986  -2.648  -0.952  1.00  0.00     0.030 A 
HETATM   13  C11 UNL     1     -10.120  -1.993  -1.905  1.00  0.00     0.045 A 
HETATM   14  N4  UNL     1      -9.279  -3.047  -2.405  1.00  0.00    -0.353 N 
ATOM     15  H4  UNL     1      -9.616  -3.960  -2.100  1.00  0.00     0.166 HD
HETATM   16  C12 UNL     1      -8.117  -3.175  -3.199  1.00  0.00     0.072 C 
HETATM   17  C13 UNL     1      -8.467  -4.229  -4.178  1.00  0.00     0.138 C 
HETATM   18  N5  UNL     1      -8.466  -4.244  -5.551  1.00  0.00    -0.313 N 
ATOM     19  H5  UNL     1      -8.373  -5.159  -5.991  1.00  0.00     0.185 HD
HETATM   20  N6  UNL     1      -8.580  -3.119  -6.438  1.00  0.00    -0.323 N 
ATOM     21  H6  UNL     1      -8.335  -3.198  -7.426  1.00  0.00     0.181 HD
HETATM   22  C14 UNL     1      -9.055  -1.874  -5.881  1.00  0.00     0.165 A 
HETATM   23  C15 UNL     1      -9.313  -0.654  -5.145  1.00  0.00     0.006 A 
HETATM   24  C16 UNL     1      -8.077  -1.308  -4.949  1.00  0.00    -0.035 A 
HETATM   25  C17 UNL     1      -6.991  -1.308  -4.241  1.00  0.00     0.096 C 
HETATM   26  C18 UNL     1      -6.966  -2.409  -3.172  1.00  0.00     0.035 C 
ENDROOT
BRANCH   1  27
HETATM   27  C2  UNL     1      -9.728   2.366  -1.295  1.00  0.00     0.023 C 
HETATM   28  C1  UNL     1     -10.413   3.481  -1.217  1.00  0.00     0.040 C 
HETATM   29  C3  UNL     1      -9.124   1.807  -0.090  1.00  0.00     0.069 C 
ENDBRANCH   1  27
BRANCH  26  30
HETATM   30  N7  UNL     1      -5.822  -2.333  -2.492  1.00  0.00    -0.400 N 
ATOM     31  H72 UNL     1      -6.021  -2.390  -1.494  1.00  0.00     0.156 HD
ATOM     32  H71 UNL     1      -4.823  -2.235  -2.674  1.00  0.00     0.156 HD
ENDBRANCH  26  30
TORSDOF 2
ENDMDL
MODEL 3
REMARK VINA RESULT: -4.797543380      1.548      4.199
REMARK  2 active torsions:
REMARK  status: ('A' for Active; 'I' for Inactive)
REMARK    1  A    between atoms: C2_2  and  N1_4 
REMARK    2  A    between atoms: C18_29  and  N7_30 
ROOT
HETATM    1  N1  UNL     1     -10.662  -1.464  -1.243  1.00  0.00    -0.244 N 
HETATM    2  N2  UNL     1     -10.430  -2.713  -1.394  1.00  0.00    -0.235 N 
ATOM      3  H2  UNL     1     -11.004  -3.469  -1.019  1.00  0.00     0.209 HD
HETATM    4  N3  UNL     1      -9.350  -2.868  -2.101  1.00  0.00    -0.283 N 
ATOM      5  H3  UNL     1      -8.925  -3.753  -2.378  1.00  0.00     0.188 HD
HETATM    6  C4  UNL     1      -8.915  -1.670  -2.387  1.00  0.00     0.088 A 
HETATM    7  C5  UNL     1      -9.721  -0.637  -1.847  1.00  0.00     0.099 A 
HETATM    8  C6  UNL     1      -9.567   0.817  -1.766  1.00  0.00     0.022 A 
HETATM    9  C7  UNL     1      -9.805   1.186  -0.373  1.00  0.00     0.016 A 
HETATM   10  C8  UNL     1      -9.814   2.417   0.167  1.00  0.00     0.001 A 
HETATM   11  C9  UNL     1      -9.579   3.469  -0.646  1.00  0.00     0.002 A 
HETATM   12  C10 UNL     1      -9.346   3.195  -1.955  1.00  0.00     0.030 A 
HETATM   13  C11 UNL     1      -9.325   1.886  -2.565  1.00  0.00     0.045 A 
HETATM   14  N4  UNL     1      -8.897   2.130  -3.916  1.00  0.00    -0.353 N 
ATOM     15  H4  UNL     1      -8.570   3.089  -4.028  1.00  0.00     0.166 HD
HETATM   16  C12 UNL     1      -8.801   1.416  -5.131  1.00  0.00     0.072 C 
HETATM   17  C13 UNL     1      -7.432   1.708  -5.611  1.00  0.00     0.138 C 
HETATM   18  N5  UNL     1      -6.382   0.888  -5.947  1.00  0.00    -0.313 N 
ATOM     19  H5  UNL     1      -5.696   1.277  -6.594  1.00  0.00     0.185 HD
HETATM   20  N6  UNL     1      -6.138  -0.453  -5.492  1.00  0.00    -0.323 N 
ATOM     21  H6  UNL     1      -5.472  -1.060  -5.970  1.00  0.00     0.181 HD
HETATM   22  C14 UNL     1      -6.870  -0.908  -4.332  1.00  0.00     0.165 A 
HETATM   23  C15 UNL     1      -7.832  -1.298  -3.322  1.00  0.00     0.006 A 
HETATM   24  C16 UNL     1      -8.298  -1.044  -4.631  1.00  0.00    -0.035 A 
HETATM   25  C17 UNL     1      -9.362  -0.924  -5.361  1.00  0.00     0.096 C 
HETATM   26  C18 UNL     1      -9.711   0.535  -5.687  1.00  0.00     0.035 C 
ENDROOT
BRANCH   1  27
HETATM   27  C2  UNL     1     -11.863  -1.101  -0.526  1.00  0.00     0.023 C 
HETATM   28  C1  UNL     1     -12.801  -0.483  -1.203  1.00  0.00     0.040 C 
HETATM   29  C3  UNL     1     -12.068  -1.385   0.891  1.00  0.00     0.069 C 
ENDBRANCH   1  27
BRANCH  26  30
HETATM   30  N7  UNL     1     -10.815   0.565  -6.433  1.00  0.00    -0.400 N 
ATOM     31  H72 UNL     1     -11.357   1.396  -6.197  1.00  0.00     0.156 HD
ATOM     32  H71 UNL     1     -11.271   0.009  -7.158  1.00  0.00     0.156 HD
ENDBRANCH  26  30
TORSDOF 2
ENDMDL
MODEL 4
REMARK VINA RESULT: -4.474250931      2.110      5.500
REMARK  2 active torsions:
REMARK  status: ('A' for Active; 'I' for Inactive)
REMARK    1  A    between atoms: C2_2  and  N1_4 
REMARK    2  A    between atoms: C18_29  and  N7_30 
ROOT
HETATM    1  N1  UNL     1      -8.677  -0.871  -5.192  1.00  0.00    -0.244 N 
HETATM    2  N2  UNL     1      -8.551   0.315  -5.652  1.00  0.00    -0.235 N 
ATOM      3  H2  UNL     1      -8.481   0.560  -6.640  1.00  0.00     0.209 HD
HETATM    4  N3  UNL     1      -8.525   1.160  -4.664  1.00  0.00    -0.283 N 
ATOM      5  H3  UNL     1      -8.433   2.173  -4.731  1.00  0.00     0.188 HD
HETATM    6  C4  UNL     1      -8.641   0.457  -3.569  1.00  0.00     0.088 A 
HETATM    7  C5  UNL     1      -8.740  -0.937  -3.805  1.00  0.00     0.099 A 
HETATM    8  C6  UNL     1      -8.732  -2.106  -2.923  1.00  0.00     0.022 A 
HETATM    9  C7  UNL     1      -7.746  -3.034  -3.469  1.00  0.00     0.016 A 
HETATM   10  C8  UNL     1      -7.425  -4.261  -3.019  1.00  0.00     0.001 A 
HETATM   11  C9  UNL     1      -8.073  -4.727  -1.930  1.00  0.00     0.002 A 
HETATM   12  C10 UNL     1      -9.002  -3.911  -1.370  1.00  0.00     0.030 A 
HETATM   13  C11 UNL     1      -9.366  -2.589  -1.826  1.00  0.00     0.045 A 
HETATM   14  N4  UNL     1     -10.273  -2.104  -0.821  1.00  0.00    -0.353 N 
ATOM     15  H4  UNL     1     -10.282  -2.719  -0.008  1.00  0.00     0.166 HD
HETATM   16  C12 UNL     1     -11.156  -1.016  -0.642  1.00  0.00     0.072 C 
HETATM   17  C13 UNL     1     -10.828  -0.506   0.708  1.00  0.00     0.138 C 
HETATM   18  N5  UNL     1     -10.446   0.736   1.153  1.00  0.00    -0.313 N 
ATOM     19  H5  UNL     1     -10.642   0.943   2.132  1.00  0.00     0.185 HD
HETATM   20  N6  UNL     1      -9.802   1.776   0.400  1.00  0.00    -0.323 N 
ATOM     21  H6  UNL     1      -9.771   2.736   0.743  1.00  0.00     0.181 HD
HETATM   22  C14 UNL     1      -9.200   1.412  -0.862  1.00  0.00     0.165 A 
HETATM   23  C15 UNL     1      -8.855   0.953  -2.192  1.00  0.00     0.006 A 
HETATM   24  C16 UNL     1     -10.221   1.041  -1.845  1.00  0.00    -0.035 A 
HETATM   25  C17 UNL     1     -11.425   0.772  -2.245  1.00  0.00     0.096 C 
HETATM   26  C18 UNL     1     -12.032  -0.457  -1.555  1.00  0.00     0.035 C 
ENDROOT
BRANCH   1  27
HETATM   27  C2  UNL     1      -8.781  -1.943  -6.157  1.00  0.00     0.023 C 
HETATM   28  C1  UNL     1      -8.127  -1.798  -7.284  1.00  0.00     0.040 C 
HETATM   29  C3  UNL     1      -9.569  -3.151  -5.932  1.00  0.00     0.069 C 
ENDBRANCH   1  27
BRANCH  26  30
HETATM   30  N7  UNL     1     -13.261  -0.661  -2.027  1.00  0.00    -0.400 N 
ATOM     31  H72 UNL     1     -13.640  -1.514  -1.617  1.00  0.00     0.156 HD
ATOM     32  H71 UNL     1     -13.924  -0.223  -2.669  1.00  0.00     0.156 HD
ENDBRANCH  26  30
TORSDOF 2
ENDMDL
MODEL 5
REMARK VINA RESULT: -3.387654878      1.518      4.497
REMARK  2 active torsions:
REMARK  status: ('A' for Active; 'I' for Inactive)
REMARK    1  A    between atoms: C2_2  and  N1_4 
REMARK    2  A    between atoms: C18_29  and  N7_30 
ROOT
HETATM    1  N1  UNL     1      -9.887  -3.086  -2.371  1.00  0.00    -0.244 N 
HETATM    2  N2  UNL     1      -9.280  -4.144  -2.753  1.00  0.00    -0.235 N 
ATOM      3  H2  UNL     1      -9.613  -5.099  -2.613  1.00  0.00     0.209 HD
HETATM    4  N3  UNL     1      -8.171  -3.814  -3.348  1.00  0.00    -0.283 N 
ATOM      5  H3  UNL     1      -7.485  -4.450  -3.754  1.00  0.00     0.188 HD
HETATM    6  C4  UNL     1      -8.109  -2.510  -3.324  1.00  0.00     0.088 A 
HETATM    7  C5  UNL     1      -9.215  -1.907  -2.675  1.00  0.00     0.099 A 
HETATM    8  C6  UNL     1      -9.515  -0.531  -2.273  1.00  0.00     0.022 A 
HETATM    9  C7  UNL     1      -9.918  -0.583  -0.871  1.00  0.00     0.016 A 
HETATM   10  C8  UNL     1     -10.327   0.432  -0.088  1.00  0.00     0.001 A 
HETATM   11  C9  UNL     1     -10.386   1.667  -0.630  1.00  0.00     0.002 A 
HETATM   12  C10 UNL     1     -10.020   1.786  -1.932  1.00  0.00     0.030 A 
HETATM   13  C11 UNL     1      -9.573   0.719  -2.797  1.00  0.00     0.045 A 
HETATM   14  N4  UNL     1      -9.177   1.385  -4.008  1.00  0.00    -0.353 N 
ATOM     15  H4  UNL     1      -9.153   2.396  -3.879  1.00  0.00     0.166 HD
HETATM   16  C12 UNL     1      -8.812   1.034  -5.327  1.00  0.00     0.072 C 
HETATM   17  C13 UNL     1      -7.576   1.809  -5.575  1.00  0.00     0.138 C 
HETATM   18  N5  UNL     1      -6.312   1.427  -5.952  1.00  0.00    -0.313 N 
ATOM     19  H5  UNL     1      -5.748   2.136  -6.420  1.00  0.00     0.185 HD
HETATM   20  N6  UNL     1      -5.693   0.144  -5.764  1.00  0.00    -0.323 N 
ATOM     21  H6  UNL     1      -4.852  -0.119  -6.280  1.00  0.00     0.181 HD
HETATM   22  C14 UNL     1      -6.304  -0.761  -4.818  1.00  0.00     0.165 A 
HETATM   23  C15 UNL     1      -7.149  -1.635  -4.029  1.00  0.00     0.006 A 
HETATM   24  C16 UNL     1      -7.608  -1.224  -5.301  1.00  0.00    -0.035 A 
HETATM   25  C17 UNL     1      -8.624  -1.246  -6.106  1.00  0.00     0.096 C 
HETATM   26  C18 UNL     1      -9.384   0.086  -6.157  1.00  0.00     0.035 C 
ENDROOT
BRANCH   1  27
HETATM   27  C2  UNL     1     -11.174  -3.260  -1.735  1.00  0.00     0.023 C 
HETATM   28  C1  UNL     1     -12.231  -2.875  -2.409  1.00  0.00     0.040 C 
HETATM   29  C3  UNL     1     -11.339  -3.832  -0.402  1.00  0.00     0.069 C 
ENDBRANCH   1  27
BRANCH  26  30
HETATM   30  N7  UNL     1     -10.408  -0.026  -7.001  1.00  0.00    -0.400 N 
ATOM     31  H72 UNL     1     -11.252   0.334  -6.555  1.00  0.00     0.156 HD
ATOM     32  H71 UNL     1     -10.595  -0.363  -7.946  1.00  0.00     0.156 HD
ENDBRANCH  26  30
TORSDOF 2
ENDMDL
