MODEL 1
REMARK VINA RESULT: -6.180251358      0.000      0.000
REMARK  1 active torsions:
REMARK  status: ('A' for Active; 'I' for Inactive)
REMARK    1  A    between atoms: N1_1  and  C1_4 
ROOT
HETATM    1  C1  UNL     1     -35.350 -26.952  -5.226  1.00  0.00     0.118 C 
HETATM    2  C2  UNL     1     -36.531 -27.594  -5.534  1.00  0.00     0.154 C 
HETATM    3  N2  UNL     1     -36.745 -28.707  -6.299  1.00  0.00    -0.198 N 
ATOM      4  H2  UNL     1     -37.682 -29.108  -6.265  1.00  0.00     0.183 HD
HETATM    5  C3  UNL     1     -35.855 -29.331  -7.094  1.00  0.00     0.679 C 
HETATM    6  N3  UNL     1     -36.325 -30.029  -8.083  1.00  0.00    -0.234 N 
ATOM      7  H31 UNL     1     -35.651 -30.501  -8.685  1.00  0.00     0.174 HD
ATOM      8  H32 UNL     1     -37.339 -30.054  -8.186  1.00  0.00     0.174 HD
HETATM    9  N4  UNL     1     -34.525 -29.298  -6.959  1.00  0.00    -0.141 N 
ATOM     10  H4  UNL     1     -34.024 -29.983  -7.525  1.00  0.00     0.189 HD
HETATM   11  C4  UNL     1     -33.726 -28.503  -6.192  1.00  0.00     0.340 C 
HETATM   12  O1  UNL     1     -32.507 -28.790  -6.117  1.00  0.00    -0.246 OA
HETATM   13  N5  UNL     1     -34.108 -27.420  -5.489  1.00  0.00    -0.293 N 
ATOM     14  H5  UNL     1     -33.346 -26.868  -5.096  1.00  0.00     0.172 HD
ENDROOT
BRANCH   1  15
HETATM   15  N1  UNL     1     -35.460 -25.813  -4.640  1.00  0.00    -0.384 N 
ATOM     16  H12 UNL     1     -35.048 -24.996  -5.091  1.00  0.00     0.157 HD
ATOM     17  H11 UNL     1     -35.961 -25.810  -3.751  1.00  0.00     0.157 HD
ENDBRANCH   1  15
TORSDOF 1
ENDMDL
MODEL 2
REMARK VINA RESULT: -5.943171824      1.772      3.434
REMARK  1 active torsions:
REMARK  status: ('A' for Active; 'I' for Inactive)
REMARK    1  A    between atoms: N1_1  and  C1_4 
ROOT
HETATM    1  C1  UNL     1     -33.689 -28.739  -6.500  1.00  0.00     0.118 C 
HETATM    2  C2  UNL     1     -33.783 -27.868  -5.434  1.00  0.00     0.154 C 
HETATM    3  N2  UNL     1     -34.893 -27.347  -4.830  1.00  0.00    -0.198 N 
ATOM      4  H2  UNL     1     -34.740 -26.847  -3.953  1.00  0.00     0.183 HD
HETATM    5  C3  UNL     1     -36.165 -27.419  -5.264  1.00  0.00     0.679 C 
HETATM    6  N3  UNL     1     -36.985 -26.495  -4.863  1.00  0.00    -0.234 N 
ATOM      7  H31 UNL     1     -37.950 -26.549  -5.192  1.00  0.00     0.174 HD
ATOM      8  H32 UNL     1     -36.604 -25.779  -4.246  1.00  0.00     0.174 HD
HETATM    9  N4  UNL     1     -36.666 -28.358  -6.073  1.00  0.00    -0.141 N 
ATOM     10  H4  UNL     1     -37.684 -28.366  -6.135  1.00  0.00     0.189 HD
HETATM   11  C4  UNL     1     -36.044 -29.306  -6.829  1.00  0.00     0.340 C 
HETATM   12  O1  UNL     1     -36.755 -30.185  -7.374  1.00  0.00    -0.246 OA
HETATM   13  N5  UNL     1     -34.721 -29.408  -7.063  1.00  0.00    -0.293 N 
ATOM     14  H5  UNL     1     -34.458 -30.093  -7.771  1.00  0.00     0.172 HD
ENDROOT
BRANCH   1  15
HETATM   15  N1  UNL     1     -32.512 -28.915  -6.986  1.00  0.00    -0.384 N 
ATOM     16  H12 UNL     1     -32.431 -29.207  -7.960  1.00  0.00     0.157 HD
ATOM     17  H11 UNL     1     -31.732 -28.747  -6.351  1.00  0.00     0.157 HD
ENDBRANCH   1  15
TORSDOF 1
ENDMDL
MODEL 3
REMARK VINA RESULT: -5.835425775      1.895      2.693
REMARK  1 active torsions:
REMARK  status: ('A' for Active; 'I' for Inactive)
REMARK    1  A    between atoms: N1_1  and  C1_4 
ROOT
HETATM    1  C1  UNL     1     -33.935 -27.988  -5.447  1.00  0.00     0.118 C 
HETATM    2  C2  UNL     1     -33.682 -28.415  -6.733  1.00  0.00     0.154 C 
HETATM    3  N2  UNL     1     -34.553 -28.834  -7.700  1.00  0.00    -0.198 N 
ATOM      4  H2  UNL     1     -34.168 -28.953  -8.637  1.00  0.00     0.183 HD
HETATM    5  C3  UNL     1     -35.863 -29.107  -7.552  1.00  0.00     0.679 C 
HETATM    6  N3  UNL     1     -36.401 -29.929  -8.401  1.00  0.00    -0.234 N 
ATOM      7  H31 UNL     1     -37.393 -30.137  -8.289  1.00  0.00     0.174 HD
ATOM      8  H32 UNL     1     -35.788 -30.309  -9.122  1.00  0.00     0.174 HD
HETATM    9  N4  UNL     1     -36.666 -28.609  -6.606  1.00  0.00    -0.141 N 
ATOM     10  H4  UNL     1     -37.660 -28.770  -6.766  1.00  0.00     0.189 HD
HETATM   11  C4  UNL     1     -36.379 -27.922  -5.464  1.00  0.00     0.340 C 
HETATM   12  O1  UNL     1     -37.333 -27.414  -4.827  1.00  0.00    -0.246 OA
HETATM   13  N5  UNL     1     -35.158 -27.725  -4.931  1.00  0.00    -0.293 N 
ATOM     14  H5  UNL     1     -35.154 -27.314  -3.998  1.00  0.00     0.172 HD
ENDROOT
BRANCH   1  15
HETATM   15  N1  UNL     1     -32.909 -27.834  -4.687  1.00  0.00    -0.384 N 
ATOM     16  H12 UNL     1     -32.745 -26.913  -4.279  1.00  0.00     0.157 HD
ATOM     17  H11 UNL     1     -32.325 -28.658  -4.546  1.00  0.00     0.157 HD
ENDBRANCH   1  15
TORSDOF 1
ENDMDL
MODEL 4
REMARK VINA RESULT: -5.796496493      1.950      3.637
REMARK  1 active torsions:
REMARK  status: ('A' for Active; 'I' for Inactive)
REMARK    1  A    between atoms: N1_1  and  C1_4 
ROOT
HETATM    1  C1  UNL     1     -33.087 -28.532  -6.517  1.00  0.00     0.118 C 
HETATM    2  C2  UNL     1     -33.281 -28.047  -5.240  1.00  0.00     0.154 C 
HETATM    3  N2  UNL     1     -34.300 -27.284  -4.743  1.00  0.00    -0.198 N 
ATOM      4  H2  UNL     1     -34.331 -27.171  -3.729  1.00  0.00     0.183 HD
HETATM    5  C3  UNL     1     -35.269 -26.664  -5.443  1.00  0.00     0.679 C 
HETATM    6  N3  UNL     1     -35.830 -25.628  -4.897  1.00  0.00    -0.234 N 
ATOM      7  H31 UNL     1     -36.564 -25.158  -5.428  1.00  0.00     0.174 HD
ATOM      8  H32 UNL     1     -35.494 -25.358  -3.973  1.00  0.00     0.174 HD
HETATM    9  N4  UNL     1     -35.710 -27.018  -6.655  1.00  0.00    -0.141 N 
ATOM     10  H4  UNL     1     -36.575 -26.560  -6.942  1.00  0.00     0.189 HD
HETATM   11  C4  UNL     1     -35.197 -27.888  -7.571  1.00  0.00     0.340 C 
HETATM   12  O1  UNL     1     -35.899 -28.172  -8.571  1.00  0.00    -0.246 OA
HETATM   13  N5  UNL     1     -33.994 -28.490  -7.520  1.00  0.00    -0.293 N 
ATOM     14  H5  UNL     1     -33.725 -28.992  -8.366  1.00  0.00     0.172 HD
ENDROOT
BRANCH   1  15
HETATM   15  N1  UNL     1     -31.941 -29.063  -6.754  1.00  0.00    -0.384 N 
ATOM     16  H12 UNL     1     -31.115 -28.466  -6.717  1.00  0.00     0.157 HD
ATOM     17  H11 UNL     1     -31.942 -30.062  -6.965  1.00  0.00     0.157 HD
ENDBRANCH   1  15
TORSDOF 1
ENDMDL
MODEL 5
REMARK VINA RESULT: -5.769985741      1.829      2.797
REMARK  1 active torsions:
REMARK  status: ('A' for Active; 'I' for Inactive)
REMARK    1  A    between atoms: N1_1  and  C1_4 
ROOT
HETATM    1  C1  UNL     1     -36.475 -27.569  -5.340  1.00  0.00     0.118 C 
HETATM    2  C2  UNL     1     -35.264 -26.927  -5.496  1.00  0.00     0.154 C 
HETATM    3  N2  UNL     1     -34.163 -27.305  -6.212  1.00  0.00    -0.198 N 
ATOM      4  H2  UNL     1     -33.430 -26.604  -6.323  1.00  0.00     0.183 HD
HETATM    5  C3  UNL     1     -33.938 -28.501  -6.789  1.00  0.00     0.679 C 
HETATM    6  N3  UNL     1     -32.701 -28.844  -6.988  1.00  0.00    -0.234 N 
ATOM      7  H31 UNL     1     -32.531 -29.751  -7.424  1.00  0.00     0.174 HD
ATOM      8  H32 UNL     1     -31.987 -28.179  -6.692  1.00  0.00     0.174 HD
HETATM    9  N4  UNL     1     -34.874 -29.373  -7.177  1.00  0.00    -0.141 N 
ATOM     10  H4  UNL     1     -34.531 -30.130  -7.768  1.00  0.00     0.189 HD
HETATM   11  C4  UNL     1     -36.211 -29.420  -6.915  1.00  0.00     0.340 C 
HETATM   12  O1  UNL     1     -36.906 -30.255  -7.544  1.00  0.00    -0.246 OA
HETATM   13  N5  UNL     1     -36.885 -28.654  -6.036  1.00  0.00    -0.293 N 
ATOM     14  H5  UNL     1     -37.852 -28.933  -5.871  1.00  0.00     0.172 HD
ENDROOT
BRANCH   1  15
HETATM   15  N1  UNL     1     -37.266 -27.080  -4.453  1.00  0.00    -0.384 N 
ATOM     16  H12 UNL     1     -36.855 -26.617  -3.642  1.00  0.00     0.157 HD
ATOM     17  H11 UNL     1     -38.265 -27.192  -4.629  1.00  0.00     0.157 HD
ENDBRANCH   1  15
TORSDOF 1
ENDMDL
