MODEL 1
REMARK VINA RESULT: -7.902669454      0.000      0.000
REMARK  7 active torsions:
REMARK  status: ('A' for Active; 'I' for Inactive)
REMARK    1  A    between atoms: C2_2  and  O1_3 
REMARK    2  A    between atoms: O1_3  and  C3_4 
REMARK    3  A    between atoms: C6_7  and  C7_8 
REMARK       I    between atoms: C7_8  and  N1_10 
REMARK    4  A    between atoms: N1_10  and  C8_12 
REMARK    5  A    between atoms: C8_12  and  N2_14 
REMARK    6  A    between atoms: N2_14  and  N3_16 
REMARK       I    between atoms: N3_16  and  C9_18 
REMARK    7  A    between atoms: C9_18  and  C10_20 
ROOT
HETATM    1  C8  UNL     1      -4.585  -9.502  14.410  1.00  0.00     0.193 C 
HETATM    2  S1  UNL     1      -3.572 -10.752  14.012  1.00  0.00    -0.039 SA
ENDROOT
BRANCH   1   3
HETATM    3  N1  UNL     1      -4.107  -8.195  14.261  1.00  0.00    -0.298 N 
HETATM    4  C7  UNL     1      -4.113  -7.143  15.206  1.00  0.00     0.257 C 
HETATM    5  O2  UNL     1      -4.571  -7.253  16.350  1.00  0.00    -0.267 OA
ATOM      6  H1  UNL     1      -3.701  -7.973  13.352  1.00  0.00     0.171 HD
BRANCH   4   7
HETATM    7  C6  UNL     1      -3.530  -5.850  14.760  1.00  0.00     0.032 A 
HETATM    8  C5  UNL     1      -3.790  -5.311  13.524  1.00  0.00     0.020 A 
HETATM    9  C4  UNL     1      -3.273  -4.105  13.109  1.00  0.00     0.038 A 
HETATM   10  C3  UNL     1      -2.456  -3.392  13.957  1.00  0.00     0.068 A 
HETATM   11  C15 UNL     1      -2.182  -3.927  15.215  1.00  0.00     0.038 A 
HETATM   12  C14 UNL     1      -2.713  -5.139  15.607  1.00  0.00     0.020 A 
BRANCH  10  13
HETATM   13  O1  UNL     1      -1.929  -2.176  13.546  1.00  0.00    -0.352 OA
BRANCH  13  14
HETATM   14  C2  UNL     1      -2.506  -1.001  14.067  1.00  0.00     0.171 C 
HETATM   15  C1  UNL     1      -3.253  -0.226  13.018  1.00  0.00     0.034 C 
ENDBRANCH  13  14
ENDBRANCH  10  13
ENDBRANCH   4   7
ENDBRANCH   1   3
BRANCH   1  16
HETATM   16  N2  UNL     1      -5.866  -9.816  14.894  1.00  0.00    -0.273 N 
ATOM     17  H2  UNL     1      -6.538 -10.287  14.289  1.00  0.00     0.189 HD
BRANCH  16  18
HETATM   18  N3  UNL     1      -6.226  -9.478  16.223  1.00  0.00    -0.262 N 
HETATM   19  C9  UNL     1      -5.909 -10.326  17.329  1.00  0.00     0.293 C 
HETATM   20  O3  UNL     1      -5.300 -11.384  17.107  1.00  0.00    -0.264 OA
ATOM     21  H3  UNL     1      -6.724  -8.604  16.395  1.00  0.00     0.190 HD
BRANCH  19  22
HETATM   22  C10 UNL     1      -6.287  -9.964  18.665  1.00  0.00     0.146 A 
HETATM   23  C11 UNL     1      -6.528 -10.832  19.705  1.00  0.00     0.046 A 
HETATM   24  C12 UNL     1      -6.861 -10.071  20.801  1.00  0.00     0.048 A 
HETATM   25  C13 UNL     1      -6.807  -8.769  20.376  1.00  0.00     0.122 A 
HETATM   26 BR1  UNL     1      -7.175  -7.266  21.482  1.00  0.00    -0.023 Br
HETATM   27  O4  UNL     1      -6.468  -8.767  19.127  1.00  0.00    -0.298 OA
ENDBRANCH  19  22
ENDBRANCH  16  18
ENDBRANCH   1  16
TORSDOF 7
ENDMDL
MODEL 2
REMARK VINA RESULT: -7.733887449      1.023      1.433
REMARK  7 active torsions:
REMARK  status: ('A' for Active; 'I' for Inactive)
REMARK    1  A    between atoms: C2_2  and  O1_3 
REMARK    2  A    between atoms: O1_3  and  C3_4 
REMARK    3  A    between atoms: C6_7  and  C7_8 
REMARK       I    between atoms: C7_8  and  N1_10 
REMARK    4  A    between atoms: N1_10  and  C8_12 
REMARK    5  A    between atoms: C8_12  and  N2_14 
REMARK    6  A    between atoms: N2_14  and  N3_16 
REMARK       I    between atoms: N3_16  and  C9_18 
REMARK    7  A    between atoms: C9_18  and  C10_20 
ROOT
HETATM    1  C8  UNL     1      -3.745 -10.110  14.952  1.00  0.00     0.193 C 
HETATM    2  S1  UNL     1      -3.972 -10.961  13.548  1.00  0.00    -0.039 SA
ENDROOT
BRANCH   1   3
HETATM    3  N1  UNL     1      -3.436  -8.748  14.853  1.00  0.00    -0.298 N 
HETATM    4  C7  UNL     1      -4.230  -7.638  15.222  1.00  0.00     0.257 C 
HETATM    5  O2  UNL     1      -5.364  -7.737  15.707  1.00  0.00    -0.267 OA
ATOM      6  H1  UNL     1      -2.520  -8.528  14.464  1.00  0.00     0.171 HD
BRANCH   4   7
HETATM    7  C6  UNL     1      -3.632  -6.294  14.999  1.00  0.00     0.032 A 
HETATM    8  C5  UNL     1      -2.874  -5.657  15.950  1.00  0.00     0.020 A 
HETATM    9  C4  UNL     1      -2.299  -4.424  15.745  1.00  0.00     0.038 A 
HETATM   10  C3  UNL     1      -2.481  -3.784  14.540  1.00  0.00     0.068 A 
HETATM   11  C15 UNL     1      -3.249  -4.418  13.566  1.00  0.00     0.038 A 
HETATM   12  C14 UNL     1      -3.815  -5.655  13.795  1.00  0.00     0.020 A 
BRANCH  10  13
HETATM   13  O1  UNL     1      -1.906  -2.540  14.327  1.00  0.00    -0.352 OA
BRANCH  13  14
HETATM   14  C2  UNL     1      -2.744  -1.497  13.885  1.00  0.00     0.171 C 
HETATM   15  C1  UNL     1      -3.593  -0.946  14.995  1.00  0.00     0.034 C 
ENDBRANCH  13  14
ENDBRANCH  10  13
ENDBRANCH   4   7
ENDBRANCH   1   3
BRANCH   1  16
HETATM   16  N2  UNL     1      -3.856 -10.800  16.171  1.00  0.00    -0.273 N 
ATOM     17  H2  UNL     1      -3.416 -11.713  16.282  1.00  0.00     0.189 HD
BRANCH  16  18
HETATM   18  N3  UNL     1      -4.578 -10.227  17.248  1.00  0.00    -0.262 N 
HETATM   19  C9  UNL     1      -5.550 -10.972  17.986  1.00  0.00     0.293 C 
HETATM   20  O3  UNL     1      -5.754 -12.153  17.667  1.00  0.00    -0.264 OA
ATOM     21  H3  UNL     1      -4.401  -9.255  17.503  1.00  0.00     0.190 HD
BRANCH  19  22
HETATM   22  C10 UNL     1      -6.272 -10.369  19.070  1.00  0.00     0.146 A 
HETATM   23  C11 UNL     1      -7.129 -11.013  19.933  1.00  0.00     0.046 A 
HETATM   24  C12 UNL     1      -7.603 -10.069  20.814  1.00  0.00     0.048 A 
HETATM   25  C13 UNL     1      -7.009  -8.889  20.445  1.00  0.00     0.122 A 
HETATM   26 BR1  UNL     1      -7.297  -7.227  21.322  1.00  0.00    -0.023 Br
HETATM   27  O4  UNL     1      -6.245  -9.125  19.426  1.00  0.00    -0.298 OA
ENDBRANCH  19  22
ENDBRANCH  16  18
ENDBRANCH   1  16
TORSDOF 7
ENDMDL
MODEL 3
REMARK VINA RESULT: -7.382599065      3.535      4.730
REMARK  7 active torsions:
REMARK  status: ('A' for Active; 'I' for Inactive)
REMARK    1  A    between atoms: C2_2  and  O1_3 
REMARK    2  A    between atoms: O1_3  and  C3_4 
REMARK    3  A    between atoms: C6_7  and  C7_8 
REMARK       I    between atoms: C7_8  and  N1_10 
REMARK    4  A    between atoms: N1_10  and  C8_12 
REMARK    5  A    between atoms: C8_12  and  N2_14 
REMARK    6  A    between atoms: N2_14  and  N3_16 
REMARK       I    between atoms: N3_16  and  C9_18 
REMARK    7  A    between atoms: C9_18  and  C10_20 
ROOT
HETATM    1  C8  UNL     1      -6.016  -8.224  16.244  1.00  0.00     0.193 C 
HETATM    2  S1  UNL     1      -6.127  -8.496  17.876  1.00  0.00    -0.039 SA
ENDROOT
BRANCH   1   3
HETATM    3  N1  UNL     1      -5.281  -7.115  15.811  1.00  0.00    -0.298 N 
HETATM    4  C7  UNL     1      -4.082  -7.093  15.061  1.00  0.00     0.257 C 
HETATM    5  O2  UNL     1      -3.499  -8.113  14.673  1.00  0.00    -0.267 OA
ATOM      6  H1  UNL     1      -5.659  -6.204  16.069  1.00  0.00     0.171 HD
BRANCH   4   7
HETATM    7  C6  UNL     1      -3.525  -5.752  14.743  1.00  0.00     0.032 A 
HETATM    8  C5  UNL     1      -3.726  -5.137  13.532  1.00  0.00     0.020 A 
HETATM    9  C4  UNL     1      -3.233  -3.888  13.236  1.00  0.00     0.038 A 
HETATM   10  C3  UNL     1      -2.503  -3.207  14.183  1.00  0.00     0.068 A 
HETATM   11  C15 UNL     1      -2.289  -3.818  15.417  1.00  0.00     0.038 A 
HETATM   12  C14 UNL     1      -2.794  -5.073  15.689  1.00  0.00     0.020 A 
BRANCH  10  13
HETATM   13  O1  UNL     1      -2.001  -1.947  13.891  1.00  0.00    -0.352 OA
BRANCH  13  14
HETATM   14  C2  UNL     1      -2.751  -0.829  14.306  1.00  0.00     0.171 C 
HETATM   15  C1  UNL     1      -3.511  -0.205  13.170  1.00  0.00     0.034 C 
ENDBRANCH  13  14
ENDBRANCH  10  13
ENDBRANCH   4   7
ENDBRANCH   1   3
BRANCH   1  16
HETATM   16  N2  UNL     1      -6.680  -9.110  15.379  1.00  0.00    -0.273 N 
ATOM     17  H2  UNL     1      -7.690  -9.229  15.448  1.00  0.00     0.189 HD
BRANCH  16  18
HETATM   18  N3  UNL     1      -5.945  -9.837  14.409  1.00  0.00    -0.262 N 
HETATM   19  C9  UNL     1      -5.349 -11.102  14.706  1.00  0.00     0.293 C 
HETATM   20  O3  UNL     1      -5.488 -11.567  15.848  1.00  0.00    -0.264 OA
ATOM     21  H3  UNL     1      -5.839  -9.448  13.472  1.00  0.00     0.190 HD
BRANCH  19  22
HETATM   22  C10 UNL     1      -4.607 -11.819  13.708  1.00  0.00     0.146 A 
HETATM   23  C11 UNL     1      -5.035 -12.931  13.020  1.00  0.00     0.046 A 
HETATM   24  C12 UNL     1      -4.020 -13.295  12.166  1.00  0.00     0.048 A 
HETATM   25  C13 UNL     1      -3.018 -12.384  12.375  1.00  0.00     0.122 A 
HETATM   26 BR1  UNL     1      -1.352 -12.396  11.456  1.00  0.00    -0.023 Br
HETATM   27  O4  UNL     1      -3.415 -11.549  13.281  1.00  0.00    -0.298 OA
ENDBRANCH  19  22
ENDBRANCH  16  18
ENDBRANCH   1  16
TORSDOF 7
ENDMDL
MODEL 4
REMARK VINA RESULT: -7.329092395      2.466      2.824
REMARK  7 active torsions:
REMARK  status: ('A' for Active; 'I' for Inactive)
REMARK    1  A    between atoms: C2_2  and  O1_3 
REMARK    2  A    between atoms: O1_3  and  C3_4 
REMARK    3  A    between atoms: C6_7  and  C7_8 
REMARK       I    between atoms: C7_8  and  N1_10 
REMARK    4  A    between atoms: N1_10  and  C8_12 
REMARK    5  A    between atoms: C8_12  and  N2_14 
REMARK    6  A    between atoms: N2_14  and  N3_16 
REMARK       I    between atoms: N3_16  and  C9_18 
REMARK    7  A    between atoms: C9_18  and  C10_20 
ROOT
HETATM    1  C8  UNL     1      -4.551  -9.842  14.265  1.00  0.00     0.193 C 
HETATM    2  S1  UNL     1      -3.499 -11.080  13.933  1.00  0.00    -0.039 SA
ENDROOT
BRANCH   1   3
HETATM    3  N1  UNL     1      -4.054  -8.535  14.248  1.00  0.00    -0.298 N 
HETATM    4  C7  UNL     1      -4.284  -7.494  15.177  1.00  0.00     0.257 C 
HETATM    5  O2  UNL     1      -4.998  -7.617  16.180  1.00  0.00    -0.267 OA
ATOM      6  H1  UNL     1      -3.446  -8.301  13.463  1.00  0.00     0.171 HD
BRANCH   4   7
HETATM    7  C6  UNL     1      -3.615  -6.196  14.896  1.00  0.00     0.032 A 
HETATM    8  C5  UNL     1      -3.818  -5.498  13.731  1.00  0.00     0.020 A 
HETATM    9  C4  UNL     1      -3.221  -4.287  13.470  1.00  0.00     0.038 A 
HETATM   10  C3  UNL     1      -2.378  -3.733  14.407  1.00  0.00     0.068 A 
HETATM   11  C15 UNL     1      -2.161  -4.430  15.593  1.00  0.00     0.038 A 
HETATM   12  C14 UNL     1      -2.772  -5.643  15.831  1.00  0.00     0.020 A 
BRANCH  10  13
HETATM   13  O1  UNL     1      -1.770  -2.512  14.150  1.00  0.00    -0.352 OA
BRANCH  13  14
HETATM   14  C2  UNL     1      -2.599  -1.426  13.805  1.00  0.00     0.171 C 
HETATM   15  C1  UNL     1      -3.426  -0.956  14.968  1.00  0.00     0.034 C 
ENDBRANCH  13  14
ENDBRANCH  10  13
ENDBRANCH   4   7
ENDBRANCH   1   3
BRANCH   1  16
HETATM   16  N2  UNL     1      -5.885 -10.168  14.563  1.00  0.00    -0.273 N 
ATOM     17  H2  UNL     1      -6.621  -9.968  13.887  1.00  0.00     0.189 HD
BRANCH  16  18
HETATM   18  N3  UNL     1      -6.207 -10.776  15.802  1.00  0.00    -0.262 N 
HETATM   19  C9  UNL     1      -6.519 -12.168  15.901  1.00  0.00     0.293 C 
HETATM   20  O3  UNL     1      -6.500 -12.852  14.867  1.00  0.00    -0.264 OA
ATOM     21  H3  UNL     1      -6.217 -10.205  16.647  1.00  0.00     0.190 HD
BRANCH  19  22
HETATM   22  C10 UNL     1      -6.846 -12.760  17.167  1.00  0.00     0.146 A 
HETATM   23  C11 UNL     1      -6.833 -12.126  18.389  1.00  0.00     0.046 A 
HETATM   24  C12 UNL     1      -7.208 -13.054  19.332  1.00  0.00     0.048 A 
HETATM   25  C13 UNL     1      -7.433 -14.215  18.638  1.00  0.00     0.122 A 
HETATM   26 BR1  UNL     1      -7.982 -15.850  19.439  1.00  0.00    -0.023 Br
HETATM   27  O4  UNL     1      -7.207 -13.984  17.384  1.00  0.00    -0.298 OA
ENDBRANCH  19  22
ENDBRANCH  16  18
ENDBRANCH   1  16
TORSDOF 7
ENDMDL
MODEL 5
REMARK VINA RESULT: -7.206656717      3.019      3.395
REMARK  7 active torsions:
REMARK  status: ('A' for Active; 'I' for Inactive)
REMARK    1  A    between atoms: C2_2  and  O1_3 
REMARK    2  A    between atoms: O1_3  and  C3_4 
REMARK    3  A    between atoms: C6_7  and  C7_8 
REMARK       I    between atoms: C7_8  and  N1_10 
REMARK    4  A    between atoms: N1_10  and  C8_12 
REMARK    5  A    between atoms: C8_12  and  N2_14 
REMARK    6  A    between atoms: N2_14  and  N3_16 
REMARK       I    between atoms: N3_16  and  C9_18 
REMARK    7  A    between atoms: C9_18  and  C10_20 
ROOT
HETATM    1  C8  UNL     1      -5.722  -8.053  16.693  1.00  0.00     0.193 C 
HETATM    2  S1  UNL     1      -6.078  -7.999  18.311  1.00  0.00    -0.039 SA
ENDROOT
BRANCH   1   3
HETATM    3  N1  UNL     1      -5.028  -6.973  16.136  1.00  0.00    -0.298 N 
HETATM    4  C7  UNL     1      -3.965  -6.996  15.204  1.00  0.00     0.257 C 
HETATM    5  O2  UNL     1      -3.486  -8.038  14.738  1.00  0.00    -0.267 OA
ATOM      6  H1  UNL     1      -5.329  -6.048  16.443  1.00  0.00     0.171 HD
BRANCH   4   7
HETATM    7  C6  UNL     1      -3.421  -5.676  14.788  1.00  0.00     0.032 A 
HETATM    8  C5  UNL     1      -3.735  -5.095  13.585  1.00  0.00     0.020 A 
HETATM    9  C4  UNL     1      -3.254  -3.865  13.199  1.00  0.00     0.038 A 
HETATM   10  C3  UNL     1      -2.419  -3.170  14.045  1.00  0.00     0.068 A 
HETATM   11  C15 UNL     1      -2.090  -3.748  15.269  1.00  0.00     0.038 A 
HETATM   12  C14 UNL     1      -2.585  -4.983  15.632  1.00  0.00     0.020 A 
BRANCH  10  13
HETATM   13  O1  UNL     1      -1.928  -1.930  13.662  1.00  0.00    -0.352 OA
BRANCH  13  14
HETATM   14  C2  UNL     1      -2.579  -0.784  14.162  1.00  0.00     0.171 C 
HETATM   15  C1  UNL     1      -3.585  -0.237  13.190  1.00  0.00     0.034 C 
ENDBRANCH  13  14
ENDBRANCH  10  13
ENDBRANCH   4   7
ENDBRANCH   1   3
BRANCH   1  16
HETATM   16  N2  UNL     1      -6.147  -9.172  15.957  1.00  0.00    -0.273 N 
ATOM     17  H2  UNL     1      -6.399  -9.070  14.975  1.00  0.00     0.189 HD
BRANCH  16  18
HETATM   18  N3  UNL     1      -6.227 -10.443  16.581  1.00  0.00    -0.262 N 
HETATM   19  C9  UNL     1      -5.959 -11.652  15.866  1.00  0.00     0.293 C 
HETATM   20  O3  UNL     1      -5.647 -11.572  14.668  1.00  0.00    -0.264 OA
ATOM     21  H3  UNL     1      -6.483 -10.497  17.567  1.00  0.00     0.190 HD
BRANCH  19  22
HETATM   22  C10 UNL     1      -6.050 -12.927  16.518  1.00  0.00     0.146 A 
HETATM   23  C11 UNL     1      -5.240 -14.016  16.289  1.00  0.00     0.046 A 
HETATM   24  C12 UNL     1      -5.671 -15.024  17.120  1.00  0.00     0.048 A 
HETATM   25  C13 UNL     1      -6.727 -14.499  17.819  1.00  0.00     0.122 A 
HETATM   26 BR1  UNL     1      -7.723 -15.454  19.128  1.00  0.00    -0.023 Br
HETATM   27  O4  UNL     1      -6.901 -13.278  17.428  1.00  0.00    -0.298 OA
ENDBRANCH  19  22
ENDBRANCH  16  18
ENDBRANCH   1  16
TORSDOF 7
ENDMDL
