MODEL 1
REMARK VINA RESULT: -8.820595667      0.000      0.000
REMARK  7 active torsions:
REMARK  status: ('A' for Active; 'I' for Inactive)
REMARK    1  A    between atoms: C1_2  and  C2_3 
REMARK       I    between atoms: C1_2  and  N2_11 
REMARK    2  A    between atoms: C2_3  and  C3_4 
REMARK    3  A    between atoms: N2_11  and  C7_13 
REMARK    4  A    between atoms: C7_13  and  C8_14 
REMARK    5  A    between atoms: C7_13  and  C16_25 
REMARK       I    between atoms: C8_14  and  N3_16 
REMARK    6  A    between atoms: C11_19  and  C12_20 
REMARK    7  A    between atoms: C12_20  and  C13_21 
ROOT
HETATM    1  C7  UNL     1      -3.252   6.627 -17.501  1.00  0.00     0.180 C 
ENDROOT
BRANCH   1   2
HETATM    2  N2  UNL     1      -3.518   8.035 -17.757  1.00  0.00    -0.347 N 
HETATM    3  C1  UNL     1      -2.534   9.037 -17.608  1.00  0.00     0.220 C 
HETATM    4  O1  UNL     1      -1.382   8.720 -17.241  1.00  0.00    -0.274 OA
ATOM      5  H2  UNL     1      -4.453   8.309 -18.057  1.00  0.00     0.163 HD
BRANCH   3   6
HETATM    6  C2  UNL     1      -2.815  10.463 -17.870  1.00  0.00     0.135 C 
BRANCH   6   7
HETATM    7  C3  UNL     1      -3.699  11.056 -16.807  1.00  0.00     0.194 C 
HETATM    8  C4  UNL     1      -3.279  10.552 -15.452  1.00  0.00     0.035 C 
HETATM    9  C5  UNL     1      -3.612  11.770 -14.582  1.00  0.00     0.029 C 
HETATM   10  C6  UNL     1      -3.157  12.894 -15.488  1.00  0.00     0.233 C 
HETATM   11  N1  UNL     1      -3.716  12.484 -16.770  1.00  0.00    -0.070 N 
ATOM     12  H12 UNL     1      -3.239  12.908 -17.566  1.00  0.00     0.277 HD
ATOM     13  H11 UNL     1      -4.641  12.876 -16.944  1.00  0.00     0.277 HD
ENDBRANCH   6   7
ENDBRANCH   3   6
ENDBRANCH   1   2
BRANCH   1  14
HETATM   14  C8  UNL     1      -3.024   5.918 -18.761  1.00  0.00     0.243 C 
HETATM   15  O2  UNL     1      -2.313   4.868 -18.719  1.00  0.00    -0.271 OA
HETATM   16  N3  UNL     1      -3.527   6.294 -20.029  1.00  0.00    -0.350 N 
HETATM   17  C9  UNL     1      -3.162   5.490 -21.185  1.00  0.00     0.126 C 
HETATM   18  C15 UNL     1      -4.403   7.417 -20.280  1.00  0.00     0.126 C 
HETATM   19  C10 UNL     1      -3.662   6.081 -22.477  1.00  0.00     0.024 C 
HETATM   20  C11 UNL     1      -5.146   6.216 -22.378  1.00  0.00    -0.009 C 
HETATM   21  C14 UNL     1      -5.574   6.930 -21.137  1.00  0.00     0.024 C 
BRANCH  20  22
HETATM   22  C12 UNL     1      -5.784   6.818 -23.605  1.00  0.00     0.036 C 
BRANCH  22  23
HETATM   23  C13 UNL     1      -7.209   7.251 -23.354  1.00  0.00     0.222 C 
HETATM   24  F1  UNL     1      -7.985   6.783 -24.409  1.00  0.00    -0.255 F 
ENDBRANCH  22  23
ENDBRANCH  20  22
ENDBRANCH   1  14
BRANCH   1  25
HETATM   25  C16 UNL     1      -4.438   6.108 -16.725  1.00  0.00     0.018 C 
HETATM   26  C17 UNL     1      -5.559   5.645 -17.610  1.00  0.00     0.007 C 
HETATM   27  C18 UNL     1      -6.786   6.537 -17.493  1.00  0.00     0.000 C 
HETATM   28  C19 UNL     1      -7.347   6.600 -16.108  1.00  0.00     0.000 C 
HETATM   29  C20 UNL     1      -6.208   6.621 -15.126  1.00  0.00     0.000 C 
HETATM   30  C21 UNL     1      -4.993   7.197 -15.831  1.00  0.00     0.007 C 
ENDBRANCH   1  25
TORSDOF 7
ENDMDL
MODEL 2
REMARK VINA RESULT: -8.720071387      3.200      5.807
REMARK  7 active torsions:
REMARK  status: ('A' for Active; 'I' for Inactive)
REMARK    1  A    between atoms: C1_2  and  C2_3 
REMARK       I    between atoms: C1_2  and  N2_11 
REMARK    2  A    between atoms: C2_3  and  C3_4 
REMARK    3  A    between atoms: N2_11  and  C7_13 
REMARK    4  A    between atoms: C7_13  and  C8_14 
REMARK    5  A    between atoms: C7_13  and  C16_25 
REMARK       I    between atoms: C8_14  and  N3_16 
REMARK    6  A    between atoms: C11_19  and  C12_20 
REMARK    7  A    between atoms: C12_20  and  C13_21 
ROOT
HETATM    1  C7  UNL     1      -6.044   8.864 -20.517  1.00  0.00     0.180 C 
ENDROOT
BRANCH   1   2
HETATM    2  N2  UNL     1      -4.818   9.364 -19.914  1.00  0.00    -0.347 N 
HETATM    3  C1  UNL     1      -4.662  10.707 -19.504  1.00  0.00     0.220 C 
HETATM    4  O1  UNL     1      -5.604  11.512 -19.658  1.00  0.00    -0.274 OA
ATOM      5  H2  UNL     1      -4.039   8.718 -19.781  1.00  0.00     0.163 HD
BRANCH   3   6
HETATM    6  C2  UNL     1      -3.412  11.204 -18.893  1.00  0.00     0.135 C 
BRANCH   6   7
HETATM    7  C3  UNL     1      -3.474  11.154 -17.391  1.00  0.00     0.194 C 
HETATM    8  C4  UNL     1      -2.898  12.421 -16.814  1.00  0.00     0.035 C 
HETATM    9  C5  UNL     1      -3.755  12.571 -15.552  1.00  0.00     0.029 C 
HETATM   10  C6  UNL     1      -5.113  12.166 -16.085  1.00  0.00     0.233 C 
HETATM   11  N1  UNL     1      -4.783  10.970 -16.851  1.00  0.00    -0.070 N 
ATOM     12  H12 UNL     1      -5.480  10.749 -17.563  1.00  0.00     0.277 HD
ATOM     13  H11 UNL     1      -4.872  10.112 -16.306  1.00  0.00     0.277 HD
ENDBRANCH   6   7
ENDBRANCH   3   6
ENDBRANCH   1   2
BRANCH   1  14
HETATM   14  C8  UNL     1      -7.111   8.801 -19.517  1.00  0.00     0.243 C 
HETATM   15  O2  UNL     1      -8.242   9.280 -19.837  1.00  0.00    -0.271 OA
HETATM   16  N3  UNL     1      -7.001   8.250 -18.218  1.00  0.00    -0.350 N 
HETATM   17  C9  UNL     1      -8.158   8.312 -17.339  1.00  0.00     0.126 C 
HETATM   18  C15 UNL     1      -5.823   7.602 -17.683  1.00  0.00     0.126 C 
HETATM   19  C10 UNL     1      -7.854   7.805 -15.953  1.00  0.00     0.024 C 
HETATM   20  C11 UNL     1      -7.361   6.401 -16.073  1.00  0.00    -0.009 C 
HETATM   21  C14 UNL     1      -6.249   6.269 -17.063  1.00  0.00     0.024 C 
BRANCH  20  22
HETATM   22  C12 UNL     1      -6.997   5.771 -14.752  1.00  0.00     0.036 C 
BRANCH  22  23
HETATM   23  C13 UNL     1      -6.604   6.799 -13.717  1.00  0.00     0.222 C 
HETATM   24  F1  UNL     1      -5.257   7.093 -13.903  1.00  0.00    -0.255 F 
ENDBRANCH  22  23
ENDBRANCH  20  22
ENDBRANCH   1  14
BRANCH   1  25
HETATM   25  C16 UNL     1      -5.703   7.521 -21.116  1.00  0.00     0.018 C 
HETATM   26  C17 UNL     1      -4.254   7.160 -20.956  1.00  0.00     0.007 C 
HETATM   27  C18 UNL     1      -3.521   7.134 -22.289  1.00  0.00     0.000 C 
HETATM   28  C19 UNL     1      -4.089   6.153 -23.264  1.00  0.00     0.000 C 
HETATM   29  C20 UNL     1      -5.589   6.164 -23.141  1.00  0.00     0.000 C 
HETATM   30  C21 UNL     1      -6.004   7.521 -22.601  1.00  0.00     0.007 C 
ENDBRANCH   1  25
TORSDOF 7
ENDMDL
MODEL 3
REMARK VINA RESULT: -8.672276217      2.582      5.185
REMARK  7 active torsions:
REMARK  status: ('A' for Active; 'I' for Inactive)
REMARK    1  A    between atoms: C1_2  and  C2_3 
REMARK       I    between atoms: C1_2  and  N2_11 
REMARK    2  A    between atoms: C2_3  and  C3_4 
REMARK    3  A    between atoms: N2_11  and  C7_13 
REMARK    4  A    between atoms: C7_13  and  C8_14 
REMARK    5  A    between atoms: C7_13  and  C16_25 
REMARK       I    between atoms: C8_14  and  N3_16 
REMARK    6  A    between atoms: C11_19  and  C12_20 
REMARK    7  A    between atoms: C12_20  and  C13_21 
ROOT
HETATM    1  C7  UNL     1      -4.600   9.730 -17.283  1.00  0.00     0.180 C 
ENDROOT
BRANCH   1   2
HETATM    2  N2  UNL     1      -5.171   9.405 -18.582  1.00  0.00    -0.347 N 
HETATM    3  C1  UNL     1      -4.953  10.197 -19.731  1.00  0.00     0.220 C 
HETATM    4  O1  UNL     1      -4.245  11.223 -19.648  1.00  0.00    -0.274 OA
ATOM      5  H2  UNL     1      -5.751   8.570 -18.666  1.00  0.00     0.163 HD
BRANCH   3   6
HETATM    6  C2  UNL     1      -5.538   9.858 -21.044  1.00  0.00     0.135 C 
BRANCH   6   7
HETATM    7  C3  UNL     1      -5.734   8.373 -21.195  1.00  0.00     0.194 C 
HETATM    8  C4  UNL     1      -7.197   8.068 -21.383  1.00  0.00     0.035 C 
HETATM    9  C5  UNL     1      -7.113   6.841 -22.300  1.00  0.00     0.029 C 
HETATM   10  C6  UNL     1      -5.984   7.256 -23.220  1.00  0.00     0.233 C 
HETATM   11  N1  UNL     1      -5.009   7.780 -22.273  1.00  0.00    -0.070 N 
ATOM     12  H12 UNL     1      -4.341   8.420 -22.702  1.00  0.00     0.277 HD
ATOM     13  H11 UNL     1      -4.339   7.076 -21.961  1.00  0.00     0.277 HD
ENDBRANCH   6   7
ENDBRANCH   3   6
ENDBRANCH   1   2
BRANCH   1  14
HETATM   14  C8  UNL     1      -3.258   9.158 -17.163  1.00  0.00     0.243 C 
HETATM   15  O2  UNL     1      -2.427   9.767 -16.422  1.00  0.00    -0.271 OA
HETATM   16  N3  UNL     1      -2.797   7.980 -17.797  1.00  0.00    -0.350 N 
HETATM   17  C9  UNL     1      -1.413   7.581 -17.595  1.00  0.00     0.126 C 
HETATM   18  C15 UNL     1      -3.600   7.111 -18.628  1.00  0.00     0.126 C 
HETATM   19  C10 UNL     1      -1.032   6.386 -18.430  1.00  0.00     0.024 C 
HETATM   20  C11 UNL     1      -1.956   5.267 -18.082  1.00  0.00    -0.009 C 
HETATM   21  C14 UNL     1      -3.394   5.669 -18.155  1.00  0.00     0.024 C 
BRANCH  20  22
HETATM   22  C12 UNL     1      -1.701   4.002 -18.864  1.00  0.00     0.036 C 
BRANCH  22  23
HETATM   23  C13 UNL     1      -2.705   3.805 -19.974  1.00  0.00     0.222 C 
HETATM   24  F1  UNL     1      -2.349   4.648 -21.021  1.00  0.00    -0.255 F 
ENDBRANCH  22  23
ENDBRANCH  20  22
ENDBRANCH   1  14
BRANCH   1  25
HETATM   25  C16 UNL     1      -5.570   9.207 -16.253  1.00  0.00     0.018 C 
HETATM   26  C17 UNL     1      -4.925   8.297 -15.248  1.00  0.00     0.007 C 
HETATM   27  C18 UNL     1      -5.411   6.862 -15.383  1.00  0.00     0.000 C 
HETATM   28  C19 UNL     1      -6.886   6.711 -15.193  1.00  0.00     0.000 C 
HETATM   29  C20 UNL     1      -7.577   7.885 -15.832  1.00  0.00     0.000 C 
HETATM   30  C21 UNL     1      -6.674   8.420 -16.929  1.00  0.00     0.007 C 
ENDBRANCH   1  25
TORSDOF 7
ENDMDL
MODEL 4
REMARK VINA RESULT: -8.651782860      3.469      6.411
REMARK  7 active torsions:
REMARK  status: ('A' for Active; 'I' for Inactive)
REMARK    1  A    between atoms: C1_2  and  C2_3 
REMARK       I    between atoms: C1_2  and  N2_11 
REMARK    2  A    between atoms: C2_3  and  C3_4 
REMARK    3  A    between atoms: N2_11  and  C7_13 
REMARK    4  A    between atoms: C7_13  and  C8_14 
REMARK    5  A    between atoms: C7_13  and  C16_25 
REMARK       I    between atoms: C8_14  and  N3_16 
REMARK    6  A    between atoms: C11_19  and  C12_20 
REMARK    7  A    between atoms: C12_20  and  C13_21 
ROOT
HETATM    1  C7  UNL     1      -6.577   7.785 -20.332  1.00  0.00     0.180 C 
ENDROOT
BRANCH   1   2
HETATM    2  N2  UNL     1      -5.346   7.010 -20.268  1.00  0.00    -0.347 N 
HETATM    3  C1  UNL     1      -4.555   6.739 -21.407  1.00  0.00     0.220 C 
HETATM    4  O1  UNL     1      -4.912   7.174 -22.523  1.00  0.00    -0.274 OA
ATOM      5  H2  UNL     1      -5.042   6.649 -19.364  1.00  0.00     0.163 HD
BRANCH   3   6
HETATM    6  C2  UNL     1      -3.308   5.952 -21.331  1.00  0.00     0.135 C 
BRANCH   6   7
HETATM    7  C3  UNL     1      -3.114   5.355 -19.963  1.00  0.00     0.194 C 
HETATM    8  C4  UNL     1      -2.532   3.971 -20.088  1.00  0.00     0.035 C 
HETATM    9  C5  UNL     1      -1.678   3.909 -18.816  1.00  0.00     0.029 C 
HETATM   10  C6  UNL     1      -1.101   5.309 -18.797  1.00  0.00     0.233 C 
HETATM   11  N1  UNL     1      -2.279   6.116 -19.090  1.00  0.00    -0.070 N 
ATOM     12  H12 UNL     1      -2.047   7.037 -19.464  1.00  0.00     0.277 HD
ATOM     13  H11 UNL     1      -2.764   6.431 -18.250  1.00  0.00     0.277 HD
ENDBRANCH   6   7
ENDBRANCH   3   6
ENDBRANCH   1   2
BRANCH   1  14
HETATM   14  C8  UNL     1      -6.279   9.215 -20.242  1.00  0.00     0.243 C 
HETATM   15  O2  UNL     1      -6.991  10.004 -20.937  1.00  0.00    -0.271 OA
HETATM   16  N3  UNL     1      -5.268   9.806 -19.448  1.00  0.00    -0.350 N 
HETATM   17  C9  UNL     1      -5.087  11.248 -19.517  1.00  0.00     0.126 C 
HETATM   18  C15 UNL     1      -4.394   9.093 -18.544  1.00  0.00     0.126 C 
HETATM   19  C10 UNL     1      -3.897  11.716 -18.721  1.00  0.00     0.024 C 
HETATM   20  C11 UNL     1      -4.088  11.278 -17.306  1.00  0.00    -0.009 C 
HETATM   21  C14 UNL     1      -4.401   9.821 -17.197  1.00  0.00     0.024 C 
BRANCH  20  22
HETATM   22  C12 UNL     1      -2.952  11.665 -16.392  1.00  0.00     0.036 C 
BRANCH  22  23
HETATM   23  C13 UNL     1      -3.267  12.901 -15.583  1.00  0.00     0.222 C 
HETATM   24  F1  UNL     1      -2.092  13.635 -15.459  1.00  0.00    -0.255 F 
ENDBRANCH  22  23
ENDBRANCH  20  22
ENDBRANCH   1  14
BRANCH   1  25
HETATM   25  C16 UNL     1      -7.450   7.282 -19.208  1.00  0.00     0.018 C 
HETATM   26  C17 UNL     1      -8.250   8.371 -18.555  1.00  0.00     0.007 C 
HETATM   27  C18 UNL     1      -7.800   8.631 -17.124  1.00  0.00     0.000 C 
HETATM   28  C19 UNL     1      -7.921   7.436 -16.235  1.00  0.00     0.000 C 
HETATM   29  C20 UNL     1      -7.534   6.210 -17.018  1.00  0.00     0.000 C 
HETATM   30  C21 UNL     1      -6.597   6.643 -18.132  1.00  0.00     0.007 C 
ENDBRANCH   1  25
TORSDOF 7
ENDMDL
MODEL 5
REMARK VINA RESULT: -8.606037815      2.186      5.030
REMARK  7 active torsions:
REMARK  status: ('A' for Active; 'I' for Inactive)
REMARK    1  A    between atoms: C1_2  and  C2_3 
REMARK       I    between atoms: C1_2  and  N2_11 
REMARK    2  A    between atoms: C2_3  and  C3_4 
REMARK    3  A    between atoms: N2_11  and  C7_13 
REMARK    4  A    between atoms: C7_13  and  C8_14 
REMARK    5  A    between atoms: C7_13  and  C16_25 
REMARK       I    between atoms: C8_14  and  N3_16 
REMARK    6  A    between atoms: C11_19  and  C12_20 
REMARK    7  A    between atoms: C12_20  and  C13_21 
ROOT
HETATM    1  C7  UNL     1      -3.741   9.513 -17.559  1.00  0.00     0.180 C 
ENDROOT
BRANCH   1   2
HETATM    2  N2  UNL     1      -2.546   8.687 -17.657  1.00  0.00    -0.347 N 
HETATM    3  C1  UNL     1      -2.547   7.306 -17.363  1.00  0.00     0.220 C 
HETATM    4  O1  UNL     1      -3.608   6.753 -17.001  1.00  0.00    -0.274 OA
ATOM      5  H2  UNL     1      -1.673   9.124 -17.951  1.00  0.00     0.163 HD
BRANCH   3   6
HETATM    6  C2  UNL     1      -1.329   6.478 -17.465  1.00  0.00     0.135 C 
BRANCH   6   7
HETATM    7  C3  UNL     1      -1.222   5.816 -18.812  1.00  0.00     0.194 C 
HETATM    8  C4  UNL     1      -0.933   4.348 -18.638  1.00  0.00     0.035 C 
HETATM    9  C5  UNL     1      -1.667   3.771 -19.855  1.00  0.00     0.029 C 
HETATM   10  C6  UNL     1      -2.923   4.617 -19.852  1.00  0.00     0.233 C 
HETATM   11  N1  UNL     1      -2.378   5.951 -19.639  1.00  0.00    -0.070 N 
ATOM     12  H12 UNL     1      -3.064   6.605 -19.260  1.00  0.00     0.277 HD
ATOM     13  H11 UNL     1      -2.188   6.447 -20.510  1.00  0.00     0.277 HD
ENDBRANCH   6   7
ENDBRANCH   3   6
ENDBRANCH   1   2
BRANCH   1  14
HETATM   14  C8  UNL     1      -4.171   9.940 -18.891  1.00  0.00     0.243 C 
HETATM   15  O2  UNL     1      -3.679  11.019 -19.345  1.00  0.00    -0.271 OA
HETATM   16  N3  UNL     1      -5.088   9.259 -19.727  1.00  0.00    -0.350 N 
HETATM   17  C9  UNL     1      -5.431   9.857 -21.009  1.00  0.00     0.126 C 
HETATM   18  C15 UNL     1      -5.710   7.990 -19.424  1.00  0.00     0.126 C 
HETATM   19  C10 UNL     1      -6.509   9.089 -21.729  1.00  0.00     0.024 C 
HETATM   20  C11 UNL     1      -6.031   7.687 -21.915  1.00  0.00    -0.009 C 
HETATM   21  C14 UNL     1      -5.549   7.074 -20.640  1.00  0.00     0.024 C 
BRANCH  20  22
HETATM   22  C12 UNL     1      -7.026   6.793 -22.611  1.00  0.00     0.036 C 
BRANCH  22  23
HETATM   23  C13 UNL     1      -7.373   7.292 -23.994  1.00  0.00     0.222 C 
HETATM   24  F1  UNL     1      -8.468   6.562 -24.445  1.00  0.00    -0.255 F 
ENDBRANCH  22  23
ENDBRANCH  20  22
ENDBRANCH   1  14
BRANCH   1  25
HETATM   25  C16 UNL     1      -3.387  10.661 -16.645  1.00  0.00     0.018 C 
HETATM   26  C17 UNL     1      -2.953  10.211 -15.281  1.00  0.00     0.007 C 
HETATM   27  C18 UNL     1      -3.953  10.607 -14.204  1.00  0.00     0.000 C 
HETATM   28  C19 UNL     1      -4.170  12.083 -14.106  1.00  0.00     0.000 C 
HETATM   29  C20 UNL     1      -4.170  12.664 -15.494  1.00  0.00     0.000 C 
HETATM   30  C21 UNL     1      -4.585  11.568 -16.460  1.00  0.00     0.007 C 
ENDBRANCH   1  25
TORSDOF 7
ENDMDL
