MODEL 1
REMARK VINA RESULT: -7.418822598      0.000      0.000
REMARK  5 active torsions:
REMARK  status: ('A' for Active; 'I' for Inactive)
REMARK    1  A    between atoms: C3_4  and  S2_5 
REMARK    2  A    between atoms: S2_5  and  N1_8 
REMARK       I    between atoms: N1_8  and  C4_10 
REMARK    3  A    between atoms: C4_10  and  C5_12 
REMARK    4  A    between atoms: C5_12  and  C6_13 
REMARK    5  A    between atoms: C16_23  and  N2_24 
ROOT
HETATM    1  N1  UNL     1      10.307   6.235   0.796  1.00  0.00    -0.250 N 
ATOM      2  H1  UNL     1      10.651   5.368   1.209  1.00  0.00     0.181 HD
HETATM    3  C4  UNL     1       9.363   7.024   1.498  1.00  0.00     0.231 C 
HETATM    4  O3  UNL     1       8.970   8.082   0.949  1.00  0.00    -0.273 OA
ENDROOT
BRANCH   1   5
HETATM    5  S2  UNL     1      10.870   6.724  -0.734  1.00  0.00     0.274 S 
HETATM    6  O1  UNL     1       9.748   6.782  -1.741  1.00  0.00    -0.200 OA
HETATM    7  O2  UNL     1      11.550   8.064  -0.682  1.00  0.00    -0.200 OA
BRANCH   5   8
HETATM    8  C3  UNL     1      12.088   5.583  -1.333  1.00  0.00     0.155 A 
HETATM    9  S1  UNL     1      11.880   4.308  -2.437  1.00  0.00    -0.077 SA
HETATM   10  C2  UNL     1      13.473   3.717  -2.482  1.00  0.00     0.004 A 
HETATM   11  C1  UNL     1      14.032   2.562  -3.277  1.00  0.00     0.058 C 
HETATM   12  C17 UNL     1      14.140   4.544  -1.620  1.00  0.00     0.082 A 
HETATM   13  C16 UNL     1      13.420   5.516  -1.021  1.00  0.00     0.155 A 
HETATM   14 CL1  UNL     1      15.891   4.326  -1.317  1.00  0.00    -0.081 Cl
BRANCH  13  15
HETATM   15  N2  UNL     1      13.967   6.479  -0.079  1.00  0.00    -0.112 N 
HETATM   16  O4  UNL     1      14.516   7.494  -0.499  1.00  0.00    -0.532 OA
HETATM   17  O5  UNL     1      13.856   6.231   1.242  1.00  0.00    -0.532 OA
ENDBRANCH  13  15
ENDBRANCH   5   8
ENDBRANCH   1   5
BRANCH   3  18
HETATM   18  C5  UNL     1       8.919   6.548   2.808  1.00  0.00     0.113 C 
BRANCH  18  19
HETATM   19  C6  UNL     1       9.733   6.935   3.982  1.00  0.00    -0.031 C 
HETATM   20  C7  UNL     1      11.163   7.254   3.660  1.00  0.00     0.014 C 
HETATM   21  C8  UNL     1      11.867   7.833   4.875  1.00  0.00    -0.013 C 
HETATM   22  C9  UNL     1      11.867   6.844   6.014  1.00  0.00     0.009 C 
HETATM   23  C13 UNL     1      11.212   9.101   5.352  1.00  0.00     0.009 C 
HETATM   24  C10 UNL     1      10.441   6.472   6.301  1.00  0.00    -0.013 C 
HETATM   25  C11 UNL     1       9.722   7.698   6.810  1.00  0.00     0.009 C 
HETATM   26  C15 UNL     1       9.724   5.915   5.091  1.00  0.00     0.014 C 
HETATM   27  C12 UNL     1       9.792   8.743   5.734  1.00  0.00    -0.013 C 
HETATM   28  C14 UNL     1       9.103   8.231   4.516  1.00  0.00     0.014 C 
ENDBRANCH  18  19
ENDBRANCH   3  18
TORSDOF 5
ENDMDL
MODEL 2
REMARK VINA RESULT: -7.369878054      0.374      1.436
REMARK  5 active torsions:
REMARK  status: ('A' for Active; 'I' for Inactive)
REMARK    1  A    between atoms: C3_4  and  S2_5 
REMARK    2  A    between atoms: S2_5  and  N1_8 
REMARK       I    between atoms: N1_8  and  C4_10 
REMARK    3  A    between atoms: C4_10  and  C5_12 
REMARK    4  A    between atoms: C5_12  and  C6_13 
REMARK    5  A    between atoms: C16_23  and  N2_24 
ROOT
HETATM    1  N1  UNL     1      10.434   6.273   1.033  1.00  0.00    -0.250 N 
ATOM      2  H1  UNL     1      10.837   5.432   1.445  1.00  0.00     0.181 HD
HETATM    3  C4  UNL     1       9.550   7.076   1.795  1.00  0.00     0.231 C 
HETATM    4  O3  UNL     1       9.080   8.102   1.245  1.00  0.00    -0.273 OA
ENDROOT
BRANCH   1   5
HETATM    5  S2  UNL     1      10.826   6.703  -0.567  1.00  0.00     0.274 S 
HETATM    6  O1  UNL     1       9.613   6.655  -1.463  1.00  0.00    -0.200 OA
HETATM    7  O2  UNL     1      11.440   8.072  -0.647  1.00  0.00    -0.200 OA
BRANCH   5   8
HETATM    8  C3  UNL     1      12.038   5.586  -1.223  1.00  0.00     0.155 A 
HETATM    9  S1  UNL     1      11.812   4.334  -2.349  1.00  0.00    -0.077 SA
HETATM   10  C2  UNL     1      13.409   3.759  -2.448  1.00  0.00     0.004 A 
HETATM   11  C1  UNL     1      13.957   2.627  -3.283  1.00  0.00     0.058 C 
HETATM   12  C17 UNL     1      14.090   4.573  -1.585  1.00  0.00     0.082 A 
HETATM   13  C16 UNL     1      13.378   5.525  -0.946  1.00  0.00     0.155 A 
HETATM   14 CL1  UNL     1      15.850   4.364  -1.332  1.00  0.00    -0.081 Cl
BRANCH  13  15
HETATM   15  N2  UNL     1      13.940   6.471   0.003  1.00  0.00    -0.112 N 
HETATM   16  O4  UNL     1      14.542   7.459  -0.410  1.00  0.00    -0.532 OA
HETATM   17  O5  UNL     1      13.787   6.239   1.322  1.00  0.00    -0.532 OA
ENDBRANCH  13  15
ENDBRANCH   5   8
ENDBRANCH   1   5
BRANCH   3  18
HETATM   18  C5  UNL     1       9.254   6.652   3.163  1.00  0.00     0.113 C 
BRANCH  18  19
HETATM   19  C6  UNL     1      10.066   7.245   4.248  1.00  0.00    -0.031 C 
HETATM   20  C7  UNL     1       9.533   8.545   4.774  1.00  0.00     0.014 C 
HETATM   21  C8  UNL     1      10.303   8.975   6.011  1.00  0.00    -0.013 C 
HETATM   22  C9  UNL     1      11.763   9.180   5.687  1.00  0.00     0.009 C 
HETATM   23  C13 UNL     1      10.204   7.960   7.116  1.00  0.00     0.009 C 
HETATM   24  C10 UNL     1      12.288   7.901   5.101  1.00  0.00    -0.013 C 
HETATM   25  C11 UNL     1      12.240   6.834   6.168  1.00  0.00     0.009 C 
HETATM   26  C15 UNL     1      11.513   7.451   3.882  1.00  0.00     0.014 C 
HETATM   27  C12 UNL     1      10.807   6.676   6.587  1.00  0.00    -0.013 C 
HETATM   28  C14 UNL     1      10.002   6.241   5.410  1.00  0.00     0.014 C 
ENDBRANCH  18  19
ENDBRANCH   3  18
TORSDOF 5
ENDMDL
MODEL 3
REMARK VINA RESULT: -7.219117480      0.394      1.466
REMARK  5 active torsions:
REMARK  status: ('A' for Active; 'I' for Inactive)
REMARK    1  A    between atoms: C3_4  and  S2_5 
REMARK    2  A    between atoms: S2_5  and  N1_8 
REMARK       I    between atoms: N1_8  and  C4_10 
REMARK    3  A    between atoms: C4_10  and  C5_12 
REMARK    4  A    between atoms: C5_12  and  C6_13 
REMARK    5  A    between atoms: C16_23  and  N2_24 
ROOT
HETATM    1  N1  UNL     1      10.382   6.260   1.083  1.00  0.00    -0.250 N 
ATOM      2  H1  UNL     1      10.774   5.404   1.476  1.00  0.00     0.181 HD
HETATM    3  C4  UNL     1       9.476   7.037   1.847  1.00  0.00     0.231 C 
HETATM    4  O3  UNL     1       9.022   8.081   1.320  1.00  0.00    -0.273 OA
ENDROOT
BRANCH   1   5
HETATM    5  S2  UNL     1      10.820   6.745  -0.489  1.00  0.00     0.274 S 
HETATM    6  O1  UNL     1       9.626   6.763  -1.412  1.00  0.00    -0.200 OA
HETATM    7  O2  UNL     1      11.466   8.102  -0.500  1.00  0.00    -0.200 OA
BRANCH   5   8
HETATM    8  C3  UNL     1      12.020   5.628  -1.164  1.00  0.00     0.155 A 
HETATM    9  S1  UNL     1      11.779   4.387  -2.301  1.00  0.00    -0.077 SA
HETATM   10  C2  UNL     1      13.372   3.805  -2.417  1.00  0.00     0.004 A 
HETATM   11  C1  UNL     1      13.907   2.678  -3.266  1.00  0.00     0.058 C 
HETATM   12  C17 UNL     1      14.064   4.607  -1.552  1.00  0.00     0.082 A 
HETATM   13  C16 UNL     1      13.362   5.557  -0.899  1.00  0.00     0.155 A 
HETATM   14 CL1  UNL     1      15.825   4.386  -1.314  1.00  0.00    -0.081 Cl
BRANCH  13  15
HETATM   15  N2  UNL     1      13.937   6.491   0.055  1.00  0.00    -0.112 N 
HETATM   16  O4  UNL     1      14.537   7.482  -0.353  1.00  0.00    -0.532 OA
HETATM   17  O5  UNL     1      13.797   6.244   1.373  1.00  0.00    -0.532 OA
ENDBRANCH  13  15
ENDBRANCH   5   8
ENDBRANCH   1   5
BRANCH   3  18
HETATM   18  C5  UNL     1       9.142   6.565   3.190  1.00  0.00     0.113 C 
BRANCH  18  19
HETATM   19  C6  UNL     1       9.906   7.137   4.321  1.00  0.00    -0.031 C 
HETATM   20  C7  UNL     1      10.033   6.221   5.502  1.00  0.00     0.014 C 
HETATM   21  C8  UNL     1      10.995   6.801   6.525  1.00  0.00    -0.013 C 
HETATM   22  C9  UNL     1      10.497   8.131   7.032  1.00  0.00     0.009 C 
HETATM   23  C13 UNL     1      12.371   7.001   5.951  1.00  0.00     0.009 C 
HETATM   24  C10 UNL     1      10.307   9.034   5.848  1.00  0.00    -0.013 C 
HETATM   25  C11 UNL     1      11.658   9.300   5.230  1.00  0.00     0.009 C 
HETATM   26  C15 UNL     1       9.368   8.456   4.813  1.00  0.00     0.014 C 
HETATM   27  C12 UNL     1      12.230   7.978   4.803  1.00  0.00    -0.013 C 
HETATM   28  C14 UNL     1      11.328   7.367   3.787  1.00  0.00     0.014 C 
ENDBRANCH  18  19
ENDBRANCH   3  18
TORSDOF 5
ENDMDL
MODEL 4
REMARK VINA RESULT: -7.158983299      0.936      1.927
REMARK  5 active torsions:
REMARK  status: ('A' for Active; 'I' for Inactive)
REMARK    1  A    between atoms: C3_4  and  S2_5 
REMARK    2  A    between atoms: S2_5  and  N1_8 
REMARK       I    between atoms: N1_8  and  C4_10 
REMARK    3  A    between atoms: C4_10  and  C5_12 
REMARK    4  A    between atoms: C5_12  and  C6_13 
REMARK    5  A    between atoms: C16_23  and  N2_24 
ROOT
HETATM    1  N1  UNL     1      11.352   7.167   1.016  1.00  0.00    -0.250 N 
ATOM      2  H1  UNL     1      12.061   6.633   1.517  1.00  0.00     0.181 HD
HETATM    3  C4  UNL     1      10.625   8.180   1.690  1.00  0.00     0.231 C 
HETATM    4  O3  UNL     1       9.764   8.810   1.030  1.00  0.00    -0.273 OA
ENDROOT
BRANCH   1   5
HETATM    5  S2  UNL     1      11.047   6.836  -0.626  1.00  0.00     0.274 S 
HETATM    6  O1  UNL     1       9.661   6.276  -0.826  1.00  0.00    -0.200 OA
HETATM    7  O2  UNL     1      11.210   8.058  -1.486  1.00  0.00    -0.200 OA
BRANCH   5   8
HETATM    8  C3  UNL     1      12.213   5.650  -1.239  1.00  0.00     0.155 A 
HETATM    9  S1  UNL     1      11.923   4.321  -2.259  1.00  0.00    -0.077 SA
HETATM   10  C2  UNL     1      13.504   3.708  -2.373  1.00  0.00     0.004 A 
HETATM   11  C1  UNL     1      14.001   2.506  -3.139  1.00  0.00     0.058 C 
HETATM   12  C17 UNL     1      14.232   4.570  -1.600  1.00  0.00     0.082 A 
HETATM   13  C16 UNL     1      13.562   5.582  -1.009  1.00  0.00     0.155 A 
HETATM   14 CL1  UNL     1      15.997   4.346  -1.397  1.00  0.00    -0.081 Cl
BRANCH  13  15
HETATM   15  N2  UNL     1      14.177   6.585  -0.156  1.00  0.00    -0.112 N 
HETATM   16  O4  UNL     1      14.616   7.619  -0.654  1.00  0.00    -0.532 OA
HETATM   17  O5  UNL     1      14.250   6.355   1.171  1.00  0.00    -0.532 OA
ENDBRANCH  13  15
ENDBRANCH   5   8
ENDBRANCH   1   5
BRANCH   3  18
HETATM   18  C5  UNL     1      10.935   8.415   3.100  1.00  0.00     0.113 C 
BRANCH  18  19
HETATM   19  C6  UNL     1      10.061   7.768   4.104  1.00  0.00    -0.031 C 
HETATM   20  C7  UNL     1       9.066   6.807   3.523  1.00  0.00     0.014 C 
HETATM   21  C8  UNL     1       8.357   6.043   4.628  1.00  0.00    -0.013 C 
HETATM   22  C9  UNL     1       7.604   6.987   5.532  1.00  0.00     0.009 C 
HETATM   23  C13 UNL     1       9.319   5.251   5.471  1.00  0.00     0.009 C 
HETATM   24  C10 UNL     1       8.583   7.991   6.068  1.00  0.00    -0.013 C 
HETATM   25  C11 UNL     1       9.573   7.268   6.948  1.00  0.00     0.009 C 
HETATM   26  C15 UNL     1       9.312   8.742   4.975  1.00  0.00     0.014 C 
HETATM   27  C12 UNL     1      10.273   6.245   6.098  1.00  0.00    -0.013 C 
HETATM   28  C14 UNL     1      10.998   6.943   5.000  1.00  0.00     0.014 C 
ENDBRANCH  18  19
ENDBRANCH   3  18
TORSDOF 5
ENDMDL
MODEL 5
REMARK VINA RESULT: -7.127998129      3.331      6.516
REMARK  5 active torsions:
REMARK  status: ('A' for Active; 'I' for Inactive)
REMARK    1  A    between atoms: C3_4  and  S2_5 
REMARK    2  A    between atoms: S2_5  and  N1_8 
REMARK       I    between atoms: N1_8  and  C4_10 
REMARK    3  A    between atoms: C4_10  and  C5_12 
REMARK    4  A    between atoms: C5_12  and  C6_13 
REMARK    5  A    between atoms: C16_23  and  N2_24 
ROOT
HETATM    1  N1  UNL     1       9.728   8.578   1.794  1.00  0.00    -0.250 N 
ATOM      2  H1  UNL     1      10.011   9.327   1.162  1.00  0.00     0.181 HD
HETATM    3  C4  UNL     1       9.624   7.250   1.312  1.00  0.00     0.231 C 
HETATM    4  O3  UNL     1       9.273   6.364   2.129  1.00  0.00    -0.273 OA
ENDROOT
BRANCH   1   5
HETATM    5  S2  UNL     1       9.384   8.933   3.423  1.00  0.00     0.274 S 
HETATM    6  O1  UNL     1       9.250  10.419   3.646  1.00  0.00    -0.200 OA
HETATM    7  O2  UNL     1       8.129   8.253   3.895  1.00  0.00    -0.200 OA
BRANCH   5   8
HETATM    8  C3  UNL     1      10.684   8.335   4.470  1.00  0.00     0.155 A 
HETATM    9  S1  UNL     1      10.599   7.136   5.671  1.00  0.00    -0.077 SA
HETATM   10  C2  UNL     1      12.216   7.151   6.193  1.00  0.00     0.004 A 
HETATM   11  C1  UNL     1      12.873   6.316   7.266  1.00  0.00     0.058 C 
HETATM   12  C17 UNL     1      12.793   8.108   5.404  1.00  0.00     0.082 A 
HETATM   13  C16 UNL     1      11.997   8.725   4.506  1.00  0.00     0.155 A 
HETATM   14 CL1  UNL     1      14.530   8.505   5.573  1.00  0.00    -0.081 Cl
BRANCH  13  15
HETATM   15  N2  UNL     1      12.443   9.763   3.591  1.00  0.00    -0.112 N 
HETATM   16  O4  UNL     1      12.715   9.472   2.430  1.00  0.00    -0.532 OA
HETATM   17  O5  UNL     1      12.548  11.029   4.045  1.00  0.00    -0.532 OA
ENDBRANCH  13  15
ENDBRANCH   5   8
ENDBRANCH   1   5
BRANCH   3  18
HETATM   18  C5  UNL     1       9.934   7.012  -0.097  1.00  0.00     0.113 C 
BRANCH  18  19
HETATM   19  C6  UNL     1      11.312   6.585  -0.426  1.00  0.00    -0.031 C 
HETATM   20  C7  UNL     1      12.003   7.461  -1.429  1.00  0.00     0.014 C 
HETATM   21  C8  UNL     1      13.467   7.076  -1.553  1.00  0.00    -0.013 C 
HETATM   22  C9  UNL     1      13.606   5.649  -2.024  1.00  0.00     0.009 C 
HETATM   23  C13 UNL     1      14.198   7.213  -0.245  1.00  0.00     0.009 C 
HETATM   24  C10 UNL     1      12.862   4.772  -1.059  1.00  0.00    -0.013 C 
HETATM   25  C11 UNL     1      13.556   4.841   0.280  1.00  0.00     0.009 C 
HETATM   26  C15 UNL     1      11.408   5.162  -0.910  1.00  0.00     0.014 C 
HETATM   27  C12 UNL     1      13.526   6.273   0.732  1.00  0.00    -0.013 C 
HETATM   28  C14 UNL     1      12.107   6.703   0.884  1.00  0.00     0.014 C 
ENDBRANCH  18  19
ENDBRANCH   3  18
TORSDOF 5
ENDMDL
