MODEL 1
REMARK VINA RESULT: -7.661970265      0.000      0.000
REMARK  14 active torsions:
REMARK  status: ('A' for Active; 'I' for Inactive)
REMARK    1  A    between atoms: C2_2  and  C3_3 
REMARK    2  A    between atoms: C3_3  and  C4_4 
REMARK    3  A    between atoms: C4_4  and  C5_5 
REMARK    4  A    between atoms: C5_5  and  N1_6 
REMARK       I    between atoms: C6_8  and  N3_10 
REMARK    5  A    between atoms: N3_10  and  C7_12 
REMARK    6  A    between atoms: C7_12  and  C8_13 
REMARK    7  A    between atoms: C8_13  and  C9_14 
REMARK    8  A    between atoms: C9_14  and  N4_15 
REMARK    9  A    between atoms: N4_15  and  C10_17 
REMARK   10  A    between atoms: C11_22  and  N7_23 
REMARK   11  A    between atoms: N7_23  and  C12_25 
REMARK   12  A    between atoms: C12_25  and  C13_26 
REMARK   13  A    between atoms: C13_26  and  N8_27 
REMARK   14  A    between atoms: N10_33  and  O1_34 
ROOT
HETATM    1  C10 UNL     1      13.466  25.490  24.756  1.00  0.00     0.735 A 
HETATM    2  N5  UNL     1      13.961  25.971  25.903  1.00  0.00    -0.114 N 
ATOM      3  H5  UNL     1      14.376  25.334  26.582  1.00  0.00     0.206 HD
HETATM    4  N6  UNL     1      13.914  27.264  26.161  1.00  0.00    -0.117 N 
ATOM      5  H6  UNL     1      14.297  27.607  27.042  1.00  0.00     0.206 HD
HETATM    6  C11 UNL     1      13.369  28.156  25.284  1.00  0.00     0.710 A 
HETATM    7  N9  UNL     1      12.887  27.661  24.157  1.00  0.00    -0.089 N 
ATOM      8  H9  UNL     1      12.471  28.297  23.477  1.00  0.00     0.209 HD
HETATM    9  N10 UNL     1      12.925  26.354  23.879  1.00  0.00     0.032 N 
ENDROOT
BRANCH   1  10
HETATM   10  N4  UNL     1      13.499  24.232  24.455  1.00  0.00    -0.221 N 
ATOM     11  H4  UNL     1      12.944  23.571  24.998  1.00  0.00     0.177 HD
BRANCH  10  12
HETATM   12  C9  UNL     1      14.320  23.746  23.348  1.00  0.00     0.140 C 
BRANCH  12  13
HETATM   13  C8  UNL     1      15.229  22.670  23.916  1.00  0.00     0.040 C 
BRANCH  13  14
HETATM   14  C7  UNL     1      14.791  21.296  23.476  1.00  0.00     0.124 C 
BRANCH  14  15
HETATM   15  N3  UNL     1      14.655  21.285  22.049  1.00  0.00    -0.364 N 
HETATM   16  C6  UNL     1      13.578  20.593  21.451  1.00  0.00     0.187 C 
HETATM   17  N1  UNL     1      13.203  20.685  20.263  1.00  0.00    -0.344 N 
HETATM   18  N2  UNL     1      12.800  19.665  22.259  1.00  0.00    -0.064 NA
ATOM     19  H1  UNL     1      12.405  20.066  20.118  1.00  0.00     0.167 HD
ATOM     20  H3  UNL     1      15.334  21.775  21.467  1.00  0.00     0.162 HD
BRANCH  17  21
HETATM   21  C5  UNL     1      13.491  21.329  19.083  1.00  0.00     0.063 C 
BRANCH  21  22
HETATM   22  C4  UNL     1      12.700  22.526  18.670  1.00  0.00     0.044 C 
BRANCH  22  23
HETATM   23  C3  UNL     1      11.201  22.301  18.823  1.00  0.00     0.005 C 
BRANCH  23  24
HETATM   24  C2  UNL     1      10.610  23.502  19.528  1.00  0.00    -0.004 C 
HETATM   25  C1  UNL     1       9.232  23.744  18.975  1.00  0.00     0.005 C 
ENDBRANCH  23  24
ENDBRANCH  22  23
ENDBRANCH  21  22
ENDBRANCH  17  21
ENDBRANCH  14  15
ENDBRANCH  13  14
ENDBRANCH  12  13
ENDBRANCH  10  12
ENDBRANCH   1  10
BRANCH   9  26
HETATM   26  O1  UNL     1      12.433  25.985  22.771  1.00  0.00    -0.254 OA
ATOM     27  H1  UNL     1      12.223  26.596  22.075  1.00  0.00     0.247 HD
ENDBRANCH   9  26
BRANCH   6  28
HETATM   28  N7  UNL     1      13.389  29.374  25.643  1.00  0.00    -0.222 N 
ATOM     29  H7  UNL     1      14.256  29.880  25.467  1.00  0.00     0.177 HD
BRANCH  28  30
HETATM   30  C12 UNL     1      12.344  30.120  26.264  1.00  0.00     0.165 C 
BRANCH  30  31
HETATM   31  C13 UNL     1      12.834  31.363  26.972  1.00  0.00     0.249 C 
BRANCH  31  32
HETATM   32  N8  UNL     1      11.780  32.072  27.659  1.00  0.00    -0.078 N 
ATOM     33  H83 UNL     1      11.213  32.609  27.002  1.00  0.00     0.274 HD
ATOM     34  H82 UNL     1      11.070  31.425  28.003  1.00  0.00     0.274 HD
ATOM     35  H81 UNL     1      12.126  32.666  28.413  1.00  0.00     0.274 HD
ENDBRANCH  31  32
ENDBRANCH  30  31
ENDBRANCH  28  30
ENDBRANCH   6  28
TORSDOF 14
ENDMDL
MODEL 2
REMARK VINA RESULT: -7.632307603      1.469      1.865
REMARK  14 active torsions:
REMARK  status: ('A' for Active; 'I' for Inactive)
REMARK    1  A    between atoms: C2_2  and  C3_3 
REMARK    2  A    between atoms: C3_3  and  C4_4 
REMARK    3  A    between atoms: C4_4  and  C5_5 
REMARK    4  A    between atoms: C5_5  and  N1_6 
REMARK       I    between atoms: C6_8  and  N3_10 
REMARK    5  A    between atoms: N3_10  and  C7_12 
REMARK    6  A    between atoms: C7_12  and  C8_13 
REMARK    7  A    between atoms: C8_13  and  C9_14 
REMARK    8  A    between atoms: C9_14  and  N4_15 
REMARK    9  A    between atoms: N4_15  and  C10_17 
REMARK   10  A    between atoms: C11_22  and  N7_23 
REMARK   11  A    between atoms: N7_23  and  C12_25 
REMARK   12  A    between atoms: C12_25  and  C13_26 
REMARK   13  A    between atoms: C13_26  and  N8_27 
REMARK   14  A    between atoms: N10_33  and  O1_34 
ROOT
HETATM    1  C10 UNL     1      13.740  26.732  25.148  1.00  0.00     0.735 A 
HETATM    2  N5  UNL     1      12.946  27.421  24.320  1.00  0.00    -0.114 N 
ATOM      3  H5  UNL     1      12.722  27.042  23.401  1.00  0.00     0.206 HD
HETATM    4  N6  UNL     1      12.451  28.588  24.685  1.00  0.00    -0.117 N 
ATOM      5  H6  UNL     1      11.849  29.096  24.037  1.00  0.00     0.206 HD
HETATM    6  C11 UNL     1      12.721  29.137  25.906  1.00  0.00     0.710 A 
HETATM    7  N9  UNL     1      13.507  28.440  26.709  1.00  0.00    -0.089 N 
ATOM      8  H9  UNL     1      13.732  28.818  27.629  1.00  0.00     0.209 HD
HETATM    9  N10 UNL     1      14.017  27.257  26.355  1.00  0.00     0.032 N 
ENDROOT
BRANCH   1  10
HETATM   10  N4  UNL     1      14.240  25.580  24.837  1.00  0.00    -0.221 N 
ATOM     11  H4  UNL     1      14.990  25.187  25.406  1.00  0.00     0.177 HD
BRANCH  10  12
HETATM   12  C9  UNL     1      13.743  24.834  23.682  1.00  0.00     0.140 C 
BRANCH  12  13
HETATM   13  C8  UNL     1      13.580  23.391  24.130  1.00  0.00     0.040 C 
BRANCH  13  14
HETATM   14  C7  UNL     1      14.766  22.555  23.721  1.00  0.00     0.124 C 
BRANCH  14  15
HETATM   15  N3  UNL     1      14.713  22.330  22.306  1.00  0.00    -0.364 N 
HETATM   16  C6  UNL     1      14.368  21.054  21.809  1.00  0.00     0.187 C 
HETATM   17  N1  UNL     1      14.060  20.772  20.633  1.00  0.00    -0.344 N 
HETATM   18  N2  UNL     1      14.361  19.920  22.723  1.00  0.00    -0.064 NA
ATOM     19  H1  UNL     1      13.864  19.773  20.571  1.00  0.00     0.167 HD
ATOM     20  H3  UNL     1      14.924  23.090  21.659  1.00  0.00     0.162 HD
BRANCH  17  21
HETATM   21  C5  UNL     1      13.892  21.339  19.391  1.00  0.00     0.063 C 
BRANCH  21  22
HETATM   22  C4  UNL     1      12.521  21.501  18.820  1.00  0.00     0.044 C 
BRANCH  22  23
HETATM   23  C3  UNL     1      11.914  22.853  19.168  1.00  0.00     0.005 C 
BRANCH  23  24
HETATM   24  C2  UNL     1      10.453  22.832  18.778  1.00  0.00    -0.004 C 
HETATM   25  C1  UNL     1       9.754  23.956  19.495  1.00  0.00     0.005 C 
ENDBRANCH  23  24
ENDBRANCH  22  23
ENDBRANCH  21  22
ENDBRANCH  17  21
ENDBRANCH  14  15
ENDBRANCH  13  14
ENDBRANCH  12  13
ENDBRANCH  10  12
ENDBRANCH   1  10
BRANCH   9  26
HETATM   26  O1  UNL     1      14.761  26.673  27.199  1.00  0.00    -0.254 OA
ATOM     27  H1  UNL     1      15.528  27.086  27.577  1.00  0.00     0.247 HD
ENDBRANCH   9  26
BRANCH   6  28
HETATM   28  N7  UNL     1      12.182  30.262  26.143  1.00  0.00    -0.222 N 
ATOM     29  H7  UNL     1      11.236  30.390  25.785  1.00  0.00     0.177 HD
BRANCH  28  30
HETATM   30  C12 UNL     1      12.739  31.369  26.849  1.00  0.00     0.165 C 
BRANCH  30  31
HETATM   31  C13 UNL     1      11.727  32.445  27.171  1.00  0.00     0.249 C 
BRANCH  31  32
HETATM   32  N8  UNL     1      10.675  31.985  28.045  1.00  0.00    -0.078 N 
ATOM     33  H83 UNL     1       9.963  32.706  28.171  1.00  0.00     0.274 HD
ATOM     34  H82 UNL     1      10.109  31.269  27.590  1.00  0.00     0.274 HD
ATOM     35  H81 UNL     1      11.021  31.656  28.947  1.00  0.00     0.274 HD
ENDBRANCH  31  32
ENDBRANCH  30  31
ENDBRANCH  28  30
ENDBRANCH   6  28
TORSDOF 14
ENDMDL
MODEL 3
REMARK VINA RESULT: -7.543742820      2.250      3.402
REMARK  14 active torsions:
REMARK  status: ('A' for Active; 'I' for Inactive)
REMARK    1  A    between atoms: C2_2  and  C3_3 
REMARK    2  A    between atoms: C3_3  and  C4_4 
REMARK    3  A    between atoms: C4_4  and  C5_5 
REMARK    4  A    between atoms: C5_5  and  N1_6 
REMARK       I    between atoms: C6_8  and  N3_10 
REMARK    5  A    between atoms: N3_10  and  C7_12 
REMARK    6  A    between atoms: C7_12  and  C8_13 
REMARK    7  A    between atoms: C8_13  and  C9_14 
REMARK    8  A    between atoms: C9_14  and  N4_15 
REMARK    9  A    between atoms: N4_15  and  C10_17 
REMARK   10  A    between atoms: C11_22  and  N7_23 
REMARK   11  A    between atoms: N7_23  and  C12_25 
REMARK   12  A    between atoms: C12_25  and  C13_26 
REMARK   13  A    between atoms: C13_26  and  N8_27 
REMARK   14  A    between atoms: N10_33  and  O1_34 
ROOT
HETATM    1  C10 UNL     1      12.629  25.035  24.719  1.00  0.00     0.735 A 
HETATM    2  N5  UNL     1      13.202  25.430  25.862  1.00  0.00    -0.114 N 
ATOM      3  H5  UNL     1      13.193  24.813  26.674  1.00  0.00     0.206 HD
HETATM    4  N6  UNL     1      13.780  26.614  25.946  1.00  0.00    -0.117 N 
ATOM      5  H6  UNL     1      14.210  26.893  26.828  1.00  0.00     0.206 HD
HETATM    6  C11 UNL     1      13.818  27.475  24.887  1.00  0.00     0.710 A 
HETATM    7  N9  UNL     1      13.246  27.064  23.768  1.00  0.00    -0.089 N 
ATOM      8  H9  UNL     1      13.255  27.681  22.955  1.00  0.00     0.209 HD
HETATM    9  N10 UNL     1      12.657  25.869  23.665  1.00  0.00     0.032 N 
ENDROOT
BRANCH   1  10
HETATM   10  N4  UNL     1      12.060  23.880  24.588  1.00  0.00    -0.221 N 
ATOM     11  H4  UNL     1      12.592  23.098  24.206  1.00  0.00     0.177 HD
BRANCH  10  12
HETATM   12  C9  UNL     1      10.666  23.681  24.980  1.00  0.00     0.140 C 
BRANCH  12  13
HETATM   13  C8  UNL     1      10.059  22.724  23.968  1.00  0.00     0.040 C 
BRANCH  13  14
HETATM   14  C7  UNL     1       9.212  23.459  22.962  1.00  0.00     0.124 C 
BRANCH  14  15
HETATM   15  N3  UNL     1       9.579  23.034  21.643  1.00  0.00    -0.364 N 
HETATM   16  C6  UNL     1       9.899  23.995  20.658  1.00  0.00     0.187 C 
HETATM   17  N1  UNL     1      10.450  23.778  19.559  1.00  0.00    -0.344 N 
HETATM   18  N2  UNL     1       9.569  25.392  20.902  1.00  0.00    -0.064 NA
ATOM     19  H1  UNL     1      10.550  24.661  19.057  1.00  0.00     0.167 HD
ATOM     20  H3  UNL     1       9.610  22.040  21.416  1.00  0.00     0.162 HD
BRANCH  17  21
HETATM   21  C5  UNL     1      10.969  22.764  18.788  1.00  0.00     0.063 C 
BRANCH  21  22
HETATM   22  C4  UNL     1      12.448  22.616  18.642  1.00  0.00     0.044 C 
BRANCH  22  23
HETATM   23  C3  UNL     1      12.905  21.182  18.877  1.00  0.00     0.005 C 
BRANCH  23  24
HETATM   24  C2  UNL     1      14.016  21.200  19.903  1.00  0.00    -0.004 C 
HETATM   25  C1  UNL     1      13.579  20.383  21.089  1.00  0.00     0.005 C 
ENDBRANCH  23  24
ENDBRANCH  22  23
ENDBRANCH  21  22
ENDBRANCH  17  21
ENDBRANCH  14  15
ENDBRANCH  13  14
ENDBRANCH  12  13
ENDBRANCH  10  12
ENDBRANCH   1  10
BRANCH   9  26
HETATM   26  O1  UNL     1      12.138  25.576  22.547  1.00  0.00    -0.254 OA
ATOM     27  H1  UNL     1      12.435  24.843  22.022  1.00  0.00     0.247 HD
ENDBRANCH   9  26
BRANCH   6  28
HETATM   28  N7  UNL     1      14.407  28.582  25.090  1.00  0.00    -0.222 N 
ATOM     29  H7  UNL     1      15.277  28.728  24.578  1.00  0.00     0.177 HD
BRANCH  28  30
HETATM   30  C12 UNL     1      14.000  29.645  25.948  1.00  0.00     0.165 C 
BRANCH  30  31
HETATM   31  C13 UNL     1      12.500  29.825  26.010  1.00  0.00     0.249 C 
BRANCH  31  32
HETATM   32  N8  UNL     1      12.097  30.891  26.896  1.00  0.00    -0.078 N 
ATOM     33  H83 UNL     1      11.137  30.756  27.215  1.00  0.00     0.274 HD
ATOM     34  H82 UNL     1      12.582  30.825  27.790  1.00  0.00     0.274 HD
ATOM     35  H81 UNL     1      12.217  31.817  26.484  1.00  0.00     0.274 HD
ENDBRANCH  31  32
ENDBRANCH  30  31
ENDBRANCH  28  30
ENDBRANCH   6  28
TORSDOF 14
ENDMDL
MODEL 4
REMARK VINA RESULT: -7.316989407      2.612      3.437
REMARK  14 active torsions:
REMARK  status: ('A' for Active; 'I' for Inactive)
REMARK    1  A    between atoms: C2_2  and  C3_3 
REMARK    2  A    between atoms: C3_3  and  C4_4 
REMARK    3  A    between atoms: C4_4  and  C5_5 
REMARK    4  A    between atoms: C5_5  and  N1_6 
REMARK       I    between atoms: C6_8  and  N3_10 
REMARK    5  A    between atoms: N3_10  and  C7_12 
REMARK    6  A    between atoms: C7_12  and  C8_13 
REMARK    7  A    between atoms: C8_13  and  C9_14 
REMARK    8  A    between atoms: C9_14  and  N4_15 
REMARK    9  A    between atoms: N4_15  and  C10_17 
REMARK   10  A    between atoms: C11_22  and  N7_23 
REMARK   11  A    between atoms: N7_23  and  C12_25 
REMARK   12  A    between atoms: C12_25  and  C13_26 
REMARK   13  A    between atoms: C13_26  and  N8_27 
REMARK   14  A    between atoms: N10_33  and  O1_34 
ROOT
HETATM    1  C10 UNL     1      13.838  27.178  25.232  1.00  0.00     0.735 A 
HETATM    2  N5  UNL     1      13.214  28.063  24.444  1.00  0.00    -0.114 N 
ATOM      3  H5  UNL     1      13.104  27.866  23.450  1.00  0.00     0.206 HD
HETATM    4  N6  UNL     1      12.741  29.188  24.945  1.00  0.00    -0.117 N 
ATOM      5  H6  UNL     1      12.270  29.846  24.325  1.00  0.00     0.206 HD
HETATM    6  C11 UNL     1      12.863  29.496  26.270  1.00  0.00     0.710 A 
HETATM    7  N9  UNL     1      13.482  28.609  27.030  1.00  0.00    -0.089 N 
ATOM      8  H9  UNL     1      13.594  28.804  28.025  1.00  0.00     0.209 HD
HETATM    9  N10 UNL     1      13.968  27.465  26.540  1.00  0.00     0.032 N 
ENDROOT
BRANCH   1  10
HETATM   10  N4  UNL     1      14.309  26.059  24.787  1.00  0.00    -0.221 N 
ATOM     11  H4  UNL     1      15.281  25.813  24.971  1.00  0.00     0.177 HD
BRANCH  10  12
HETATM   12  C9  UNL     1      13.466  25.141  24.023  1.00  0.00     0.140 C 
BRANCH  12  13
HETATM   13  C8  UNL     1      12.813  24.206  25.027  1.00  0.00     0.040 C 
BRANCH  13  14
HETATM   14  C7  UNL     1      11.310  24.309  24.971  1.00  0.00     0.124 C 
BRANCH  14  15
HETATM   15  N3  UNL     1      10.876  24.070  23.626  1.00  0.00    -0.364 N 
HETATM   16  C6  UNL     1       9.707  23.312  23.389  1.00  0.00     0.187 C 
HETATM   17  N1  UNL     1       9.088  23.219  22.309  1.00  0.00    -0.344 N 
HETATM   18  N2  UNL     1       9.132  22.542  24.482  1.00  0.00    -0.064 NA
ATOM     19  H1  UNL     1       8.287  22.601  22.438  1.00  0.00     0.167 HD
ATOM     20  H3  UNL     1      11.408  24.447  22.842  1.00  0.00     0.162 HD
BRANCH  17  21
HETATM   21  C5  UNL     1       9.110  23.658  21.006  1.00  0.00     0.063 C 
BRANCH  21  22
HETATM   22  C4  UNL     1      10.415  23.886  20.314  1.00  0.00     0.044 C 
BRANCH  22  23
HETATM   23  C3  UNL     1      10.636  22.901  19.174  1.00  0.00     0.005 C 
BRANCH  23  24
HETATM   24  C2  UNL     1      12.120  22.832  18.888  1.00  0.00    -0.004 C 
HETATM   25  C1  UNL     1      12.524  21.384  18.828  1.00  0.00     0.005 C 
ENDBRANCH  23  24
ENDBRANCH  22  23
ENDBRANCH  21  22
ENDBRANCH  17  21
ENDBRANCH  14  15
ENDBRANCH  13  14
ENDBRANCH  12  13
ENDBRANCH  10  12
ENDBRANCH   1  10
BRANCH   9  26
HETATM   26  O1  UNL     1      14.545  26.686  27.355  1.00  0.00    -0.254 OA
ATOM     27  H1  UNL     1      14.166  26.450  28.194  1.00  0.00     0.247 HD
ENDBRANCH   9  26
BRANCH   6  28
HETATM   28  N7  UNL     1      12.362  30.605  26.632  1.00  0.00    -0.222 N 
ATOM     29  H7  UNL     1      12.974  31.220  27.169  1.00  0.00     0.177 HD
BRANCH  28  30
HETATM   30  C12 UNL     1      11.047  31.095  26.380  1.00  0.00     0.165 C 
BRANCH  30  31
HETATM   31  C13 UNL     1      10.692  32.312  27.206  1.00  0.00     0.249 C 
BRANCH  31  32
HETATM   32  N8  UNL     1      10.071  31.976  28.464  1.00  0.00    -0.078 N 
ATOM     33  H83 UNL     1       9.867  30.977  28.516  1.00  0.00     0.274 HD
ATOM     34  H82 UNL     1      10.738  32.050  29.232  1.00  0.00     0.274 HD
ATOM     35  H81 UNL     1       9.234  32.528  28.655  1.00  0.00     0.274 HD
ENDBRANCH  31  32
ENDBRANCH  30  31
ENDBRANCH  28  30
ENDBRANCH   6  28
TORSDOF 14
ENDMDL
MODEL 5
REMARK VINA RESULT: -7.180864304      1.810      3.240
REMARK  14 active torsions:
REMARK  status: ('A' for Active; 'I' for Inactive)
REMARK    1  A    between atoms: C2_2  and  C3_3 
REMARK    2  A    between atoms: C3_3  and  C4_4 
REMARK    3  A    between atoms: C4_4  and  C5_5 
REMARK    4  A    between atoms: C5_5  and  N1_6 
REMARK       I    between atoms: C6_8  and  N3_10 
REMARK    5  A    between atoms: N3_10  and  C7_12 
REMARK    6  A    between atoms: C7_12  and  C8_13 
REMARK    7  A    between atoms: C8_13  and  C9_14 
REMARK    8  A    between atoms: C9_14  and  N4_15 
REMARK    9  A    between atoms: N4_15  and  C10_17 
REMARK   10  A    between atoms: C11_22  and  N7_23 
REMARK   11  A    between atoms: N7_23  and  C12_25 
REMARK   12  A    between atoms: C12_25  and  C13_26 
REMARK   13  A    between atoms: C13_26  and  N8_27 
REMARK   14  A    between atoms: N10_33  and  O1_34 
ROOT
HETATM    1  C10 UNL     1      12.933  28.450  25.200  1.00  0.00     0.735 A 
HETATM    2  N5  UNL     1      13.560  28.687  26.358  1.00  0.00    -0.114 N 
ATOM      3  H5  UNL     1      14.257  28.028  26.701  1.00  0.00     0.206 HD
HETATM    4  N6  UNL     1      13.281  29.769  27.060  1.00  0.00    -0.117 N 
ATOM      5  H6  UNL     1      13.772  29.929  27.939  1.00  0.00     0.206 HD
HETATM    6  C11 UNL     1      12.356  30.682  26.642  1.00  0.00     0.710 A 
HETATM    7  N9  UNL     1      11.748  30.428  25.495  1.00  0.00    -0.089 N 
ATOM      8  H9  UNL     1      11.049  31.087  25.151  1.00  0.00     0.209 HD
HETATM    9  N10 UNL     1      12.017  29.337  24.772  1.00  0.00     0.032 N 
ENDROOT
BRANCH   1  10
HETATM   10  N4  UNL     1      13.180  27.407  24.474  1.00  0.00    -0.221 N 
ATOM     11  H4  UNL     1      13.665  27.518  23.584  1.00  0.00     0.177 HD
BRANCH  10  12
HETATM   12  C9  UNL     1      12.775  26.073  24.914  1.00  0.00     0.140 C 
BRANCH  12  13
HETATM   13  C8  UNL     1      13.196  25.105  23.822  1.00  0.00     0.040 C 
BRANCH  13  14
HETATM   14  C7  UNL     1      13.996  23.959  24.387  1.00  0.00     0.124 C 
BRANCH  14  15
HETATM   15  N3  UNL     1      13.819  22.809  23.550  1.00  0.00    -0.364 N 
HETATM   16  C6  UNL     1      14.846  21.845  23.452  1.00  0.00     0.187 C 
HETATM   17  N1  UNL     1      14.749  20.701  22.960  1.00  0.00    -0.344 N 
HETATM   18  N2  UNL     1      16.171  22.173  23.959  1.00  0.00    -0.064 NA
ATOM     19  H1  UNL     1      15.654  20.234  23.025  1.00  0.00     0.167 HD
ATOM     20  H3  UNL     1      12.952  22.686  23.027  1.00  0.00     0.162 HD
BRANCH  17  21
HETATM   21  C5  UNL     1      13.849  19.853  22.361  1.00  0.00     0.063 C 
BRANCH  21  22
HETATM   22  C4  UNL     1      13.064  20.310  21.174  1.00  0.00     0.044 C 
BRANCH  22  23
HETATM   23  C3  UNL     1      13.934  21.046  20.163  1.00  0.00     0.005 C 
BRANCH  23  24
HETATM   24  C2  UNL     1      13.033  21.882  19.282  1.00  0.00    -0.004 C 
HETATM   25  C1  UNL     1      13.716  22.076  17.955  1.00  0.00     0.005 C 
ENDBRANCH  23  24
ENDBRANCH  22  23
ENDBRANCH  21  22
ENDBRANCH  17  21
ENDBRANCH  14  15
ENDBRANCH  13  14
ENDBRANCH  12  13
ENDBRANCH  10  12
ENDBRANCH   1  10
BRANCH   9  26
HETATM   26  O1  UNL     1      11.376  29.189  23.689  1.00  0.00    -0.254 OA
ATOM     27  H1  UNL     1      11.371  29.847  23.004  1.00  0.00     0.247 HD
ENDBRANCH   9  26
BRANCH   6  28
HETATM   28  N7  UNL     1      12.180  31.685  27.401  1.00  0.00    -0.222 N 
ATOM     29  H7  UNL     1      12.824  31.771  28.187  1.00  0.00     0.177 HD
BRANCH  28  30
HETATM   30  C12 UNL     1      11.193  32.708  27.286  1.00  0.00     0.165 C 
BRANCH  30  31
HETATM   31  C13 UNL     1       9.824  32.275  27.763  1.00  0.00     0.249 C 
BRANCH  31  32
HETATM   32  N8  UNL     1       9.860  31.600  29.038  1.00  0.00    -0.078 N 
ATOM     33  H83 UNL     1      10.201  32.223  29.771  1.00  0.00     0.274 HD
ATOM     34  H82 UNL     1       8.917  31.431  29.388  1.00  0.00     0.274 HD
ATOM     35  H81 UNL     1      10.400  30.735  29.016  1.00  0.00     0.274 HD
ENDBRANCH  31  32
ENDBRANCH  30  31
ENDBRANCH  28  30
ENDBRANCH   6  28
TORSDOF 14
ENDMDL
