MODEL 1
REMARK VINA RESULT: -7.730685747      0.000      0.000
REMARK  12 active torsions:
REMARK  status: ('A' for Active; 'I' for Inactive)
REMARK    1  A    between atoms: O1_2  and  C2_3 
REMARK    2  A    between atoms: C2_3  and  C3_5 
REMARK    3  A    between atoms: C3_5  and  N1_7 
REMARK       I    between atoms: N1_7  and  C5_9 
REMARK    4  A    between atoms: C5_9  and  C6_11 
REMARK    5  A    between atoms: C6_11  and  O4_12 
REMARK    6  A    between atoms: O4_12  and  N2_13 
REMARK    7  A    between atoms: C9_18  and  N4_19 
REMARK    8  A    between atoms: N4_19  and  C10_21 
REMARK    9  A    between atoms: C11_24  and  N6_25 
REMARK   10  A    between atoms: C12_30  and  N8_31 
REMARK   11  A    between atoms: C13_34  and  N9_35 
REMARK   12  A    between atoms: N9_35  and  O5_36 
ROOT
HETATM    1  N4  UNL     1     -40.133  -2.688 -11.410  1.00  0.00    -0.172 N 
ATOM      2  H4  UNL     1     -40.029  -2.506 -10.412  1.00  0.00     0.186 HD
ENDROOT
BRANCH   1   3
HETATM    3  C9  UNL     1     -40.962  -3.773 -11.797  1.00  0.00     0.701 C 
HETATM    4  N2  UNL     1     -41.719  -3.827 -12.991  1.00  0.00    -0.086 N 
HETATM    5  C7  UNL     1     -41.925  -5.236 -13.269  1.00  0.00     0.195 C 
HETATM    6  C8  UNL     1     -42.062  -5.747 -11.823  1.00  0.00     0.161 C 
HETATM    7  N3  UNL     1     -41.136  -4.847 -11.113  1.00  0.00    -0.223 N 
ATOM      8  H3  UNL     1     -40.699  -5.047 -10.214  1.00  0.00     0.177 HD
BRANCH   4   9
HETATM    9  O4  UNL     1     -42.173  -2.769 -13.746  1.00  0.00    -0.255 OA
BRANCH   9  10
HETATM   10  C6  UNL     1     -43.300  -3.161 -14.478  1.00  0.00     0.304 C 
BRANCH  10  11
HETATM   11  C5  UNL     1     -44.255  -2.046 -14.647  1.00  0.00     0.244 C 
HETATM   12  N1  UNL     1     -43.773  -0.720 -14.700  1.00  0.00    -0.346 N 
ATOM     13  H1  UNL     1     -42.771  -0.542 -14.622  1.00  0.00     0.163 HD
HETATM   14  O3  UNL     1     -45.497  -2.269 -14.745  1.00  0.00    -0.271 OA
BRANCH  12  15
HETATM   15  C3  UNL     1     -44.672   0.374 -14.864  1.00  0.00     0.180 C 
HETATM   16  C4  UNL     1     -45.190   0.914 -13.549  1.00  0.00     0.043 C 
BRANCH  15  17
HETATM   17  C2  UNL     1     -44.045   1.528 -15.574  1.00  0.00     0.281 C 
HETATM   18  O2  UNL     1     -42.842   1.570 -15.922  1.00  0.00    -0.263 OA
BRANCH  17  19
HETATM   19  O1  UNL     1     -44.861   2.613 -15.859  1.00  0.00    -0.325 OA
HETATM   20  C1  UNL     1     -44.807   3.291 -17.083  1.00  0.00     0.213 C 
ENDBRANCH  17  19
ENDBRANCH  15  17
ENDBRANCH  12  15
ENDBRANCH  10  11
ENDBRANCH   9  10
ENDBRANCH   4   9
ENDBRANCH   1   3
BRANCH   1  21
HETATM   21  C10 UNL     1     -39.443  -1.845 -12.300  1.00  0.00     0.172 A 
HETATM   22  N5  UNL     1     -38.325  -2.246 -12.936  1.00  0.00    -0.174 N 
HETATM   23  C11 UNL     1     -37.674  -1.410 -13.796  1.00  0.00     0.679 A 
ATOM     24  H5  UNL     1     -37.962  -3.185 -12.774  1.00  0.00     0.186 HD
HETATM   25  N7  UNL     1     -38.119  -0.161 -14.040  1.00  0.00    -0.175 N 
HETATM   26  C12 UNL     1     -39.213   0.285 -13.440  1.00  0.00     0.150 A 
ATOM     27  H7  UNL     1     -37.612   0.443 -14.687  1.00  0.00     0.186 HD
HETATM   28  C13 UNL     1     -39.878  -0.565 -12.566  1.00  0.00     0.181 A 
BRANCH  23  29
HETATM   29  N6  UNL     1     -36.602  -1.785 -14.410  1.00  0.00    -0.234 N 
ATOM     30  H62 UNL     1     -35.799  -2.039 -13.835  1.00  0.00     0.174 HD
ATOM     31  H61 UNL     1     -36.563  -1.824 -15.428  1.00  0.00     0.174 HD
ENDBRANCH  23  29
BRANCH  26  32
HETATM   32  N8  UNL     1     -39.673   1.467 -13.643  1.00  0.00    -0.383 N 
ATOM     33  H82 UNL     1     -39.676   1.848 -14.590  1.00  0.00     0.157 HD
ATOM     34  H81 UNL     1     -40.038   2.046 -12.887  1.00  0.00     0.157 HD
ENDBRANCH  26  32
BRANCH  28  35
HETATM   35  N9  UNL     1     -41.036  -0.080 -11.937  1.00  0.00    -0.076 N 
HETATM   36  F1  UNL     1     -40.950   0.472 -10.726  1.00  0.00    -0.070 F 
BRANCH  35  37
HETATM   37  O5  UNL     1     -42.129  -0.161 -12.498  1.00  0.00    -0.259 OA
ATOM     38  H5  UNL     1     -42.851   0.390 -12.223  1.00  0.00     0.247 HD
ENDBRANCH  35  37
ENDBRANCH  28  35
ENDBRANCH   1  21
TORSDOF 12
ENDMDL
MODEL 2
REMARK VINA RESULT: -7.599322466      2.400      4.243
REMARK  12 active torsions:
REMARK  status: ('A' for Active; 'I' for Inactive)
REMARK    1  A    between atoms: O1_2  and  C2_3 
REMARK    2  A    between atoms: C2_3  and  C3_5 
REMARK    3  A    between atoms: C3_5  and  N1_7 
REMARK       I    between atoms: N1_7  and  C5_9 
REMARK    4  A    between atoms: C5_9  and  C6_11 
REMARK    5  A    between atoms: C6_11  and  O4_12 
REMARK    6  A    between atoms: O4_12  and  N2_13 
REMARK    7  A    between atoms: C9_18  and  N4_19 
REMARK    8  A    between atoms: N4_19  and  C10_21 
REMARK    9  A    between atoms: C11_24  and  N6_25 
REMARK   10  A    between atoms: C12_30  and  N8_31 
REMARK   11  A    between atoms: C13_34  and  N9_35 
REMARK   12  A    between atoms: N9_35  and  O5_36 
ROOT
HETATM    1  N4  UNL     1     -40.977   0.270 -13.103  1.00  0.00    -0.172 N 
ATOM      2  H4  UNL     1     -41.055   0.762 -12.212  1.00  0.00     0.186 HD
ENDROOT
BRANCH   1   3
HETATM    3  C9  UNL     1     -42.160  -0.295 -13.646  1.00  0.00     0.701 C 
HETATM    4  N2  UNL     1     -43.373   0.406 -13.846  1.00  0.00    -0.086 N 
HETATM    5  C7  UNL     1     -44.079  -0.309 -14.894  1.00  0.00     0.195 C 
HETATM    6  C8  UNL     1     -43.650  -1.744 -14.535  1.00  0.00     0.161 C 
HETATM    7  N3  UNL     1     -42.286  -1.516 -14.027  1.00  0.00    -0.223 N 
ATOM      8  H3  UNL     1     -41.552  -2.222 -13.984  1.00  0.00     0.177 HD
BRANCH   4   9
HETATM    9  O4  UNL     1     -43.809   1.534 -13.189  1.00  0.00    -0.255 OA
BRANCH   9  10
HETATM   10  C6  UNL     1     -45.188   1.687 -13.378  1.00  0.00     0.304 C 
BRANCH  10  11
HETATM   11  C5  UNL     1     -45.497   2.871 -14.206  1.00  0.00     0.244 C 
HETATM   12  N1  UNL     1     -45.987   2.694 -15.518  1.00  0.00    -0.346 N 
ATOM     13  H1  UNL     1     -46.123   1.751 -15.884  1.00  0.00     0.163 HD
HETATM   14  O3  UNL     1     -45.327   4.040 -13.750  1.00  0.00    -0.271 OA
BRANCH  12  15
HETATM   15  C3  UNL     1     -46.293   3.819 -16.338  1.00  0.00     0.180 C 
HETATM   16  C4  UNL     1     -45.534   3.821 -17.646  1.00  0.00     0.043 C 
BRANCH  15  17
HETATM   17  C2  UNL     1     -47.742   3.891 -16.692  1.00  0.00     0.281 C 
HETATM   18  O2  UNL     1     -48.207   3.588 -17.815  1.00  0.00    -0.263 OA
BRANCH  17  19
HETATM   19  O1  UNL     1     -48.612   4.323 -15.703  1.00  0.00    -0.325 OA
HETATM   20  C1  UNL     1     -48.378   5.481 -14.950  1.00  0.00     0.213 C 
ENDBRANCH  17  19
ENDBRANCH  15  17
ENDBRANCH  12  15
ENDBRANCH  10  11
ENDBRANCH   9  10
ENDBRANCH   4   9
ENDBRANCH   1   3
BRANCH   1  21
HETATM   21  C10 UNL     1     -39.705   0.203 -13.699  1.00  0.00     0.172 A 
HETATM   22  N5  UNL     1     -39.268   1.153 -14.547  1.00  0.00    -0.174 N 
HETATM   23  C11 UNL     1     -38.028   1.067 -15.113  1.00  0.00     0.679 A 
ATOM     24  H5  UNL     1     -39.868   1.947 -14.769  1.00  0.00     0.186 HD
HETATM   25  N7  UNL     1     -37.202   0.035 -14.847  1.00  0.00    -0.175 N 
HETATM   26  C12 UNL     1     -37.582  -0.928 -14.021  1.00  0.00     0.150 A 
ATOM     27  H7  UNL     1     -36.281  -0.004 -15.284  1.00  0.00     0.186 HD
HETATM   28  C13 UNL     1     -38.842  -0.840 -13.444  1.00  0.00     0.181 A 
BRANCH  23  29
HETATM   29  N6  UNL     1     -37.600   1.972 -15.927  1.00  0.00    -0.234 N 
ATOM     30  H62 UNL     1     -37.193   2.813 -15.518  1.00  0.00     0.174 HD
ATOM     31  H61 UNL     1     -37.668   1.850 -16.937  1.00  0.00     0.174 HD
ENDBRANCH  23  29
BRANCH  26  32
HETATM   32  N8  UNL     1     -36.826  -1.927 -13.740  1.00  0.00    -0.383 N 
ATOM     33  H82 UNL     1     -35.929  -2.027 -14.215  1.00  0.00     0.157 HD
ATOM     34  H81 UNL     1     -37.091  -2.633 -13.052  1.00  0.00     0.157 HD
ENDBRANCH  26  32
BRANCH  28  35
HETATM   35  N9  UNL     1     -39.232  -1.868 -12.570  1.00  0.00    -0.076 N 
HETATM   36  F1  UNL     1     -38.917  -1.792 -11.276  1.00  0.00    -0.070 F 
BRANCH  35  37
HETATM   37  O5  UNL     1     -39.862  -2.838 -12.991  1.00  0.00    -0.259 OA
ATOM     38  H5  UNL     1     -39.911  -3.637 -12.481  1.00  0.00     0.247 HD
ENDBRANCH  35  37
ENDBRANCH  28  35
ENDBRANCH   1  21
TORSDOF 12
ENDMDL
MODEL 3
REMARK VINA RESULT: -7.543328546      3.636      6.293
REMARK  12 active torsions:
REMARK  status: ('A' for Active; 'I' for Inactive)
REMARK    1  A    between atoms: O1_2  and  C2_3 
REMARK    2  A    between atoms: C2_3  and  C3_5 
REMARK    3  A    between atoms: C3_5  and  N1_7 
REMARK       I    between atoms: N1_7  and  C5_9 
REMARK    4  A    between atoms: C5_9  and  C6_11 
REMARK    5  A    between atoms: C6_11  and  O4_12 
REMARK    6  A    between atoms: O4_12  and  N2_13 
REMARK    7  A    between atoms: C9_18  and  N4_19 
REMARK    8  A    between atoms: N4_19  and  C10_21 
REMARK    9  A    between atoms: C11_24  and  N6_25 
REMARK   10  A    between atoms: C12_30  and  N8_31 
REMARK   11  A    between atoms: C13_34  and  N9_35 
REMARK   12  A    between atoms: N9_35  and  O5_36 
ROOT
HETATM    1  N4  UNL     1     -43.782  -0.157 -14.910  1.00  0.00    -0.172 N 
ATOM      2  H4  UNL     1     -44.243  -0.859 -15.488  1.00  0.00     0.186 HD
ENDROOT
BRANCH   1   3
HETATM    3  C9  UNL     1     -44.314   1.158 -14.924  1.00  0.00     0.701 C 
HETATM    4  N2  UNL     1     -44.028   2.137 -15.905  1.00  0.00    -0.086 N 
HETATM    5  C7  UNL     1     -45.151   3.056 -15.891  1.00  0.00     0.195 C 
HETATM    6  C8  UNL     1     -45.464   3.028 -14.384  1.00  0.00     0.161 C 
HETATM    7  N3  UNL     1     -45.126   1.634 -14.048  1.00  0.00    -0.223 N 
ATOM      8  H3  UNL     1     -45.482   1.123 -13.241  1.00  0.00     0.177 HD
BRANCH   4   9
HETATM    9  O4  UNL     1     -42.917   2.214 -16.715  1.00  0.00    -0.255 OA
BRANCH   9  10
HETATM   10  C6  UNL     1     -43.011   3.343 -17.537  1.00  0.00     0.304 C 
BRANCH  10  11
HETATM   11  C5  UNL     1     -42.770   3.006 -18.956  1.00  0.00     0.244 C 
HETATM   12  N1  UNL     1     -43.815   2.449 -19.725  1.00  0.00    -0.346 N 
ATOM     13  H1  UNL     1     -44.726   2.284 -19.296  1.00  0.00     0.163 HD
HETATM   14  O3  UNL     1     -41.639   3.211 -19.485  1.00  0.00    -0.271 OA
BRANCH  12  15
HETATM   15  C3  UNL     1     -43.610   2.114 -21.095  1.00  0.00     0.180 C 
HETATM   16  C4  UNL     1     -42.822   0.836 -21.279  1.00  0.00     0.043 C 
BRANCH  15  17
HETATM   17  C2  UNL     1     -44.893   1.929 -21.837  1.00  0.00     0.281 C 
HETATM   18  O2  UNL     1     -45.877   2.698 -21.742  1.00  0.00    -0.263 OA
BRANCH  17  19
HETATM   19  O1  UNL     1     -44.982   0.830 -22.678  1.00  0.00    -0.325 OA
HETATM   20  C1  UNL     1     -46.140   0.536 -23.409  1.00  0.00     0.213 C 
ENDBRANCH  17  19
ENDBRANCH  15  17
ENDBRANCH  12  15
ENDBRANCH  10  11
ENDBRANCH   9  10
ENDBRANCH   4   9
ENDBRANCH   1   3
BRANCH   1  21
HETATM   21  C10 UNL     1     -42.665  -0.565 -14.158  1.00  0.00     0.172 A 
HETATM   22  N5  UNL     1     -41.858   0.322 -13.545  1.00  0.00    -0.174 N 
HETATM   23  C11 UNL     1     -40.781  -0.099 -12.821  1.00  0.00     0.679 A 
ATOM     24  H5  UNL     1     -42.054   1.320 -13.624  1.00  0.00     0.186 HD
HETATM   25  N7  UNL     1     -40.485  -1.408 -12.691  1.00  0.00    -0.175 N 
HETATM   26  C12 UNL     1     -41.246  -2.323 -13.273  1.00  0.00     0.150 A 
ATOM     27  H7  UNL     1     -39.674  -1.694 -12.143  1.00  0.00     0.186 HD
HETATM   28  C13 UNL     1     -42.342  -1.897 -14.010  1.00  0.00     0.181 A 
BRANCH  23  29
HETATM   29  N6  UNL     1     -40.002   0.744 -12.230  1.00  0.00    -0.234 N 
ATOM     30  H62 UNL     1     -40.440   1.540 -11.768  1.00  0.00     0.174 HD
ATOM     31  H61 UNL     1     -38.990   0.616 -12.228  1.00  0.00     0.174 HD
ENDBRANCH  23  29
BRANCH  26  32
HETATM   32  N8  UNL     1     -41.001  -3.580 -13.175  1.00  0.00    -0.383 N 
ATOM     33  H82 UNL     1     -40.062  -3.926 -13.376  1.00  0.00     0.157 HD
ATOM     34  H81 UNL     1     -41.716  -4.254 -12.901  1.00  0.00     0.157 HD
ENDBRANCH  26  32
BRANCH  28  35
HETATM   35  N9  UNL     1     -43.139  -2.878 -14.622  1.00  0.00    -0.076 N 
HETATM   36  F1  UNL     1     -42.953  -3.173 -15.909  1.00  0.00    -0.070 F 
BRANCH  35  37
HETATM   37  O5  UNL     1     -44.008  -3.465 -13.978  1.00  0.00    -0.259 OA
ATOM     38  H5  UNL     1     -44.167  -4.390 -14.117  1.00  0.00     0.247 HD
ENDBRANCH  35  37
ENDBRANCH  28  35
ENDBRANCH   1  21
TORSDOF 12
ENDMDL
MODEL 4
REMARK VINA RESULT: -7.514086448      8.090     11.238
REMARK  12 active torsions:
REMARK  status: ('A' for Active; 'I' for Inactive)
REMARK    1  A    between atoms: O1_2  and  C2_3 
REMARK    2  A    between atoms: C2_3  and  C3_5 
REMARK    3  A    between atoms: C3_5  and  N1_7 
REMARK       I    between atoms: N1_7  and  C5_9 
REMARK    4  A    between atoms: C5_9  and  C6_11 
REMARK    5  A    between atoms: C6_11  and  O4_12 
REMARK    6  A    between atoms: O4_12  and  N2_13 
REMARK    7  A    between atoms: C9_18  and  N4_19 
REMARK    8  A    between atoms: N4_19  and  C10_21 
REMARK    9  A    between atoms: C11_24  and  N6_25 
REMARK   10  A    between atoms: C12_30  and  N8_31 
REMARK   11  A    between atoms: C13_34  and  N9_35 
REMARK   12  A    between atoms: N9_35  and  O5_36 
ROOT
HETATM    1  N4  UNL     1     -41.439   5.878 -21.711  1.00  0.00    -0.172 N 
ATOM      2  H4  UNL     1     -41.229   5.417 -22.596  1.00  0.00     0.186 HD
ENDROOT
BRANCH   1   3
HETATM    3  C9  UNL     1     -41.877   7.227 -21.761  1.00  0.00     0.701 C 
HETATM    4  N2  UNL     1     -41.113   8.342 -21.341  1.00  0.00    -0.086 N 
HETATM    5  C7  UNL     1     -41.642   9.483 -22.065  1.00  0.00     0.195 C 
HETATM    6  C8  UNL     1     -43.128   9.080 -22.092  1.00  0.00     0.161 C 
HETATM    7  N3  UNL     1     -43.025   7.614 -22.191  1.00  0.00    -0.223 N 
ATOM      8  H3  UNL     1     -43.755   6.998 -22.548  1.00  0.00     0.177 HD
BRANCH   4   9
HETATM    9  O4  UNL     1     -40.077   8.357 -20.435  1.00  0.00    -0.255 OA
BRANCH   9  10
HETATM   10  C6  UNL     1     -40.209   9.462 -19.586  1.00  0.00     0.304 C 
BRANCH  10  11
HETATM   11  C5  UNL     1     -41.327   9.289 -18.635  1.00  0.00     0.244 C 
HETATM   12  N1  UNL     1     -41.337   8.173 -17.769  1.00  0.00    -0.346 N 
ATOM     13  H1  UNL     1     -40.574   7.497 -17.806  1.00  0.00     0.163 HD
HETATM   14  O3  UNL     1     -42.273  10.128 -18.591  1.00  0.00    -0.271 OA
BRANCH  12  15
HETATM   15  C3  UNL     1     -42.403   7.982 -16.843  1.00  0.00     0.180 C 
HETATM   16  C4  UNL     1     -42.874   6.546 -16.773  1.00  0.00     0.043 C 
BRANCH  15  17
HETATM   17  C2  UNL     1     -42.027   8.369 -15.450  1.00  0.00     0.281 C 
HETATM   18  O2  UNL     1     -42.192   7.637 -14.448  1.00  0.00    -0.263 OA
BRANCH  17  19
HETATM   19  O1  UNL     1     -41.461   9.623 -15.276  1.00  0.00    -0.325 OA
HETATM   20  C1  UNL     1     -41.442  10.273 -14.036  1.00  0.00     0.213 C 
ENDBRANCH  17  19
ENDBRANCH  15  17
ENDBRANCH  12  15
ENDBRANCH  10  11
ENDBRANCH   9  10
ENDBRANCH   4   9
ENDBRANCH   1   3
BRANCH   1  21
HETATM   21  C10 UNL     1     -41.273   5.129 -20.532  1.00  0.00     0.172 A 
HETATM   22  N5  UNL     1     -40.123   5.155 -19.830  1.00  0.00    -0.174 N 
HETATM   23  C11 UNL     1     -39.986   4.419 -18.689  1.00  0.00     0.679 A 
ATOM     24  H5  UNL     1     -39.347   5.731 -20.155  1.00  0.00     0.186 HD
HETATM   25  N7  UNL     1     -40.987   3.644 -18.224  1.00  0.00    -0.175 N 
HETATM   26  C12 UNL     1     -42.139   3.582 -18.875  1.00  0.00     0.150 A 
ATOM     27  H7  UNL     1     -40.857   3.106 -17.367  1.00  0.00     0.186 HD
HETATM   28  C13 UNL     1     -42.280   4.330 -20.036  1.00  0.00     0.181 A 
BRANCH  23  29
HETATM   29  N6  UNL     1     -38.889   4.437 -18.010  1.00  0.00    -0.234 N 
ATOM     30  H62 UNL     1     -38.044   4.736 -18.496  1.00  0.00     0.174 HD
ATOM     31  H61 UNL     1     -38.870   4.163 -17.028  1.00  0.00     0.174 HD
ENDBRANCH  23  29
BRANCH  26  32
HETATM   32  N8  UNL     1     -43.118   2.858 -18.467  1.00  0.00    -0.383 N 
ATOM     33  H82 UNL     1     -42.980   2.226 -17.678  1.00  0.00     0.157 HD
ATOM     34  H81 UNL     1     -44.038   2.890 -18.906  1.00  0.00     0.157 HD
ENDBRANCH  26  32
BRANCH  28  35
HETATM   35  N9  UNL     1     -43.506   4.254 -20.717  1.00  0.00    -0.076 N 
HETATM   36  F1  UNL     1     -44.519   5.038 -20.345  1.00  0.00    -0.070 F 
BRANCH  35  37
HETATM   37  O5  UNL     1     -43.651   3.468 -21.652  1.00  0.00    -0.259 OA
ATOM     38  H5  UNL     1     -44.022   3.763 -22.475  1.00  0.00     0.247 HD
ENDBRANCH  35  37
ENDBRANCH  28  35
ENDBRANCH   1  21
TORSDOF 12
ENDMDL
MODEL 5
REMARK VINA RESULT: -7.482914776      2.819      4.640
REMARK  12 active torsions:
REMARK  status: ('A' for Active; 'I' for Inactive)
REMARK    1  A    between atoms: O1_2  and  C2_3 
REMARK    2  A    between atoms: C2_3  and  C3_5 
REMARK    3  A    between atoms: C3_5  and  N1_7 
REMARK       I    between atoms: N1_7  and  C5_9 
REMARK    4  A    between atoms: C5_9  and  C6_11 
REMARK    5  A    between atoms: C6_11  and  O4_12 
REMARK    6  A    between atoms: O4_12  and  N2_13 
REMARK    7  A    between atoms: C9_18  and  N4_19 
REMARK    8  A    between atoms: N4_19  and  C10_21 
REMARK    9  A    between atoms: C11_24  and  N6_25 
REMARK   10  A    between atoms: C12_30  and  N8_31 
REMARK   11  A    between atoms: C13_34  and  N9_35 
REMARK   12  A    between atoms: N9_35  and  O5_36 
ROOT
HETATM    1  N4  UNL     1     -40.524   0.762 -13.490  1.00  0.00    -0.172 N 
ATOM      2  H4  UNL     1     -40.556   1.447 -12.735  1.00  0.00     0.186 HD
ENDROOT
BRANCH   1   3
HETATM    3  C9  UNL     1     -41.748   0.162 -13.883  1.00  0.00     0.701 C 
HETATM    4  N2  UNL     1     -42.531   0.570 -14.990  1.00  0.00    -0.086 N 
HETATM    5  C7  UNL     1     -43.316  -0.589 -15.372  1.00  0.00     0.195 C 
HETATM    6  C8  UNL     1     -43.563  -1.182 -13.972  1.00  0.00     0.161 C 
HETATM    7  N3  UNL     1     -42.308  -0.830 -13.287  1.00  0.00    -0.223 N 
ATOM      8  H3  UNL     1     -41.939  -1.301 -12.462  1.00  0.00     0.177 HD
BRANCH   4   9
HETATM    9  O4  UNL     1     -42.553   1.808 -15.591  1.00  0.00    -0.255 OA
BRANCH   9  10
HETATM   10  C6  UNL     1     -43.871   2.151 -15.914  1.00  0.00     0.304 C 
BRANCH  10  11
HETATM   11  C5  UNL     1     -43.979   2.656 -17.300  1.00  0.00     0.244 C 
HETATM   12  N1  UNL     1     -42.869   2.548 -18.167  1.00  0.00    -0.346 N 
ATOM     13  H1  UNL     1     -42.005   2.123 -17.831  1.00  0.00     0.163 HD
HETATM   14  O3  UNL     1     -45.053   3.182 -17.713  1.00  0.00    -0.271 OA
BRANCH  12  15
HETATM   15  C3  UNL     1     -42.946   3.027 -19.507  1.00  0.00     0.180 C 
HETATM   16  C4  UNL     1     -41.819   3.971 -19.863  1.00  0.00     0.043 C 
BRANCH  15  17
HETATM   17  C2  UNL     1     -42.902   1.922 -20.512  1.00  0.00     0.281 C 
HETATM   18  O2  UNL     1     -41.939   1.132 -20.646  1.00  0.00    -0.263 OA
BRANCH  17  19
HETATM   19  O1  UNL     1     -44.005   1.778 -21.339  1.00  0.00    -0.325 OA
HETATM   20  C1  UNL     1     -44.112   0.740 -22.273  1.00  0.00     0.213 C 
ENDBRANCH  17  19
ENDBRANCH  15  17
ENDBRANCH  12  15
ENDBRANCH  10  11
ENDBRANCH   9  10
ENDBRANCH   4   9
ENDBRANCH   1   3
BRANCH   1  21
HETATM   21  C10 UNL     1     -39.270   0.484 -14.064  1.00  0.00     0.172 A 
HETATM   22  N5  UNL     1     -38.701   1.311 -14.961  1.00  0.00    -0.174 N 
HETATM   23  C11 UNL     1     -37.482   1.020 -15.504  1.00  0.00     0.679 A 
ATOM     24  H5  UNL     1     -39.185   2.165 -15.239  1.00  0.00     0.186 HD
HETATM   25  N7  UNL     1     -36.807  -0.096 -15.165  1.00  0.00    -0.175 N 
HETATM   26  C12 UNL     1     -37.321  -0.945 -14.286  1.00  0.00     0.150 A 
ATOM     27  H7  UNL     1     -35.898  -0.288 -15.585  1.00  0.00     0.186 HD
HETATM   28  C13 UNL     1     -38.561  -0.650 -13.734  1.00  0.00     0.181 A 
BRANCH  23  29
HETATM   29  N6  UNL     1     -36.929   1.807 -16.365  1.00  0.00    -0.234 N 
ATOM     30  H62 UNL     1     -36.711   1.416 -17.281  1.00  0.00     0.174 HD
ATOM     31  H61 UNL     1     -36.719   2.778 -16.136  1.00  0.00     0.174 HD
ENDBRANCH  23  29
BRANCH  26  32
HETATM   32  N8  UNL     1     -36.712  -2.019 -13.935  1.00  0.00    -0.383 N 
ATOM     33  H82 UNL     1     -35.768  -2.197 -14.279  1.00  0.00     0.157 HD
ATOM     34  H81 UNL     1     -37.140  -2.711 -13.319  1.00  0.00     0.157 HD
ENDBRANCH  26  32
BRANCH  28  35
HETATM   35  N9  UNL     1     -39.094  -1.558 -12.804  1.00  0.00    -0.076 N 
HETATM   36  F1  UNL     1     -38.880  -1.373 -11.501  1.00  0.00    -0.070 F 
BRANCH  35  37
HETATM   37  O5  UNL     1     -39.756  -2.523 -13.186  1.00  0.00    -0.259 OA
ATOM     38  H5  UNL     1     -39.328  -3.341 -13.406  1.00  0.00     0.247 HD
ENDBRANCH  35  37
ENDBRANCH  28  35
ENDBRANCH   1  21
TORSDOF 12
ENDMDL
