MODEL 1
REMARK VINA RESULT: -7.131240140      0.000      0.000
REMARK  7 active torsions:
REMARK  status: ('A' for Active; 'I' for Inactive)
REMARK    1  A    between atoms: C2_2  and  C5_5 
REMARK    2  A    between atoms: C11_11  and  N1_12 
REMARK    3  A    between atoms: N1_12  and  S1_14 
REMARK    4  A    between atoms: S1_14  and  C12_17 
REMARK    5  A    between atoms: C12_17  and  N2_18 
REMARK    6  A    between atoms: C14_24  and  O3_25 
REMARK    7  A    between atoms: C15_27  and  O4_28 
ROOT
HETATM    1  C12 UNL     1      -0.945  34.163  24.098  1.00  0.00     0.429 C 
HETATM    2  C13 UNL     1      -0.883  35.588  23.748  1.00  0.00     0.110 C 
HETATM    3  N3  UNL     1      -0.851  36.721  23.468  1.00  0.00    -0.194 NA
ENDROOT
BRANCH   1   4
HETATM    4  S1  UNL     1      -0.644  33.908  25.826  1.00  0.00     0.269 S 
HETATM    5  O1  UNL     1      -1.783  33.165  26.473  1.00  0.00    -0.203 OA
HETATM    6  O2  UNL     1      -0.669  35.294  26.460  1.00  0.00    -0.203 OA
BRANCH   4   7
HETATM    7  N1  UNL     1       0.870  33.232  26.182  1.00  0.00    -0.309 N 
ATOM      8  H1  UNL     1       1.738  33.738  26.005  1.00  0.00     0.172 HD
BRANCH   7   9
HETATM    9  C11 UNL     1       0.870  31.918  26.743  1.00  0.00     0.128 C 
HETATM   10  C9  UNL     1       0.651  30.926  25.609  1.00  0.00     0.012 C 
HETATM   11  C8  UNL     1       1.986  30.777  24.931  1.00  0.00     0.014 C 
HETATM   12  C10 UNL     1       0.015  29.676  26.069  1.00  0.00     0.012 C 
HETATM   13  C7  UNL     1       2.799  29.846  25.777  1.00  0.00     0.018 C 
HETATM   14  C6  UNL     1       2.189  28.469  25.589  1.00  0.00     0.012 C 
HETATM   15  C15 UNL     1       2.722  30.279  27.213  1.00  0.00     0.153 C 
HETATM   16  C5  UNL     1       0.743  28.403  25.909  1.00  0.00    -0.006 C 
HETATM   17  C14 UNL     1       2.229  31.671  27.401  1.00  0.00     0.170 C 
BRANCH  16  18
HETATM   18  C2  UNL     1       0.020  27.432  24.962  1.00  0.00    -0.048 C 
HETATM   19  C1  UNL     1      -0.850  28.107  23.979  1.00  0.00     0.015 C 
HETATM   20  C3  UNL     1      -0.766  26.429  25.742  1.00  0.00     0.015 C 
HETATM   21  C4  UNL     1       1.108  26.666  24.205  1.00  0.00     0.015 C 
ENDBRANCH  16  18
BRANCH  15  22
HETATM   22  O4  UNL     1       3.985  30.165  27.760  1.00  0.00    -0.393 OA
ATOM     23  H4  UNL     1       4.323  31.041  27.903  1.00  0.00     0.210 HD
ENDBRANCH  15  22
BRANCH  17  24
HETATM   24  O3  UNL     1       3.110  32.657  27.026  1.00  0.00    -0.391 OA
ATOM     25  H3  UNL     1       3.928  32.264  26.747  1.00  0.00     0.210 HD
ENDBRANCH  17  24
ENDBRANCH   7   9
ENDBRANCH   4   7
ENDBRANCH   1   4
BRANCH   1  26
HETATM   26  N2  UNL     1      -0.014  33.464  23.256  1.00  0.00    -0.047 N 
ATOM     27  H23 UNL     1       0.948  33.660  23.535  1.00  0.00     0.277 HD
ATOM     28  H22 UNL     1      -0.041  32.461  23.438  1.00  0.00     0.277 HD
ATOM     29  H21 UNL     1      -0.150  33.657  22.264  1.00  0.00     0.277 HD
ENDBRANCH   1  26
TORSDOF 7
ENDMDL
MODEL 2
REMARK VINA RESULT: -7.129310566      0.670      1.135
REMARK  7 active torsions:
REMARK  status: ('A' for Active; 'I' for Inactive)
REMARK    1  A    between atoms: C2_2  and  C5_5 
REMARK    2  A    between atoms: C11_11  and  N1_12 
REMARK    3  A    between atoms: N1_12  and  S1_14 
REMARK    4  A    between atoms: S1_14  and  C12_17 
REMARK    5  A    between atoms: C12_17  and  N2_18 
REMARK    6  A    between atoms: C14_24  and  O3_25 
REMARK    7  A    between atoms: C15_27  and  O4_28 
ROOT
HETATM    1  C12 UNL     1      -0.940  34.225  24.145  1.00  0.00     0.429 C 
HETATM    2  C13 UNL     1      -0.827  35.608  23.666  1.00  0.00     0.110 C 
HETATM    3  N3  UNL     1      -0.755  36.709  23.282  1.00  0.00    -0.194 NA
ENDROOT
BRANCH   1   4
HETATM    4  S1  UNL     1      -0.735  34.129  25.902  1.00  0.00     0.269 S 
HETATM    5  O1  UNL     1      -1.839  33.327  26.538  1.00  0.00    -0.203 OA
HETATM    6  O2  UNL     1      -0.933  35.550  26.421  1.00  0.00    -0.203 OA
BRANCH   4   7
HETATM    7  N1  UNL     1       0.809  33.636  26.403  1.00  0.00    -0.309 N 
ATOM      8  H1  UNL     1       1.632  34.221  26.255  1.00  0.00     0.172 HD
BRANCH   7   9
HETATM    9  C11 UNL     1       0.899  32.362  27.042  1.00  0.00     0.128 C 
HETATM   10  C9  UNL     1       0.865  31.293  25.958  1.00  0.00     0.012 C 
HETATM   11  C8  UNL     1       2.254  31.248  25.381  1.00  0.00     0.014 C 
HETATM   12  C10 UNL     1       0.325  30.009  26.449  1.00  0.00     0.012 C 
HETATM   13  C7  UNL     1       3.092  30.453  26.336  1.00  0.00     0.018 C 
HETATM   14  C6  UNL     1       2.639  29.012  26.191  1.00  0.00     0.012 C 
HETATM   15  C15 UNL     1       2.868  30.952  27.734  1.00  0.00     0.153 C 
HETATM   16  C5  UNL     1       1.186  28.813  26.417  1.00  0.00    -0.006 C 
HETATM   17  C14 UNL     1       2.225  32.293  27.804  1.00  0.00     0.170 C 
BRANCH  16  18
HETATM   18  C2  UNL     1       0.636  27.722  25.484  1.00  0.00    -0.048 C 
HETATM   19  C1  UNL     1       1.675  26.811  24.967  1.00  0.00     0.015 C 
HETATM   20  C3  UNL     1      -0.120  28.336  24.351  1.00  0.00     0.015 C 
HETATM   21  C4  UNL     1      -0.364  26.905  26.306  1.00  0.00     0.015 C 
ENDBRANCH  16  18
BRANCH  15  22
HETATM   22  O4  UNL     1       4.091  31.000  28.371  1.00  0.00    -0.393 OA
ATOM     23  H4  UNL     1       4.259  30.145  28.749  1.00  0.00     0.210 HD
ENDBRANCH  15  22
BRANCH  17  24
HETATM   24  O3  UNL     1       3.028  33.344  27.429  1.00  0.00    -0.391 OA
ATOM     25  H3  UNL     1       2.848  33.576  26.525  1.00  0.00     0.210 HD
ENDBRANCH  17  24
ENDBRANCH   7   9
ENDBRANCH   4   7
ENDBRANCH   1   4
BRANCH   1  26
HETATM   26  N2  UNL     1       0.017  33.432  23.423  1.00  0.00    -0.047 N 
ATOM     27  H23 UNL     1      -0.314  32.473  23.312  1.00  0.00     0.277 HD
ATOM     28  H22 UNL     1       0.053  33.711  22.442  1.00  0.00     0.277 HD
ATOM     29  H21 UNL     1       0.947  33.449  23.840  1.00  0.00     0.277 HD
ENDBRANCH   1  26
TORSDOF 7
ENDMDL
MODEL 3
REMARK VINA RESULT: -6.940548213      2.647      4.197
REMARK  7 active torsions:
REMARK  status: ('A' for Active; 'I' for Inactive)
REMARK    1  A    between atoms: C2_2  and  C5_5 
REMARK    2  A    between atoms: C11_11  and  N1_12 
REMARK    3  A    between atoms: N1_12  and  S1_14 
REMARK    4  A    between atoms: S1_14  and  C12_17 
REMARK    5  A    between atoms: C12_17  and  N2_18 
REMARK    6  A    between atoms: C14_24  and  O3_25 
REMARK    7  A    between atoms: C15_27  and  O4_28 
ROOT
HETATM    1  C12 UNL     1      -0.862  33.817  24.123  1.00  0.00     0.429 C 
HETATM    2  C13 UNL     1      -1.019  35.270  23.981  1.00  0.00     0.110 C 
HETATM    3  N3  UNL     1      -1.160  36.425  23.868  1.00  0.00    -0.194 NA
ENDROOT
BRANCH   1   4
HETATM    4  S1  UNL     1      -0.363  33.377  25.765  1.00  0.00     0.269 S 
HETATM    5  O1  UNL     1      -1.462  32.647  26.492  1.00  0.00    -0.203 OA
HETATM    6  O2  UNL     1      -0.204  34.695  26.517  1.00  0.00    -0.203 OA
BRANCH   4   7
HETATM    7  N1  UNL     1       1.130  32.578  25.855  1.00  0.00    -0.309 N 
ATOM      8  H1  UNL     1       1.476  32.003  25.087  1.00  0.00     0.172 HD
BRANCH   7   9
HETATM    9  C11 UNL     1       1.879  32.751  27.059  1.00  0.00     0.128 C 
HETATM   10  C9  UNL     1       1.280  31.834  28.117  1.00  0.00     0.012 C 
HETATM   11  C8  UNL     1       1.821  30.460  27.823  1.00  0.00     0.014 C 
HETATM   12  C10 UNL     1       1.498  32.337  29.488  1.00  0.00     0.012 C 
HETATM   13  C7  UNL     1       3.214  30.418  28.374  1.00  0.00     0.018 C 
HETATM   14  C6  UNL     1       3.067  30.389  29.883  1.00  0.00     0.012 C 
HETATM   15  C15 UNL     1       3.965  31.640  27.928  1.00  0.00     0.153 C 
HETATM   16  C5  UNL     1       2.278  31.518  30.433  1.00  0.00    -0.006 C 
HETATM   17  C14 UNL     1       3.333  32.359  26.787  1.00  0.00     0.170 C 
BRANCH  16  18
HETATM   18  C2  UNL     1       1.441  31.060  31.638  1.00  0.00    -0.048 C 
HETATM   19  C1  UNL     1       2.174  31.111  32.918  1.00  0.00     0.015 C 
HETATM   20  C3  UNL     1       0.902  29.686  31.408  1.00  0.00     0.015 C 
HETATM   21  C4  UNL     1       0.242  32.008  31.726  1.00  0.00     0.015 C 
ENDBRANCH  16  18
BRANCH  15  22
HETATM   22  O4  UNL     1       5.240  31.250  27.570  1.00  0.00    -0.393 OA
ATOM     23  H4  UNL     1       5.678  31.999  27.183  1.00  0.00     0.210 HD
ENDBRANCH  15  22
BRANCH  17  24
HETATM   24  O3  UNL     1       3.419  31.716  25.575  1.00  0.00    -0.391 OA
ATOM     25  H3  UNL     1       3.285  32.342  24.873  1.00  0.00     0.210 HD
ENDBRANCH  17  24
ENDBRANCH   7   9
ENDBRANCH   4   7
ENDBRANCH   1   4
BRANCH   1  26
HETATM   26  N2  UNL     1       0.063  33.376  23.116  1.00  0.00    -0.047 N 
ATOM     27  H23 UNL     1      -0.063  32.384  22.916  1.00  0.00     0.277 HD
ATOM     28  H22 UNL     1      -0.180  33.763  22.205  1.00  0.00     0.277 HD
ATOM     29  H21 UNL     1       1.035  33.579  23.350  1.00  0.00     0.277 HD
ENDBRANCH   1  26
TORSDOF 7
ENDMDL
MODEL 4
REMARK VINA RESULT: -6.842501605      2.248      4.190
REMARK  7 active torsions:
REMARK  status: ('A' for Active; 'I' for Inactive)
REMARK    1  A    between atoms: C2_2  and  C5_5 
REMARK    2  A    between atoms: C11_11  and  N1_12 
REMARK    3  A    between atoms: N1_12  and  S1_14 
REMARK    4  A    between atoms: S1_14  and  C12_17 
REMARK    5  A    between atoms: C12_17  and  N2_18 
REMARK    6  A    between atoms: C14_24  and  O3_25 
REMARK    7  A    between atoms: C15_27  and  O4_28 
ROOT
HETATM    1  C12 UNL     1      -0.999  33.821  24.036  1.00  0.00     0.429 C 
HETATM    2  C13 UNL     1      -1.128  35.284  24.022  1.00  0.00     0.110 C 
HETATM    3  N3  UNL     1      -1.248  36.446  24.010  1.00  0.00    -0.194 NA
ENDROOT
BRANCH   1   4
HETATM    4  S1  UNL     1      -0.601  33.221  25.655  1.00  0.00     0.269 S 
HETATM    5  O1  UNL     1      -1.803  33.260  26.562  1.00  0.00    -0.203 OA
HETATM    6  O2  UNL     1       0.370  34.237  26.247  1.00  0.00    -0.203 OA
BRANCH   4   7
HETATM    7  N1  UNL     1       0.188  31.720  25.673  1.00  0.00    -0.309 N 
ATOM      8  H1  UNL     1      -0.283  30.863  25.383  1.00  0.00     0.172 HD
BRANCH   7   9
HETATM    9  C11 UNL     1       1.547  31.716  26.115  1.00  0.00     0.128 C 
HETATM   10  C9  UNL     1       1.551  31.420  27.609  1.00  0.00     0.012 C 
HETATM   11  C8  UNL     1       1.369  29.932  27.734  1.00  0.00     0.014 C 
HETATM   12  C10 UNL     1       2.730  31.989  28.293  1.00  0.00     0.012 C 
HETATM   13  C7  UNL     1       2.705  29.309  27.464  1.00  0.00     0.018 C 
HETATM   14  C6  UNL     1       3.567  29.628  28.671  1.00  0.00     0.012 C 
HETATM   15  C15 UNL     1       3.288  29.899  26.212  1.00  0.00     0.153 C 
HETATM   16  C5  UNL     1       3.671  31.077  28.969  1.00  0.00    -0.006 C 
HETATM   17  C14 UNL     1       2.299  30.617  25.361  1.00  0.00     0.170 C 
BRANCH  16  18
HETATM   18  C2  UNL     1       3.726  31.317  30.487  1.00  0.00    -0.048 C 
HETATM   19  C1  UNL     1       2.398  31.322  31.130  1.00  0.00     0.015 C 
HETATM   20  C3  UNL     1       4.449  32.589  30.789  1.00  0.00     0.015 C 
HETATM   21  C4  UNL     1       4.552  30.174  31.082  1.00  0.00     0.015 C 
ENDBRANCH  16  18
BRANCH  15  22
HETATM   22  O4  UNL     1       3.858  28.874  25.483  1.00  0.00    -0.393 OA
ATOM     23  H4  UNL     1       3.510  28.053  25.811  1.00  0.00     0.210 HD
ENDBRANCH  15  22
BRANCH  17  24
HETATM   24  O3  UNL     1       1.401  29.809  24.705  1.00  0.00    -0.391 OA
ATOM     25  H3  UNL     1       1.791  29.485  23.902  1.00  0.00     0.210 HD
ENDBRANCH  17  24
ENDBRANCH   7   9
ENDBRANCH   4   7
ENDBRANCH   1   4
BRANCH   1  26
HETATM   26  N2  UNL     1      -0.023  33.458  23.046  1.00  0.00    -0.047 N 
ATOM     27  H23 UNL     1       0.517  32.646  23.346  1.00  0.00     0.277 HD
ATOM     28  H22 UNL     1      -0.473  33.064  22.220  1.00  0.00     0.277 HD
ATOM     29  H21 UNL     1       0.594  34.229  22.791  1.00  0.00     0.277 HD
ENDBRANCH   1  26
TORSDOF 7
ENDMDL
MODEL 5
REMARK VINA RESULT: -6.826587096      1.938      2.413
REMARK  7 active torsions:
REMARK  status: ('A' for Active; 'I' for Inactive)
REMARK    1  A    between atoms: C2_2  and  C5_5 
REMARK    2  A    between atoms: C11_11  and  N1_12 
REMARK    3  A    between atoms: N1_12  and  S1_14 
REMARK    4  A    between atoms: S1_14  and  C12_17 
REMARK    5  A    between atoms: C12_17  and  N2_18 
REMARK    6  A    between atoms: C14_24  and  O3_25 
REMARK    7  A    between atoms: C15_27  and  O4_28 
ROOT
HETATM    1  C12 UNL     1      -1.044  34.117  23.894  1.00  0.00     0.429 C 
HETATM    2  C13 UNL     1      -1.074  35.573  24.084  1.00  0.00     0.110 C 
HETATM    3  N3  UNL     1      -1.116  36.731  24.233  1.00  0.00    -0.194 NA
ENDROOT
BRANCH   1   4
HETATM    4  S1  UNL     1      -0.784  33.269  25.428  1.00  0.00     0.269 S 
HETATM    5  O1  UNL     1      -1.785  33.702  26.467  1.00  0.00    -0.203 OA
HETATM    6  O2  UNL     1       0.562  33.760  25.950  1.00  0.00    -0.203 OA
BRANCH   4   7
HETATM    7  N1  UNL     1      -0.670  31.583  25.287  1.00  0.00    -0.309 N 
ATOM      8  H1  UNL     1      -1.234  31.062  24.615  1.00  0.00     0.172 HD
BRANCH   7   9
HETATM    9  C11 UNL     1       0.255  30.928  26.157  1.00  0.00     0.128 C 
HETATM   10  C9  UNL     1      -0.239  29.505  26.378  1.00  0.00     0.012 C 
HETATM   11  C8  UNL     1       0.168  28.734  25.151  1.00  0.00     0.014 C 
HETATM   12  C10 UNL     1       0.206  28.948  27.671  1.00  0.00     0.012 C 
HETATM   13  C7  UNL     1       1.621  28.404  25.310  1.00  0.00     0.018 C 
HETATM   14  C6  UNL     1       1.693  27.344  26.394  1.00  0.00     0.012 C 
HETATM   15  C15 UNL     1       2.373  29.640  25.713  1.00  0.00     0.153 C 
HETATM   16  C5  UNL     1       1.064  27.749  27.674  1.00  0.00    -0.006 C 
HETATM   17  C14 UNL     1       1.627  30.908  25.479  1.00  0.00     0.170 C 
BRANCH  16  18
HETATM   18  C2  UNL     1       0.384  26.547  28.349  1.00  0.00    -0.048 C 
HETATM   19  C1  UNL     1      -0.344  25.676  27.406  1.00  0.00     0.015 C 
HETATM   20  C3  UNL     1      -0.532  27.007  29.436  1.00  0.00     0.015 C 
HETATM   21  C4  UNL     1       1.495  25.727  29.010  1.00  0.00     0.015 C 
ENDBRANCH  16  18
BRANCH  15  22
HETATM   22  O4  UNL     1       3.556  29.670  25.002  1.00  0.00    -0.393 OA
ATOM     23  H4  UNL     1       4.201  30.131  25.525  1.00  0.00     0.210 HD
ENDBRANCH  15  22
BRANCH  17  24
HETATM   24  O3  UNL     1       1.496  31.271  24.160  1.00  0.00    -0.391 OA
ATOM     25  H3  UNL     1       1.670  30.522  23.604  1.00  0.00     0.210 HD
ENDBRANCH  17  24
ENDBRANCH   7   9
ENDBRANCH   4   7
ENDBRANCH   1   4
BRANCH   1  26
HETATM   26  N2  UNL     1      -0.037  33.825  22.912  1.00  0.00    -0.047 N 
ATOM     27  H23 UNL     1       0.452  32.958  23.138  1.00  0.00     0.277 HD
ATOM     28  H22 UNL     1      -0.462  33.551  22.026  1.00  0.00     0.277 HD
ATOM     29  H21 UNL     1       0.624  34.590  22.777  1.00  0.00     0.277 HD
ENDBRANCH   1  26
TORSDOF 7
ENDMDL
