MODEL 1
REMARK VINA RESULT: -6.804563116      0.000      0.000
REMARK  7 active torsions:
REMARK  status: ('A' for Active; 'I' for Inactive)
REMARK    1  A    between atoms: C2_2  and  O1_3 
REMARK    2  A    between atoms: C2_2  and  C3_5 
REMARK    3  A    between atoms: C4_6  and  C5_7 
REMARK    4  A    between atoms: C6_8  and  O2_9 
REMARK    5  A    between atoms: C13_18  and  C14_19 
REMARK    6  A    between atoms: C14_19  and  O4_20 
REMARK    7  A    between atoms: C18_26  and  O6_27 
ROOT
HETATM    1  C5  UNL     1       1.505  30.797  25.771  1.00  0.00     0.052 C 
HETATM    2  C6  UNL     1       0.653  29.585  25.479  1.00  0.00     0.127 C 
HETATM    3  C7  UNL     1       1.241  28.381  26.101  1.00  0.00     0.037 C 
HETATM    4  C8  UNL     1       2.500  28.534  26.879  1.00  0.00    -0.010 C 
HETATM    5  C9  UNL     1       3.684  28.336  26.003  1.00  0.00     0.010 C 
HETATM    6  C10 UNL     1       2.508  29.732  27.791  1.00  0.00     0.014 C 
HETATM    7  C11 UNL     1       3.854  30.079  28.282  1.00  0.00     0.047 C 
HETATM    8  C12 UNL     1       3.748  30.301  29.820  1.00  0.00     0.177 C 
HETATM    9  O3  UNL     1       2.990  31.494  29.881  1.00  0.00    -0.367 OA
HETATM   10  C13 UNL     1       3.266  32.219  28.724  1.00  0.00     0.168 C 
HETATM   11  C15 UNL     1       2.143  32.191  27.747  1.00  0.00     0.175 C 
HETATM   12  O5  UNL     1       1.685  33.251  27.418  1.00  0.00    -0.294 OA
HETATM   13  C16 UNL     1       1.672  30.881  27.260  1.00  0.00     0.034 C 
HETATM   14  C17 UNL     1       0.227  30.819  27.816  1.00  0.00     0.025 C 
HETATM   15  C18 UNL     1       4.372  31.461  28.019  1.00  0.00     0.169 C 
ENDROOT
BRANCH   1  16
HETATM   16  C4  UNL     1       1.006  32.026  25.148  1.00  0.00    -0.020 C 
HETATM   17  C3  UNL     1      -0.248  32.142  24.764  1.00  0.00     0.001 C 
BRANCH  17  18
HETATM   18  C2  UNL     1      -0.783  33.397  24.119  1.00  0.00     0.136 C 
HETATM   19  C1  UNL     1      -0.692  34.542  25.092  1.00  0.00     0.043 C 
BRANCH  18  20
HETATM   20  O1  UNL     1       0.045  33.657  23.030  1.00  0.00    -0.392 OA
ATOM     21  H1  UNL     1      -0.485  33.721  22.244  1.00  0.00     0.210 HD
ENDBRANCH  18  20
ENDBRANCH  17  18
ENDBRANCH   1  16
BRANCH   2  22
HETATM   22  O2  UNL     1       0.574  29.375  24.080  1.00  0.00    -0.395 OA
ATOM     23  H2  UNL     1      -0.261  29.688  23.752  1.00  0.00     0.210 HD
ENDBRANCH   2  22
BRANCH  10  24
HETATM   24  C14 UNL     1       3.690  33.629  29.063  1.00  0.00     0.213 C 
BRANCH  24  25
HETATM   25  O4  UNL     1       4.209  34.268  27.940  1.00  0.00    -0.397 OA
ATOM     26  H4  UNL     1       4.780  34.982  28.197  1.00  0.00     0.209 HD
ENDBRANCH  24  25
ENDBRANCH  10  24
BRANCH  15  27
HETATM   27  O6  UNL     1       4.586  31.867  26.764  1.00  0.00    -0.392 OA
ATOM     28  H6  UNL     1       5.468  32.072  26.475  1.00  0.00     0.210 HD
ENDBRANCH  15  27
TORSDOF 7
ENDMDL
MODEL 2
REMARK VINA RESULT: -6.715952728      2.688      4.015
REMARK  7 active torsions:
REMARK  status: ('A' for Active; 'I' for Inactive)
REMARK    1  A    between atoms: C2_2  and  O1_3 
REMARK    2  A    between atoms: C2_2  and  C3_5 
REMARK    3  A    between atoms: C4_6  and  C5_7 
REMARK    4  A    between atoms: C6_8  and  O2_9 
REMARK    5  A    between atoms: C13_18  and  C14_19 
REMARK    6  A    between atoms: C14_19  and  O4_20 
REMARK    7  A    between atoms: C18_26  and  O6_27 
ROOT
HETATM    1  C5  UNL     1       0.591  32.161  26.806  1.00  0.00     0.052 C 
HETATM    2  C6  UNL     1       1.677  31.293  26.215  1.00  0.00     0.127 C 
HETATM    3  C7  UNL     1       2.641  30.893  27.260  1.00  0.00     0.037 C 
HETATM    4  C8  UNL     1       2.409  31.368  28.651  1.00  0.00    -0.010 C 
HETATM    5  C9  UNL     1       3.099  32.664  28.883  1.00  0.00     0.010 C 
HETATM    6  C10 UNL     1       0.977  31.257  29.098  1.00  0.00     0.014 C 
HETATM    7  C11 UNL     1       0.687  32.038  30.315  1.00  0.00     0.047 C 
HETATM    8  C12 UNL     1      -0.101  31.112  31.288  1.00  0.00     0.177 C 
HETATM    9  O3  UNL     1      -1.335  30.975  30.610  1.00  0.00    -0.367 OA
HETATM   10  C13 UNL     1      -1.528  32.136  29.864  1.00  0.00     0.168 C 
HETATM   11  C15 UNL     1      -1.316  31.923  28.406  1.00  0.00     0.175 C 
HETATM   12  O5  UNL     1      -2.238  32.185  27.681  1.00  0.00    -0.294 OA
HETATM   13  C16 UNL     1      -0.010  31.408  27.957  1.00  0.00     0.034 C 
HETATM   14  C17 UNL     1      -0.384  30.026  27.361  1.00  0.00     0.025 C 
HETATM   15  C18 UNL     1      -0.401  33.068  30.256  1.00  0.00     0.169 C 
ENDROOT
BRANCH   1  16
HETATM   16  C4  UNL     1      -0.382  32.634  25.818  1.00  0.00    -0.020 C 
HETATM   17  C3  UNL     1      -0.256  33.809  25.237  1.00  0.00     0.001 C 
BRANCH  17  18
HETATM   18  C2  UNL     1      -1.246  34.317  24.218  1.00  0.00     0.136 C 
HETATM   19  C1  UNL     1      -0.771  35.635  23.667  1.00  0.00     0.043 C 
BRANCH  18  20
HETATM   20  O1  UNL     1      -1.266  33.375  23.193  1.00  0.00    -0.392 OA
ATOM     21  H1  UNL     1      -0.533  32.781  23.302  1.00  0.00     0.210 HD
ENDBRANCH  18  20
ENDBRANCH  17  18
ENDBRANCH   1  16
BRANCH   2  22
HETATM   22  O2  UNL     1       2.374  32.009  25.210  1.00  0.00    -0.395 OA
ATOM     23  H2  UNL     1       2.745  31.403  24.579  1.00  0.00     0.210 HD
ENDBRANCH   2  22
BRANCH  10  24
HETATM   24  C14 UNL     1      -2.879  32.744  30.160  1.00  0.00     0.213 C 
BRANCH  24  25
HETATM   25  O4  UNL     1      -3.887  31.794  30.011  1.00  0.00    -0.397 OA
ATOM     26  H4  UNL     1      -4.708  32.213  29.782  1.00  0.00     0.209 HD
ENDBRANCH  24  25
ENDBRANCH  10  24
BRANCH  15  27
HETATM   27  O6  UNL     1      -0.276  34.129  29.452  1.00  0.00    -0.392 OA
ATOM     28  H6  UNL     1      -1.002  34.395  28.900  1.00  0.00     0.210 HD
ENDBRANCH  15  27
TORSDOF 7
ENDMDL
MODEL 3
REMARK VINA RESULT: -6.662150611      1.496      4.440
REMARK  7 active torsions:
REMARK  status: ('A' for Active; 'I' for Inactive)
REMARK    1  A    between atoms: C2_2  and  O1_3 
REMARK    2  A    between atoms: C2_2  and  C3_5 
REMARK    3  A    between atoms: C4_6  and  C5_7 
REMARK    4  A    between atoms: C6_8  and  O2_9 
REMARK    5  A    between atoms: C13_18  and  C14_19 
REMARK    6  A    between atoms: C14_19  and  O4_20 
REMARK    7  A    between atoms: C18_26  and  O6_27 
ROOT
HETATM    1  C5  UNL     1       1.806  31.785  26.542  1.00  0.00     0.052 C 
HETATM    2  C6  UNL     1       3.112  32.386  27.006  1.00  0.00     0.127 C 
HETATM    3  C7  UNL     1       3.825  31.443  27.893  1.00  0.00     0.037 C 
HETATM    4  C8  UNL     1       3.194  30.125  28.171  1.00  0.00    -0.010 C 
HETATM    5  C9  UNL     1       2.336  30.201  29.382  1.00  0.00     0.010 C 
HETATM    6  C10 UNL     1       2.613  29.461  26.952  1.00  0.00     0.014 C 
HETATM    7  C11 UNL     1       1.697  28.352  27.277  1.00  0.00     0.047 C 
HETATM    8  C12 UNL     1       2.093  27.142  26.380  1.00  0.00     0.177 C 
HETATM    9  O3  UNL     1       1.709  27.602  25.099  1.00  0.00    -0.367 OA
HETATM   10  C13 UNL     1       0.644  28.484  25.278  1.00  0.00     0.168 C 
HETATM   11  C15 UNL     1       1.038  29.906  25.081  1.00  0.00     0.175 C 
HETATM   12  O5  UNL     1       0.443  30.520  24.237  1.00  0.00    -0.294 OA
HETATM   13  C16 UNL     1       2.119  30.456  25.919  1.00  0.00     0.034 C 
HETATM   14  C17 UNL     1       3.223  30.767  24.877  1.00  0.00     0.025 C 
HETATM   15  C18 UNL     1       0.294  28.411  26.750  1.00  0.00     0.169 C 
ENDROOT
BRANCH   1  16
HETATM   16  C4  UNL     1       1.020  32.682  25.690  1.00  0.00    -0.020 C 
HETATM   17  C3  UNL     1      -0.132  33.177  26.093  1.00  0.00     0.001 C 
BRANCH  17  18
HETATM   18  C2  UNL     1      -0.959  34.101  25.233  1.00  0.00     0.136 C 
HETATM   19  C1  UNL     1      -1.152  35.414  25.944  1.00  0.00     0.043 C 
BRANCH  18  20
HETATM   20  O1  UNL     1      -0.220  34.315  24.072  1.00  0.00    -0.392 OA
ATOM     21  H1  UNL     1       0.220  35.155  24.134  1.00  0.00     0.210 HD
ENDBRANCH  18  20
ENDBRANCH  17  18
ENDBRANCH   1  16
BRANCH   2  22
HETATM   22  O2  UNL     1       2.865  33.581  27.726  1.00  0.00    -0.395 OA
ATOM     23  H2  UNL     1       1.929  33.716  27.818  1.00  0.00     0.210 HD
ENDBRANCH   2  22
BRANCH  10  24
HETATM   24  C14 UNL     1      -0.528  28.092  24.409  1.00  0.00     0.213 C 
BRANCH  24  25
HETATM   25  O4  UNL     1      -0.175  28.134  23.063  1.00  0.00    -0.397 OA
ATOM     26  H4  UNL     1       0.447  27.446  22.860  1.00  0.00     0.209 HD
ENDBRANCH  24  25
ENDBRANCH  10  24
BRANCH  15  27
HETATM   27  O6  UNL     1      -0.532  29.380  27.155  1.00  0.00    -0.392 OA
ATOM     28  H6  UNL     1      -1.224  29.686  26.580  1.00  0.00     0.210 HD
ENDBRANCH  15  27
TORSDOF 7
ENDMDL
MODEL 4
REMARK VINA RESULT: -6.638618399      1.741      2.408
REMARK  7 active torsions:
REMARK  status: ('A' for Active; 'I' for Inactive)
REMARK    1  A    between atoms: C2_2  and  O1_3 
REMARK    2  A    between atoms: C2_2  and  C3_5 
REMARK    3  A    between atoms: C4_6  and  C5_7 
REMARK    4  A    between atoms: C6_8  and  O2_9 
REMARK    5  A    between atoms: C13_18  and  C14_19 
REMARK    6  A    between atoms: C14_19  and  O4_20 
REMARK    7  A    between atoms: C18_26  and  O6_27 
ROOT
HETATM    1  C5  UNL     1       2.025  31.592  26.527  1.00  0.00     0.052 C 
HETATM    2  C6  UNL     1       2.532  30.525  25.586  1.00  0.00     0.127 C 
HETATM    3  C7  UNL     1       3.432  29.596  26.300  1.00  0.00     0.037 C 
HETATM    4  C8  UNL     1       3.681  29.830  27.748  1.00  0.00    -0.010 C 
HETATM    5  C9  UNL     1       4.868  30.705  27.939  1.00  0.00     0.010 C 
HETATM    6  C10 UNL     1       2.441  30.167  28.531  1.00  0.00     0.014 C 
HETATM    7  C11 UNL     1       2.730  30.736  29.860  1.00  0.00     0.047 C 
HETATM    8  C12 UNL     1       1.835  29.988  30.893  1.00  0.00     0.177 C 
HETATM    9  O3  UNL     1       0.547  30.455  30.540  1.00  0.00    -0.367 OA
HETATM   10  C13 UNL     1       0.702  31.731  30.002  1.00  0.00     0.168 C 
HETATM   11  C15 UNL     1       0.528  31.755  28.523  1.00  0.00     0.175 C 
HETATM   12  O5  UNL     1      -0.328  32.478  28.091  1.00  0.00    -0.294 OA
HETATM   13  C16 UNL     1       1.402  30.897  27.702  1.00  0.00     0.034 C 
HETATM   14  C17 UNL     1       0.395  29.901  27.072  1.00  0.00     0.025 C 
HETATM   15  C18 UNL     1       2.162  32.083  30.195  1.00  0.00     0.169 C 
ENDROOT
BRANCH   1  16
HETATM   16  C4  UNL     1       1.158  32.580  25.879  1.00  0.00    -0.020 C 
HETATM   17  C3  UNL     1       0.440  32.273  24.819  1.00  0.00     0.001 C 
BRANCH  17  18
HETATM   18  C2  UNL     1      -0.459  33.273  24.134  1.00  0.00     0.136 C 
HETATM   19  C1  UNL     1      -0.655  34.469  25.027  1.00  0.00     0.043 C 
BRANCH  18  20
HETATM   20  O1  UNL     1       0.212  33.671  22.980  1.00  0.00    -0.392 OA
ATOM     21  H1  UNL     1       0.298  34.617  22.981  1.00  0.00     0.210 HD
ENDBRANCH  18  20
ENDBRANCH  17  18
ENDBRANCH   1  16
BRANCH   2  22
HETATM   22  O2  UNL     1       3.254  31.121  24.523  1.00  0.00    -0.395 OA
ATOM     23  H2  UNL     1       4.187  31.068  24.695  1.00  0.00     0.210 HD
ENDBRANCH   2  22
BRANCH  10  24
HETATM   24  C14 UNL     1      -0.203  32.720  30.698  1.00  0.00     0.213 C 
BRANCH  24  25
HETATM   25  O4  UNL     1       0.121  34.024  30.331  1.00  0.00    -0.397 OA
ATOM     26  H4  UNL     1      -0.599  34.613  30.521  1.00  0.00     0.209 HD
ENDBRANCH  24  25
ENDBRANCH  10  24
BRANCH  15  27
HETATM   27  O6  UNL     1       2.551  33.162  29.508  1.00  0.00    -0.392 OA
ATOM     28  H6  UNL     1       2.325  33.247  28.589  1.00  0.00     0.210 HD
ENDBRANCH  15  27
TORSDOF 7
ENDMDL
MODEL 5
REMARK VINA RESULT: -6.622065230      2.047      3.888
REMARK  7 active torsions:
REMARK  status: ('A' for Active; 'I' for Inactive)
REMARK    1  A    between atoms: C2_2  and  O1_3 
REMARK    2  A    between atoms: C2_2  and  C3_5 
REMARK    3  A    between atoms: C4_6  and  C5_7 
REMARK    4  A    between atoms: C6_8  and  O2_9 
REMARK    5  A    between atoms: C13_18  and  C14_19 
REMARK    6  A    between atoms: C14_19  and  O4_20 
REMARK    7  A    between atoms: C18_26  and  O6_27 
ROOT
HETATM    1  C5  UNL     1       0.893  28.463  25.980  1.00  0.00     0.052 C 
HETATM    2  C6  UNL     1       1.024  27.376  27.020  1.00  0.00     0.127 C 
HETATM    3  C7  UNL     1       2.155  27.666  27.925  1.00  0.00     0.037 C 
HETATM    4  C8  UNL     1       2.940  28.910  27.696  1.00  0.00    -0.010 C 
HETATM    5  C9  UNL     1       4.083  28.646  26.784  1.00  0.00     0.010 C 
HETATM    6  C10 UNL     1       2.090  30.119  27.410  1.00  0.00     0.014 C 
HETATM    7  C11 UNL     1       2.855  31.245  26.844  1.00  0.00     0.047 C 
HETATM    8  C12 UNL     1       2.451  32.527  27.631  1.00  0.00     0.177 C 
HETATM    9  O3  UNL     1       1.115  32.710  27.205  1.00  0.00    -0.367 OA
HETATM   10  C13 UNL     1       1.014  32.181  25.919  1.00  0.00     0.168 C 
HETATM   11  C15 UNL     1       0.281  30.886  25.887  1.00  0.00     0.175 C 
HETATM   12  O5  UNL     1      -0.695  30.835  25.188  1.00  0.00    -0.294 OA
HETATM   13  C16 UNL     1       0.792  29.772  26.706  1.00  0.00     0.034 C 
HETATM   14  C17 UNL     1      -0.353  29.559  27.729  1.00  0.00     0.025 C 
HETATM   15  C18 UNL     1       2.425  31.802  25.520  1.00  0.00     0.169 C 
ENDROOT
BRANCH   1  16
HETATM   16  C4  UNL     1      -0.185  28.222  25.015  1.00  0.00    -0.020 C 
HETATM   17  C3  UNL     1       0.051  27.663  23.847  1.00  0.00     0.001 C 
BRANCH  17  18
HETATM   18  C2  UNL     1      -1.041  27.406  22.838  1.00  0.00     0.136 C 
HETATM   19  C1  UNL     1      -2.026  26.418  23.403  1.00  0.00     0.043 C 
BRANCH  18  20
HETATM   20  O1  UNL     1      -1.682  28.627  22.641  1.00  0.00    -0.392 OA
ATOM     21  H1  UNL     1      -1.049  29.329  22.735  1.00  0.00     0.210 HD
ENDBRANCH  18  20
ENDBRANCH  17  18
ENDBRANCH   1  16
BRANCH   2  22
HETATM   22  O2  UNL     1       1.262  26.130  26.389  1.00  0.00    -0.395 OA
ATOM     23  H2  UNL     1       2.069  25.750  26.715  1.00  0.00     0.210 HD
ENDBRANCH   2  22
BRANCH  10  24
HETATM   24  C14 UNL     1       0.422  33.195  24.968  1.00  0.00     0.213 C 
BRANCH  24  25
HETATM   25  O4  UNL     1       0.554  32.765  23.650  1.00  0.00    -0.397 OA
ATOM     26  H4  UNL     1       0.446  31.823  23.595  1.00  0.00     0.209 HD
ENDBRANCH  24  25
ENDBRANCH  10  24
BRANCH  15  27
HETATM   27  O6  UNL     1       2.488  31.043  24.422  1.00  0.00    -0.392 OA
ATOM     28  H6  UNL     1       2.255  31.410  23.577  1.00  0.00     0.210 HD
ENDBRANCH  15  27
TORSDOF 7
ENDMDL
