MODEL 1
REMARK VINA RESULT: -6.910649920      0.000      0.000
REMARK  8 active torsions:
REMARK  status: ('A' for Active; 'I' for Inactive)
REMARK    1  A    between atoms: C2_2  and  C3_3 
REMARK    2  A    between atoms: C4_4  and  C5_5 
REMARK    3  A    between atoms: C6_6  and  C7_7 
REMARK    4  A    between atoms: C7_7  and  O1_10 
REMARK    5  A    between atoms: C11_14  and  O3_15 
REMARK    6  A    between atoms: C17_23  and  C18_24 
REMARK    7  A    between atoms: C18_24  and  O5_25 
REMARK    8  A    between atoms: C19_27  and  O6_28 
ROOT
HETATM    1  C3  UNL     1       0.863  28.471  26.455  1.00  0.00     0.010 C 
HETATM    2  C4  UNL     1       0.551  28.401  25.151  1.00  0.00     0.078 C 
HETATM    3  O2  UNL     1       0.715  29.526  24.305  1.00  0.00    -0.342 OA
HETATM    4  C10 UNL     1       1.203  30.758  24.805  1.00  0.00     0.166 C 
HETATM    5  C11 UNL     1       2.671  30.580  25.018  1.00  0.00     0.156 C 
HETATM    6  C12 UNL     1       2.777  30.099  26.421  1.00  0.00     0.065 C 
HETATM    7  C13 UNL     1       3.093  31.221  27.404  1.00  0.00     0.049 C 
HETATM    8  C14 UNL     1       2.578  30.571  28.668  1.00  0.00     0.177 C 
HETATM    9  O4  UNL     1       1.376  30.000  28.265  1.00  0.00    -0.374 OA
HETATM   10  C15 UNL     1       1.375  29.775  26.925  1.00  0.00     0.104 C 
HETATM   11  C16 UNL     1       0.607  30.882  26.177  1.00  0.00     0.066 C 
HETATM   12  C17 UNL     1       0.844  32.182  26.839  1.00  0.00     0.048 C 
HETATM   13  C19 UNL     1       2.269  32.453  27.211  1.00  0.00     0.131 C 
ENDROOT
BRANCH   2  14
HETATM   14  C5  UNL     1       0.039  27.173  24.574  1.00  0.00     0.036 C 
HETATM   15  C6  UNL     1      -1.201  27.200  24.072  1.00  0.00     0.012 C 
BRANCH  15  16
HETATM   16  C7  UNL     1      -1.790  26.001  23.472  1.00  0.00     0.068 C 
HETATM   17  C8  UNL     1      -0.750  25.363  22.552  1.00  0.00     0.050 C 
HETATM   18  C9  UNL     1      -2.218  25.033  24.544  1.00  0.00     0.050 C 
BRANCH  16  19
HETATM   19  O1  UNL     1      -2.887  26.294  22.694  1.00  0.00    -0.387 OA
ATOM     20  H1  UNL     1      -2.841  25.882  21.839  1.00  0.00     0.211 HD
ENDBRANCH  16  19
ENDBRANCH  15  16
ENDBRANCH   2  14
BRANCH   1  21
HETATM   21  C2  UNL     1       0.673  27.292  27.262  1.00  0.00     0.003 C 
HETATM   22  C1  UNL     1      -0.258  27.064  28.149  1.00  0.00     0.012 C 
ENDBRANCH   1  21
BRANCH   5  23
HETATM   23  O3  UNL     1       3.454  31.656  24.684  1.00  0.00    -0.392 OA
ATOM     24  H3  UNL     1       4.192  31.467  24.115  1.00  0.00     0.210 HD
ENDBRANCH   5  23
BRANCH  12  25
HETATM   25  C18 UNL     1       0.282  33.334  26.031  1.00  0.00     0.172 C 
BRANCH  25  26
HETATM   26  O5  UNL     1       0.024  34.411  26.906  1.00  0.00    -0.400 OA
ATOM     27  H5  UNL     1       0.396  35.200  26.530  1.00  0.00     0.209 HD
ENDBRANCH  25  26
ENDBRANCH  12  25
BRANCH  13  28
HETATM   28  O6  UNL     1       2.299  33.152  28.443  1.00  0.00    -0.395 OA
ATOM     29  H6  UNL     1       2.819  33.933  28.295  1.00  0.00     0.210 HD
ENDBRANCH  13  28
TORSDOF 8
ENDMDL
MODEL 2
REMARK VINA RESULT: -6.894870879      1.208      1.464
REMARK  8 active torsions:
REMARK  status: ('A' for Active; 'I' for Inactive)
REMARK    1  A    between atoms: C2_2  and  C3_3 
REMARK    2  A    between atoms: C4_4  and  C5_5 
REMARK    3  A    between atoms: C6_6  and  C7_7 
REMARK    4  A    between atoms: C7_7  and  O1_10 
REMARK    5  A    between atoms: C11_14  and  O3_15 
REMARK    6  A    between atoms: C17_23  and  C18_24 
REMARK    7  A    between atoms: C18_24  and  O5_25 
REMARK    8  A    between atoms: C19_27  and  O6_28 
ROOT
HETATM    1  C3  UNL     1       1.151  28.673  26.086  1.00  0.00     0.010 C 
HETATM    2  C4  UNL     1      -0.017  28.578  25.430  1.00  0.00     0.078 C 
HETATM    3  O2  UNL     1      -0.743  29.742  25.073  1.00  0.00    -0.342 OA
HETATM    4  C10 UNL     1      -0.269  31.035  25.401  1.00  0.00     0.166 C 
HETATM    5  C11 UNL     1       0.855  31.328  24.460  1.00  0.00     0.156 C 
HETATM    6  C12 UNL     1       2.061  30.829  25.172  1.00  0.00     0.065 C 
HETATM    7  C13 UNL     1       2.809  31.937  25.908  1.00  0.00     0.049 C 
HETATM    8  C14 UNL     1       3.545  31.087  26.917  1.00  0.00     0.177 C 
HETATM    9  O4  UNL     1       2.576  30.182  27.338  1.00  0.00    -0.374 OA
HETATM   10  C15 UNL     1       1.605  30.043  26.397  1.00  0.00     0.104 C 
HETATM   11  C16 UNL     1       0.364  30.884  26.753  1.00  0.00     0.066 C 
HETATM   12  C17 UNL     1       0.788  32.152  27.382  1.00  0.00     0.048 C 
HETATM   13  C19 UNL     1       1.927  32.846  26.701  1.00  0.00     0.131 C 
ENDROOT
BRANCH   2  14
HETATM   14  C5  UNL     1      -0.566  27.285  25.071  1.00  0.00     0.036 C 
HETATM   15  C6  UNL     1      -1.211  27.195  23.903  1.00  0.00     0.012 C 
BRANCH  15  16
HETATM   16  C7  UNL     1      -1.794  25.923  23.469  1.00  0.00     0.068 C 
HETATM   17  C8  UNL     1      -0.766  25.194  22.604  1.00  0.00     0.050 C 
HETATM   18  C9  UNL     1      -2.177  25.086  24.661  1.00  0.00     0.050 C 
BRANCH  16  19
HETATM   19  O1  UNL     1      -2.916  26.102  22.692  1.00  0.00    -0.387 OA
ATOM     20  H1  UNL     1      -3.353  25.282  22.497  1.00  0.00     0.211 HD
ENDBRANCH  16  19
ENDBRANCH  15  16
ENDBRANCH   2  14
BRANCH   1  21
HETATM   21  C2  UNL     1       1.841  27.452  26.421  1.00  0.00     0.003 C 
HETATM   22  C1  UNL     1       2.986  27.022  25.963  1.00  0.00     0.012 C 
ENDBRANCH   1  21
BRANCH   5  23
HETATM   23  O3  UNL     1       0.915  32.616  23.991  1.00  0.00    -0.392 OA
ATOM     24  H3  UNL     1       1.786  32.940  23.792  1.00  0.00     0.210 HD
ENDBRANCH   5  23
BRANCH  12  25
HETATM   25  C18 UNL     1      -0.375  33.105  27.567  1.00  0.00     0.172 C 
BRANCH  25  26
HETATM   26  O5  UNL     1      -0.040  34.342  26.975  1.00  0.00    -0.400 OA
ATOM     27  H5  UNL     1      -0.821  34.881  26.941  1.00  0.00     0.209 HD
ENDBRANCH  25  26
ENDBRANCH  12  25
BRANCH  13  28
HETATM   28  O6  UNL     1       2.754  33.448  27.682  1.00  0.00    -0.395 OA
ATOM     29  H6  UNL     1       2.312  34.245  27.952  1.00  0.00     0.210 HD
ENDBRANCH  13  28
TORSDOF 8
ENDMDL
MODEL 3
REMARK VINA RESULT: -6.686564439      1.630      1.932
REMARK  8 active torsions:
REMARK  status: ('A' for Active; 'I' for Inactive)
REMARK    1  A    between atoms: C2_2  and  C3_3 
REMARK    2  A    between atoms: C4_4  and  C5_5 
REMARK    3  A    between atoms: C6_6  and  C7_7 
REMARK    4  A    between atoms: C7_7  and  O1_10 
REMARK    5  A    between atoms: C11_14  and  O3_15 
REMARK    6  A    between atoms: C17_23  and  C18_24 
REMARK    7  A    between atoms: C18_24  and  O5_25 
REMARK    8  A    between atoms: C19_27  and  O6_28 
ROOT
HETATM    1  C3  UNL     1      -0.253  29.486  26.746  1.00  0.00     0.010 C 
HETATM    2  C4  UNL     1      -0.003  29.550  25.429  1.00  0.00     0.078 C 
HETATM    3  O2  UNL     1       0.285  30.790  24.806  1.00  0.00    -0.342 OA
HETATM    4  C10 UNL     1       0.311  31.997  25.546  1.00  0.00     0.166 C 
HETATM    5  C11 UNL     1       1.580  31.986  26.335  1.00  0.00     0.156 C 
HETATM    6  C12 UNL     1       1.200  31.340  27.619  1.00  0.00     0.065 C 
HETATM    7  C13 UNL     1       0.897  32.352  28.719  1.00  0.00     0.049 C 
HETATM    8  C14 UNL     1       0.045  31.478  29.608  1.00  0.00     0.177 C 
HETATM    9  O4  UNL     1      -0.778  30.813  28.706  1.00  0.00    -0.374 OA
HETATM   10  C15 UNL     1      -0.207  30.770  27.473  1.00  0.00     0.104 C 
HETATM   11  C16 UNL     1      -0.793  31.857  26.552  1.00  0.00     0.066 C 
HETATM   12  C17 UNL     1      -1.070  33.077  27.339  1.00  0.00     0.048 C 
HETATM   13  C19 UNL     1       0.018  33.480  28.286  1.00  0.00     0.131 C 
ENDROOT
BRANCH   2  14
HETATM   14  C5  UNL     1      -0.021  28.354  24.609  1.00  0.00     0.036 C 
HETATM   15  C6  UNL     1      -1.145  28.087  23.936  1.00  0.00     0.012 C 
BRANCH  15  16
HETATM   16  C7  UNL     1      -1.242  26.898  23.086  1.00  0.00     0.068 C 
HETATM   17  C8  UNL     1       0.127  26.643  22.457  1.00  0.00     0.050 C 
HETATM   18  C9  UNL     1      -1.685  25.708  23.896  1.00  0.00     0.050 C 
BRANCH  16  19
HETATM   19  O1  UNL     1      -2.133  27.069  22.051  1.00  0.00    -0.387 OA
ATOM     20  H1  UNL     1      -2.997  27.317  22.358  1.00  0.00     0.211 HD
ENDBRANCH  16  19
ENDBRANCH  15  16
ENDBRANCH   2  14
BRANCH   1  21
HETATM   21  C2  UNL     1      -0.540  28.195  27.320  1.00  0.00     0.003 C 
HETATM   22  C1  UNL     1       0.157  27.533  28.205  1.00  0.00     0.012 C 
ENDBRANCH   1  21
BRANCH   5  23
HETATM   23  O3  UNL     1       2.230  33.191  26.430  1.00  0.00    -0.392 OA
ATOM     24  H3  UNL     1       2.993  33.290  25.873  1.00  0.00     0.210 HD
ENDBRANCH   5  23
BRANCH  12  25
HETATM   25  C18 UNL     1      -1.456  34.243  26.452  1.00  0.00     0.172 C 
BRANCH  25  26
HETATM   26  O5  UNL     1      -0.717  35.376  26.855  1.00  0.00    -0.400 OA
ATOM     27  H5  UNL     1      -1.204  36.155  26.613  1.00  0.00     0.209 HD
ENDBRANCH  25  26
ENDBRANCH  12  25
BRANCH  13  28
HETATM   28  O6  UNL     1      -0.567  34.006  29.464  1.00  0.00    -0.395 OA
ATOM     29  H6  UNL     1      -1.336  33.475  29.642  1.00  0.00     0.210 HD
ENDBRANCH  13  28
TORSDOF 8
ENDMDL
MODEL 4
REMARK VINA RESULT: -6.624084561      2.209      6.729
REMARK  8 active torsions:
REMARK  status: ('A' for Active; 'I' for Inactive)
REMARK    1  A    between atoms: C2_2  and  C3_3 
REMARK    2  A    between atoms: C4_4  and  C5_5 
REMARK    3  A    between atoms: C6_6  and  C7_7 
REMARK    4  A    between atoms: C7_7  and  O1_10 
REMARK    5  A    between atoms: C11_14  and  O3_15 
REMARK    6  A    between atoms: C17_23  and  C18_24 
REMARK    7  A    between atoms: C18_24  and  O5_25 
REMARK    8  A    between atoms: C19_27  and  O6_28 
ROOT
HETATM    1  C3  UNL     1       0.254  28.083  25.712  1.00  0.00     0.010 C 
HETATM    2  C4  UNL     1       0.210  29.062  24.794  1.00  0.00     0.078 C 
HETATM    3  O2  UNL     1      -0.067  28.770  23.436  1.00  0.00    -0.342 OA
HETATM    4  C10 UNL     1      -0.298  27.443  23.000  1.00  0.00     0.166 C 
HETATM    5  C11 UNL     1      -1.671  27.075  23.463  1.00  0.00     0.156 C 
HETATM    6  C12 UNL     1      -1.452  26.476  24.805  1.00  0.00     0.065 C 
HETATM    7  C13 UNL     1      -1.401  24.952  24.767  1.00  0.00     0.049 C 
HETATM    8  C14 UNL     1      -0.636  24.715  26.048  1.00  0.00     0.177 C 
HETATM    9  O4  UNL     1       0.365  25.679  26.004  1.00  0.00    -0.374 OA
HETATM   10  C15 UNL     1      -0.001  26.718  25.208  1.00  0.00     0.104 C 
HETATM   11  C16 UNL     1       0.641  26.601  23.812  1.00  0.00     0.066 C 
HETATM   12  C17 UNL     1       0.700  25.179  23.412  1.00  0.00     0.048 C 
HETATM   13  C19 UNL     1      -0.550  24.396  23.671  1.00  0.00     0.131 C 
ENDROOT
BRANCH   2  14
HETATM   14  C5  UNL     1       0.445  30.443  25.169  1.00  0.00     0.036 C 
HETATM   15  C6  UNL     1      -0.545  31.316  24.952  1.00  0.00     0.012 C 
BRANCH  15  16
HETATM   16  C7  UNL     1      -0.385  32.729  25.304  1.00  0.00     0.068 C 
HETATM   17  C8  UNL     1       0.908  32.882  26.104  1.00  0.00     0.050 C 
HETATM   18  C9  UNL     1      -0.346  33.578  24.061  1.00  0.00     0.050 C 
BRANCH  16  19
HETATM   19  O1  UNL     1      -1.408  33.185  26.104  1.00  0.00    -0.387 OA
ATOM     20  H1  UNL     1      -1.922  33.861  25.679  1.00  0.00     0.211 HD
ENDBRANCH  16  19
ENDBRANCH  15  16
ENDBRANCH   2  14
BRANCH   1  21
HETATM   21  C2  UNL     1       0.542  28.444  27.077  1.00  0.00     0.003 C 
HETATM   22  C1  UNL     1      -0.265  28.424  28.104  1.00  0.00     0.012 C 
ENDBRANCH   1  21
BRANCH   5  23
HETATM   23  O3  UNL     1      -2.416  26.333  22.580  1.00  0.00    -0.392 OA
ATOM     24  H3  UNL     1      -3.158  25.874  22.954  1.00  0.00     0.210 HD
ENDBRANCH   5  23
BRANCH  12  25
HETATM   25  C18 UNL     1       1.133  25.019  21.969  1.00  0.00     0.172 C 
BRANCH  25  26
HETATM   26  O5  UNL     1       0.828  23.705  21.553  1.00  0.00    -0.400 OA
ATOM     27  H5  UNL     1       1.614  23.177  21.623  1.00  0.00     0.209 HD
ENDBRANCH  25  26
ENDBRANCH  12  25
BRANCH  13  28
HETATM   28  O6  UNL     1      -0.198  23.082  24.066  1.00  0.00    -0.395 OA
ATOM     29  H6  UNL     1       0.696  23.128  24.384  1.00  0.00     0.210 HD
ENDBRANCH  13  28
TORSDOF 8
ENDMDL
MODEL 5
REMARK VINA RESULT: -6.615239934      2.243      7.012
REMARK  8 active torsions:
REMARK  status: ('A' for Active; 'I' for Inactive)
REMARK    1  A    between atoms: C2_2  and  C3_3 
REMARK    2  A    between atoms: C4_4  and  C5_5 
REMARK    3  A    between atoms: C6_6  and  C7_7 
REMARK    4  A    between atoms: C7_7  and  O1_10 
REMARK    5  A    between atoms: C11_14  and  O3_15 
REMARK    6  A    between atoms: C17_23  and  C18_24 
REMARK    7  A    between atoms: C18_24  and  O5_25 
REMARK    8  A    between atoms: C19_27  and  O6_28 
ROOT
HETATM    1  C3  UNL     1       0.227  27.510  25.472  1.00  0.00     0.010 C 
HETATM    2  C4  UNL     1       0.275  28.502  24.569  1.00  0.00     0.078 C 
HETATM    3  O2  UNL     1      -0.124  28.280  23.228  1.00  0.00    -0.342 OA
HETATM    4  C10 UNL     1      -0.576  27.009  22.795  1.00  0.00     0.166 C 
HETATM    5  C11 UNL     1      -1.958  26.841  23.338  1.00  0.00     0.156 C 
HETATM    6  C12 UNL     1      -1.751  26.191  24.658  1.00  0.00     0.065 C 
HETATM    7  C13 UNL     1      -1.930  24.678  24.603  1.00  0.00     0.049 C 
HETATM    8  C14 UNL     1      -1.134  24.306  25.832  1.00  0.00     0.177 C 
HETATM    9  O4  UNL     1      -0.005  25.111  25.735  1.00  0.00    -0.374 OA
HETATM   10  C15 UNL     1      -0.259  26.207  24.973  1.00  0.00     0.104 C 
HETATM   11  C16 UNL     1       0.274  26.022  23.539  1.00  0.00     0.066 C 
HETATM   12  C17 UNL     1       0.096  24.615  23.122  1.00  0.00     0.048 C 
HETATM   13  C19 UNL     1      -1.239  24.022  23.451  1.00  0.00     0.131 C 
ENDROOT
BRANCH   2  14
HETATM   14  C5  UNL     1       0.735  29.825  24.942  1.00  0.00     0.036 C 
HETATM   15  C6  UNL     1      -0.096  30.850  24.723  1.00  0.00     0.012 C 
BRANCH  15  16
HETATM   16  C7  UNL     1       0.296  32.217  25.072  1.00  0.00     0.068 C 
HETATM   17  C8  UNL     1      -0.829  32.845  25.895  1.00  0.00     0.050 C 
HETATM   18  C9  UNL     1       1.586  32.212  25.849  1.00  0.00     0.050 C 
BRANCH  16  19
HETATM   19  O1  UNL     1       0.468  33.009  23.960  1.00  0.00    -0.387 OA
ATOM     20  H1  UNL     1       1.318  33.434  23.950  1.00  0.00     0.211 HD
ENDBRANCH  16  19
ENDBRANCH  15  16
ENDBRANCH   2  14
BRANCH   1  21
HETATM   21  C2  UNL     1       0.647  27.799  26.821  1.00  0.00     0.003 C 
HETATM   22  C1  UNL     1      -0.089  27.867  27.897  1.00  0.00     0.012 C 
ENDBRANCH   1  21
BRANCH   5  23
HETATM   23  O3  UNL     1      -2.857  26.235  22.496  1.00  0.00    -0.392 OA
ATOM     24  H3  UNL     1      -3.768  26.467  22.632  1.00  0.00     0.210 HD
ENDBRANCH   5  23
BRANCH  12  25
HETATM   25  C18 UNL     1       0.413  24.419  21.653  1.00  0.00     0.172 C 
BRANCH  25  26
HETATM   26  O5  UNL     1       0.775  23.071  21.449  1.00  0.00    -0.400 OA
ATOM     27  H5  UNL     1      -0.012  22.573  21.261  1.00  0.00     0.209 HD
ENDBRANCH  25  26
ENDBRANCH  12  25
BRANCH  13  28
HETATM   28  O6  UNL     1      -1.064  22.663  23.811  1.00  0.00    -0.395 OA
ATOM     29  H6  UNL     1      -0.169  22.580  24.118  1.00  0.00     0.210 HD
ENDBRANCH  13  28
TORSDOF 8
ENDMDL
