MODEL 1
REMARK VINA RESULT: -5.926797968      0.000      0.000
REMARK  7 active torsions:
REMARK  status: ('A' for Active; 'I' for Inactive)
REMARK    1  A    between atoms: O1_1  and  N1_3 
REMARK    2  A    between atoms: N3_7  and  C1_8 
REMARK    3  A    between atoms: C1_8  and  O3_9 
REMARK    4  A    between atoms: O3_9  and  C2_10 
REMARK    5  A    between atoms: C2_10  and  C3_11 
REMARK    6  A    between atoms: C3_11  and  O4_12 
REMARK    7  A    between atoms: N4_14  and  O5_15 
ROOT
HETATM    1  N1  UNL     1      -5.532   5.739  -4.514  1.00  0.00    -0.028 N 
HETATM    2  N2  UNL     1      -5.481   5.548  -5.813  1.00  0.00    -0.135 N 
ATOM      3  H2  UNL     1      -5.250   4.669  -6.276  1.00  0.00     0.223 HD
HETATM    4  O2  UNL     1      -5.769   6.652  -6.408  1.00  0.00    -0.114 OA
HETATM    5  N3  UNL     1      -6.015   7.592  -5.542  1.00  0.00    -0.103 N 
HETATM    6  N4  UNL     1      -5.863   7.010  -4.346  1.00  0.00    -0.023 N 
ENDROOT
BRANCH   5   7
HETATM    7  C1  UNL     1      -6.374   8.969  -5.791  1.00  0.00     0.351 C 
BRANCH   7   8
HETATM    8  O3  UNL     1      -5.858   9.853  -4.875  1.00  0.00    -0.366 OA
BRANCH   8   9
HETATM    9  C2  UNL     1      -6.089  11.179  -5.199  1.00  0.00     0.196 C 
BRANCH   9  10
HETATM   10  C3  UNL     1      -4.795  11.951  -4.955  1.00  0.00     0.190 C 
BRANCH  10  11
HETATM   11  O4  UNL     1      -3.812  11.123  -4.428  1.00  0.00    -0.399 OA
ATOM     12  H4  UNL     1      -2.945  11.455  -4.627  1.00  0.00     0.209 HD
ENDBRANCH  10  11
ENDBRANCH   9  10
ENDBRANCH   8   9
ENDBRANCH   7   8
ENDBRANCH   5   7
BRANCH   6  13
HETATM   13  O5  UNL     1      -6.019   7.604  -3.123  1.00  0.00    -0.249 OA
ATOM     14  H5  UNL     1      -5.366   8.162  -2.717  1.00  0.00     0.248 HD
ENDBRANCH   6  13
BRANCH   1  15
HETATM   15  O1  UNL     1      -5.277   4.766  -3.577  1.00  0.00    -0.249 OA
ATOM     16  H1  UNL     1      -4.428   4.614  -3.179  1.00  0.00     0.248 HD
ENDBRANCH   1  15
TORSDOF 7
ENDMDL
MODEL 2
REMARK VINA RESULT: -5.763391807      1.481      2.307
REMARK  7 active torsions:
REMARK  status: ('A' for Active; 'I' for Inactive)
REMARK    1  A    between atoms: O1_1  and  N1_3 
REMARK    2  A    between atoms: N3_7  and  C1_8 
REMARK    3  A    between atoms: C1_8  and  O3_9 
REMARK    4  A    between atoms: O3_9  and  C2_10 
REMARK    5  A    between atoms: C2_10  and  C3_11 
REMARK    6  A    between atoms: C3_11  and  O4_12 
REMARK    7  A    between atoms: N4_14  and  O5_15 
ROOT
HETATM    1  N1  UNL     1      -5.921   4.675  -5.458  1.00  0.00    -0.028 N 
HETATM    2  N2  UNL     1      -6.273   4.810  -4.198  1.00  0.00    -0.135 N 
ATOM      3  H2  UNL     1      -6.461   4.045  -3.550  1.00  0.00     0.223 HD
HETATM    4  O2  UNL     1      -6.342   6.062  -3.917  1.00  0.00    -0.114 OA
HETATM    5  N3  UNL     1      -6.045   6.787  -4.957  1.00  0.00    -0.103 N 
HETATM    6  N4  UNL     1      -5.781   5.905  -5.928  1.00  0.00    -0.023 N 
ENDROOT
BRANCH   5   7
HETATM    7  C1  UNL     1      -6.004   8.227  -5.065  1.00  0.00     0.351 C 
BRANCH   7   8
HETATM    8  O3  UNL     1      -6.814   8.733  -6.052  1.00  0.00    -0.366 OA
BRANCH   8   9
HETATM    9  C2  UNL     1      -6.495  10.031  -6.413  1.00  0.00     0.196 C 
BRANCH   9  10
HETATM   10  C3  UNL     1      -5.810  10.693  -5.219  1.00  0.00     0.190 C 
BRANCH  10  11
HETATM   11  O4  UNL     1      -6.724  11.398  -4.448  1.00  0.00    -0.399 OA
ATOM     12  H4  UNL     1      -6.347  11.643  -3.611  1.00  0.00     0.209 HD
ENDBRANCH  10  11
ENDBRANCH   9  10
ENDBRANCH   8   9
ENDBRANCH   7   8
ENDBRANCH   5   7
BRANCH   6  13
HETATM   13  O5  UNL     1      -5.417   6.192  -7.216  1.00  0.00    -0.249 OA
ATOM     14  H5  UNL     1      -4.966   5.583  -7.789  1.00  0.00     0.248 HD
ENDBRANCH   6  13
BRANCH   1  15
HETATM   15  O1  UNL     1      -5.754   3.467  -6.091  1.00  0.00    -0.249 OA
ATOM     16  H1  UNL     1      -6.275   3.171  -6.828  1.00  0.00     0.248 HD
ENDBRANCH   1  15
TORSDOF 7
ENDMDL
MODEL 3
REMARK VINA RESULT: -5.724956314      1.809      2.769
REMARK  7 active torsions:
REMARK  status: ('A' for Active; 'I' for Inactive)
REMARK    1  A    between atoms: O1_1  and  N1_3 
REMARK    2  A    between atoms: N3_7  and  C1_8 
REMARK    3  A    between atoms: C1_8  and  O3_9 
REMARK    4  A    between atoms: O3_9  and  C2_10 
REMARK    5  A    between atoms: C2_10  and  C3_11 
REMARK    6  A    between atoms: C3_11  and  O4_12 
REMARK    7  A    between atoms: N4_14  and  O5_15 
ROOT
HETATM    1  N1  UNL     1      -5.757   4.633  -5.428  1.00  0.00    -0.028 N 
HETATM    2  N2  UNL     1      -6.031   4.659  -4.143  1.00  0.00    -0.135 N 
ATOM      3  H2  UNL     1      -6.144   3.841  -3.544  1.00  0.00     0.223 HD
HETATM    4  O2  UNL     1      -6.134   5.883  -3.763  1.00  0.00    -0.114 OA
HETATM    5  N3  UNL     1      -5.936   6.695  -4.762  1.00  0.00    -0.103 N 
HETATM    6  N4  UNL     1      -5.700   5.899  -5.812  1.00  0.00    -0.023 N 
ENDROOT
BRANCH   5   7
HETATM    7  C1  UNL     1      -5.963   8.139  -4.763  1.00  0.00     0.351 C 
BRANCH   7   8
HETATM    8  O3  UNL     1      -6.716   8.680  -5.776  1.00  0.00    -0.366 OA
BRANCH   8   9
HETATM    9  C2  UNL     1      -6.367   9.984  -6.084  1.00  0.00     0.196 C 
BRANCH   9  10
HETATM   10  C3  UNL     1      -6.428  10.137  -7.603  1.00  0.00     0.190 C 
BRANCH  10  11
HETATM   11  O4  UNL     1      -6.617   8.907  -8.220  1.00  0.00    -0.399 OA
ATOM     12  H4  UNL     1      -6.671   8.209  -7.578  1.00  0.00     0.209 HD
ENDBRANCH  10  11
ENDBRANCH   9  10
ENDBRANCH   8   9
ENDBRANCH   7   8
ENDBRANCH   5   7
BRANCH   6  13
HETATM   13  O5  UNL     1      -5.434   6.297  -7.095  1.00  0.00    -0.249 OA
ATOM     14  H5  UNL     1      -5.388   7.205  -7.370  1.00  0.00     0.248 HD
ENDBRANCH   6  13
BRANCH   1  15
HETATM   15  O1  UNL     1      -5.581   3.483  -6.161  1.00  0.00    -0.249 OA
ATOM     16  H1  UNL     1      -4.759   3.224  -6.561  1.00  0.00     0.248 HD
ENDBRANCH   1  15
TORSDOF 7
ENDMDL
MODEL 4
REMARK VINA RESULT: -5.724125650      1.171      1.948
REMARK  7 active torsions:
REMARK  status: ('A' for Active; 'I' for Inactive)
REMARK    1  A    between atoms: O1_1  and  N1_3 
REMARK    2  A    between atoms: N3_7  and  C1_8 
REMARK    3  A    between atoms: C1_8  and  O3_9 
REMARK    4  A    between atoms: O3_9  and  C2_10 
REMARK    5  A    between atoms: C2_10  and  C3_11 
REMARK    6  A    between atoms: C3_11  and  O4_12 
REMARK    7  A    between atoms: N4_14  and  O5_15 
ROOT
HETATM    1  N1  UNL     1      -6.138   4.907  -5.502  1.00  0.00    -0.028 N 
HETATM    2  N2  UNL     1      -6.652   5.279  -4.351  1.00  0.00    -0.135 N 
ATOM      3  H2  UNL     1      -6.923   4.653  -3.592  1.00  0.00     0.223 HD
HETATM    4  O2  UNL     1      -6.759   6.560  -4.336  1.00  0.00    -0.114 OA
HETATM    5  N3  UNL     1      -6.328   7.072  -5.453  1.00  0.00    -0.103 N 
HETATM    6  N4  UNL     1      -5.938   6.023  -6.187  1.00  0.00    -0.023 N 
ENDROOT
BRANCH   5   7
HETATM    7  C1  UNL     1      -6.275   8.463  -5.840  1.00  0.00     0.351 C 
BRANCH   7   8
HETATM    8  O3  UNL     1      -6.005   9.319  -4.800  1.00  0.00    -0.366 OA
BRANCH   8   9
HETATM    9  C2  UNL     1      -6.306  10.640  -5.083  1.00  0.00     0.196 C 
BRANCH   9  10
HETATM   10  C3  UNL     1      -4.990  11.382  -5.306  1.00  0.00     0.190 C 
BRANCH  10  11
HETATM   11  O4  UNL     1      -4.040  11.006  -4.365  1.00  0.00    -0.399 OA
ATOM     12  H4  UNL     1      -3.516  11.750  -4.094  1.00  0.00     0.209 HD
ENDBRANCH  10  11
ENDBRANCH   9  10
ENDBRANCH   8   9
ENDBRANCH   7   8
ENDBRANCH   5   7
BRANCH   6  13
HETATM   13  O5  UNL     1      -5.409   6.060  -7.449  1.00  0.00    -0.249 OA
ATOM     14  H5  UNL     1      -5.662   6.692  -8.111  1.00  0.00     0.248 HD
ENDBRANCH   6  13
BRANCH   1  15
HETATM   15  O1  UNL     1      -5.888   3.603  -5.855  1.00  0.00    -0.249 OA
ATOM     16  H1  UNL     1      -5.572   3.330  -6.708  1.00  0.00     0.248 HD
ENDBRANCH   1  15
TORSDOF 7
ENDMDL
MODEL 5
REMARK VINA RESULT: -5.715274164      2.698      5.039
REMARK  7 active torsions:
REMARK  status: ('A' for Active; 'I' for Inactive)
REMARK    1  A    between atoms: O1_1  and  N1_3 
REMARK    2  A    between atoms: N3_7  and  C1_8 
REMARK    3  A    between atoms: C1_8  and  O3_9 
REMARK    4  A    between atoms: O3_9  and  C2_10 
REMARK    5  A    between atoms: C2_10  and  C3_11 
REMARK    6  A    between atoms: C3_11  and  O4_12 
REMARK    7  A    between atoms: N4_14  and  O5_15 
ROOT
HETATM    1  N1  UNL     1      -6.316   8.958  -6.807  1.00  0.00    -0.028 N 
HETATM    2  N2  UNL     1      -6.526   9.790  -5.810  1.00  0.00    -0.135 N 
ATOM      3  H2  UNL     1      -6.788  10.771  -5.902  1.00  0.00     0.223 HD
HETATM    4  O2  UNL     1      -6.345   9.165  -4.701  1.00  0.00    -0.114 OA
HETATM    5  N3  UNL     1      -6.017   7.924  -4.918  1.00  0.00    -0.103 N 
HETATM    6  N4  UNL     1      -5.999   7.799  -6.251  1.00  0.00    -0.023 N 
ENDROOT
BRANCH   5   7
HETATM    7  C1  UNL     1      -5.728   6.890  -3.950  1.00  0.00     0.351 C 
BRANCH   7   8
HETATM    8  O3  UNL     1      -6.529   5.781  -4.068  1.00  0.00    -0.366 OA
BRANCH   8   9
HETATM    9  C2  UNL     1      -5.819   4.610  -4.272  1.00  0.00     0.196 C 
BRANCH   9  10
HETATM   10  C3  UNL     1      -6.447   3.884  -5.460  1.00  0.00     0.190 C 
BRANCH  10  11
HETATM   11  O4  UNL     1      -7.533   4.592  -5.959  1.00  0.00    -0.399 OA
ATOM     12  H4  UNL     1      -7.466   4.699  -6.900  1.00  0.00     0.209 HD
ENDBRANCH  10  11
ENDBRANCH   9  10
ENDBRANCH   8   9
ENDBRANCH   7   8
ENDBRANCH   5   7
BRANCH   6  13
HETATM   13  O5  UNL     1      -5.705   6.666  -6.961  1.00  0.00    -0.249 OA
ATOM     14  H5  UNL     1      -6.147   5.834  -6.839  1.00  0.00     0.248 HD
ENDBRANCH   6  13
BRANCH   1  15
HETATM   15  O1  UNL     1      -6.422   9.296  -8.135  1.00  0.00    -0.249 OA
ATOM     16  H1  UNL     1      -6.360   8.676  -8.852  1.00  0.00     0.248 HD
ENDBRANCH   1  15
TORSDOF 7
ENDMDL
