MODEL 1
REMARK VINA RESULT: -6.671302469      0.000      0.000
REMARK  6 active torsions:
REMARK  status: ('A' for Active; 'I' for Inactive)
REMARK    1  A    between atoms: C2_2  and  N1_3 
REMARK       I    between atoms: N1_3  and  C3_5 
REMARK    2  A    between atoms: C3_5  and  O2_7 
REMARK    3  A    between atoms: O2_7  and  C4_8 
REMARK    4  A    between atoms: C4_8  and  C12_22 
REMARK    5  A    between atoms: N2_9  and  N3_11 
REMARK    6  A    between atoms: C6_15  and  C7_16 
ROOT
HETATM    1  C4  UNL     1     -17.463 -18.258  17.922  1.00  0.00     0.152 C 
HETATM    2  N2  UNL     1     -18.600 -17.727  17.839  1.00  0.00    -0.259 N 
ATOM      3  H2  UNL     1     -19.329 -18.192  18.380  1.00  0.00     0.190 HD
ENDROOT
BRANCH   2   4
HETATM    4  N3  UNL     1     -19.015 -16.638  17.147  1.00  0.00    -0.131 N 
HETATM    5  N4  UNL     1     -19.633 -16.561  15.917  1.00  0.00     0.054 NA
HETATM    6  O3  UNL     1     -19.718 -15.291  15.506  1.00  0.00    -0.217 OA
HETATM    7  C5  UNL     1     -19.410 -14.404  16.514  1.00  0.00     0.164 C 
HETATM    8  C6  UNL     1     -19.500 -13.086  16.536  1.00  0.00     0.026 C 
HETATM    9  C11 UNL     1     -18.945 -15.251  17.605  1.00  0.00     0.315 C 
HETATM   10  O4  UNL     1     -18.557 -14.891  18.726  1.00  0.00    -0.262 OA
BRANCH   8  11
HETATM   11  C7  UNL     1     -19.963 -12.206  15.467  1.00  0.00    -0.031 C 
HETATM   12  C8  UNL     1     -21.454 -12.028  15.541  1.00  0.00     0.019 C 
HETATM   13  C9  UNL     1     -19.521 -12.658  14.088  1.00  0.00     0.019 C 
HETATM   14  C10 UNL     1     -19.370 -10.811  15.764  1.00  0.00     0.019 C 
ENDBRANCH   8  11
ENDBRANCH   2   4
BRANCH   1  15
HETATM   15  O2  UNL     1     -16.463 -17.628  17.198  1.00  0.00    -0.246 OA
BRANCH  15  16
HETATM   16  C3  UNL     1     -15.954 -18.183  15.999  1.00  0.00     0.366 C 
HETATM   17  N1  UNL     1     -14.594 -18.020  15.640  1.00  0.00    -0.337 N 
ATOM     18  H1  UNL     1     -13.959 -17.499  16.245  1.00  0.00     0.164 HD
HETATM   19  O1  UNL     1     -16.739 -18.823  15.263  1.00  0.00    -0.238 OA
BRANCH  17  20
HETATM   20  C2  UNL     1     -14.113 -18.603  14.405  1.00  0.00     0.120 C 
HETATM   21  C1  UNL     1     -12.784 -19.277  14.684  1.00  0.00     0.026 C 
ENDBRANCH  17  20
ENDBRANCH  15  16
ENDBRANCH   1  15
BRANCH   1  22
HETATM   22  C12 UNL     1     -17.220 -19.494  18.734  1.00  0.00     0.016 C 
HETATM   23  C13 UNL     1     -17.916 -20.678  18.152  1.00  0.00     0.023 C 
HETATM   24  C14 UNL     1     -17.758 -19.277  20.145  1.00  0.00     0.023 C 
HETATM   25  C15 UNL     1     -15.752 -19.797  18.851  1.00  0.00     0.023 C 
ENDBRANCH   1  22
TORSDOF 6
ENDMDL
MODEL 2
REMARK VINA RESULT: -6.042610883      1.052      1.461
REMARK  6 active torsions:
REMARK  status: ('A' for Active; 'I' for Inactive)
REMARK    1  A    between atoms: C2_2  and  N1_3 
REMARK       I    between atoms: N1_3  and  C3_5 
REMARK    2  A    between atoms: C3_5  and  O2_7 
REMARK    3  A    between atoms: O2_7  and  C4_8 
REMARK    4  A    between atoms: C4_8  and  C12_22 
REMARK    5  A    between atoms: N2_9  and  N3_11 
REMARK    6  A    between atoms: C6_15  and  C7_16 
ROOT
HETATM    1  C4  UNL     1     -17.434 -18.234  17.955  1.00  0.00     0.152 C 
HETATM    2  N2  UNL     1     -18.578 -17.720  17.854  1.00  0.00    -0.259 N 
ATOM      3  H2  UNL     1     -19.308 -18.195  18.385  1.00  0.00     0.190 HD
ENDROOT
BRANCH   2   4
HETATM    4  N3  UNL     1     -18.999 -16.639  17.153  1.00  0.00    -0.131 N 
HETATM    5  N4  UNL     1     -19.614 -16.575  15.920  1.00  0.00     0.054 NA
HETATM    6  O3  UNL     1     -19.707 -15.309  15.500  1.00  0.00    -0.217 OA
HETATM    7  C5  UNL     1     -19.409 -14.413  16.502  1.00  0.00     0.164 C 
HETATM    8  C6  UNL     1     -19.509 -13.095  16.515  1.00  0.00     0.026 C 
HETATM    9  C11 UNL     1     -18.941 -15.249  17.602  1.00  0.00     0.315 C 
HETATM   10  O4  UNL     1     -18.560 -14.878  18.721  1.00  0.00    -0.262 OA
BRANCH   8  11
HETATM   11  C7  UNL     1     -19.974 -12.227  15.438  1.00  0.00    -0.031 C 
HETATM   12  C8  UNL     1     -21.472 -12.092  15.482  1.00  0.00     0.019 C 
HETATM   13  C9  UNL     1     -19.491 -12.662  14.068  1.00  0.00     0.019 C 
HETATM   14  C10 UNL     1     -19.429 -10.815  15.750  1.00  0.00     0.019 C 
ENDBRANCH   8  11
ENDBRANCH   2   4
BRANCH   1  15
HETATM   15  O2  UNL     1     -16.434 -17.591  17.246  1.00  0.00    -0.246 OA
BRANCH  15  16
HETATM   16  C3  UNL     1     -15.751 -18.229  16.182  1.00  0.00     0.366 C 
HETATM   17  N1  UNL     1     -16.413 -19.157  15.342  1.00  0.00    -0.337 N 
ATOM     18  H1  UNL     1     -17.398 -19.378  15.494  1.00  0.00     0.164 HD
HETATM   19  O1  UNL     1     -14.544 -17.950  16.002  1.00  0.00    -0.238 OA
BRANCH  17  20
HETATM   20  C2  UNL     1     -15.680 -19.788  14.266  1.00  0.00     0.120 C 
HETATM   21  C1  UNL     1     -16.384 -21.081  13.906  1.00  0.00     0.026 C 
ENDBRANCH  17  20
ENDBRANCH  15  16
ENDBRANCH   1  15
BRANCH   1  22
HETATM   22  C12 UNL     1     -17.185 -19.464  18.774  1.00  0.00     0.016 C 
HETATM   23  C13 UNL     1     -15.737 -19.819  18.802  1.00  0.00     0.023 C 
HETATM   24  C14 UNL     1     -17.947 -20.635  18.160  1.00  0.00     0.023 C 
HETATM   25  C15 UNL     1     -17.676 -19.295  20.186  1.00  0.00     0.023 C 
ENDBRANCH   1  22
TORSDOF 6
ENDMDL
MODEL 3
REMARK VINA RESULT: -6.017232488      0.877      1.558
REMARK  6 active torsions:
REMARK  status: ('A' for Active; 'I' for Inactive)
REMARK    1  A    between atoms: C2_2  and  N1_3 
REMARK       I    between atoms: N1_3  and  C3_5 
REMARK    2  A    between atoms: C3_5  and  O2_7 
REMARK    3  A    between atoms: O2_7  and  C4_8 
REMARK    4  A    between atoms: C4_8  and  C12_22 
REMARK    5  A    between atoms: N2_9  and  N3_11 
REMARK    6  A    between atoms: C6_15  and  C7_16 
ROOT
HETATM    1  C4  UNL     1     -17.389 -18.274  18.328  1.00  0.00     0.152 C 
HETATM    2  N2  UNL     1     -18.426 -17.566  18.409  1.00  0.00    -0.259 N 
ATOM      3  H2  UNL     1     -19.201 -18.000  18.909  1.00  0.00     0.190 HD
ENDROOT
BRANCH   2   4
HETATM    4  N3  UNL     1     -18.680 -16.321  17.939  1.00  0.00    -0.131 N 
HETATM    5  N4  UNL     1     -18.556 -15.101  18.570  1.00  0.00     0.054 NA
HETATM    6  O3  UNL     1     -19.077 -14.123  17.821  1.00  0.00    -0.217 OA
HETATM    7  C5  UNL     1     -19.353 -14.548  16.541  1.00  0.00     0.164 C 
HETATM    8  C6  UNL     1     -19.751 -13.856  15.488  1.00  0.00     0.026 C 
HETATM    9  C11 UNL     1     -19.105 -15.985  16.581  1.00  0.00     0.315 C 
HETATM   10  O4  UNL     1     -19.222 -16.795  15.651  1.00  0.00    -0.262 OA
BRANCH   8  11
HETATM   11  C7  UNL     1     -20.006 -12.422  15.409  1.00  0.00    -0.031 C 
HETATM   12  C8  UNL     1     -19.817 -11.931  14.000  1.00  0.00     0.019 C 
HETATM   13  C9  UNL     1     -19.186 -11.614  16.398  1.00  0.00     0.019 C 
HETATM   14  C10 UNL     1     -21.509 -12.229  15.710  1.00  0.00     0.019 C 
ENDBRANCH   8  11
ENDBRANCH   2   4
BRANCH   1  15
HETATM   15  O2  UNL     1     -16.326 -17.690  17.658  1.00  0.00    -0.246 OA
BRANCH  15  16
HETATM   16  C3  UNL     1     -15.936 -18.120  16.367  1.00  0.00     0.366 C 
HETATM   17  N1  UNL     1     -14.596 -17.992  15.929  1.00  0.00    -0.337 N 
ATOM     18  H1  UNL     1     -13.890 -17.584  16.542  1.00  0.00     0.164 HD
HETATM   19  O1  UNL     1     -16.809 -18.621  15.622  1.00  0.00    -0.238 OA
BRANCH  17  20
HETATM   20  C2  UNL     1     -14.238 -18.444  14.601  1.00  0.00     0.120 C 
HETATM   21  C1  UNL     1     -13.305 -19.631  14.740  1.00  0.00     0.026 C 
ENDBRANCH  17  20
ENDBRANCH  15  16
ENDBRANCH   1  15
BRANCH   1  22
HETATM   22  C12 UNL     1     -17.323 -19.656  18.903  1.00  0.00     0.016 C 
HETATM   23  C13 UNL     1     -18.332 -20.559  18.276  1.00  0.00     0.023 C 
HETATM   24  C14 UNL     1     -17.616 -19.589  20.399  1.00  0.00     0.023 C 
HETATM   25  C15 UNL     1     -15.956 -20.259  18.736  1.00  0.00     0.023 C 
ENDBRANCH   1  22
TORSDOF 6
ENDMDL
MODEL 4
REMARK VINA RESULT: -5.773216314      1.992      6.759
REMARK  6 active torsions:
REMARK  status: ('A' for Active; 'I' for Inactive)
REMARK    1  A    between atoms: C2_2  and  N1_3 
REMARK       I    between atoms: N1_3  and  C3_5 
REMARK    2  A    between atoms: C3_5  and  O2_7 
REMARK    3  A    between atoms: O2_7  and  C4_8 
REMARK    4  A    between atoms: C4_8  and  C12_22 
REMARK    5  A    between atoms: N2_9  and  N3_11 
REMARK    6  A    between atoms: C6_15  and  C7_16 
ROOT
HETATM    1  C4  UNL     1     -17.493 -17.760  17.566  1.00  0.00     0.152 C 
HETATM    2  N2  UNL     1     -16.922 -18.829  17.228  1.00  0.00    -0.259 N 
ATOM      3  H2  UNL     1     -16.933 -19.562  17.937  1.00  0.00     0.190 HD
ENDROOT
BRANCH   2   4
HETATM    4  N3  UNL     1     -16.295 -19.166  16.075  1.00  0.00    -0.131 N 
HETATM    5  N4  UNL     1     -16.807 -19.743  14.931  1.00  0.00     0.054 NA
HETATM    6  O3  UNL     1     -15.825 -20.077  14.087  1.00  0.00    -0.217 OA
HETATM    7  C5  UNL     1     -14.618 -19.530  14.461  1.00  0.00     0.164 C 
HETATM    8  C6  UNL     1     -13.459 -19.526  13.827  1.00  0.00     0.026 C 
HETATM    9  C11 UNL     1     -14.888 -18.925  15.760  1.00  0.00     0.315 C 
HETATM   10  O4  UNL     1     -14.091 -18.313  16.486  1.00  0.00    -0.262 OA
BRANCH   8  11
HETATM   11  C7  UNL     1     -13.152 -20.116  12.528  1.00  0.00    -0.031 C 
HETATM   12  C8  UNL     1     -13.830 -19.347  11.427  1.00  0.00     0.019 C 
HETATM   13  C9  UNL     1     -13.472 -21.597  12.454  1.00  0.00     0.019 C 
HETATM   14  C10 UNL     1     -11.639 -19.906  12.300  1.00  0.00     0.019 C 
ENDBRANCH   8  11
ENDBRANCH   2   4
BRANCH   1  15
HETATM   15  O2  UNL     1     -17.493 -16.762  16.605  1.00  0.00    -0.246 OA
BRANCH  15  16
HETATM   16  C3  UNL     1     -18.696 -16.171  16.148  1.00  0.00     0.366 C 
HETATM   17  N1  UNL     1     -18.879 -14.768  16.185  1.00  0.00    -0.337 N 
ATOM     18  H1  UNL     1     -18.142 -14.161  16.544  1.00  0.00     0.164 HD
HETATM   19  O1  UNL     1     -19.595 -16.924  15.709  1.00  0.00    -0.238 OA
BRANCH  17  20
HETATM   20  C2  UNL     1     -20.124 -14.203  15.709  1.00  0.00     0.120 C 
HETATM   21  C1  UNL     1     -19.798 -13.096  14.727  1.00  0.00     0.026 C 
ENDBRANCH  17  20
ENDBRANCH  15  16
ENDBRANCH   1  15
BRANCH   1  22
HETATM   22  C12 UNL     1     -18.112 -17.583  18.918  1.00  0.00     0.016 C 
HETATM   23  C13 UNL     1     -18.317 -16.142  19.242  1.00  0.00     0.023 C 
HETATM   24  C14 UNL     1     -17.183 -18.175  19.974  1.00  0.00     0.023 C 
HETATM   25  C15 UNL     1     -19.430 -18.300  19.021  1.00  0.00     0.023 C 
ENDBRANCH   1  22
TORSDOF 6
ENDMDL
MODEL 5
REMARK VINA RESULT: -5.684761572      2.287      6.865
REMARK  6 active torsions:
REMARK  status: ('A' for Active; 'I' for Inactive)
REMARK    1  A    between atoms: C2_2  and  N1_3 
REMARK       I    between atoms: N1_3  and  C3_5 
REMARK    2  A    between atoms: C3_5  and  O2_7 
REMARK    3  A    between atoms: O2_7  and  C4_8 
REMARK    4  A    between atoms: C4_8  and  C12_22 
REMARK    5  A    between atoms: N2_9  and  N3_11 
REMARK    6  A    between atoms: C6_15  and  C7_16 
ROOT
HETATM    1  C4  UNL     1     -16.776 -18.879  17.988  1.00  0.00     0.152 C 
HETATM    2  N2  UNL     1     -16.484 -19.897  17.310  1.00  0.00    -0.259 N 
ATOM      3  H2  UNL     1     -16.629 -20.786  17.789  1.00  0.00     0.190 HD
ENDROOT
BRANCH   2   4
HETATM    4  N3  UNL     1     -16.007 -20.006  16.046  1.00  0.00    -0.131 N 
HETATM    5  N4  UNL     1     -16.692 -20.070  14.850  1.00  0.00     0.054 NA
HETATM    6  O3  UNL     1     -15.862 -20.353  13.841  1.00  0.00    -0.217 OA
HETATM    7  C5  UNL     1     -14.541 -20.249  14.218  1.00  0.00     0.164 C 
HETATM    8  C6  UNL     1     -13.445 -20.327  13.485  1.00  0.00     0.026 C 
HETATM    9  C11 UNL     1     -14.598 -20.022  15.657  1.00  0.00     0.315 C 
HETATM   10  O4  UNL     1     -13.644 -19.866  16.433  1.00  0.00    -0.262 OA
BRANCH   8  11
HETATM   11  C7  UNL     1     -13.349 -20.549  12.046  1.00  0.00    -0.031 C 
HETATM   12  C8  UNL     1     -13.711 -19.297  11.295  1.00  0.00     0.019 C 
HETATM   13  C9  UNL     1     -14.158 -21.740  11.570  1.00  0.00     0.019 C 
HETATM   14  C10 UNL     1     -11.853 -20.790  11.741  1.00  0.00     0.019 C 
ENDBRANCH   8  11
ENDBRANCH   2   4
BRANCH   1  15
HETATM   15  O2  UNL     1     -16.592 -17.667  17.342  1.00  0.00    -0.246 OA
BRANCH  15  16
HETATM   16  C3  UNL     1     -17.685 -16.921  16.839  1.00  0.00     0.366 C 
HETATM   17  N1  UNL     1     -17.944 -15.606  17.296  1.00  0.00    -0.337 N 
ATOM     18  H1  UNL     1     -17.341 -15.177  17.998  1.00  0.00     0.164 HD
HETATM   19  O1  UNL     1     -18.419 -17.455  15.976  1.00  0.00    -0.238 OA
BRANCH  17  20
HETATM   20  C2  UNL     1     -19.071 -14.877  16.756  1.00  0.00     0.120 C 
HETATM   21  C1  UNL     1     -18.992 -13.446  17.249  1.00  0.00     0.026 C 
ENDBRANCH  17  20
ENDBRANCH  15  16
ENDBRANCH   1  15
BRANCH   1  22
HETATM   22  C12 UNL     1     -17.272 -18.979  19.399  1.00  0.00     0.016 C 
HETATM   23  C13 UNL     1     -16.412 -18.202  20.338  1.00  0.00     0.023 C 
HETATM   24  C14 UNL     1     -17.244 -20.441  19.835  1.00  0.00     0.023 C 
HETATM   25  C15 UNL     1     -18.691 -18.496  19.520  1.00  0.00     0.023 C 
ENDBRANCH   1  22
TORSDOF 6
ENDMDL
