MODEL 1
REMARK VINA RESULT: -5.704902696      0.000      0.000
REMARK  3 active torsions:
REMARK  status: ('A' for Active; 'I' for Inactive)
REMARK    1  A    between atoms: N1_1  and  N2_4 
REMARK    2  A    between atoms: C1_6  and  N3_7 
REMARK    3  A    between atoms: N3_7  and  N4_9 
ROOT
HETATM    1  N4  UNL     1     -16.029 -18.899  18.823  1.00  0.00    -0.217 N 
HETATM    2  C2  UNL     1     -17.299 -18.271  18.905  1.00  0.00     0.278 C 
HETATM    3  O1  UNL     1     -18.019 -18.517  19.930  1.00  0.00    -0.268 OA
HETATM    4  C3  UNL     1     -17.796 -17.372  17.876  1.00  0.00     0.151 C 
HETATM    5  C4  UNL     1     -17.790 -15.921  18.270  1.00  0.00     0.049 C 
HETATM    6  C5  UNL     1     -18.605 -15.285  17.161  1.00  0.00     0.004 C 
HETATM    7  C6  UNL     1     -19.404 -16.425  16.515  1.00  0.00     0.004 C 
HETATM    8  C7  UNL     1     -19.273 -17.565  17.539  1.00  0.00     0.049 C 
HETATM    9  O2  UNL     1     -17.106 -17.530  16.658  1.00  0.00    -0.321 OA
HETATM   10  C8  UNL     1     -15.844 -18.160  16.580  1.00  0.00     0.141 A 
HETATM   11  S1  UNL     1     -14.705 -18.279  15.291  1.00  0.00    -0.056 SA
HETATM   12  C9  UNL     1     -13.509 -19.199  16.083  1.00  0.00     0.091 A 
HETATM   13  C10 UNL     1     -14.025 -19.387  17.325  1.00  0.00    -0.001 A 
HETATM   14  C11 UNL     1     -15.245 -18.848  17.589  1.00  0.00     0.108 A 
HETATM   15  C12 UNL     1     -13.139 -20.188  18.258  1.00  0.00     0.069 C 
HETATM   16  C13 UNL     1     -11.699 -20.109  17.890  1.00  0.00     0.183 C 
HETATM   17  O3  UNL     1     -11.415 -20.464  16.538  1.00  0.00    -0.317 OA
HETATM   18  C14 UNL     1     -12.185 -19.731  15.643  1.00  0.00     0.301 C 
HETATM   19  O4  UNL     1     -11.868 -19.463  14.462  1.00  0.00    -0.259 OA
ENDROOT
BRANCH   1  20
HETATM   20  N3  UNL     1     -15.578 -19.565  19.969  1.00  0.00    -0.285 N 
ATOM     21  H3  UNL     1     -15.706 -20.577  19.996  1.00  0.00     0.188 HD
BRANCH  20  22
HETATM   22  C1  UNL     1     -14.969 -18.974  21.081  1.00  0.00     0.214 C 
HETATM   23  N2  UNL     1     -13.906 -18.238  20.943  1.00  0.00    -0.301 N 
ATOM     24  H2  UNL     1     -13.515 -18.092  20.012  1.00  0.00     0.187 HD
BRANCH  23  25
HETATM   25  N1  UNL     1     -13.299 -17.652  22.033  1.00  0.00    -0.344 N 
ATOM     26  H12 UNL     1     -13.868 -17.452  22.856  1.00  0.00     0.176 HD
ATOM     27  H11 UNL     1     -12.306 -17.422  22.023  1.00  0.00     0.176 HD
ENDBRANCH  23  25
ENDBRANCH  20  22
ENDBRANCH   1  20
TORSDOF 3
ENDMDL
MODEL 2
REMARK VINA RESULT: -5.611830595      1.338      1.974
REMARK  3 active torsions:
REMARK  status: ('A' for Active; 'I' for Inactive)
REMARK    1  A    between atoms: N1_1  and  N2_4 
REMARK    2  A    between atoms: C1_6  and  N3_7 
REMARK    3  A    between atoms: N3_7  and  N4_9 
ROOT
HETATM    1  N4  UNL     1     -16.649 -18.711  19.013  1.00  0.00    -0.217 N 
HETATM    2  C2  UNL     1     -17.884 -18.024  18.877  1.00  0.00     0.278 C 
HETATM    3  O1  UNL     1     -18.777 -18.227  19.766  1.00  0.00    -0.268 OA
HETATM    4  C3  UNL     1     -18.157 -17.113  17.777  1.00  0.00     0.151 C 
HETATM    5  C4  UNL     1     -18.151 -15.660  18.163  1.00  0.00     0.049 C 
HETATM    6  C5  UNL     1     -18.735 -14.999  16.931  1.00  0.00     0.004 C 
HETATM    7  C6  UNL     1     -19.466 -16.107  16.161  1.00  0.00     0.004 C 
HETATM    8  C7  UNL     1     -19.563 -17.242  17.195  1.00  0.00     0.049 C 
HETATM    9  O2  UNL     1     -17.279 -17.315  16.693  1.00  0.00    -0.321 OA
HETATM   10  C8  UNL     1     -16.053 -18.002  16.832  1.00  0.00     0.141 A 
HETATM   11  S1  UNL     1     -14.719 -18.186  15.755  1.00  0.00    -0.056 SA
HETATM   12  C9  UNL     1     -13.718 -19.152  16.740  1.00  0.00     0.091 A 
HETATM   13  C10 UNL     1     -14.446 -19.304  17.877  1.00  0.00    -0.001 A 
HETATM   14  C11 UNL     1     -15.666 -18.707  17.929  1.00  0.00     0.108 A 
HETATM   15  C12 UNL     1     -13.769 -20.135  18.948  1.00  0.00     0.069 C 
HETATM   16  C13 UNL     1     -12.285 -20.126  18.829  1.00  0.00     0.183 C 
HETATM   17  O3  UNL     1     -11.793 -20.506  17.546  1.00  0.00    -0.317 OA
HETATM   18  C14 UNL     1     -12.366 -19.747  16.532  1.00  0.00     0.301 C 
HETATM   19  O4  UNL     1     -11.841 -19.506  15.421  1.00  0.00    -0.259 OA
ENDROOT
BRANCH   1  20
HETATM   20  N3  UNL     1     -16.431 -19.385  20.220  1.00  0.00    -0.285 N 
ATOM     21  H3  UNL     1     -15.964 -18.864  20.962  1.00  0.00     0.188 HD
BRANCH  20  22
HETATM   22  C1  UNL     1     -16.792 -20.705  20.505  1.00  0.00     0.214 C 
HETATM   23  N2  UNL     1     -17.180 -21.507  19.558  1.00  0.00    -0.301 N 
ATOM     24  H2  UNL     1     -17.221 -21.166  18.597  1.00  0.00     0.187 HD
BRANCH  23  25
HETATM   25  N1  UNL     1     -17.538 -22.811  19.829  1.00  0.00    -0.344 N 
ATOM     26  H12 UNL     1     -17.783 -23.057  20.788  1.00  0.00     0.176 HD
ATOM     27  H11 UNL     1     -17.560 -23.516  19.092  1.00  0.00     0.176 HD
ENDBRANCH  23  25
ENDBRANCH  20  22
ENDBRANCH   1  20
TORSDOF 3
ENDMDL
MODEL 3
REMARK VINA RESULT: -5.581435007      3.899      4.947
REMARK  3 active torsions:
REMARK  status: ('A' for Active; 'I' for Inactive)
REMARK    1  A    between atoms: N1_1  and  N2_4 
REMARK    2  A    between atoms: C1_6  and  N3_7 
REMARK    3  A    between atoms: N3_7  and  N4_9 
ROOT
HETATM    1  N4  UNL     1     -16.662 -20.385  20.300  1.00  0.00    -0.217 N 
HETATM    2  C2  UNL     1     -16.575 -19.040  19.855  1.00  0.00     0.278 C 
HETATM    3  O1  UNL     1     -16.144 -18.168  20.682  1.00  0.00    -0.268 OA
HETATM    4  C3  UNL     1     -16.954 -18.633  18.512  1.00  0.00     0.151 C 
HETATM    5  C4  UNL     1     -15.792 -18.308  17.615  1.00  0.00     0.049 C 
HETATM    6  C5  UNL     1     -16.475 -17.658  16.429  1.00  0.00     0.004 C 
HETATM    7  C6  UNL     1     -17.860 -17.221  16.924  1.00  0.00     0.004 C 
HETATM    8  C7  UNL     1     -17.729 -17.318  18.454  1.00  0.00     0.049 C 
HETATM    9  O2  UNL     1     -17.779 -19.587  17.884  1.00  0.00    -0.321 OA
HETATM   10  C8  UNL     1     -17.866 -20.924  18.332  1.00  0.00     0.141 A 
HETATM   11  S1  UNL     1     -18.598 -22.318  17.630  1.00  0.00    -0.056 SA
HETATM   12  C9  UNL     1     -18.219 -23.452  18.845  1.00  0.00     0.091 A 
HETATM   13  C10 UNL     1     -17.534 -22.718  19.760  1.00  0.00    -0.001 A 
HETATM   14  C11 UNL     1     -17.348 -21.398  19.498  1.00  0.00     0.108 A 
HETATM   15  C12 UNL     1     -17.062 -23.503  20.967  1.00  0.00     0.069 C 
HETATM   16  C13 UNL     1     -16.898 -24.955  20.679  1.00  0.00     0.183 C 
HETATM   17  O3  UNL     1     -18.052 -25.580  20.123  1.00  0.00    -0.317 OA
HETATM   18  C14 UNL     1     -18.504 -24.909  18.992  1.00  0.00     0.301 C 
HETATM   19  O4  UNL     1     -19.150 -25.425  18.052  1.00  0.00    -0.259 OA
ENDROOT
BRANCH   1  20
HETATM   20  N3  UNL     1     -16.068 -20.682  21.533  1.00  0.00    -0.285 N 
ATOM     21  H3  UNL     1     -16.693 -20.928  22.300  1.00  0.00     0.188 HD
BRANCH  20  22
HETATM   22  C1  UNL     1     -14.698 -20.676  21.811  1.00  0.00     0.214 C 
HETATM   23  N2  UNL     1     -14.176 -19.749  22.560  1.00  0.00    -0.301 N 
ATOM     24  H2  UNL     1     -14.776 -19.020  22.947  1.00  0.00     0.187 HD
BRANCH  23  25
HETATM   25  N1  UNL     1     -12.826 -19.735  22.840  1.00  0.00    -0.344 N 
ATOM     26  H12 UNL     1     -12.334 -20.626  22.900  1.00  0.00     0.176 HD
ATOM     27  H11 UNL     1     -12.327 -18.857  22.984  1.00  0.00     0.176 HD
ENDBRANCH  23  25
ENDBRANCH  20  22
ENDBRANCH   1  20
TORSDOF 3
ENDMDL
MODEL 4
REMARK VINA RESULT: -5.560394754      3.659      5.046
REMARK  3 active torsions:
REMARK  status: ('A' for Active; 'I' for Inactive)
REMARK    1  A    between atoms: N1_1  and  N2_4 
REMARK    2  A    between atoms: C1_6  and  N3_7 
REMARK    3  A    between atoms: N3_7  and  N4_9 
ROOT
HETATM    1  N4  UNL     1     -16.693 -20.973  19.047  1.00  0.00    -0.217 N 
HETATM    2  C2  UNL     1     -17.409 -20.137  18.152  1.00  0.00     0.278 C 
HETATM    3  O1  UNL     1     -18.051 -20.698  17.201  1.00  0.00    -0.268 OA
HETATM    4  C3  UNL     1     -17.434 -18.689  18.281  1.00  0.00     0.151 C 
HETATM    5  C4  UNL     1     -18.737 -18.137  18.791  1.00  0.00     0.049 C 
HETATM    6  C5  UNL     1     -18.571 -16.651  18.547  1.00  0.00     0.004 C 
HETATM    7  C6  UNL     1     -17.452 -16.513  17.506  1.00  0.00     0.004 C 
HETATM    8  C7  UNL     1     -17.314 -17.942  16.954  1.00  0.00     0.049 C 
HETATM    9  O2  UNL     1     -16.377 -18.212  19.081  1.00  0.00    -0.321 OA
HETATM   10  C8  UNL     1     -15.664 -19.048  19.969  1.00  0.00     0.141 A 
HETATM   11  S1  UNL     1     -14.512 -18.687  21.200  1.00  0.00    -0.056 SA
HETATM   12  C9  UNL     1     -14.194 -20.274  21.734  1.00  0.00     0.091 A 
HETATM   13  C10 UNL     1     -14.991 -21.039  20.944  1.00  0.00    -0.001 A 
HETATM   14  C11 UNL     1     -15.759 -20.404  20.020  1.00  0.00     0.108 A 
HETATM   15  C12 UNL     1     -14.906 -22.527  21.221  1.00  0.00     0.069 C 
HETATM   16  C13 UNL     1     -14.472 -22.827  22.613  1.00  0.00     0.183 C 
HETATM   17  O3  UNL     1     -13.252 -22.198  22.999  1.00  0.00    -0.317 OA
HETATM   18  C14 UNL     1     -13.295 -20.825  22.790  1.00  0.00     0.301 C 
HETATM   19  O4  UNL     1     -12.629 -19.973  23.422  1.00  0.00    -0.259 OA
ENDROOT
BRANCH   1  20
HETATM   20  N3  UNL     1     -16.923 -22.350  18.947  1.00  0.00    -0.285 N 
ATOM     21  H3  UNL     1     -16.189 -22.911  18.513  1.00  0.00     0.188 HD
BRANCH  20  22
HETATM   22  C1  UNL     1     -18.063 -23.031  19.385  1.00  0.00     0.214 C 
HETATM   23  N2  UNL     1     -19.055 -23.256  18.576  1.00  0.00    -0.301 N 
ATOM     24  H2  UNL     1     -18.998 -22.932  17.610  1.00  0.00     0.187 HD
BRANCH  23  25
HETATM   25  N1  UNL     1     -20.183 -23.926  18.999  1.00  0.00    -0.344 N 
ATOM     26  H12 UNL     1     -21.093 -23.591  18.683  1.00  0.00     0.176 HD
ATOM     27  H11 UNL     1     -20.115 -24.739  19.611  1.00  0.00     0.176 HD
ENDBRANCH  23  25
ENDBRANCH  20  22
ENDBRANCH   1  20
TORSDOF 3
ENDMDL
MODEL 5
REMARK VINA RESULT: -5.537253909      1.684      1.727
REMARK  3 active torsions:
REMARK  status: ('A' for Active; 'I' for Inactive)
REMARK    1  A    between atoms: N1_1  and  N2_4 
REMARK    2  A    between atoms: C1_6  and  N3_7 
REMARK    3  A    between atoms: N3_7  and  N4_9 
ROOT
HETATM    1  N4  UNL     1     -17.309 -19.223  18.500  1.00  0.00    -0.217 N 
HETATM    2  C2  UNL     1     -18.415 -18.337  18.424  1.00  0.00     0.278 C 
HETATM    3  O1  UNL     1     -19.457 -18.629  19.103  1.00  0.00    -0.268 OA
HETATM    4  C3  UNL     1     -18.398 -17.130  17.614  1.00  0.00     0.151 C 
HETATM    5  C4  UNL     1     -18.280 -15.857  18.406  1.00  0.00     0.049 C 
HETATM    6  C5  UNL     1     -18.577 -14.801  17.360  1.00  0.00     0.004 C 
HETATM    7  C6  UNL     1     -19.303 -15.526  16.219  1.00  0.00     0.004 C 
HETATM    8  C7  UNL     1     -19.699 -16.869  16.857  1.00  0.00     0.049 C 
HETATM    9  O2  UNL     1     -17.389 -17.167  16.631  1.00  0.00    -0.321 OA
HETATM   10  C8  UNL     1     -16.291 -18.053  16.708  1.00  0.00     0.141 A 
HETATM   11  S1  UNL     1     -14.835 -18.148  15.791  1.00  0.00    -0.056 SA
HETATM   12  C9  UNL     1     -14.127 -19.492  16.563  1.00  0.00     0.091 A 
HETATM   13  C10 UNL     1     -15.039 -19.830  17.510  1.00  0.00    -0.001 A 
HETATM   14  C11 UNL     1     -16.172 -19.082  17.590  1.00  0.00     0.108 A 
HETATM   15  C12 UNL     1     -14.646 -21.018  18.365  1.00  0.00     0.069 C 
HETATM   16  C13 UNL     1     -13.171 -21.214  18.432  1.00  0.00     0.183 C 
HETATM   17  O3  UNL     1     -12.530 -21.305  17.161  1.00  0.00    -0.317 OA
HETATM   18  C14 UNL     1     -12.839 -20.217  16.352  1.00  0.00     0.301 C 
HETATM   19  O4  UNL     1     -12.119 -19.770  15.431  1.00  0.00    -0.259 OA
ENDROOT
BRANCH   1  20
HETATM   20  N3  UNL     1     -17.368 -20.226  19.474  1.00  0.00    -0.285 N 
ATOM     21  H3  UNL     1     -17.806 -21.107  19.205  1.00  0.00     0.188 HD
BRANCH  20  22
HETATM   22  C1  UNL     1     -16.882 -20.135  20.782  1.00  0.00     0.214 C 
HETATM   23  N2  UNL     1     -16.499 -21.198  21.425  1.00  0.00    -0.301 N 
ATOM     24  H2  UNL     1     -16.554 -22.108  20.967  1.00  0.00     0.187 HD
BRANCH  23  25
HETATM   25  N1  UNL     1     -16.018 -21.118  22.715  1.00  0.00    -0.344 N 
ATOM     26  H12 UNL     1     -15.044 -21.369  22.886  1.00  0.00     0.176 HD
ATOM     27  H11 UNL     1     -16.617 -20.816  23.483  1.00  0.00     0.176 HD
ENDBRANCH  23  25
ENDBRANCH  20  22
ENDBRANCH   1  20
TORSDOF 3
ENDMDL
