MODEL 1
REMARK VINA RESULT: -7.682775387      0.000      0.000
REMARK  16 active torsions:
REMARK  status: ('A' for Active; 'I' for Inactive)
REMARK    1  A    between atoms: C2_2  and  C3_3 
REMARK    2  A    between atoms: C3_3  and  O1_4 
REMARK    3  A    between atoms: O1_4  and  C4_5 
REMARK    4  A    between atoms: C5_6  and  C6_7 
REMARK    5  A    between atoms: C6_7  and  C7_8 
REMARK    6  A    between atoms: C7_8  and  C8_9 
REMARK    7  A    between atoms: C8_9  and  C10_11 
REMARK    8  A    between atoms: C8_9  and  O2_13 
REMARK    9  A    between atoms: C16_19  and  O4_20 
REMARK   10  A    between atoms: O4_20  and  C17_21 
REMARK   11  A    between atoms: C21_26  and  O6_27 
REMARK   12  A    between atoms: O6_27  and  C22_28 
REMARK   13  A    between atoms: C25_32  and  O8_33 
REMARK   14  A    between atoms: C26_35  and  O9_36 
REMARK   15  A    between atoms: C28_38  and  O10_39 
REMARK   16  A    between atoms: C33_46  and  N1_47 
ROOT
HETATM    1  C4  UNL     1      14.946  21.691  15.787  1.00  0.00     0.174 C 
HETATM    2  C5  UNL     1      15.281  20.584  16.654  1.00  0.00    -0.040 C 
HETATM    3  C13 UNL     1      14.393  19.980  17.664  1.00  0.00    -0.008 C 
HETATM    4  C14 UNL     1      14.721  18.499  17.790  1.00  0.00     0.052 C 
HETATM    5  C15 UNL     1      12.969  20.102  17.817  1.00  0.00     0.189 C 
HETATM    6  O3  UNL     1      12.507  21.214  18.122  1.00  0.00    -0.289 OA
HETATM    7  C16 UNL     1      11.983  18.996  17.638  1.00  0.00     0.237 C 
HETATM    8  C19 UNL     1      11.027  19.200  16.471  1.00  0.00    -0.019 C 
HETATM    9  C20 UNL     1      10.082  20.071  16.667  1.00  0.00     0.020 C 
HETATM   10  C21 UNL     1      11.154  18.432  15.222  1.00  0.00     0.188 C 
HETATM   11  C29 UNL     1      11.315  19.055  13.909  1.00  0.00    -0.005 C 
HETATM   12  C30 UNL     1      10.128  19.933  13.476  1.00  0.00     0.050 C 
HETATM   13  C31 UNL     1      12.592  19.665  13.511  1.00  0.00     0.156 C 
HETATM   14  O11 UNL     1      13.039  19.688  12.412  1.00  0.00    -0.293 OA
HETATM   15  C32 UNL     1      13.352  20.288  14.616  1.00  0.00     0.111 C 
HETATM   16  C33 UNL     1      14.422  21.218  14.341  1.00  0.00     0.118 C 
ENDROOT
BRANCH  10  17
HETATM   17  O6  UNL     1       9.914  17.721  15.093  1.00  0.00    -0.344 OA
BRANCH  17  18
HETATM   18  C22 UNL     1      10.009  16.539  14.448  1.00  0.00     0.292 C 
HETATM   19  O7  UNL     1      10.574  15.636  15.346  1.00  0.00    -0.351 OA
HETATM   20  C23 UNL     1       9.708  15.589  16.470  1.00  0.00     0.152 C 
HETATM   21  C24 UNL     1      10.406  15.237  17.744  1.00  0.00     0.042 C 
HETATM   22  C25 UNL     1       8.590  14.670  16.075  1.00  0.00     0.178 C 
HETATM   23  C26 UNL     1       7.819  15.354  14.992  1.00  0.00     0.185 C 
HETATM   24  C28 UNL     1       8.735  15.923  13.943  1.00  0.00     0.204 C 
BRANCH  22  25
HETATM   25  O8  UNL     1       9.153  13.474  15.618  1.00  0.00    -0.390 OA
ATOM     26  H8  UNL     1       8.958  12.795  16.253  1.00  0.00     0.210 HD
ENDBRANCH  22  25
BRANCH  23  27
HETATM   27  O9  UNL     1       7.098  14.337  14.304  1.00  0.00    -0.385 OA
HETATM   28  C27 UNL     1       5.777  14.409  14.676  1.00  0.00     0.202 C 
ENDBRANCH  23  27
BRANCH  24  29
HETATM   29  O10 UNL     1       8.054  16.651  13.006  1.00  0.00    -0.388 OA
ATOM     30  H10 UNL     1       7.430  17.281  13.347  1.00  0.00     0.210 HD
ENDBRANCH  24  29
ENDBRANCH  17  18
ENDBRANCH  10  17
BRANCH   7  31
HETATM   31  O4  UNL     1      11.242  18.840  18.837  1.00  0.00    -0.304 OA
BRANCH  31  32
HETATM   32  C17 UNL     1      11.790  18.435  20.023  1.00  0.00     0.255 C 
HETATM   33  C18 UNL     1      12.444  17.132  20.294  1.00  0.00     0.126 C 
HETATM   34  O5  UNL     1      11.745  19.229  21.000  1.00  0.00    -0.266 OA
ENDBRANCH  31  32
ENDBRANCH   7  31
BRANCH  16  35
HETATM   35  N1  UNL     1      13.940  22.331  13.658  1.00  0.00    -0.413 N 
HETATM   36  C34 UNL     1      14.329  22.536  12.313  1.00  0.00     0.143 C 
HETATM   37  C35 UNL     1      12.753  22.985  13.994  1.00  0.00     0.143 C 
ENDBRANCH  16  35
BRANCH   2  38
HETATM   38  C6  UNL     1      16.645  20.640  17.397  1.00  0.00     0.041 C 
BRANCH  38  39
HETATM   39  C7  UNL     1      16.701  21.255  18.712  1.00  0.00     0.046 C 
BRANCH  39  40
HETATM   40  C8  UNL     1      17.950  22.173  18.890  1.00  0.00     0.074 C 
HETATM   41  C9  UNL     1      17.381  23.525  19.398  1.00  0.00     0.050 C 
BRANCH  40  42
HETATM   42  C10 UNL     1      18.783  21.696  20.019  1.00  0.00     0.000 C 
HETATM   43  C11 UNL     1      18.748  22.197  21.227  1.00  0.00     0.010 C 
ENDBRANCH  40  42
BRANCH  40  44
HETATM   44  O2  UNL     1      18.607  22.291  17.722  1.00  0.00    -0.381 OA
HETATM   45  C12 UNL     1      19.442  23.356  17.549  1.00  0.00     0.202 C 
ENDBRANCH  40  44
ENDBRANCH  39  40
ENDBRANCH  38  39
ENDBRANCH   2  38
BRANCH   1  46
HETATM   46  O1  UNL     1      16.004  22.475  15.527  1.00  0.00    -0.376 OA
BRANCH  46  47
HETATM   47  C3  UNL     1      16.140  23.781  15.746  1.00  0.00     0.195 C 
BRANCH  47  48
HETATM   48  C2  UNL     1      17.331  24.240  14.928  1.00  0.00    -0.011 C 
HETATM   49  C1  UNL     1      17.832  25.449  14.964  1.00  0.00     0.009 C 
ENDBRANCH  47  48
ENDBRANCH  46  47
ENDBRANCH   1  46
TORSDOF 16
ENDMDL
MODEL 2
REMARK VINA RESULT: -6.751592997      5.187     13.554
REMARK  16 active torsions:
REMARK  status: ('A' for Active; 'I' for Inactive)
REMARK    1  A    between atoms: C2_2  and  C3_3 
REMARK    2  A    between atoms: C3_3  and  O1_4 
REMARK    3  A    between atoms: O1_4  and  C4_5 
REMARK    4  A    between atoms: C5_6  and  C6_7 
REMARK    5  A    between atoms: C6_7  and  C7_8 
REMARK    6  A    between atoms: C7_8  and  C8_9 
REMARK    7  A    between atoms: C8_9  and  C10_11 
REMARK    8  A    between atoms: C8_9  and  O2_13 
REMARK    9  A    between atoms: C16_19  and  O4_20 
REMARK   10  A    between atoms: O4_20  and  C17_21 
REMARK   11  A    between atoms: C21_26  and  O6_27 
REMARK   12  A    between atoms: O6_27  and  C22_28 
REMARK   13  A    between atoms: C25_32  and  O8_33 
REMARK   14  A    between atoms: C26_35  and  O9_36 
REMARK   15  A    between atoms: C28_38  and  O10_39 
REMARK   16  A    between atoms: C33_46  and  N1_47 
ROOT
HETATM    1  C4  UNL     1      18.246  23.599  18.064  1.00  0.00     0.174 C 
HETATM    2  C5  UNL     1      18.613  23.677  16.668  1.00  0.00    -0.040 C 
HETATM    3  C13 UNL     1      18.878  24.915  15.914  1.00  0.00    -0.008 C 
HETATM    4  C14 UNL     1      19.917  24.629  14.840  1.00  0.00     0.052 C 
HETATM    5  C15 UNL     1      19.142  26.242  16.401  1.00  0.00     0.189 C 
HETATM    6  O3  UNL     1      18.230  26.837  16.997  1.00  0.00    -0.289 OA
HETATM    7  C16 UNL     1      20.432  26.975  16.252  1.00  0.00     0.237 C 
HETATM    8  C19 UNL     1      21.139  27.262  17.570  1.00  0.00    -0.019 C 
HETATM    9  C20 UNL     1      20.625  28.220  18.284  1.00  0.00     0.020 C 
HETATM   10  C21 UNL     1      22.341  26.520  17.981  1.00  0.00     0.188 C 
HETATM   11  C29 UNL     1      22.436  25.775  19.235  1.00  0.00    -0.005 C 
HETATM   12  C30 UNL     1      22.304  26.643  20.499  1.00  0.00     0.050 C 
HETATM   13  C31 UNL     1      21.744  24.489  19.406  1.00  0.00     0.156 C 
HETATM   14  O11 UNL     1      22.132  23.571  20.050  1.00  0.00    -0.293 OA
HETATM   15  C32 UNL     1      20.457  24.378  18.687  1.00  0.00     0.111 C 
HETATM   16  C33 UNL     1      19.507  23.345  19.031  1.00  0.00     0.118 C 
ENDROOT
BRANCH  10  17
HETATM   17  O6  UNL     1      23.366  27.517  18.120  1.00  0.00    -0.344 OA
BRANCH  17  18
HETATM   18  C22 UNL     1      23.871  27.969  16.953  1.00  0.00     0.292 C 
HETATM   19  O7  UNL     1      24.801  28.957  17.273  1.00  0.00    -0.351 OA
HETATM   20  C23 UNL     1      25.775  28.339  18.100  1.00  0.00     0.152 C 
HETATM   21  C24 UNL     1      26.440  29.286  19.046  1.00  0.00     0.042 C 
HETATM   22  C25 UNL     1      26.697  27.618  17.162  1.00  0.00     0.178 C 
HETATM   23  C26 UNL     1      25.914  26.501  16.547  1.00  0.00     0.185 C 
HETATM   24  C28 UNL     1      24.569  26.975  16.070  1.00  0.00     0.204 C 
BRANCH  22  25
HETATM   25  O8  UNL     1      27.128  28.528  16.191  1.00  0.00    -0.390 OA
ATOM     26  H8  UNL     1      26.379  29.047  15.922  1.00  0.00     0.210 HD
ENDBRANCH  22  25
BRANCH  23  27
HETATM   27  O9  UNL     1      26.597  26.140  15.351  1.00  0.00    -0.385 OA
HETATM   28  C27 UNL     1      27.852  25.688  15.682  1.00  0.00     0.202 C 
ENDBRANCH  23  27
BRANCH  24  29
HETATM   29  O10 UNL     1      23.795  25.944  15.610  1.00  0.00    -0.388 OA
ATOM     30  H10 UNL     1      23.069  25.692  16.168  1.00  0.00     0.210 HD
ENDBRANCH  24  29
ENDBRANCH  17  18
ENDBRANCH  10  17
BRANCH   7  31
HETATM   31  O4  UNL     1      20.195  28.194  15.567  1.00  0.00    -0.304 OA
BRANCH  31  32
HETATM   32  C17 UNL     1      21.118  28.810  14.768  1.00  0.00     0.255 C 
HETATM   33  C18 UNL     1      21.596  28.339  13.445  1.00  0.00     0.126 C 
HETATM   34  O5  UNL     1      21.632  29.886  15.175  1.00  0.00    -0.266 OA
ENDBRANCH  31  32
ENDBRANCH   7  31
BRANCH  16  35
HETATM   35  N1  UNL     1      19.090  23.485  20.351  1.00  0.00    -0.413 N 
HETATM   36  C34 UNL     1      18.333  24.625  20.716  1.00  0.00     0.143 C 
HETATM   37  C35 UNL     1      18.921  22.409  21.224  1.00  0.00     0.143 C 
ENDBRANCH  16  35
BRANCH   2  38
HETATM   38  C6  UNL     1      17.780  22.840  15.659  1.00  0.00     0.041 C 
BRANCH  38  39
HETATM   39  C7  UNL     1      16.610  23.444  15.046  1.00  0.00     0.046 C 
BRANCH  39  40
HETATM   40  C8  UNL     1      15.516  22.395  14.681  1.00  0.00     0.074 C 
HETATM   41  C9  UNL     1      14.168  23.098  14.994  1.00  0.00     0.050 C 
BRANCH  40  42
HETATM   42  C10 UNL     1      15.470  22.185  13.214  1.00  0.00     0.000 C 
HETATM   43  C11 UNL     1      14.372  22.164  12.504  1.00  0.00     0.010 C 
ENDBRANCH  40  42
BRANCH  40  44
HETATM   44  O2  UNL     1      15.695  21.271  15.400  1.00  0.00    -0.381 OA
HETATM   45  C12 UNL     1      14.609  20.490  15.668  1.00  0.00     0.202 C 
ENDBRANCH  40  44
ENDBRANCH  39  40
ENDBRANCH  38  39
ENDBRANCH   2  38
BRANCH   1  46
HETATM   46  O1  UNL     1      17.412  22.578  18.318  1.00  0.00    -0.376 OA
BRANCH  46  47
HETATM   47  C3  UNL     1      16.129  22.626  18.673  1.00  0.00     0.195 C 
BRANCH  47  48
HETATM   48  C2  UNL     1      15.727  21.213  19.045  1.00  0.00    -0.011 C 
HETATM   49  C1  UNL     1      14.488  20.798  19.144  1.00  0.00     0.009 C 
ENDBRANCH  47  48
ENDBRANCH  46  47
ENDBRANCH   1  46
TORSDOF 16
ENDMDL
MODEL 3
REMARK VINA RESULT: -6.744200394      5.380     13.876
REMARK  16 active torsions:
REMARK  status: ('A' for Active; 'I' for Inactive)
REMARK    1  A    between atoms: C2_2  and  C3_3 
REMARK    2  A    between atoms: C3_3  and  O1_4 
REMARK    3  A    between atoms: O1_4  and  C4_5 
REMARK    4  A    between atoms: C5_6  and  C6_7 
REMARK    5  A    between atoms: C6_7  and  C7_8 
REMARK    6  A    between atoms: C7_8  and  C8_9 
REMARK    7  A    between atoms: C8_9  and  C10_11 
REMARK    8  A    between atoms: C8_9  and  O2_13 
REMARK    9  A    between atoms: C16_19  and  O4_20 
REMARK   10  A    between atoms: O4_20  and  C17_21 
REMARK   11  A    between atoms: C21_26  and  O6_27 
REMARK   12  A    between atoms: O6_27  and  C22_28 
REMARK   13  A    between atoms: C25_32  and  O8_33 
REMARK   14  A    between atoms: C26_35  and  O9_36 
REMARK   15  A    between atoms: C28_38  and  O10_39 
REMARK   16  A    between atoms: C33_46  and  N1_47 
ROOT
HETATM    1  C4  UNL     1      18.209  23.526  18.066  1.00  0.00     0.174 C 
HETATM    2  C5  UNL     1      18.560  23.631  16.668  1.00  0.00    -0.040 C 
HETATM    3  C13 UNL     1      18.816  24.884  15.935  1.00  0.00    -0.008 C 
HETATM    4  C14 UNL     1      19.843  24.619  14.844  1.00  0.00     0.052 C 
HETATM    5  C15 UNL     1      19.085  26.201  16.445  1.00  0.00     0.189 C 
HETATM    6  O3  UNL     1      18.180  26.784  17.062  1.00  0.00    -0.289 OA
HETATM    7  C16 UNL     1      20.374  26.938  16.295  1.00  0.00     0.237 C 
HETATM    8  C19 UNL     1      21.095  27.198  17.611  1.00  0.00    -0.019 C 
HETATM    9  C20 UNL     1      20.589  28.142  18.349  1.00  0.00     0.020 C 
HETATM   10  C21 UNL     1      22.302  26.450  17.994  1.00  0.00     0.188 C 
HETATM   11  C29 UNL     1      22.411  25.680  19.232  1.00  0.00    -0.005 C 
HETATM   12  C30 UNL     1      22.292  26.523  20.514  1.00  0.00     0.050 C 
HETATM   13  C31 UNL     1      21.721  24.391  19.385  1.00  0.00     0.156 C 
HETATM   14  O11 UNL     1      22.116  23.460  20.008  1.00  0.00    -0.293 OA
HETATM   15  C32 UNL     1      20.426  24.293  18.679  1.00  0.00     0.111 C 
HETATM   16  C33 UNL     1      19.480  23.254  19.014  1.00  0.00     0.118 C 
ENDROOT
BRANCH  10  17
HETATM   17  O6  UNL     1      23.328  27.444  18.140  1.00  0.00    -0.344 OA
BRANCH  17  18
HETATM   18  C22 UNL     1      24.588  26.966  18.072  1.00  0.00     0.292 C 
HETATM   19  O7  UNL     1      24.990  27.082  16.742  1.00  0.00    -0.351 OA
HETATM   20  C23 UNL     1      24.898  28.460  16.413  1.00  0.00     0.152 C 
HETATM   21  C24 UNL     1      24.645  28.708  14.961  1.00  0.00     0.042 C 
HETATM   22  C25 UNL     1      26.146  29.086  16.962  1.00  0.00     0.178 C 
HETATM   23  C26 UNL     1      26.055  29.014  18.453  1.00  0.00     0.185 C 
HETATM   24  C28 UNL     1      25.632  27.645  18.911  1.00  0.00     0.204 C 
BRANCH  22  25
HETATM   25  O8  UNL     1      27.242  28.359  16.487  1.00  0.00    -0.390 OA
ATOM     26  H8  UNL     1      27.904  28.977  16.202  1.00  0.00     0.210 HD
ENDBRANCH  22  25
BRANCH  23  27
HETATM   27  O9  UNL     1      27.384  29.147  18.947  1.00  0.00    -0.385 OA
HETATM   28  C27 UNL     1      27.609  30.469  19.249  1.00  0.00     0.202 C 
ENDBRANCH  23  27
BRANCH  24  29
HETATM   29  O10 UNL     1      25.432  27.594  20.263  1.00  0.00    -0.388 OA
ATOM     30  H10 UNL     1      25.631  28.392  20.740  1.00  0.00     0.210 HD
ENDBRANCH  24  29
ENDBRANCH  17  18
ENDBRANCH  10  17
BRANCH   7  31
HETATM   31  O4  UNL     1      20.128  28.169  15.636  1.00  0.00    -0.304 OA
BRANCH  31  32
HETATM   32  C17 UNL     1      21.038  28.794  14.829  1.00  0.00     0.255 C 
HETATM   33  C18 UNL     1      21.415  28.397  13.450  1.00  0.00     0.126 C 
HETATM   34  O5  UNL     1      21.632  29.810  15.278  1.00  0.00    -0.266 OA
ENDBRANCH  31  32
ENDBRANCH   7  31
BRANCH  16  35
HETATM   35  N1  UNL     1      19.078  23.368  20.341  1.00  0.00    -0.413 N 
HETATM   36  C34 UNL     1      18.387  24.533  20.752  1.00  0.00     0.143 C 
HETATM   37  C35 UNL     1      18.853  22.271  21.175  1.00  0.00     0.143 C 
ENDBRANCH  16  35
BRANCH   2  38
HETATM   38  C6  UNL     1      17.716  22.813  15.651  1.00  0.00     0.041 C 
BRANCH  38  39
HETATM   39  C7  UNL     1      16.560  23.442  15.035  1.00  0.00     0.046 C 
BRANCH  39  40
HETATM   40  C8  UNL     1      15.459  22.412  14.637  1.00  0.00     0.074 C 
HETATM   41  C9  UNL     1      14.116  23.123  14.949  1.00  0.00     0.050 C 
BRANCH  40  42
HETATM   42  C10 UNL     1      15.428  22.232  13.166  1.00  0.00     0.000 C 
HETATM   43  C11 UNL     1      14.335  22.113  12.459  1.00  0.00     0.010 C 
ENDBRANCH  40  42
BRANCH  40  44
HETATM   44  O2  UNL     1      15.618  21.273  15.335  1.00  0.00    -0.381 OA
HETATM   45  C12 UNL     1      14.523  20.494  15.569  1.00  0.00     0.202 C 
ENDBRANCH  40  44
ENDBRANCH  39  40
ENDBRANCH  38  39
ENDBRANCH   2  38
BRANCH   1  46
HETATM   46  O1  UNL     1      17.377  22.500  18.309  1.00  0.00    -0.376 OA
BRANCH  46  47
HETATM   47  C3  UNL     1      16.098  22.541  18.677  1.00  0.00     0.195 C 
BRANCH  47  48
HETATM   48  C2  UNL     1      15.694  21.117  19.007  1.00  0.00    -0.011 C 
HETATM   49  C1  UNL     1      14.455  20.702  19.099  1.00  0.00     0.009 C 
ENDBRANCH  47  48
ENDBRANCH  46  47
ENDBRANCH   1  46
TORSDOF 16
ENDMDL
MODEL 4
REMARK VINA RESULT: -6.495693493      0.924      1.933
REMARK  16 active torsions:
REMARK  status: ('A' for Active; 'I' for Inactive)
REMARK    1  A    between atoms: C2_2  and  C3_3 
REMARK    2  A    between atoms: C3_3  and  O1_4 
REMARK    3  A    between atoms: O1_4  and  C4_5 
REMARK    4  A    between atoms: C5_6  and  C6_7 
REMARK    5  A    between atoms: C6_7  and  C7_8 
REMARK    6  A    between atoms: C7_8  and  C8_9 
REMARK    7  A    between atoms: C8_9  and  C10_11 
REMARK    8  A    between atoms: C8_9  and  O2_13 
REMARK    9  A    between atoms: C16_19  and  O4_20 
REMARK   10  A    between atoms: O4_20  and  C17_21 
REMARK   11  A    between atoms: C21_26  and  O6_27 
REMARK   12  A    between atoms: O6_27  and  C22_28 
REMARK   13  A    between atoms: C25_32  and  O8_33 
REMARK   14  A    between atoms: C26_35  and  O9_36 
REMARK   15  A    between atoms: C28_38  and  O10_39 
REMARK   16  A    between atoms: C33_46  and  N1_47 
ROOT
HETATM    1  C4  UNL     1      14.817  21.683  15.731  1.00  0.00     0.174 C 
HETATM    2  C5  UNL     1      15.148  20.588  16.614  1.00  0.00    -0.040 C 
HETATM    3  C13 UNL     1      14.242  19.972  17.600  1.00  0.00    -0.008 C 
HETATM    4  C14 UNL     1      14.596  18.499  17.745  1.00  0.00     0.052 C 
HETATM    5  C15 UNL     1      12.812  20.066  17.709  1.00  0.00     0.189 C 
HETATM    6  O3  UNL     1      12.319  21.169  17.993  1.00  0.00    -0.289 OA
HETATM    7  C16 UNL     1      11.855  18.939  17.507  1.00  0.00     0.237 C 
HETATM    8  C19 UNL     1      10.931  19.116  16.310  1.00  0.00    -0.019 C 
HETATM    9  C20 UNL     1       9.962  19.969  16.472  1.00  0.00     0.020 C 
HETATM   10  C21 UNL     1      11.112  18.345  15.070  1.00  0.00     0.188 C 
HETATM   11  C29 UNL     1      11.299  18.963  13.759  1.00  0.00    -0.005 C 
HETATM   12  C30 UNL     1      10.109  19.814  13.284  1.00  0.00     0.050 C 
HETATM   13  C31 UNL     1      12.575  19.597  13.396  1.00  0.00     0.156 C 
HETATM   14  O11 UNL     1      13.055  19.623  12.311  1.00  0.00    -0.293 OA
HETATM   15  C32 UNL     1      13.288  20.241  14.519  1.00  0.00     0.111 C 
HETATM   16  C33 UNL     1      14.348  21.192  14.272  1.00  0.00     0.118 C 
ENDROOT
BRANCH  10  17
HETATM   17  O6  UNL     1       9.891  17.607  14.908  1.00  0.00    -0.344 OA
BRANCH  17  18
HETATM   18  C22 UNL     1       9.543  16.854  15.973  1.00  0.00     0.292 C 
HETATM   19  O7  UNL     1       8.239  16.417  15.747  1.00  0.00    -0.351 OA
HETATM   20  C23 UNL     1       8.264  15.685  14.531  1.00  0.00     0.152 C 
HETATM   21  C24 UNL     1       6.961  15.702  13.800  1.00  0.00     0.042 C 
HETATM   22  C25 UNL     1       8.777  14.323  14.896  1.00  0.00     0.178 C 
HETATM   23  C26 UNL     1      10.206  14.486  15.305  1.00  0.00     0.185 C 
HETATM   24  C28 UNL     1      10.374  15.637  16.259  1.00  0.00     0.204 C 
BRANCH  22  25
HETATM   25  O8  UNL     1       8.000  13.835  15.952  1.00  0.00    -0.390 OA
ATOM     26  H8  UNL     1       8.352  14.184  16.762  1.00  0.00     0.210 HD
ENDBRANCH  22  25
BRANCH  23  27
HETATM   27  O9  UNL     1      10.536  13.340  16.085  1.00  0.00    -0.385 OA
HETATM   28  C27 UNL     1      10.334  12.217  15.320  1.00  0.00     0.202 C 
ENDBRANCH  23  27
BRANCH  24  29
HETATM   29  O10 UNL     1      11.689  15.871  16.554  1.00  0.00    -0.388 OA
ATOM     30  H10 UNL     1      11.921  15.822  17.474  1.00  0.00     0.210 HD
ENDBRANCH  24  29
ENDBRANCH  17  18
ENDBRANCH  10  17
BRANCH   7  31
HETATM   31  O4  UNL     1      11.081  18.773  18.683  1.00  0.00    -0.304 OA
BRANCH  31  32
HETATM   32  C17 UNL     1      11.597  18.364  19.882  1.00  0.00     0.255 C 
HETATM   33  C18 UNL     1      12.242  17.060  20.167  1.00  0.00     0.126 C 
HETATM   34  O5  UNL     1      11.526  19.155  20.860  1.00  0.00    -0.266 OA
ENDBRANCH  31  32
ENDBRANCH   7  31
BRANCH  16  35
HETATM   35  N1  UNL     1      13.863  22.291  13.568  1.00  0.00    -0.413 N 
HETATM   36  C34 UNL     1      14.283  22.492  12.231  1.00  0.00     0.143 C 
HETATM   37  C35 UNL     1      12.657  22.927  13.868  1.00  0.00     0.143 C 
ENDBRANCH  16  35
BRANCH   2  38
HETATM   38  C6  UNL     1      16.487  20.676  17.397  1.00  0.00     0.041 C 
BRANCH  38  39
HETATM   39  C7  UNL     1      16.547  21.502  18.591  1.00  0.00     0.046 C 
BRANCH  39  40
HETATM   40  C8  UNL     1      17.944  22.164  18.792  1.00  0.00     0.074 C 
HETATM   41  C9  UNL     1      18.556  22.243  17.367  1.00  0.00     0.050 C 
BRANCH  40  42
HETATM   42  C10 UNL     1      17.790  23.585  19.186  1.00  0.00     0.000 C 
HETATM   43  C11 UNL     1      16.832  24.369  18.766  1.00  0.00     0.010 C 
ENDBRANCH  40  42
BRANCH  40  44
HETATM   44  O2  UNL     1      18.688  21.428  19.637  1.00  0.00    -0.381 OA
HETATM   45  C12 UNL     1      18.701  21.768  20.958  1.00  0.00     0.202 C 
ENDBRANCH  40  44
ENDBRANCH  39  40
ENDBRANCH  38  39
ENDBRANCH   2  38
BRANCH   1  46
HETATM   46  O1  UNL     1      15.866  22.488  15.498  1.00  0.00    -0.376 OA
BRANCH  46  47
HETATM   47  C3  UNL     1      15.912  23.818  15.527  1.00  0.00     0.195 C 
BRANCH  47  48
HETATM   48  C2  UNL     1      17.216  24.225  14.868  1.00  0.00    -0.011 C 
HETATM   49  C1  UNL     1      17.928  25.266  15.219  1.00  0.00     0.009 C 
ENDBRANCH  47  48
ENDBRANCH  46  47
ENDBRANCH   1  46
TORSDOF 16
ENDMDL
MODEL 5
REMARK VINA RESULT: -6.249614606      2.856      9.858
REMARK  16 active torsions:
REMARK  status: ('A' for Active; 'I' for Inactive)
REMARK    1  A    between atoms: C2_2  and  C3_3 
REMARK    2  A    between atoms: C3_3  and  O1_4 
REMARK    3  A    between atoms: O1_4  and  C4_5 
REMARK    4  A    between atoms: C5_6  and  C6_7 
REMARK    5  A    between atoms: C6_7  and  C7_8 
REMARK    6  A    between atoms: C7_8  and  C8_9 
REMARK    7  A    between atoms: C8_9  and  C10_11 
REMARK    8  A    between atoms: C8_9  and  O2_13 
REMARK    9  A    between atoms: C16_19  and  O4_20 
REMARK   10  A    between atoms: O4_20  and  C17_21 
REMARK   11  A    between atoms: C21_26  and  O6_27 
REMARK   12  A    between atoms: O6_27  and  C22_28 
REMARK   13  A    between atoms: C25_32  and  O8_33 
REMARK   14  A    between atoms: C26_35  and  O9_36 
REMARK   15  A    between atoms: C28_38  and  O10_39 
REMARK   16  A    between atoms: C33_46  and  N1_47 
ROOT
HETATM    1  C4  UNL     1      13.407  20.669  16.630  1.00  0.00     0.174 C 
HETATM    2  C5  UNL     1      13.571  20.992  18.029  1.00  0.00    -0.040 C 
HETATM    3  C13 UNL     1      14.838  20.946  18.781  1.00  0.00    -0.008 C 
HETATM    4  C14 UNL     1      14.809  22.012  19.866  1.00  0.00     0.052 C 
HETATM    5  C15 UNL     1      16.189  20.892  18.291  1.00  0.00     0.189 C 
HETATM    6  O3  UNL     1      16.550  19.871  17.684  1.00  0.00    -0.289 OA
HETATM    7  C16 UNL     1      17.209  21.969  18.451  1.00  0.00     0.237 C 
HETATM    8  C19 UNL     1      17.653  22.602  17.139  1.00  0.00    -0.019 C 
HETATM    9  C20 UNL     1      18.460  21.882  16.416  1.00  0.00     0.020 C 
HETATM   10  C21 UNL     1      17.219  23.950  16.743  1.00  0.00     0.188 C 
HETATM   11  C29 UNL     1      16.516  24.232  15.492  1.00  0.00    -0.005 C 
HETATM   12  C30 UNL     1      17.325  23.911  14.224  1.00  0.00     0.050 C 
HETATM   13  C31 UNL     1      15.102  23.868  15.320  1.00  0.00     0.156 C 
HETATM   14  O11 UNL     1      14.301  24.470  14.683  1.00  0.00    -0.293 OA
HETATM   15  C32 UNL     1      14.689  22.638  16.026  1.00  0.00     0.111 C 
HETATM   16  C33 UNL     1      13.459  21.964  15.676  1.00  0.00     0.118 C 
ENDROOT
BRANCH  10  17
HETATM   17  O6  UNL     1      18.430  24.709  16.611  1.00  0.00    -0.344 OA
BRANCH  17  18
HETATM   18  C22 UNL     1      18.304  26.022  16.895  1.00  0.00     0.292 C 
HETATM   19  O7  UNL     1      19.001  26.246  18.082  1.00  0.00    -0.351 OA
HETATM   20  C23 UNL     1      20.344  25.854  17.840  1.00  0.00     0.152 C 
HETATM   21  C24 UNL     1      21.060  25.399  19.070  1.00  0.00     0.042 C 
HETATM   22  C25 UNL     1      20.974  27.010  17.122  1.00  0.00     0.178 C 
HETATM   23  C26 UNL     1      20.325  27.100  15.777  1.00  0.00     0.185 C 
HETATM   24  C28 UNL     1      18.828  27.002  15.884  1.00  0.00     0.204 C 
BRANCH  22  25
HETATM   25  O8  UNL     1      20.742  28.167  17.873  1.00  0.00    -0.390 OA
ATOM     26  H8  UNL     1      20.822  27.942  18.793  1.00  0.00     0.210 HD
ENDBRANCH  22  25
BRANCH  23  27
HETATM   27  O9  UNL     1      20.552  28.425  15.306  1.00  0.00    -0.385 OA
HETATM   28  C27 UNL     1      21.357  28.362  14.194  1.00  0.00     0.202 C 
ENDBRANCH  23  27
BRANCH  24  29
HETATM   29  O10 UNL     1      18.227  26.966  14.656  1.00  0.00    -0.388 OA
ATOM     30  H10 UNL     1      18.797  27.125  13.912  1.00  0.00     0.210 HD
ENDBRANCH  24  29
ENDBRANCH  17  18
ENDBRANCH  10  17
BRANCH   7  31
HETATM   31  O4  UNL     1      18.336  21.441  19.129  1.00  0.00    -0.304 OA
BRANCH  31  32
HETATM   32  C17 UNL     1      18.749  21.864  20.363  1.00  0.00     0.255 C 
HETATM   33  C18 UNL     1      19.186  23.234  20.726  1.00  0.00     0.126 C 
HETATM   34  O5  UNL     1      18.774  21.025  21.302  1.00  0.00    -0.266 OA
ENDBRANCH  31  32
ENDBRANCH   7  31
BRANCH  16  35
HETATM   35  N1  UNL     1      13.494  21.539  14.352  1.00  0.00    -0.413 N 
HETATM   36  C34 UNL     1      12.587  22.104  13.423  1.00  0.00     0.143 C 
HETATM   37  C35 UNL     1      14.627  20.988  13.750  1.00  0.00     0.143 C 
ENDBRANCH  16  35
BRANCH   2  38
HETATM   38  C6  UNL     1      12.562  20.371  19.033  1.00  0.00     0.041 C 
BRANCH  38  39
HETATM   39  C7  UNL     1      12.969  19.213  19.810  1.00  0.00     0.046 C 
BRANCH  39  40
HETATM   40  C8  UNL     1      12.360  17.884  19.267  1.00  0.00     0.074 C 
HETATM   41  C9  UNL     1      12.373  16.915  20.479  1.00  0.00     0.050 C 
BRANCH  40  42
HETATM   42  C10 UNL     1      10.917  18.059  18.974  1.00  0.00     0.000 C 
HETATM   43  C11 UNL     1      10.253  17.364  18.087  1.00  0.00     0.010 C 
ENDBRANCH  40  42
BRANCH  40  44
HETATM   44  O2  UNL     1      13.088  17.431  18.231  1.00  0.00    -0.381 OA
HETATM   45  C12 UNL     1      14.440  17.323  18.383  1.00  0.00     0.202 C 
ENDBRANCH  40  44
ENDBRANCH  39  40
ENDBRANCH  38  39
ENDBRANCH   2  38
BRANCH   1  46
HETATM   46  O1  UNL     1      12.216  20.104  16.372  1.00  0.00    -0.376 OA
BRANCH  46  47
HETATM   47  C3  UNL     1      11.923  19.163  15.476  1.00  0.00     0.195 C 
BRANCH  47  48
HETATM   48  C2  UNL     1      10.517  19.450  14.986  1.00  0.00    -0.011 C 
HETATM   49  C1  UNL     1       9.678  20.261  15.580  1.00  0.00     0.009 C 
ENDBRANCH  47  48
ENDBRANCH  46  47
ENDBRANCH   1  46
TORSDOF 16
ENDMDL
