MODEL 1
REMARK VINA RESULT: -9.644943042      0.000      0.000
REMARK  15 active torsions:
REMARK  status: ('A' for Active; 'I' for Inactive)
REMARK    1  A    between atoms: C2_2  and  C3_3 
REMARK    2  A    between atoms: C3_3  and  C4_4 
REMARK    3  A    between atoms: C4_4  and  C5_5 
REMARK    4  A    between atoms: C5_5  and  C6_6 
REMARK    5  A    between atoms: N1_9  and  C9_10 
REMARK    6  A    between atoms: N3_24  and  C20_25 
REMARK    7  A    between atoms: C20_25  and  C21_26 
REMARK    8  A    between atoms: C21_26  and  O1_27 
REMARK    9  A    between atoms: C21_26  and  C22_29 
REMARK   10  A    between atoms: C22_29  and  N4_30 
REMARK   11  A    between atoms: N5_37  and  C28_39 
REMARK   12  A    between atoms: C28_39  and  C29_40 
REMARK   13  A    between atoms: C29_40  and  C30_41 
REMARK   14  A    between atoms: C30_41  and  N6_42 
REMARK   15  A    between atoms: C35_48  and  O4_49 
ROOT
HETATM    1  C1  UNL     1      16.597  25.155  17.054  1.00  0.00     0.030 C 
HETATM    2  C2  UNL     1      17.674  24.738  16.018  1.00  0.00     0.042 C 
HETATM    3  S1  UNL     1      19.228  24.755  17.015  1.00  0.00    -0.097 SA
HETATM    4  C17 UNL     1      18.945  23.537  18.263  1.00  0.00     0.103 A 
HETATM    5  C18 UNL     1      17.952  22.609  18.080  1.00  0.00     0.092 A 
HETATM    6  N2  UNL     1      17.951  21.808  19.168  1.00  0.00    -0.348 N 
ATOM      7  H2  UNL     1      17.321  21.021  19.323  1.00  0.00     0.167 HD
HETATM    8  C19 UNL     1      18.925  22.220  20.025  1.00  0.00     0.184 A 
HETATM    9  N3  UNL     1      19.506  23.279  19.431  1.00  0.00    -0.333 N 
HETATM   10  C27 UNL     1      17.088  22.563  16.898  1.00  0.00     0.065 C 
HETATM   11  N5  UNL     1      16.036  21.875  16.975  1.00  0.00    -0.389 N 
ATOM     12  H5  UNL     1      15.923  21.428  17.884  1.00  0.00     0.159 HD
HETATM   13  C35 UNL     1      17.423  23.313  15.664  1.00  0.00     0.188 C 
ENDROOT
BRANCH   2  14
HETATM   14  C3  UNL     1      17.636  25.739  14.956  1.00  0.00     0.023 C 
BRANCH  14  15
HETATM   15  C4  UNL     1      18.837  26.120  14.206  1.00  0.00     0.002 C 
BRANCH  15  16
HETATM   16  C5  UNL     1      19.400  27.449  14.579  1.00  0.00     0.005 C 
BRANCH  16  17
HETATM   17  C6  UNL     1      20.871  27.560  14.139  1.00  0.00    -0.005 C 
HETATM   18  C7  UNL     1      21.649  26.468  14.733  1.00  0.00     0.049 C 
HETATM   19  C8  UNL     1      22.695  26.832  15.716  1.00  0.00     0.064 C 
HETATM   20  N1  UNL     1      23.222  28.129  15.698  1.00  0.00    -0.369 N 
HETATM   21  C15 UNL     1      22.384  29.197  15.354  1.00  0.00     0.064 C 
HETATM   22  C16 UNL     1      21.392  28.933  14.283  1.00  0.00     0.049 C 
BRANCH  20  23
HETATM   23  C9  UNL     1      24.595  28.337  15.894  1.00  0.00     0.088 C 
HETATM   24  C10 UNL     1      25.226  29.339  14.955  1.00  0.00     0.026 C 
HETATM   25  C11 UNL     1      26.572  29.707  15.550  1.00  0.00     0.002 C 
HETATM   26  C12 UNL     1      27.436  28.448  15.448  1.00  0.00     0.000 C 
HETATM   27  C13 UNL     1      26.796  27.341  16.268  1.00  0.00     0.002 C 
HETATM   28  C14 UNL     1      25.421  27.052  15.706  1.00  0.00     0.026 C 
ENDBRANCH  20  23
ENDBRANCH  16  17
ENDBRANCH  15  16
ENDBRANCH  14  15
ENDBRANCH   2  14
BRANCH  13  29
HETATM   29  O4  UNL     1      16.382  23.257  14.783  1.00  0.00    -0.388 OA
ATOM     30  H4  UNL     1      15.892  22.457  14.940  1.00  0.00     0.210 HD
ENDBRANCH  13  29
BRANCH   9  31
HETATM   31  C20 UNL     1      20.602  24.028  20.028  1.00  0.00     0.167 C 
BRANCH  31  32
HETATM   32  C21 UNL     1      20.139  25.324  20.604  1.00  0.00     0.174 C 
BRANCH  32  33
HETATM   33  O1  UNL     1      18.768  25.370  20.809  1.00  0.00    -0.389 OA
ATOM     34  H1  UNL     1      18.501  24.987  21.637  1.00  0.00     0.210 HD
ENDBRANCH  32  33
BRANCH  32  35
HETATM   35  C22 UNL     1      20.654  26.511  19.874  1.00  0.00     0.091 C 
BRANCH  35  36
HETATM   36  N4  UNL     1      21.833  27.116  20.269  1.00  0.00    -0.387 N 
HETATM   37  C23 UNL     1      22.944  27.289  19.458  1.00  0.00     0.148 C 
HETATM   38  C24 UNL     1      24.234  26.713  20.046  1.00  0.00     0.187 C 
HETATM   39  O2  UNL     1      24.403  27.058  21.366  1.00  0.00    -0.388 OA
HETATM   40  C25 UNL     1      23.287  26.684  22.146  1.00  0.00     0.187 C 
HETATM   41  C26 UNL     1      22.047  27.417  21.635  1.00  0.00     0.148 C 
ENDBRANCH  35  36
ENDBRANCH  32  35
ENDBRANCH  31  32
ENDBRANCH   9  31
BRANCH  11  42
HETATM   42  C28 UNL     1      14.985  21.584  16.092  1.00  0.00     0.121 C 
BRANCH  42  43
HETATM   43  C29 UNL     1      13.851  20.945  16.903  1.00  0.00     0.050 C 
BRANCH  43  44
HETATM   44  C30 UNL     1      14.374  20.354  18.205  1.00  0.00     0.274 C 
BRANCH  44  45
HETATM   45  N6  UNL     1      13.236  19.911  18.966  1.00  0.00     0.092 N 
HETATM   46  C31 UNL     1      13.631  18.835  19.831  1.00  0.00     0.298 C 
HETATM   47  C32 UNL     1      12.494  18.416  20.748  1.00  0.00     0.198 C 
HETATM   48  O3  UNL     1      11.269  18.809  20.196  1.00  0.00    -0.388 OA
HETATM   49  C33 UNL     1      11.273  18.532  18.843  1.00  0.00     0.198 C 
HETATM   50  C34 UNL     1      12.101  19.613  18.143  1.00  0.00     0.298 C 
ENDBRANCH  44  45
ENDBRANCH  43  44
ENDBRANCH  42  43
ENDBRANCH  11  42
TORSDOF 15
ENDMDL
MODEL 2
REMARK VINA RESULT: -9.642137179      1.464      1.850
REMARK  15 active torsions:
REMARK  status: ('A' for Active; 'I' for Inactive)
REMARK    1  A    between atoms: C2_2  and  C3_3 
REMARK    2  A    between atoms: C3_3  and  C4_4 
REMARK    3  A    between atoms: C4_4  and  C5_5 
REMARK    4  A    between atoms: C5_5  and  C6_6 
REMARK    5  A    between atoms: N1_9  and  C9_10 
REMARK    6  A    between atoms: N3_24  and  C20_25 
REMARK    7  A    between atoms: C20_25  and  C21_26 
REMARK    8  A    between atoms: C21_26  and  O1_27 
REMARK    9  A    between atoms: C21_26  and  C22_29 
REMARK   10  A    between atoms: C22_29  and  N4_30 
REMARK   11  A    between atoms: N5_37  and  C28_39 
REMARK   12  A    between atoms: C28_39  and  C29_40 
REMARK   13  A    between atoms: C29_40  and  C30_41 
REMARK   14  A    between atoms: C30_41  and  N6_42 
REMARK   15  A    between atoms: C35_48  and  O4_49 
ROOT
HETATM    1  C1  UNL     1      17.090  25.684  17.157  1.00  0.00     0.030 C 
HETATM    2  C2  UNL     1      17.875  24.542  16.458  1.00  0.00     0.042 C 
HETATM    3  S1  UNL     1      19.516  24.597  17.303  1.00  0.00    -0.097 SA
HETATM    4  C17 UNL     1      19.135  24.254  18.994  1.00  0.00     0.103 A 
HETATM    5  C18 UNL     1      17.933  23.669  19.304  1.00  0.00     0.092 A 
HETATM    6  N2  UNL     1      17.899  23.519  20.646  1.00  0.00    -0.348 N 
ATOM      7  H2  UNL     1      17.129  23.112  21.177  1.00  0.00     0.167 HD
HETATM    8  C19 UNL     1      19.057  23.999  21.177  1.00  0.00     0.184 A 
HETATM    9  N3  UNL     1      19.781  24.437  20.131  1.00  0.00    -0.333 N 
HETATM   10  C27 UNL     1      16.921  23.310  18.308  1.00  0.00     0.065 C 
HETATM   11  N5  UNL     1      15.759  23.066  18.724  1.00  0.00    -0.389 N 
ATOM     12  H5  UNL     1      15.675  23.157  19.736  1.00  0.00     0.159 HD
HETATM   13  C35 UNL     1      17.243  23.256  16.862  1.00  0.00     0.188 C 
ENDROOT
BRANCH   2  14
HETATM   14  C3  UNL     1      17.924  24.883  15.040  1.00  0.00     0.023 C 
BRANCH  14  15
HETATM   15  C4  UNL     1      18.188  26.249  14.577  1.00  0.00     0.002 C 
BRANCH  15  16
HETATM   16  C5  UNL     1      19.609  26.510  14.208  1.00  0.00     0.005 C 
BRANCH  16  17
HETATM   17  C6  UNL     1      20.055  27.895  14.708  1.00  0.00    -0.005 C 
HETATM   18  C7  UNL     1      20.808  28.583  13.653  1.00  0.00     0.049 C 
HETATM   19  C8  UNL     1      22.241  28.858  13.905  1.00  0.00     0.064 C 
HETATM   20  N1  UNL     1      22.702  28.901  15.226  1.00  0.00    -0.369 N 
HETATM   21  C15 UNL     1      22.121  28.050  16.175  1.00  0.00     0.064 C 
HETATM   22  C16 UNL     1      20.659  27.833  16.053  1.00  0.00     0.049 C 
BRANCH  20  23
HETATM   23  C9  UNL     1      23.637  29.870  15.617  1.00  0.00     0.088 C 
HETATM   24  C10 UNL     1      24.039  30.839  14.530  1.00  0.00     0.026 C 
HETATM   25  C11 UNL     1      24.729  32.003  15.216  1.00  0.00     0.002 C 
HETATM   26  C12 UNL     1      26.041  31.445  15.774  1.00  0.00     0.000 C 
HETATM   27  C13 UNL     1      25.724  30.362  16.791  1.00  0.00     0.002 C 
HETATM   28  C14 UNL     1      24.963  29.252  16.099  1.00  0.00     0.026 C 
ENDBRANCH  20  23
ENDBRANCH  16  17
ENDBRANCH  15  16
ENDBRANCH  14  15
ENDBRANCH   2  14
BRANCH  13  29
HETATM   29  O4  UNL     1      16.102  23.080  16.133  1.00  0.00    -0.388 OA
ATOM     30  H4  UNL     1      15.423  22.743  16.706  1.00  0.00     0.210 HD
ENDBRANCH  13  29
BRANCH   9  31
HETATM   31  C20 UNL     1      21.099  25.041  20.269  1.00  0.00     0.167 C 
BRANCH  31  32
HETATM   32  C21 UNL     1      21.013  26.472  20.680  1.00  0.00     0.174 C 
BRANCH  32  33
HETATM   33  O1  UNL     1      20.574  27.306  19.662  1.00  0.00    -0.389 OA
ATOM     34  H1  UNL     1      19.956  27.963  19.959  1.00  0.00     0.210 HD
ENDBRANCH  32  33
BRANCH  32  35
HETATM   35  C22 UNL     1      22.245  26.970  21.343  1.00  0.00     0.091 C 
BRANCH  35  36
HETATM   36  N4  UNL     1      23.477  26.817  20.734  1.00  0.00    -0.387 N 
HETATM   37  C23 UNL     1      23.803  27.297  19.475  1.00  0.00     0.148 C 
HETATM   38  C24 UNL     1      24.340  26.225  18.525  1.00  0.00     0.187 C 
HETATM   39  O2  UNL     1      25.290  25.431  19.121  1.00  0.00    -0.388 OA
HETATM   40  C25 UNL     1      24.804  24.846  20.311  1.00  0.00     0.187 C 
HETATM   41  C26 UNL     1      24.442  25.951  21.303  1.00  0.00     0.148 C 
ENDBRANCH  35  36
ENDBRANCH  32  35
ENDBRANCH  31  32
ENDBRANCH   9  31
BRANCH  11  42
HETATM   42  C28 UNL     1      14.552  22.697  18.110  1.00  0.00     0.121 C 
BRANCH  42  43
HETATM   43  C29 UNL     1      14.366  21.187  18.308  1.00  0.00     0.050 C 
BRANCH  43  44
HETATM   44  C30 UNL     1      13.200  20.665  17.481  1.00  0.00     0.274 C 
BRANCH  44  45
HETATM   45  N6  UNL     1      12.294  20.002  18.381  1.00  0.00     0.092 N 
HETATM   46  C31 UNL     1      13.048  19.247  19.344  1.00  0.00     0.298 C 
HETATM   47  C32 UNL     1      12.141  18.630  20.396  1.00  0.00     0.198 C 
HETATM   48  O3  UNL     1      10.837  18.528  19.898  1.00  0.00    -0.388 OA
HETATM   49  C33 UNL     1      10.884  18.070  18.596  1.00  0.00     0.198 C 
HETATM   50  C34 UNL     1      11.291  19.241  17.698  1.00  0.00     0.298 C 
ENDBRANCH  44  45
ENDBRANCH  43  44
ENDBRANCH  42  43
ENDBRANCH  11  42
TORSDOF 15
ENDMDL
MODEL 3
REMARK VINA RESULT: -9.563728544      1.377      8.041
REMARK  15 active torsions:
REMARK  status: ('A' for Active; 'I' for Inactive)
REMARK    1  A    between atoms: C2_2  and  C3_3 
REMARK    2  A    between atoms: C3_3  and  C4_4 
REMARK    3  A    between atoms: C4_4  and  C5_5 
REMARK    4  A    between atoms: C5_5  and  C6_6 
REMARK    5  A    between atoms: N1_9  and  C9_10 
REMARK    6  A    between atoms: N3_24  and  C20_25 
REMARK    7  A    between atoms: C20_25  and  C21_26 
REMARK    8  A    between atoms: C21_26  and  O1_27 
REMARK    9  A    between atoms: C21_26  and  C22_29 
REMARK   10  A    between atoms: C22_29  and  N4_30 
REMARK   11  A    between atoms: N5_37  and  C28_39 
REMARK   12  A    between atoms: C28_39  and  C29_40 
REMARK   13  A    between atoms: C29_40  and  C30_41 
REMARK   14  A    between atoms: C30_41  and  N6_42 
REMARK   15  A    between atoms: C35_48  and  O4_49 
ROOT
HETATM    1  C1  UNL     1      18.518  23.994  15.729  1.00  0.00     0.030 C 
HETATM    2  C2  UNL     1      17.593  25.179  16.111  1.00  0.00     0.042 C 
HETATM    3  S1  UNL     1      15.925  24.389  16.180  1.00  0.00    -0.097 SA
HETATM    4  C17 UNL     1      16.080  23.179  17.458  1.00  0.00     0.103 A 
HETATM    5  C18 UNL     1      17.114  23.280  18.355  1.00  0.00     0.092 A 
HETATM    6  N2  UNL     1      16.998  22.244  19.213  1.00  0.00    -0.348 N 
ATOM      7  H2  UNL     1      17.624  22.050  19.994  1.00  0.00     0.167 HD
HETATM    8  C19 UNL     1      15.913  21.498  18.868  1.00  0.00     0.184 A 
HETATM    9  N3  UNL     1      15.384  22.107  17.791  1.00  0.00    -0.333 N 
HETATM   10  C27 UNL     1      18.122  24.343  18.319  1.00  0.00     0.065 C 
HETATM   11  N5  UNL     1      19.173  24.168  18.988  1.00  0.00    -0.389 N 
ATOM     12  H5  UNL     1      19.183  23.276  19.481  1.00  0.00     0.159 HD
HETATM   13  C35 UNL     1      17.925  25.570  17.509  1.00  0.00     0.188 C 
ENDROOT
BRANCH   2  14
HETATM   14  C3  UNL     1      17.738  26.174  15.054  1.00  0.00     0.023 C 
BRANCH  14  15
HETATM   15  C4  UNL     1      18.986  26.332  14.301  1.00  0.00     0.002 C 
BRANCH  15  16
HETATM   16  C5  UNL     1      19.659  27.649  14.494  1.00  0.00     0.005 C 
BRANCH  16  17
HETATM   17  C6  UNL     1      21.146  27.561  14.106  1.00  0.00    -0.005 C 
HETATM   18  C7  UNL     1      21.806  26.524  14.906  1.00  0.00     0.049 C 
HETATM   19  C8  UNL     1      22.852  26.959  15.860  1.00  0.00     0.064 C 
HETATM   20  N1  UNL     1      23.492  28.187  15.651  1.00  0.00    -0.369 N 
HETATM   21  C15 UNL     1      22.763  29.247  15.100  1.00  0.00     0.064 C 
HETATM   22  C16 UNL     1      21.784  28.891  14.045  1.00  0.00     0.049 C 
BRANCH  20  23
HETATM   23  C9  UNL     1      24.872  28.310  15.870  1.00  0.00     0.088 C 
HETATM   24  C10 UNL     1      25.570  29.308  14.977  1.00  0.00     0.026 C 
HETATM   25  C11 UNL     1      26.927  29.578  15.600  1.00  0.00     0.002 C 
HETATM   26  C12 UNL     1      27.721  28.276  15.460  1.00  0.00     0.000 C 
HETATM   27  C13 UNL     1      27.009  27.178  16.231  1.00  0.00     0.002 C 
HETATM   28  C14 UNL     1      25.627  26.987  15.643  1.00  0.00     0.026 C 
ENDBRANCH  20  23
ENDBRANCH  16  17
ENDBRANCH  15  16
ENDBRANCH  14  15
ENDBRANCH   2  14
BRANCH  13  29
HETATM   29  O4  UNL     1      19.071  26.312  17.497  1.00  0.00    -0.388 OA
ATOM     30  H4  UNL     1      19.087  26.861  18.272  1.00  0.00     0.210 HD
ENDBRANCH  13  29
BRANCH   9  31
HETATM   31  C20 UNL     1      14.201  21.618  17.098  1.00  0.00     0.167 C 
BRANCH  31  32
HETATM   32  C21 UNL     1      14.409  20.247  16.547  1.00  0.00     0.174 C 
BRANCH  32  33
HETATM   33  O1  UNL     1      13.887  20.088  15.271  1.00  0.00    -0.389 OA
ATOM     34  H1  UNL     1      13.054  20.527  15.151  1.00  0.00     0.210 HD
ENDBRANCH  32  33
BRANCH  32  35
HETATM   35  C22 UNL     1      13.994  19.167  17.478  1.00  0.00     0.091 C 
BRANCH  35  36
HETATM   36  N4  UNL     1      12.953  19.372  18.366  1.00  0.00    -0.387 N 
HETATM   37  C23 UNL     1      13.083  19.393  19.746  1.00  0.00     0.148 C 
HETATM   38  C24 UNL     1      12.156  18.413  20.468  1.00  0.00     0.187 C 
HETATM   39  O2  UNL     1      10.868  18.469  19.992  1.00  0.00    -0.388 OA
HETATM   40  C25 UNL     1      10.822  18.262  18.596  1.00  0.00     0.187 C 
HETATM   41  C26 UNL     1      11.617  19.366  17.898  1.00  0.00     0.148 C 
ENDBRANCH  35  36
ENDBRANCH  32  35
ENDBRANCH  31  32
ENDBRANCH   9  31
BRANCH  11  42
HETATM   42  C28 UNL     1      20.335  24.923  19.209  1.00  0.00     0.121 C 
BRANCH  42  43
HETATM   43  C29 UNL     1      20.345  25.352  20.682  1.00  0.00     0.050 C 
BRANCH  43  44
HETATM   44  C30 UNL     1      21.412  26.406  20.939  1.00  0.00     0.274 C 
BRANCH  44  45
HETATM   45  N6  UNL     1      22.536  26.097  20.095  1.00  0.00     0.092 N 
HETATM   46  C31 UNL     1      23.443  25.239  20.806  1.00  0.00     0.298 C 
HETATM   47  C32 UNL     1      24.585  24.780  19.915  1.00  0.00     0.198 C 
HETATM   48  O3  UNL     1      24.738  25.669  18.844  1.00  0.00    -0.388 OA
HETATM   49  C33 UNL     1      24.635  26.963  19.312  1.00  0.00     0.198 C 
HETATM   50  C34 UNL     1      23.152  27.266  19.541  1.00  0.00     0.298 C 
ENDBRANCH  44  45
ENDBRANCH  43  44
ENDBRANCH  42  43
ENDBRANCH  11  42
TORSDOF 15
ENDMDL
MODEL 4
REMARK VINA RESULT: -9.543190276      1.958      7.742
REMARK  15 active torsions:
REMARK  status: ('A' for Active; 'I' for Inactive)
REMARK    1  A    between atoms: C2_2  and  C3_3 
REMARK    2  A    between atoms: C3_3  and  C4_4 
REMARK    3  A    between atoms: C4_4  and  C5_5 
REMARK    4  A    between atoms: C5_5  and  C6_6 
REMARK    5  A    between atoms: N1_9  and  C9_10 
REMARK    6  A    between atoms: N3_24  and  C20_25 
REMARK    7  A    between atoms: C20_25  and  C21_26 
REMARK    8  A    between atoms: C21_26  and  O1_27 
REMARK    9  A    between atoms: C21_26  and  C22_29 
REMARK   10  A    between atoms: C22_29  and  N4_30 
REMARK   11  A    between atoms: N5_37  and  C28_39 
REMARK   12  A    between atoms: C28_39  and  C29_40 
REMARK   13  A    between atoms: C29_40  and  C30_41 
REMARK   14  A    between atoms: C30_41  and  N6_42 
REMARK   15  A    between atoms: C35_48  and  O4_49 
ROOT
HETATM    1  C1  UNL     1      18.247  23.156  16.553  1.00  0.00     0.030 C 
HETATM    2  C2  UNL     1      17.074  24.157  16.379  1.00  0.00     0.042 C 
HETATM    3  S1  UNL     1      15.642  23.048  16.018  1.00  0.00    -0.097 SA
HETATM    4  C17 UNL     1      15.503  22.048  17.468  1.00  0.00     0.103 A 
HETATM    5  C18 UNL     1      16.106  22.463  18.629  1.00  0.00     0.092 A 
HETATM    6  N2  UNL     1      15.846  21.528  19.568  1.00  0.00    -0.348 N 
ATOM      7  H2  UNL     1      16.163  21.558  20.537  1.00  0.00     0.167 HD
HETATM    8  C19 UNL     1      15.093  20.538  19.015  1.00  0.00     0.184 A 
HETATM    9  N3  UNL     1      14.909  20.898  17.731  1.00  0.00    -0.333 N 
HETATM   10  C27 UNL     1      16.878  23.702  18.747  1.00  0.00     0.065 C 
HETATM   11  N5  UNL     1      17.624  23.828  19.753  1.00  0.00    -0.389 N 
ATOM     12  H5  UNL     1      17.590  23.018  20.372  1.00  0.00     0.159 HD
HETATM   13  C35 UNL     1      16.804  24.762  17.712  1.00  0.00     0.188 C 
ENDROOT
BRANCH   2  14
HETATM   14  C3  UNL     1      17.440  25.036  15.273  1.00  0.00     0.023 C 
BRANCH  14  15
HETATM   15  C4  UNL     1      18.836  25.375  14.979  1.00  0.00     0.002 C 
BRANCH  15  16
HETATM   16  C5  UNL     1      19.069  26.816  14.678  1.00  0.00     0.005 C 
BRANCH  16  17
HETATM   17  C6  UNL     1      20.517  27.046  14.207  1.00  0.00    -0.005 C 
HETATM   18  C7  UNL     1      21.416  26.118  14.901  1.00  0.00     0.049 C 
HETATM   19  C8  UNL     1      22.417  26.699  15.825  1.00  0.00     0.064 C 
HETATM   20  N1  UNL     1      22.792  28.039  15.664  1.00  0.00    -0.369 N 
HETATM   21  C15 UNL     1      21.836  28.963  15.223  1.00  0.00     0.064 C 
HETATM   22  C16 UNL     1      20.878  28.477  14.200  1.00  0.00     0.049 C 
BRANCH  20  23
HETATM   23  C9  UNL     1      24.132  28.421  15.818  1.00  0.00     0.088 C 
HETATM   24  C10 UNL     1      24.604  29.484  14.854  1.00  0.00     0.026 C 
HETATM   25  C11 UNL     1      25.909  30.025  15.405  1.00  0.00     0.002 C 
HETATM   26  C12 UNL     1      26.923  28.884  15.286  1.00  0.00     0.000 C 
HETATM   27  C13 UNL     1      26.451  27.714  16.133  1.00  0.00     0.002 C 
HETATM   28  C14 UNL     1      25.108  27.248  15.614  1.00  0.00     0.026 C 
ENDBRANCH  20  23
ENDBRANCH  16  17
ENDBRANCH  15  16
ENDBRANCH  14  15
ENDBRANCH   2  14
BRANCH  13  29
HETATM   29  O4  UNL     1      17.745  25.722  17.956  1.00  0.00    -0.388 OA
ATOM     30  H4  UNL     1      18.036  25.641  18.857  1.00  0.00     0.210 HD
ENDBRANCH  13  29
BRANCH   9  31
HETATM   31  C20 UNL     1      14.154  20.097  16.778  1.00  0.00     0.167 C 
BRANCH  31  32
HETATM   32  C21 UNL     1      12.732  20.537  16.687  1.00  0.00     0.174 C 
BRANCH  32  33
HETATM   33  O1  UNL     1      12.003  20.265  17.836  1.00  0.00    -0.389 OA
ATOM     34  H1  UNL     1      11.739  21.048  18.305  1.00  0.00     0.210 HD
ENDBRANCH  32  33
BRANCH  32  35
HETATM   35  C22 UNL     1      12.050  20.080  15.449  1.00  0.00     0.091 C 
BRANCH  35  36
HETATM   36  N4  UNL     1      12.279  20.724  14.247  1.00  0.00    -0.387 N 
HETATM   37  C23 UNL     1      13.175  20.298  13.278  1.00  0.00     0.148 C 
HETATM   38  C24 UNL     1      14.198  21.361  12.874  1.00  0.00     0.187 C 
HETATM   39  O2  UNL     1      13.615  22.585  12.646  1.00  0.00    -0.388 OA
HETATM   40  C25 UNL     1      12.862  23.015  13.761  1.00  0.00     0.187 C 
HETATM   41  C26 UNL     1      11.738  22.013  14.026  1.00  0.00     0.148 C 
ENDBRANCH  35  36
ENDBRANCH  32  35
ENDBRANCH  31  32
ENDBRANCH   9  31
BRANCH  11  42
HETATM   42  C28 UNL     1      18.491  24.829  20.216  1.00  0.00     0.121 C 
BRANCH  42  43
HETATM   43  C29 UNL     1      19.891  24.216  20.348  1.00  0.00     0.050 C 
BRANCH  43  44
HETATM   44  C30 UNL     1      20.753  24.550  19.140  1.00  0.00     0.274 C 
BRANCH  44  45
HETATM   45  N6  UNL     1      21.672  25.583  19.538  1.00  0.00     0.092 N 
HETATM   46  C31 UNL     1      22.144  25.314  20.868  1.00  0.00     0.298 C 
HETATM   47  C32 UNL     1      23.215  26.308  21.286  1.00  0.00     0.198 C 
HETATM   48  O3  UNL     1      23.107  27.474  20.519  1.00  0.00    -0.388 OA
HETATM   49  C33 UNL     1      21.775  27.820  20.407  1.00  0.00     0.198 C 
HETATM   50  C34 UNL     1      21.135  26.900  19.364  1.00  0.00     0.298 C 
ENDBRANCH  44  45
ENDBRANCH  43  44
ENDBRANCH  42  43
ENDBRANCH  11  42
TORSDOF 15
ENDMDL
MODEL 5
REMARK VINA RESULT: -9.535675269      1.415      7.867
REMARK  15 active torsions:
REMARK  status: ('A' for Active; 'I' for Inactive)
REMARK    1  A    between atoms: C2_2  and  C3_3 
REMARK    2  A    between atoms: C3_3  and  C4_4 
REMARK    3  A    between atoms: C4_4  and  C5_5 
REMARK    4  A    between atoms: C5_5  and  C6_6 
REMARK    5  A    between atoms: N1_9  and  C9_10 
REMARK    6  A    between atoms: N3_24  and  C20_25 
REMARK    7  A    between atoms: C20_25  and  C21_26 
REMARK    8  A    between atoms: C21_26  and  O1_27 
REMARK    9  A    between atoms: C21_26  and  C22_29 
REMARK   10  A    between atoms: C22_29  and  N4_30 
REMARK   11  A    between atoms: N5_37  and  C28_39 
REMARK   12  A    between atoms: C28_39  and  C29_40 
REMARK   13  A    between atoms: C29_40  and  C30_41 
REMARK   14  A    between atoms: C30_41  and  N6_42 
REMARK   15  A    between atoms: C35_48  and  O4_49 
ROOT
HETATM    1  C1  UNL     1      18.802  24.025  15.736  1.00  0.00     0.030 C 
HETATM    2  C2  UNL     1      17.589  24.941  16.048  1.00  0.00     0.042 C 
HETATM    3  S1  UNL     1      16.151  23.900  15.540  1.00  0.00    -0.097 SA
HETATM    4  C17 UNL     1      16.254  22.487  16.596  1.00  0.00     0.103 A 
HETATM    5  C18 UNL     1      17.009  22.560  17.739  1.00  0.00     0.092 A 
HETATM    6  N2  UNL     1      16.916  21.360  18.353  1.00  0.00    -0.348 N 
ATOM      7  H2  UNL     1      17.371  21.108  19.230  1.00  0.00     0.167 HD
HETATM    8  C19 UNL     1      16.117  20.542  17.614  1.00  0.00     0.184 A 
HETATM    9  N3  UNL     1      15.736  21.273  16.550  1.00  0.00    -0.333 N 
HETATM   10  C27 UNL     1      17.755  23.752  18.148  1.00  0.00     0.065 C 
HETATM   11  N5  UNL     1      18.637  23.609  19.034  1.00  0.00    -0.389 N 
ATOM     12  H5  UNL     1      18.717  22.645  19.358  1.00  0.00     0.159 HD
HETATM   13  C35 UNL     1      17.501  25.075  17.528  1.00  0.00     0.188 C 
ENDROOT
BRANCH   2  14
HETATM   14  C3  UNL     1      17.764  26.147  15.246  1.00  0.00     0.023 C 
BRANCH  14  15
HETATM   15  C4  UNL     1      18.943  26.352  14.398  1.00  0.00     0.002 C 
BRANCH  15  16
HETATM   16  C5  UNL     1      19.614  27.670  14.586  1.00  0.00     0.005 C 
BRANCH  16  17
HETATM   17  C6  UNL     1      21.094  27.591  14.169  1.00  0.00    -0.005 C 
HETATM   18  C7  UNL     1      21.769  26.540  14.936  1.00  0.00     0.049 C 
HETATM   19  C8  UNL     1      22.832  26.957  15.878  1.00  0.00     0.064 C 
HETATM   20  N1  UNL     1      23.468  28.189  15.682  1.00  0.00    -0.369 N 
HETATM   21  C15 UNL     1      22.729  29.259  15.164  1.00  0.00     0.064 C 
HETATM   22  C16 UNL     1      21.730  28.922  14.121  1.00  0.00     0.049 C 
BRANCH  20  23
HETATM   23  C9  UNL     1      24.852  28.309  15.877  1.00  0.00     0.088 C 
HETATM   24  C10 UNL     1      25.530  29.335  15.000  1.00  0.00     0.026 C 
HETATM   25  C11 UNL     1      26.899  29.589  15.604  1.00  0.00     0.002 C 
HETATM   26  C12 UNL     1      27.692  28.294  15.411  1.00  0.00     0.000 C 
HETATM   27  C13 UNL     1      26.997  27.172  16.163  1.00  0.00     0.002 C 
HETATM   28  C14 UNL     1      25.605  26.996  15.596  1.00  0.00     0.026 C 
ENDBRANCH  20  23
ENDBRANCH  16  17
ENDBRANCH  15  16
ENDBRANCH  14  15
ENDBRANCH   2  14
BRANCH  13  29
HETATM   29  O4  UNL     1      18.440  25.975  17.943  1.00  0.00    -0.388 OA
ATOM     30  H4  UNL     1      19.295  25.684  17.645  1.00  0.00     0.210 HD
ENDBRANCH  13  29
BRANCH   9  31
HETATM   31  C20 UNL     1      14.873  20.760  15.497  1.00  0.00     0.167 C 
BRANCH  31  32
HETATM   32  C21 UNL     1      13.433  20.823  15.881  1.00  0.00     0.174 C 
BRANCH  32  33
HETATM   33  O1  UNL     1      13.110  21.966  16.597  1.00  0.00    -0.389 OA
ATOM     34  H1  UNL     1      12.696  21.779  17.432  1.00  0.00     0.210 HD
ENDBRANCH  32  33
BRANCH  32  35
HETATM   35  C22 UNL     1      12.937  19.579  16.524  1.00  0.00     0.091 C 
BRANCH  35  36
HETATM   36  N4  UNL     1      12.217  19.642  17.703  1.00  0.00    -0.387 N 
HETATM   37  C23 UNL     1      12.769  19.841  18.959  1.00  0.00     0.148 C 
HETATM   38  C24 UNL     1      12.392  18.764  19.978  1.00  0.00     0.187 C 
HETATM   39  O2  UNL     1      11.048  18.478  19.959  1.00  0.00    -0.388 OA
HETATM   40  C25 UNL     1      10.613  18.116  18.665  1.00  0.00     0.187 C 
HETATM   41  C26 UNL     1      10.847  19.287  17.710  1.00  0.00     0.148 C 
ENDBRANCH  35  36
ENDBRANCH  32  35
ENDBRANCH  31  32
ENDBRANCH   9  31
BRANCH  11  42
HETATM   42  C28 UNL     1      19.535  24.474  19.677  1.00  0.00     0.121 C 
BRANCH  42  43
HETATM   43  C29 UNL     1      20.943  24.171  19.149  1.00  0.00     0.050 C 
BRANCH  43  44
HETATM   44  C30 UNL     1      21.810  25.421  19.148  1.00  0.00     0.274 C 
BRANCH  44  45
HETATM   45  N6  UNL     1      21.602  26.091  20.405  1.00  0.00     0.092 N 
HETATM   46  C31 UNL     1      21.413  27.496  20.170  1.00  0.00     0.298 C 
HETATM   47  C32 UNL     1      21.063  28.229  21.455  1.00  0.00     0.198 C 
HETATM   48  O3  UNL     1      21.497  27.486  22.559  1.00  0.00    -0.388 OA
HETATM   49  C33 UNL     1      22.762  26.994  22.305  1.00  0.00     0.198 C 
HETATM   50  C34 UNL     1      22.621  25.792  21.367  1.00  0.00     0.298 C 
ENDBRANCH  44  45
ENDBRANCH  43  44
ENDBRANCH  42  43
ENDBRANCH  11  42
TORSDOF 15
ENDMDL
