MODEL 1
REMARK VINA RESULT: -8.684853935      0.000      0.000
REMARK  17 active torsions:
REMARK  status: ('A' for Active; 'I' for Inactive)
REMARK    1  A    between atoms: C2_3  and  C3_4 
REMARK    2  A    between atoms: C4_5  and  C5_6 
REMARK    3  A    between atoms: C5_6  and  S1_7 
REMARK    4  A    between atoms: S1_7  and  C6_8 
REMARK    5  A    between atoms: C6_8  and  C7_9 
REMARK    6  A    between atoms: C7_9  and  S2_10 
REMARK    7  A    between atoms: S2_10  and  N2_11 
REMARK    8  A    between atoms: C8_16  and  C9_17 
REMARK       I    between atoms: N3_20  and  C10_21 
REMARK    9  A    between atoms: C10_21  and  C11_23 
REMARK   10  A    between atoms: C11_23  and  N4_24 
REMARK   11  A    between atoms: C12_29  and  C13_30 
REMARK   12  A    between atoms: C13_30  and  O6_31 
REMARK   13  A    between atoms: C13_30  and  O7_33 
REMARK   14  A    between atoms: C14_35  and  O8_36 
REMARK   15  A    between atoms: C20_48  and  C21_49 
REMARK   16  A    between atoms: C21_49  and  O11_50 
REMARK   17  A    between atoms: C22_52  and  O12_53 
ROOT
HETATM    1  C3  UNL     1      -1.304 -24.336  -8.156  1.00  0.00     0.123 C 
HETATM    2  C4  UNL     1      -0.131 -23.559  -7.720  1.00  0.00    -0.022 C 
HETATM    3  C8  UNL     1      -0.538 -22.337  -7.318  1.00  0.00     0.119 C 
HETATM    4  N3  UNL     1      -1.980 -22.318  -7.383  1.00  0.00    -0.291 N 
HETATM    5  C10 UNL     1      -2.968 -21.719  -6.611  1.00  0.00     0.245 C 
HETATM    6  O5  UNL     1      -4.206 -21.881  -6.965  1.00  0.00    -0.271 OA
HETATM    7  C15 UNL     1      -2.297 -23.207  -8.510  1.00  0.00     0.215 C 
HETATM    8  C16 UNL     1      -3.589 -23.810  -8.482  1.00  0.00     0.086 C 
HETATM    9  N7  UNL     1      -4.630 -24.319  -8.480  1.00  0.00    -0.195 NA
ENDROOT
BRANCH   1  10
HETATM   10  C2  UNL     1      -1.147 -25.183  -9.342  1.00  0.00     0.095 A 
HETATM   11  N1  UNL     1      -1.453 -26.488  -9.409  1.00  0.00    -0.334 N 
HETATM   12  C1  UNL     1      -1.941 -27.333  -8.333  1.00  0.00     0.158 C 
HETATM   13  C18 UNL     1      -1.241 -26.941 -10.658  1.00  0.00     0.137 A 
HETATM   14  C17 UNL     1      -0.789 -25.920 -11.421  1.00  0.00     0.075 A 
HETATM   15  C19 UNL     1      -1.423 -28.264 -11.271  1.00  0.00     0.312 C 
HETATM   16  N8  UNL     1      -0.734 -24.831 -10.592  1.00  0.00    -0.344 N 
HETATM   17  C22 UNL     1      -0.459 -26.109 -12.851  1.00  0.00     0.202 C 
ATOM     18  H8  UNL     1      -0.429 -23.897 -10.868  1.00  0.00     0.167 HD
HETATM   19  C20 UNL     1      -1.251 -27.203 -13.475  1.00  0.00     0.190 C 
HETATM   20  O10 UNL     1      -1.104 -28.346 -12.623  1.00  0.00    -0.306 OA
HETATM   21  O9  UNL     1      -1.839 -29.251 -10.614  1.00  0.00    -0.258 OA
BRANCH  17  22
HETATM   22  O12 UNL     1      -0.504 -24.904 -13.550  1.00  0.00    -0.387 OA
ATOM     23  H12 UNL     1      -0.031 -24.960 -14.372  1.00  0.00     0.210 HD
ENDBRANCH  17  22
BRANCH  19  24
HETATM   24  C21 UNL     1      -0.702 -27.584 -14.822  1.00  0.00     0.199 C 
BRANCH  24  25
HETATM   25  O11 UNL     1       0.696 -27.380 -14.830  1.00  0.00    -0.398 OA
ATOM     26  H11 UNL     1       0.931 -26.849 -15.582  1.00  0.00     0.209 HD
ENDBRANCH  24  25
ENDBRANCH  19  24
ENDBRANCH   1  10
BRANCH   2  27
HETATM   27  C5  UNL     1       1.230 -24.100  -7.663  1.00  0.00     0.111 C 
BRANCH  27  28
HETATM   28  S1  UNL     1       2.254 -23.584  -9.068  1.00  0.00    -0.164 SA
BRANCH  28  29
HETATM   29  C6  UNL     1       3.271 -22.196  -8.485  1.00  0.00     0.090 C 
BRANCH  29  30
HETATM   30  C7  UNL     1       4.083 -21.591  -9.599  1.00  0.00     0.173 C 
BRANCH  30  31
HETATM   31  S2  UNL     1       4.429 -19.874  -9.348  1.00  0.00     0.225 S 
HETATM   32  O1  UNL     1       3.304 -19.189  -8.592  1.00  0.00    -0.206 OA
HETATM   33  O2  UNL     1       5.675 -19.778  -8.510  1.00  0.00    -0.206 OA
BRANCH  31  34
HETATM   34  N2  UNL     1       4.716 -19.076 -10.852  1.00  0.00    -0.328 N 
ATOM     35  H22 UNL     1       4.369 -19.417 -11.749  1.00  0.00     0.168 HD
ATOM     36  H21 UNL     1       5.272 -18.232 -10.716  1.00  0.00     0.168 HD
ENDBRANCH  31  34
ENDBRANCH  30  31
ENDBRANCH  29  30
ENDBRANCH  28  29
ENDBRANCH  27  28
ENDBRANCH   2  27
BRANCH   3  37
HETATM   37  C9  UNL     1       0.263 -21.245  -6.825  1.00  0.00     0.227 C 
HETATM   38  O3  UNL     1       1.039 -21.231  -5.853  1.00  0.00    -0.643 OA
HETATM   39  O4  UNL     1       0.216 -19.987  -7.474  1.00  0.00    -0.643 OA
ENDBRANCH   3  37
BRANCH   5  40
HETATM   40  C11 UNL     1      -2.793 -20.912  -5.411  1.00  0.00     0.256 C 
BRANCH  40  41
HETATM   41  N4  UNL     1      -2.825 -19.471  -5.733  1.00  0.00    -0.246 N 
HETATM   42  N5  UNL     1      -2.629 -18.854  -6.864  1.00  0.00    -0.238 N 
HETATM   43  N6  UNL     1      -2.746 -17.547  -6.757  1.00  0.00    -0.281 N 
ATOM     44  H5  UNL     1      -2.408 -19.332  -7.738  1.00  0.00     0.208 HD
HETATM   45  C12 UNL     1      -3.033 -17.300  -5.491  1.00  0.00     0.134 A 
ATOM     46  H6  UNL     1      -2.637 -16.860  -7.503  1.00  0.00     0.188 HD
HETATM   47  C14 UNL     1      -3.091 -18.514  -4.807  1.00  0.00     0.188 A 
BRANCH  45  48
HETATM   48  C13 UNL     1      -3.252 -15.961  -4.853  1.00  0.00     0.311 C 
BRANCH  48  49
HETATM   49  O6  UNL     1      -2.289 -15.754  -3.855  1.00  0.00    -0.366 OA
ATOM     50  H6  UNL     1      -2.697 -15.345  -3.101  1.00  0.00     0.213 HD
ENDBRANCH  48  49
BRANCH  48  51
HETATM   51  O7  UNL     1      -4.480 -15.956  -4.164  1.00  0.00    -0.366 OA
ATOM     52  H7  UNL     1      -4.653 -16.819  -3.808  1.00  0.00     0.213 HD
ENDBRANCH  48  51
ENDBRANCH  45  48
BRANCH  47  53
HETATM   53  O8  UNL     1      -3.364 -18.700  -3.464  1.00  0.00    -0.343 OA
ATOM     54  H8  UNL     1      -3.617 -18.038  -2.830  1.00  0.00     0.219 HD
ENDBRANCH  47  53
ENDBRANCH  40  41
ENDBRANCH   5  40
TORSDOF 17
ENDMDL
MODEL 2
REMARK VINA RESULT: -8.564359774      2.155      2.380
REMARK  17 active torsions:
REMARK  status: ('A' for Active; 'I' for Inactive)
REMARK    1  A    between atoms: C2_3  and  C3_4 
REMARK    2  A    between atoms: C4_5  and  C5_6 
REMARK    3  A    between atoms: C5_6  and  S1_7 
REMARK    4  A    between atoms: S1_7  and  C6_8 
REMARK    5  A    between atoms: C6_8  and  C7_9 
REMARK    6  A    between atoms: C7_9  and  S2_10 
REMARK    7  A    between atoms: S2_10  and  N2_11 
REMARK    8  A    between atoms: C8_16  and  C9_17 
REMARK       I    between atoms: N3_20  and  C10_21 
REMARK    9  A    between atoms: C10_21  and  C11_23 
REMARK   10  A    between atoms: C11_23  and  N4_24 
REMARK   11  A    between atoms: C12_29  and  C13_30 
REMARK   12  A    between atoms: C13_30  and  O6_31 
REMARK   13  A    between atoms: C13_30  and  O7_33 
REMARK   14  A    between atoms: C14_35  and  O8_36 
REMARK   15  A    between atoms: C20_48  and  C21_49 
REMARK   16  A    between atoms: C21_49  and  O11_50 
REMARK   17  A    between atoms: C22_52  and  O12_53 
ROOT
HETATM    1  C3  UNL     1      -2.249 -23.886  -7.774  1.00  0.00     0.123 C 
HETATM    2  C4  UNL     1      -1.345 -22.759  -8.062  1.00  0.00    -0.022 C 
HETATM    3  C8  UNL     1      -1.835 -21.644  -7.481  1.00  0.00     0.119 C 
HETATM    4  N3  UNL     1      -3.002 -22.026  -6.723  1.00  0.00    -0.291 N 
HETATM    5  C10 UNL     1      -3.548 -21.597  -5.520  1.00  0.00     0.245 C 
HETATM    6  O5  UNL     1      -4.654 -22.145  -5.118  1.00  0.00    -0.271 OA
HETATM    7  C15 UNL     1      -3.574 -23.143  -7.490  1.00  0.00     0.215 C 
HETATM    8  C16 UNL     1      -4.376 -24.060  -6.747  1.00  0.00     0.086 C 
HETATM    9  N7  UNL     1      -5.025 -24.824  -6.167  1.00  0.00    -0.195 NA
ENDROOT
BRANCH   1  10
HETATM   10  C2  UNL     1      -2.496 -24.845  -8.854  1.00  0.00     0.095 A 
HETATM   11  N1  UNL     1      -1.976 -26.080  -8.929  1.00  0.00    -0.334 N 
HETATM   12  C1  UNL     1      -1.039 -26.697  -8.007  1.00  0.00     0.158 C 
HETATM   13  C18 UNL     1      -2.454 -26.709 -10.018  1.00  0.00     0.137 A 
HETATM   14  C17 UNL     1      -3.298 -25.875 -10.668  1.00  0.00     0.075 A 
HETATM   15  C19 UNL     1      -2.227 -28.057 -10.557  1.00  0.00     0.312 C 
HETATM   16  N8  UNL     1      -3.316 -24.717  -9.935  1.00  0.00    -0.344 N 
HETATM   17  C22 UNL     1      -3.982 -26.283 -11.914  1.00  0.00     0.202 C 
ATOM     18  H8  UNL     1      -3.861 -23.886 -10.164  1.00  0.00     0.167 HD
HETATM   19  C20 UNL     1      -4.196 -27.754 -11.989  1.00  0.00     0.190 C 
HETATM   20  O10 UNL     1      -2.924 -28.360 -11.722  1.00  0.00    -0.306 OA
HETATM   21  O9  UNL     1      -1.455 -28.876 -10.000  1.00  0.00    -0.258 OA
BRANCH  17  22
HETATM   22  O12 UNL     1      -5.135 -25.530 -12.135  1.00  0.00    -0.387 OA
ATOM     23  H12 UNL     1      -5.802 -25.715 -11.485  1.00  0.00     0.210 HD
ENDBRANCH  17  22
BRANCH  19  24
HETATM   24  C21 UNL     1      -4.609 -28.183 -13.369  1.00  0.00     0.199 C 
BRANCH  24  25
HETATM   25  O11 UNL     1      -4.075 -27.283 -14.317  1.00  0.00    -0.398 OA
ATOM     26  H11 UNL     1      -4.785 -26.880 -14.802  1.00  0.00     0.209 HD
ENDBRANCH  24  25
ENDBRANCH  19  24
ENDBRANCH   1  10
BRANCH   2  27
HETATM   27  C5  UNL     1      -0.081 -22.894  -8.789  1.00  0.00     0.111 C 
BRANCH  27  28
HETATM   28  S1  UNL     1       1.279 -23.477  -7.741  1.00  0.00    -0.164 SA
BRANCH  28  29
HETATM   29  C6  UNL     1       2.369 -22.050  -7.465  1.00  0.00     0.090 C 
BRANCH  29  30
HETATM   30  C7  UNL     1       2.343 -21.093  -8.628  1.00  0.00     0.173 C 
BRANCH  30  31
HETATM   31  S2  UNL     1       3.390 -21.601  -9.962  1.00  0.00     0.225 S 
HETATM   32  O1  UNL     1       4.388 -22.652  -9.512  1.00  0.00    -0.206 OA
HETATM   33  O2  UNL     1       2.513 -22.217 -11.019  1.00  0.00    -0.206 OA
BRANCH  31  34
HETATM   34  N2  UNL     1       4.211 -20.246 -10.650  1.00  0.00    -0.328 N 
ATOM     35  H22 UNL     1       4.317 -19.349 -10.177  1.00  0.00     0.168 HD
ATOM     36  H21 UNL     1       4.567 -20.471 -11.579  1.00  0.00     0.168 HD
ENDBRANCH  31  34
ENDBRANCH  30  31
ENDBRANCH  29  30
ENDBRANCH  28  29
ENDBRANCH  27  28
ENDBRANCH   2  27
BRANCH   3  37
HETATM   37  C9  UNL     1      -1.291 -20.309  -7.509  1.00  0.00     0.227 C 
HETATM   38  O3  UNL     1      -0.343 -19.845  -6.851  1.00  0.00    -0.643 OA
HETATM   39  O4  UNL     1      -1.856 -19.336  -8.369  1.00  0.00    -0.643 OA
ENDBRANCH   3  37
BRANCH   5  40
HETATM   40  C11 UNL     1      -3.022 -20.584  -4.614  1.00  0.00     0.256 C 
BRANCH  40  41
HETATM   41  N4  UNL     1      -3.650 -19.271  -4.868  1.00  0.00    -0.246 N 
HETATM   42  N5  UNL     1      -4.906 -18.941  -4.971  1.00  0.00    -0.238 N 
HETATM   43  N6  UNL     1      -5.076 -17.655  -5.200  1.00  0.00    -0.281 N 
ATOM     44  H5  UNL     1      -5.674 -19.606  -4.883  1.00  0.00     0.208 HD
HETATM   45  C12 UNL     1      -3.869 -17.121  -5.250  1.00  0.00     0.134 A 
ATOM     46  H6  UNL     1      -5.965 -17.168  -5.317  1.00  0.00     0.188 HD
HETATM   47  C14 UNL     1      -2.931 -18.131  -5.041  1.00  0.00     0.188 A 
BRANCH  45  48
HETATM   48  C13 UNL     1      -3.520 -15.685  -5.501  1.00  0.00     0.311 C 
BRANCH  48  49
HETATM   49  O6  UNL     1      -2.889 -15.567  -6.747  1.00  0.00    -0.366 OA
ATOM     50  H6  UNL     1      -1.976 -15.335  -6.619  1.00  0.00     0.213 HD
ENDBRANCH  48  49
BRANCH  48  51
HETATM   51  O7  UNL     1      -2.551 -15.260  -4.573  1.00  0.00    -0.366 OA
ATOM     52  H7  UNL     1      -1.835 -15.885  -4.547  1.00  0.00     0.213 HD
ENDBRANCH  48  51
ENDBRANCH  45  48
BRANCH  47  53
HETATM   53  O8  UNL     1      -1.554 -17.996  -5.015  1.00  0.00    -0.343 OA
ATOM     54  H8  UNL     1      -1.055 -17.187  -4.998  1.00  0.00     0.219 HD
ENDBRANCH  47  53
ENDBRANCH  40  41
ENDBRANCH   5  40
TORSDOF 17
ENDMDL
MODEL 3
REMARK VINA RESULT: -8.352111396      1.410      1.543
REMARK  17 active torsions:
REMARK  status: ('A' for Active; 'I' for Inactive)
REMARK    1  A    between atoms: C2_3  and  C3_4 
REMARK    2  A    between atoms: C4_5  and  C5_6 
REMARK    3  A    between atoms: C5_6  and  S1_7 
REMARK    4  A    between atoms: S1_7  and  C6_8 
REMARK    5  A    between atoms: C6_8  and  C7_9 
REMARK    6  A    between atoms: C7_9  and  S2_10 
REMARK    7  A    between atoms: S2_10  and  N2_11 
REMARK    8  A    between atoms: C8_16  and  C9_17 
REMARK       I    between atoms: N3_20  and  C10_21 
REMARK    9  A    between atoms: C10_21  and  C11_23 
REMARK   10  A    between atoms: C11_23  and  N4_24 
REMARK   11  A    between atoms: C12_29  and  C13_30 
REMARK   12  A    between atoms: C13_30  and  O6_31 
REMARK   13  A    between atoms: C13_30  and  O7_33 
REMARK   14  A    between atoms: C14_35  and  O8_36 
REMARK   15  A    between atoms: C20_48  and  C21_49 
REMARK   16  A    between atoms: C21_49  and  O11_50 
REMARK   17  A    between atoms: C22_52  and  O12_53 
ROOT
HETATM    1  C3  UNL     1      -1.803 -24.047  -8.190  1.00  0.00     0.123 C 
HETATM    2  C4  UNL     1      -0.989 -22.823  -8.280  1.00  0.00    -0.022 C 
HETATM    3  C8  UNL     1      -1.656 -21.808  -7.691  1.00  0.00     0.119 C 
HETATM    4  N3  UNL     1      -2.861 -22.356  -7.117  1.00  0.00    -0.291 N 
HETATM    5  C10 UNL     1      -3.589 -22.079  -5.968  1.00  0.00     0.245 C 
HETATM    6  O5  UNL     1      -4.675 -22.756  -5.750  1.00  0.00    -0.271 OA
HETATM    7  C15 UNL     1      -3.220 -23.454  -8.027  1.00  0.00     0.215 C 
HETATM    8  C16 UNL     1      -4.010 -24.498  -7.459  1.00  0.00     0.086 C 
HETATM    9  N7  UNL     1      -4.645 -25.363  -7.023  1.00  0.00    -0.195 NA
ENDROOT
BRANCH   1  10
HETATM   10  C2  UNL     1      -1.819 -24.933  -9.357  1.00  0.00     0.095 A 
HETATM   11  N1  UNL     1      -1.718 -26.271  -9.317  1.00  0.00    -0.334 N 
HETATM   12  C1  UNL     1      -1.520 -27.103  -8.144  1.00  0.00     0.158 C 
HETATM   13  C18 UNL     1      -1.826 -26.772 -10.561  1.00  0.00     0.137 A 
HETATM   14  C17 UNL     1      -2.000 -25.749 -11.430  1.00  0.00     0.075 A 
HETATM   15  C19 UNL     1      -1.799 -28.147 -11.076  1.00  0.00     0.312 C 
HETATM   16  N8  UNL     1      -1.994 -24.609 -10.669  1.00  0.00    -0.344 N 
HETATM   17  C22 UNL     1      -2.146 -25.983 -12.883  1.00  0.00     0.202 C 
ATOM     18  H8  UNL     1      -2.103 -23.661 -11.031  1.00  0.00     0.167 HD
HETATM   19  C20 UNL     1      -2.734 -27.317 -13.185  1.00  0.00     0.190 C 
HETATM   20  O10 UNL     1      -1.961 -28.275 -12.452  1.00  0.00    -0.306 OA
HETATM   21  O9  UNL     1      -1.640 -29.138 -10.320  1.00  0.00    -0.258 OA
BRANCH  17  22
HETATM   22  O12 UNL     1      -2.796 -24.921 -13.510  1.00  0.00    -0.387 OA
ATOM     23  H12 UNL     1      -2.728 -24.980 -14.456  1.00  0.00     0.210 HD
ENDBRANCH  17  22
BRANCH  19  24
HETATM   24  C21 UNL     1      -2.599 -27.663 -14.642  1.00  0.00     0.199 C 
BRANCH  24  25
HETATM   25  O11 UNL     1      -3.560 -26.940 -15.384  1.00  0.00    -0.398 OA
ATOM     26  H11 UNL     1      -3.196 -26.714 -16.232  1.00  0.00     0.209 HD
ENDBRANCH  24  25
ENDBRANCH  19  24
ENDBRANCH   1  10
BRANCH   2  27
HETATM   27  C5  UNL     1       0.362 -22.782  -8.847  1.00  0.00     0.111 C 
BRANCH  27  28
HETATM   28  S1  UNL     1       1.644 -23.241  -7.650  1.00  0.00    -0.164 SA
BRANCH  28  29
HETATM   29  C6  UNL     1       2.501 -21.705  -7.195  1.00  0.00     0.090 C 
BRANCH  29  30
HETATM   30  C7  UNL     1       2.637 -20.771  -8.369  1.00  0.00     0.173 C 
BRANCH  30  31
HETATM   31  S2  UNL     1       4.224 -20.865  -9.146  1.00  0.00     0.225 S 
HETATM   32  O1  UNL     1       5.334 -20.481  -8.184  1.00  0.00    -0.206 OA
HETATM   33  O2  UNL     1       4.444 -22.295  -9.560  1.00  0.00    -0.206 OA
BRANCH  31  34
HETATM   34  N2  UNL     1       4.279 -19.870 -10.557  1.00  0.00    -0.328 N 
ATOM     35  H22 UNL     1       5.144 -19.599 -11.025  1.00  0.00     0.168 HD
ATOM     36  H21 UNL     1       3.340 -19.599 -10.847  1.00  0.00     0.168 HD
ENDBRANCH  31  34
ENDBRANCH  30  31
ENDBRANCH  29  30
ENDBRANCH  28  29
ENDBRANCH  27  28
ENDBRANCH   2  27
BRANCH   3  37
HETATM   37  C9  UNL     1      -1.249 -20.432  -7.555  1.00  0.00     0.227 C 
HETATM   38  O3  UNL     1      -0.395 -19.947  -6.792  1.00  0.00    -0.643 OA
HETATM   39  O4  UNL     1      -1.856 -19.435  -8.359  1.00  0.00    -0.643 OA
ENDBRANCH   3  37
BRANCH   5  40
HETATM   40  C11 UNL     1      -3.281 -21.099  -4.933  1.00  0.00     0.256 C 
BRANCH  40  41
HETATM   41  N4  UNL     1      -3.602 -19.731  -5.389  1.00  0.00    -0.246 N 
HETATM   42  N5  UNL     1      -4.182 -19.318  -6.480  1.00  0.00    -0.238 N 
HETATM   43  N6  UNL     1      -4.297 -18.007  -6.529  1.00  0.00    -0.281 N 
ATOM     44  H5  UNL     1      -4.512 -19.943  -7.216  1.00  0.00     0.208 HD
HETATM   45  C12 UNL     1      -3.764 -17.543  -5.413  1.00  0.00     0.134 A 
ATOM     46  H6  UNL     1      -4.716 -17.458  -7.281  1.00  0.00     0.188 HD
HETATM   47  C14 UNL     1      -3.309 -18.623  -4.660  1.00  0.00     0.188 A 
BRANCH  45  48
HETATM   48  C13 UNL     1      -3.636 -16.108  -4.995  1.00  0.00     0.311 C 
BRANCH  48  49
HETATM   49  O6  UNL     1      -2.284 -15.798  -4.794  1.00  0.00    -0.366 OA
ATOM     50  H6  UNL     1      -1.883 -15.572  -5.625  1.00  0.00     0.213 HD
ENDBRANCH  48  49
BRANCH  48  51
HETATM   51  O7  UNL     1      -4.232 -15.924  -3.734  1.00  0.00    -0.366 OA
ATOM     52  H7  UNL     1      -3.807 -15.207  -3.278  1.00  0.00     0.213 HD
ENDBRANCH  48  51
ENDBRANCH  45  48
BRANCH  47  53
HETATM   53  O8  UNL     1      -2.687 -18.573  -3.424  1.00  0.00    -0.343 OA
ATOM     54  H8  UNL     1      -3.104 -18.514  -2.572  1.00  0.00     0.219 HD
ENDBRANCH  47  53
ENDBRANCH  40  41
ENDBRANCH   5  40
TORSDOF 17
ENDMDL
MODEL 4
REMARK VINA RESULT: -8.186618935      1.527      1.778
REMARK  17 active torsions:
REMARK  status: ('A' for Active; 'I' for Inactive)
REMARK    1  A    between atoms: C2_3  and  C3_4 
REMARK    2  A    between atoms: C4_5  and  C5_6 
REMARK    3  A    between atoms: C5_6  and  S1_7 
REMARK    4  A    between atoms: S1_7  and  C6_8 
REMARK    5  A    between atoms: C6_8  and  C7_9 
REMARK    6  A    between atoms: C7_9  and  S2_10 
REMARK    7  A    between atoms: S2_10  and  N2_11 
REMARK    8  A    between atoms: C8_16  and  C9_17 
REMARK       I    between atoms: N3_20  and  C10_21 
REMARK    9  A    between atoms: C10_21  and  C11_23 
REMARK   10  A    between atoms: C11_23  and  N4_24 
REMARK   11  A    between atoms: C12_29  and  C13_30 
REMARK   12  A    between atoms: C13_30  and  O6_31 
REMARK   13  A    between atoms: C13_30  and  O7_33 
REMARK   14  A    between atoms: C14_35  and  O8_36 
REMARK   15  A    between atoms: C20_48  and  C21_49 
REMARK   16  A    between atoms: C21_49  and  O11_50 
REMARK   17  A    between atoms: C22_52  and  O12_53 
ROOT
HETATM    1  C3  UNL     1      -1.478 -24.472  -8.491  1.00  0.00     0.123 C 
HETATM    2  C4  UNL     1      -0.407 -23.478  -8.302  1.00  0.00    -0.022 C 
HETATM    3  C8  UNL     1      -0.906 -22.418  -7.631  1.00  0.00     0.119 C 
HETATM    4  N3  UNL     1      -2.270 -22.731  -7.279  1.00  0.00    -0.291 N 
HETATM    5  C10 UNL     1      -3.069 -22.439  -6.181  1.00  0.00     0.245 C 
HETATM    6  O5  UNL     1      -4.298 -22.858  -6.187  1.00  0.00    -0.271 OA
HETATM    7  C15 UNL     1      -2.736 -23.582  -8.383  1.00  0.00     0.215 C 
HETATM    8  C16 UNL     1      -3.808 -24.471  -8.073  1.00  0.00     0.086 C 
HETATM    9  N7  UNL     1      -4.673 -25.207  -7.847  1.00  0.00    -0.195 NA
ENDROOT
BRANCH   1  10
HETATM   10  C2  UNL     1      -1.530 -25.169  -9.779  1.00  0.00     0.095 A 
HETATM   11  N1  UNL     1      -1.565 -26.500  -9.941  1.00  0.00    -0.334 N 
HETATM   12  C1  UNL     1      -1.505 -27.514  -8.903  1.00  0.00     0.158 C 
HETATM   13  C18 UNL     1      -1.667 -26.797 -11.249  1.00  0.00     0.137 A 
HETATM   14  C17 UNL     1      -1.698 -25.644 -11.957  1.00  0.00     0.075 A 
HETATM   15  C19 UNL     1      -1.755 -28.077 -11.966  1.00  0.00     0.312 C 
HETATM   16  N8  UNL     1      -1.612 -24.637 -11.032  1.00  0.00    -0.344 N 
HETATM   17  C22 UNL     1      -1.803 -25.644 -13.432  1.00  0.00     0.202 C 
ATOM     18  H8  UNL     1      -1.610 -23.640 -11.248  1.00  0.00     0.167 HD
HETATM   19  C20 UNL     1      -2.507 -26.848 -13.951  1.00  0.00     0.190 C 
HETATM   20  O10 UNL     1      -1.867 -27.981 -13.349  1.00  0.00    -0.306 OA
HETATM   21  O9  UNL     1      -1.730 -29.179 -11.365  1.00  0.00    -0.258 OA
BRANCH  17  22
HETATM   22  O12 UNL     1      -2.314 -24.438 -13.910  1.00  0.00    -0.387 OA
ATOM     23  H12 UNL     1      -2.417 -23.803 -13.211  1.00  0.00     0.210 HD
ENDBRANCH  17  22
BRANCH  19  24
HETATM   24  C21 UNL     1      -2.342 -26.987 -15.439  1.00  0.00     0.199 C 
BRANCH  24  25
HETATM   25  O11 UNL     1      -3.168 -26.043 -16.089  1.00  0.00    -0.398 OA
ATOM     26  H11 UNL     1      -2.626 -25.371 -16.484  1.00  0.00     0.209 HD
ENDBRANCH  24  25
ENDBRANCH  19  24
ENDBRANCH   1  10
BRANCH   2  27
HETATM   27  C5  UNL     1       0.983 -23.690  -8.713  1.00  0.00     0.111 C 
BRANCH  27  28
HETATM   28  S1  UNL     1       1.375 -22.915 -10.304  1.00  0.00    -0.164 SA
BRANCH  28  29
HETATM   29  C6  UNL     1       2.913 -21.979 -10.060  1.00  0.00     0.090 C 
BRANCH  29  30
HETATM   30  C7  UNL     1       3.653 -22.431  -8.828  1.00  0.00     0.173 C 
BRANCH  30  31
HETATM   31  S2  UNL     1       4.122 -21.090  -7.773  1.00  0.00     0.225 S 
HETATM   32  O1  UNL     1       5.631 -20.971  -7.667  1.00  0.00    -0.206 OA
HETATM   33  O2  UNL     1       3.599 -19.821  -8.391  1.00  0.00    -0.206 OA
BRANCH  31  34
HETATM   34  N2  UNL     1       3.420 -21.267  -6.205  1.00  0.00    -0.328 N 
ATOM     35  H22 UNL     1       2.522 -20.864  -5.937  1.00  0.00     0.168 HD
ATOM     36  H21 UNL     1       4.023 -21.821  -5.597  1.00  0.00     0.168 HD
ENDBRANCH  31  34
ENDBRANCH  30  31
ENDBRANCH  29  30
ENDBRANCH  28  29
ENDBRANCH  27  28
ENDBRANCH   2  27
BRANCH   3  37
HETATM   37  C9  UNL     1      -0.226 -21.210  -7.238  1.00  0.00     0.227 C 
HETATM   38  O3  UNL     1      -0.228 -20.101  -7.801  1.00  0.00    -0.643 OA
HETATM   39  O4  UNL     1       0.575 -21.201  -6.069  1.00  0.00    -0.643 OA
ENDBRANCH   3  37
BRANCH   5  40
HETATM   40  C11 UNL     1      -2.696 -21.705  -4.979  1.00  0.00     0.256 C 
BRANCH  40  41
HETATM   41  N4  UNL     1      -3.368 -20.391  -4.931  1.00  0.00    -0.246 N 
HETATM   42  N5  UNL     1      -4.633 -20.092  -4.837  1.00  0.00    -0.238 N 
HETATM   43  N6  UNL     1      -4.849 -18.793  -4.820  1.00  0.00    -0.281 N 
ATOM     44  H5  UNL     1      -5.376 -20.789  -4.782  1.00  0.00     0.208 HD
HETATM   45  C12 UNL     1      -3.663 -18.217  -4.909  1.00  0.00     0.134 A 
ATOM     46  H6  UNL     1      -5.753 -18.325  -4.752  1.00  0.00     0.188 HD
HETATM   47  C14 UNL     1      -2.693 -19.214  -4.982  1.00  0.00     0.188 A 
BRANCH  45  48
HETATM   48  C13 UNL     1      -3.368 -16.747  -4.943  1.00  0.00     0.311 C 
BRANCH  48  49
HETATM   49  O6  UNL     1      -2.113 -16.508  -4.368  1.00  0.00    -0.366 OA
ATOM     50  H6  UNL     1      -1.433 -16.673  -5.011  1.00  0.00     0.213 HD
ENDBRANCH  48  49
BRANCH  48  51
HETATM   51  O7  UNL     1      -4.273 -16.059  -4.113  1.00  0.00    -0.366 OA
ATOM     52  H7  UNL     1      -3.804 -15.650  -3.395  1.00  0.00     0.213 HD
ENDBRANCH  48  51
ENDBRANCH  45  48
BRANCH  47  53
HETATM   53  O8  UNL     1      -1.324 -19.037  -5.083  1.00  0.00    -0.343 OA
ATOM     54  H8  UNL     1      -0.643 -19.595  -4.725  1.00  0.00     0.219 HD
ENDBRANCH  47  53
ENDBRANCH  40  41
ENDBRANCH   5  40
TORSDOF 17
ENDMDL
MODEL 5
REMARK VINA RESULT: -8.123755790      2.071      8.201
REMARK  17 active torsions:
REMARK  status: ('A' for Active; 'I' for Inactive)
REMARK    1  A    between atoms: C2_3  and  C3_4 
REMARK    2  A    between atoms: C4_5  and  C5_6 
REMARK    3  A    between atoms: C5_6  and  S1_7 
REMARK    4  A    between atoms: S1_7  and  C6_8 
REMARK    5  A    between atoms: C6_8  and  C7_9 
REMARK    6  A    between atoms: C7_9  and  S2_10 
REMARK    7  A    between atoms: S2_10  and  N2_11 
REMARK    8  A    between atoms: C8_16  and  C9_17 
REMARK       I    between atoms: N3_20  and  C10_21 
REMARK    9  A    between atoms: C10_21  and  C11_23 
REMARK   10  A    between atoms: C11_23  and  N4_24 
REMARK   11  A    between atoms: C12_29  and  C13_30 
REMARK   12  A    between atoms: C13_30  and  O6_31 
REMARK   13  A    between atoms: C13_30  and  O7_33 
REMARK   14  A    between atoms: C14_35  and  O8_36 
REMARK   15  A    between atoms: C20_48  and  C21_49 
REMARK   16  A    between atoms: C21_49  and  O11_50 
REMARK   17  A    between atoms: C22_52  and  O12_53 
ROOT
HETATM    1  C3  UNL     1      -2.266 -22.616  -8.667  1.00  0.00     0.123 C 
HETATM    2  C4  UNL     1      -0.930 -23.174  -8.398  1.00  0.00    -0.022 C 
HETATM    3  C8  UNL     1      -0.999 -24.521  -8.447  1.00  0.00     0.119 C 
HETATM    4  N3  UNL     1      -2.341 -24.872  -8.845  1.00  0.00    -0.291 N 
HETATM    5  C10 UNL     1      -2.875 -25.888  -9.626  1.00  0.00     0.245 C 
HETATM    6  O5  UNL     1      -4.164 -25.940  -9.771  1.00  0.00    -0.271 OA
HETATM    7  C15 UNL     1      -3.172 -23.803  -8.273  1.00  0.00     0.215 C 
HETATM    8  C16 UNL     1      -4.418 -23.568  -8.928  1.00  0.00     0.086 C 
HETATM    9  N7  UNL     1      -5.432 -23.351  -9.444  1.00  0.00    -0.195 NA
ENDROOT
BRANCH   1  10
HETATM   10  C2  UNL     1      -2.682 -21.453  -7.878  1.00  0.00     0.095 A 
HETATM   11  N1  UNL     1      -2.826 -21.431  -6.544  1.00  0.00    -0.334 N 
HETATM   12  C1  UNL     1      -2.657 -22.542  -5.623  1.00  0.00     0.158 C 
HETATM   13  C18 UNL     1      -3.163 -20.192  -6.143  1.00  0.00     0.137 A 
HETATM   14  C17 UNL     1      -3.244 -19.389  -7.229  1.00  0.00     0.075 A 
HETATM   15  C19 UNL     1      -3.424 -19.623  -4.814  1.00  0.00     0.312 C 
HETATM   16  N8  UNL     1      -2.943 -20.184  -8.304  1.00  0.00    -0.344 N 
HETATM   17  C22 UNL     1      -3.603 -17.959  -7.110  1.00  0.00     0.202 C 
ATOM     18  H8  UNL     1      -2.917 -19.874  -9.275  1.00  0.00     0.167 HD
HETATM   19  C20 UNL     1      -3.212 -17.385  -5.794  1.00  0.00     0.190 C 
HETATM   20  O10 UNL     1      -3.738 -18.268  -4.795  1.00  0.00    -0.306 OA
HETATM   21  O9  UNL     1      -3.366 -20.317  -3.769  1.00  0.00    -0.258 OA
BRANCH  17  22
HETATM   22  O12 UNL     1      -3.153 -17.225  -8.206  1.00  0.00    -0.387 OA
ATOM     23  H12 UNL     1      -3.790 -17.225  -8.911  1.00  0.00     0.210 HD
ENDBRANCH  17  22
BRANCH  19  24
HETATM   24  C21 UNL     1      -3.842 -16.038  -5.570  1.00  0.00     0.199 C 
BRANCH  24  25
HETATM   25  O11 UNL     1      -4.476 -16.024  -4.308  1.00  0.00    -0.398 OA
ATOM     26  H11 UNL     1      -4.697 -16.914  -4.058  1.00  0.00     0.209 HD
ENDBRANCH  24  25
ENDBRANCH  19  24
ENDBRANCH   1  10
BRANCH   2  27
HETATM   27  C5  UNL     1       0.271 -22.357  -8.204  1.00  0.00     0.111 C 
BRANCH  27  28
HETATM   28  S1  UNL     1       1.405 -22.420  -9.617  1.00  0.00    -0.164 SA
BRANCH  28  29
HETATM   29  C6  UNL     1       2.948 -23.162  -9.011  1.00  0.00     0.090 C 
BRANCH  29  30
HETATM   30  C7  UNL     1       4.139 -22.285  -9.292  1.00  0.00     0.173 C 
BRANCH  30  31
HETATM   31  S2  UNL     1       4.342 -20.993  -8.100  1.00  0.00     0.225 S 
HETATM   32  O1  UNL     1       3.417 -21.186  -6.913  1.00  0.00    -0.206 OA
HETATM   33  O2  UNL     1       5.759 -21.056  -7.598  1.00  0.00    -0.206 OA
BRANCH  31  34
HETATM   34  N2  UNL     1       4.082 -19.445  -8.820  1.00  0.00    -0.328 N 
ATOM     35  H22 UNL     1       3.781 -19.312  -9.786  1.00  0.00     0.168 HD
ATOM     36  H21 UNL     1       4.270 -18.697  -8.153  1.00  0.00     0.168 HD
ENDBRANCH  31  34
ENDBRANCH  30  31
ENDBRANCH  29  30
ENDBRANCH  28  29
ENDBRANCH  27  28
ENDBRANCH   2  27
BRANCH   3  37
HETATM   37  C9  UNL     1       0.058 -25.478  -8.234  1.00  0.00     0.227 C 
HETATM   38  O3  UNL     1       0.859 -25.945  -9.063  1.00  0.00    -0.643 OA
HETATM   39  O4  UNL     1       0.278 -26.008  -6.939  1.00  0.00    -0.643 OA
ENDBRANCH   3  37
BRANCH   5  40
HETATM   40  C11 UNL     1      -2.155 -26.938 -10.337  1.00  0.00     0.256 C 
BRANCH  40  41
HETATM   41  N4  UNL     1      -1.369 -26.376 -11.455  1.00  0.00    -0.246 N 
HETATM   42  N5  UNL     1      -0.095 -26.459 -11.717  1.00  0.00    -0.238 N 
HETATM   43  N6  UNL     1       0.238 -25.822 -12.820  1.00  0.00    -0.281 N 
ATOM     44  H5  UNL     1       0.571 -26.963 -11.132  1.00  0.00     0.208 HD
HETATM   45  C12 UNL     1      -0.875 -25.297 -13.300  1.00  0.00     0.134 A 
ATOM     46  H6  UNL     1       1.172 -25.748 -13.225  1.00  0.00     0.188 HD
HETATM   47  C14 UNL     1      -1.925 -25.634 -12.447  1.00  0.00     0.188 A 
BRANCH  45  48
HETATM   48  C13 UNL     1      -1.027 -24.463 -14.537  1.00  0.00     0.311 C 
BRANCH  48  49
HETATM   49  O6  UNL     1       0.185 -23.820 -14.820  1.00  0.00    -0.366 OA
ATOM     50  H6  UNL     1       0.872 -24.469 -14.924  1.00  0.00     0.213 HD
ENDBRANCH  48  49
BRANCH  48  51
HETATM   51  O7  UNL     1      -1.935 -23.414 -14.296  1.00  0.00    -0.366 OA
ATOM     52  H7  UNL     1      -2.200 -23.421 -13.384  1.00  0.00     0.213 HD
ENDBRANCH  48  51
ENDBRANCH  45  48
BRANCH  47  53
HETATM   53  O8  UNL     1      -3.256 -25.284 -12.587  1.00  0.00    -0.343 OA
ATOM     54  H8  UNL     1      -3.710 -24.565 -12.163  1.00  0.00     0.219 HD
ENDBRANCH  47  53
ENDBRANCH  40  41
ENDBRANCH   5  40
TORSDOF 17
ENDMDL
