MODEL 1
REMARK VINA RESULT: -7.971009564      0.000      0.000
REMARK  14 active torsions:
REMARK  status: ('A' for Active; 'I' for Inactive)
REMARK    1  A    between atoms: C2_2  and  O1_3 
REMARK    2  A    between atoms: O1_3  and  C3_4 
REMARK    3  A    between atoms: C3_4  and  C4_6 
REMARK    4  A    between atoms: C4_6  and  C5_7 
REMARK    5  A    between atoms: C8_12  and  O3_13 
REMARK    6  A    between atoms: N2_15  and  C9_16 
REMARK    7  A    between atoms: C10_17  and  C11_18 
REMARK    8  A    between atoms: C13_22  and  O6_23 
REMARK    9  A    between atoms: O6_23  and  S1_24 
REMARK   10  A    between atoms: C14_28  and  N3_29 
REMARK   11  A    between atoms: N3_29  and  S2_31 
REMARK   12  A    between atoms: S2_31  and  N4_32 
REMARK   13  A    between atoms: C15_44  and  C16_45 
REMARK   14  A    between atoms: C17_48  and  N8_49 
REMARK       I    between atoms: N8_49  and  C18_51 
ROOT
HETATM    1  C9  UNL     1      -1.442 -24.527  -9.869  1.00  0.00     0.065 C 
HETATM    2  C10 UNL     1      -1.800 -23.847  -8.780  1.00  0.00     0.093 C 
HETATM    3  C12 UNL     1      -0.995 -22.606  -8.546  1.00  0.00     0.085 C 
HETATM    4  C13 UNL     1      -1.524 -21.571  -7.679  1.00  0.00     0.250 C 
HETATM    5  C14 UNL     1      -1.071 -21.493  -6.255  1.00  0.00     0.309 C 
HETATM    6  O12 UNL     1       0.137 -20.722  -6.177  1.00  0.00    -0.186 OA
HETATM    7  O13 UNL     1       1.069 -21.605  -5.792  1.00  0.00    -0.093 OA
HETATM    8  N5  UNL     1       1.745 -22.565  -6.526  1.00  0.00    -0.161 N 
ATOM      9  H5  UNL     1       2.641 -22.861  -6.139  1.00  0.00     0.220 HD
HETATM   10  N6  UNL     1       1.405 -23.138  -7.625  1.00  0.00    -0.217 N 
ATOM     11  H6  UNL     1       2.104 -23.810  -7.940  1.00  0.00     0.210 HD
HETATM   12  N7  UNL     1       0.333 -23.067  -8.479  1.00  0.00    -0.259 N 
HETATM   13  C15 UNL     1       0.837 -23.724  -9.696  1.00  0.00     0.239 C 
HETATM   14  C17 UNL     1      -0.289 -23.973 -10.688  1.00  0.00     0.171 C 
ENDROOT
BRANCH   1  15
HETATM   15  N2  UNL     1      -2.025 -25.729 -10.320  1.00  0.00    -0.280 N 
HETATM   16  C5  UNL     1      -3.057 -25.799 -11.201  1.00  0.00     0.099 A 
HETATM   17  N1  UNL     1      -3.340 -27.096 -11.455  1.00  0.00    -0.345 N 
HETATM   18  C6  UNL     1      -2.494 -27.844 -10.739  1.00  0.00     0.058 A 
ATOM     19  H1  UNL     1      -4.069 -27.442 -12.080  1.00  0.00     0.167 HD
HETATM   20  C7  UNL     1      -2.474 -29.322 -10.736  1.00  0.00     0.072 C 
HETATM   21  C8  UNL     1      -1.684 -27.009 -10.040  1.00  0.00     0.171 A 
BRANCH  16  22
HETATM   22  C4  UNL     1      -3.792 -24.703 -11.870  1.00  0.00     0.188 C 
BRANCH  22  23
HETATM   23  C3  UNL     1      -4.977 -24.251 -11.147  1.00  0.00     0.265 C 
HETATM   24  O2  UNL     1      -5.850 -24.953 -10.601  1.00  0.00    -0.265 OA
BRANCH  23  25
HETATM   25  O1  UNL     1      -5.184 -22.860 -11.036  1.00  0.00    -0.322 OA
BRANCH  25  26
HETATM   26  C2  UNL     1      -6.343 -22.337 -10.459  1.00  0.00     0.174 C 
HETATM   27  C1  UNL     1      -7.241 -21.599 -11.416  1.00  0.00     0.034 C 
ENDBRANCH  25  26
ENDBRANCH  23  25
ENDBRANCH  22  23
ENDBRANCH  16  22
BRANCH  21  28
HETATM   28  O3  UNL     1      -0.663 -27.355  -9.171  1.00  0.00    -0.344 OA
ATOM     29  H3  UNL     1       0.148 -27.805  -9.380  1.00  0.00     0.219 HD
ENDBRANCH  21  28
ENDBRANCH   1  15
BRANCH   2  30
HETATM   30  C11 UNL     1      -2.859 -24.334  -7.959  1.00  0.00     0.213 C 
HETATM   31  O4  UNL     1      -2.704 -25.305  -7.151  1.00  0.00    -0.644 OA
HETATM   32  O5  UNL     1      -4.171 -23.832  -7.925  1.00  0.00    -0.644 OA
ENDBRANCH   2  30
BRANCH  14  33
HETATM   33  N8  UNL     1       0.162 -24.944 -11.641  1.00  0.00    -0.349 N 
HETATM   34  C18 UNL     1      -0.092 -24.800 -13.022  1.00  0.00     0.214 C 
HETATM   35  C19 UNL     1       0.361 -25.786 -14.032  1.00  0.00     0.117 C 
HETATM   36  O16 UNL     1      -0.731 -23.790 -13.412  1.00  0.00    -0.274 OA
ATOM     37  H8  UNL     1       0.679 -25.759 -11.313  1.00  0.00     0.163 HD
ENDBRANCH  14  33
BRANCH  13  38
HETATM   38  C16 UNL     1       1.943 -22.968 -10.292  1.00  0.00     0.201 C 
HETATM   39  O14 UNL     1       1.848 -22.393 -11.401  1.00  0.00    -0.646 OA
HETATM   40  O15 UNL     1       3.149 -22.875  -9.616  1.00  0.00    -0.646 OA
ENDBRANCH  13  38
BRANCH   4  41
HETATM   41  O6  UNL     1      -1.361 -20.263  -8.190  1.00  0.00    -0.241 OA
BRANCH  41  42
HETATM   42  S1  UNL     1      -2.647 -19.314  -8.345  1.00  0.00     0.252 S 
HETATM   43  O7  UNL     1      -2.573 -18.246  -9.417  1.00  0.00    -0.572 OA
HETATM   44  O8  UNL     1      -3.100 -18.613  -7.094  1.00  0.00    -0.572 OA
HETATM   45  O9  UNL     1      -3.970 -20.282  -8.800  1.00  0.00    -0.572 OA
ENDBRANCH  41  42
ENDBRANCH   4  41
BRANCH   5  46
HETATM   46  N3  UNL     1      -1.984 -20.666  -5.449  1.00  0.00    -0.270 N 
ATOM     47  H3  UNL     1      -1.784 -19.693  -5.217  1.00  0.00     0.176 HD
BRANCH  46  48
HETATM   48  S2  UNL     1      -3.390 -21.452  -4.936  1.00  0.00     0.315 S 
HETATM   49  O10 UNL     1      -4.083 -20.750  -3.801  1.00  0.00    -0.183 OA
HETATM   50  O11 UNL     1      -3.096 -22.870  -4.462  1.00  0.00    -0.183 OA
BRANCH  48  51
HETATM   51  N4  UNL     1      -4.521 -21.528  -6.230  1.00  0.00    -0.312 N 
ATOM     52  H42 UNL     1      -4.425 -21.019  -7.109  1.00  0.00     0.170 HD
ATOM     53  H41 UNL     1      -5.289 -22.153  -5.982  1.00  0.00     0.170 HD
ENDBRANCH  48  51
ENDBRANCH  46  48
ENDBRANCH   5  46
TORSDOF 14
ENDMDL
MODEL 2
REMARK VINA RESULT: -7.490718164      2.560      5.599
REMARK  14 active torsions:
REMARK  status: ('A' for Active; 'I' for Inactive)
REMARK    1  A    between atoms: C2_2  and  O1_3 
REMARK    2  A    between atoms: O1_3  and  C3_4 
REMARK    3  A    between atoms: C3_4  and  C4_6 
REMARK    4  A    between atoms: C4_6  and  C5_7 
REMARK    5  A    between atoms: C8_12  and  O3_13 
REMARK    6  A    between atoms: N2_15  and  C9_16 
REMARK    7  A    between atoms: C10_17  and  C11_18 
REMARK    8  A    between atoms: C13_22  and  O6_23 
REMARK    9  A    between atoms: O6_23  and  S1_24 
REMARK   10  A    between atoms: C14_28  and  N3_29 
REMARK   11  A    between atoms: N3_29  and  S2_31 
REMARK   12  A    between atoms: S2_31  and  N4_32 
REMARK   13  A    between atoms: C15_44  and  C16_45 
REMARK   14  A    between atoms: C17_48  and  N8_49 
REMARK       I    between atoms: N8_49  and  C18_51 
ROOT
HETATM    1  C9  UNL     1      -2.895 -23.755  -7.888  1.00  0.00     0.065 C 
HETATM    2  C10 UNL     1      -2.720 -22.840  -6.934  1.00  0.00     0.093 C 
HETATM    3  C12 UNL     1      -3.859 -21.877  -6.798  1.00  0.00     0.085 C 
HETATM    4  C13 UNL     1      -4.008 -21.122  -5.569  1.00  0.00     0.250 C 
HETATM    5  C14 UNL     1      -3.506 -19.714  -5.499  1.00  0.00     0.309 C 
HETATM    6  O12 UNL     1      -4.517 -18.819  -5.987  1.00  0.00    -0.186 OA
HETATM    7  O13 UNL     1      -3.994 -18.309  -7.111  1.00  0.00    -0.093 OA
HETATM    8  N5  UNL     1      -3.891 -18.861  -8.376  1.00  0.00    -0.161 N 
ATOM      9  H5  UNL     1      -3.804 -18.190  -9.139  1.00  0.00     0.220 HD
HETATM   10  N6  UNL     1      -3.888 -20.097  -8.727  1.00  0.00    -0.217 N 
ATOM     11  H6  UNL     1      -3.799 -20.209  -9.737  1.00  0.00     0.210 HD
HETATM   12  N7  UNL     1      -3.975 -21.303  -8.079  1.00  0.00    -0.259 N 
HETATM   13  C15 UNL     1      -4.288 -22.241  -9.168  1.00  0.00     0.239 C 
HETATM   14  C17 UNL     1      -4.180 -23.683  -8.694  1.00  0.00     0.171 C 
ENDROOT
BRANCH   1  15
HETATM   15  N2  UNL     1      -1.982 -24.773  -8.231  1.00  0.00    -0.280 N 
HETATM   16  C5  UNL     1      -0.839 -24.574  -8.938  1.00  0.00     0.099 A 
HETATM   17  N1  UNL     1      -0.174 -25.745  -9.050  1.00  0.00    -0.345 N 
HETATM   18  C6  UNL     1      -0.890 -26.680  -8.418  1.00  0.00     0.058 A 
ATOM     19  H1  UNL     1       0.715 -25.889  -9.530  1.00  0.00     0.167 HD
HETATM   20  C7  UNL     1      -0.504 -28.104  -8.308  1.00  0.00     0.072 C 
HETATM   21  C8  UNL     1      -2.002 -26.088  -7.913  1.00  0.00     0.171 A 
BRANCH  16  22
HETATM   22  C4  UNL     1      -0.293 -23.319  -9.501  1.00  0.00     0.188 C 
BRANCH  22  23
HETATM   23  C3  UNL     1       0.997 -22.926  -8.941  1.00  0.00     0.265 C 
HETATM   24  O2  UNL     1       1.807 -23.641  -8.320  1.00  0.00    -0.265 OA
BRANCH  23  25
HETATM   25  O1  UNL     1       1.400 -21.585  -9.107  1.00  0.00    -0.322 OA
BRANCH  25  26
HETATM   26  C2  UNL     1       2.229 -20.950  -8.181  1.00  0.00     0.174 C 
HETATM   27  C1  UNL     1       3.513 -20.411  -8.755  1.00  0.00     0.034 C 
ENDBRANCH  25  26
ENDBRANCH  23  25
ENDBRANCH  22  23
ENDBRANCH  16  22
BRANCH  21  28
HETATM   28  O3  UNL     1      -3.019 -26.684  -7.185  1.00  0.00    -0.344 OA
ATOM     29  H3  UNL     1      -3.903 -26.361  -7.054  1.00  0.00     0.219 HD
ENDBRANCH  21  28
ENDBRANCH   1  15
BRANCH   2  30
HETATM   30  C11 UNL     1      -1.522 -22.843  -6.162  1.00  0.00     0.213 C 
HETATM   31  O4  UNL     1      -1.203 -23.815  -5.403  1.00  0.00    -0.644 OA
HETATM   32  O5  UNL     1      -0.560 -21.820  -6.130  1.00  0.00    -0.644 OA
ENDBRANCH   2  30
BRANCH  14  33
HETATM   33  N8  UNL     1      -4.096 -24.528  -9.848  1.00  0.00    -0.349 N 
HETATM   34  C18 UNL     1      -4.829 -25.730  -9.942  1.00  0.00     0.214 C 
HETATM   35  C19 UNL     1      -4.765 -26.624 -11.123  1.00  0.00     0.117 C 
HETATM   36  O16 UNL     1      -5.571 -26.056  -8.981  1.00  0.00    -0.274 OA
ATOM     37  H8  UNL     1      -3.491 -24.254 -10.622  1.00  0.00     0.163 HD
ENDBRANCH  14  33
BRANCH  13  38
HETATM   38  C16 UNL     1      -5.596 -21.951  -9.764  1.00  0.00     0.201 C 
HETATM   39  O14 UNL     1      -6.585 -21.595  -9.082  1.00  0.00    -0.646 OA
HETATM   40  O15 UNL     1      -5.764 -22.071 -11.134  1.00  0.00    -0.646 OA
ENDBRANCH  13  38
BRANCH   4  41
HETATM   41  O6  UNL     1      -5.338 -21.063  -5.094  1.00  0.00    -0.241 OA
BRANCH  41  42
HETATM   42  S1  UNL     1      -5.854 -22.182  -4.065  1.00  0.00     0.252 S 
HETATM   43  O7  UNL     1      -6.921 -23.129  -4.575  1.00  0.00    -0.572 OA
HETATM   44  O8  UNL     1      -6.352 -21.673  -2.739  1.00  0.00    -0.572 OA
HETATM   45  O9  UNL     1      -4.542 -23.191  -3.674  1.00  0.00    -0.572 OA
ENDBRANCH  41  42
ENDBRANCH   4  41
BRANCH   5  46
HETATM   46  N3  UNL     1      -3.379 -19.261  -4.104  1.00  0.00    -0.270 N 
ATOM     47  H3  UNL     1      -3.817 -19.754  -3.325  1.00  0.00     0.176 HD
BRANCH  46  48
HETATM   48  S2  UNL     1      -2.454 -17.863  -3.891  1.00  0.00     0.315 S 
HETATM   49  O10 UNL     1      -1.137 -18.119  -3.213  1.00  0.00    -0.183 OA
HETATM   50  O11 UNL     1      -3.190 -16.830  -3.048  1.00  0.00    -0.183 OA
BRANCH  48  51
HETATM   51  N4  UNL     1      -2.091 -17.165  -5.422  1.00  0.00    -0.312 N 
ATOM     52  H42 UNL     1      -1.173 -16.810  -5.688  1.00  0.00     0.170 HD
ATOM     53  H41 UNL     1      -2.927 -17.163  -6.008  1.00  0.00     0.170 HD
ENDBRANCH  48  51
ENDBRANCH  46  48
ENDBRANCH   5  46
TORSDOF 14
ENDMDL
MODEL 3
REMARK VINA RESULT: -7.064483709      1.251      2.215
REMARK  14 active torsions:
REMARK  status: ('A' for Active; 'I' for Inactive)
REMARK    1  A    between atoms: C2_2  and  O1_3 
REMARK    2  A    between atoms: O1_3  and  C3_4 
REMARK    3  A    between atoms: C3_4  and  C4_6 
REMARK    4  A    between atoms: C4_6  and  C5_7 
REMARK    5  A    between atoms: C8_12  and  O3_13 
REMARK    6  A    between atoms: N2_15  and  C9_16 
REMARK    7  A    between atoms: C10_17  and  C11_18 
REMARK    8  A    between atoms: C13_22  and  O6_23 
REMARK    9  A    between atoms: O6_23  and  S1_24 
REMARK   10  A    between atoms: C14_28  and  N3_29 
REMARK   11  A    between atoms: N3_29  and  S2_31 
REMARK   12  A    between atoms: S2_31  and  N4_32 
REMARK   13  A    between atoms: C15_44  and  C16_45 
REMARK   14  A    between atoms: C17_48  and  N8_49 
REMARK       I    between atoms: N8_49  and  C18_51 
ROOT
HETATM    1  C9  UNL     1      -1.347 -24.573  -9.982  1.00  0.00     0.065 C 
HETATM    2  C10 UNL     1      -1.772 -23.923  -8.898  1.00  0.00     0.093 C 
HETATM    3  C12 UNL     1      -1.006 -22.672  -8.600  1.00  0.00     0.085 C 
HETATM    4  C13 UNL     1      -1.598 -21.665  -7.741  1.00  0.00     0.250 C 
HETATM    5  C14 UNL     1      -1.219 -21.608  -6.295  1.00  0.00     0.309 C 
HETATM    6  O12 UNL     1      -0.031 -20.815  -6.140  1.00  0.00    -0.186 OA
HETATM    7  O13 UNL     1       0.898 -21.688  -5.727  1.00  0.00    -0.093 OA
HETATM    8  N5  UNL     1       1.628 -22.620  -6.445  1.00  0.00    -0.161 N 
ATOM      9  H5  UNL     1       2.510 -22.906  -6.018  1.00  0.00     0.220 HD
HETATM   10  N6  UNL     1       1.355 -23.176  -7.571  1.00  0.00    -0.217 N 
ATOM     11  H6  UNL     1       2.083 -23.828  -7.863  1.00  0.00     0.210 HD
HETATM   12  N7  UNL     1       0.327 -23.108  -8.476  1.00  0.00    -0.259 N 
HETATM   13  C15 UNL     1       0.904 -23.730  -9.678  1.00  0.00     0.239 C 
HETATM   14  C17 UNL     1      -0.166 -23.980 -10.730  1.00  0.00     0.171 C 
ENDROOT
BRANCH   1  15
HETATM   15  N2  UNL     1      -1.883 -25.777 -10.484  1.00  0.00    -0.280 N 
HETATM   16  C5  UNL     1      -2.792 -25.851 -11.491  1.00  0.00     0.099 A 
HETATM   17  N1  UNL     1      -3.057 -27.149 -11.758  1.00  0.00    -0.345 N 
HETATM   18  C6  UNL     1      -2.321 -27.893 -10.926  1.00  0.00     0.058 A 
ATOM     19  H1  UNL     1      -3.703 -27.499 -12.466  1.00  0.00     0.167 HD
HETATM   20  C7  UNL     1      -2.320 -29.372 -10.897  1.00  0.00     0.072 C 
HETATM   21  C8  UNL     1      -1.597 -27.055 -10.142  1.00  0.00     0.171 A 
BRANCH  16  22
HETATM   22  C4  UNL     1      -3.421 -24.760 -12.267  1.00  0.00     0.188 C 
BRANCH  22  23
HETATM   23  C3  UNL     1      -2.784 -24.501 -13.556  1.00  0.00     0.265 C 
HETATM   24  O2  UNL     1      -2.470 -23.397 -14.042  1.00  0.00    -0.265 OA
BRANCH  23  25
HETATM   25  O1  UNL     1      -2.478 -25.613 -14.368  1.00  0.00    -0.322 OA
BRANCH  25  26
HETATM   26  C2  UNL     1      -2.276 -25.481 -15.743  1.00  0.00     0.174 C 
HETATM   27  C1  UNL     1      -1.576 -26.647 -16.388  1.00  0.00     0.034 C 
ENDBRANCH  25  26
ENDBRANCH  23  25
ENDBRANCH  22  23
ENDBRANCH  16  22
BRANCH  21  28
HETATM   28  O3  UNL     1      -0.701 -27.397  -9.142  1.00  0.00    -0.344 OA
ATOM     29  H3  UNL     1       0.222 -27.602  -9.237  1.00  0.00     0.219 HD
ENDBRANCH  21  28
ENDBRANCH   1  15
BRANCH   2  30
HETATM   30  C11 UNL     1      -2.861 -24.447  -8.142  1.00  0.00     0.213 C 
HETATM   31  O4  UNL     1      -2.700 -24.990  -7.001  1.00  0.00    -0.644 OA
HETATM   32  O5  UNL     1      -4.211 -24.439  -8.528  1.00  0.00    -0.644 OA
ENDBRANCH   2  30
BRANCH  14  33
HETATM   33  N8  UNL     1       0.351 -24.922 -11.678  1.00  0.00    -0.349 N 
HETATM   34  C18 UNL     1       0.560 -24.575 -13.030  1.00  0.00     0.214 C 
HETATM   35  C19 UNL     1       1.095 -25.526 -14.034  1.00  0.00     0.117 C 
HETATM   36  O16 UNL     1       0.281 -23.406 -13.398  1.00  0.00    -0.274 OA
ATOM     37  H8  UNL     1       0.574 -25.868 -11.368  1.00  0.00     0.163 HD
ENDBRANCH  14  33
BRANCH  13  38
HETATM   38  C16 UNL     1       2.023 -22.941 -10.203  1.00  0.00     0.201 C 
HETATM   39  O14 UNL     1       1.898 -22.150 -11.167  1.00  0.00    -0.646 OA
HETATM   40  O15 UNL     1       3.275 -23.062  -9.622  1.00  0.00    -0.646 OA
ENDBRANCH  13  38
BRANCH   4  41
HETATM   41  O6  UNL     1      -1.437 -20.344  -8.217  1.00  0.00    -0.241 OA
BRANCH  41  42
HETATM   42  S1  UNL     1      -2.661 -19.312  -8.102  1.00  0.00     0.252 S 
HETATM   43  O7  UNL     1      -2.639 -18.365  -6.919  1.00  0.00    -0.572 OA
HETATM   44  O8  UNL     1      -4.037 -19.921  -8.118  1.00  0.00    -0.572 OA
HETATM   45  O9  UNL     1      -2.626 -18.291  -9.463  1.00  0.00    -0.572 OA
ENDBRANCH  41  42
ENDBRANCH   4  41
BRANCH   5  46
HETATM   46  N3  UNL     1      -2.188 -20.816  -5.519  1.00  0.00    -0.270 N 
ATOM     47  H3  UNL     1      -2.094 -19.808  -5.389  1.00  0.00     0.176 HD
BRANCH  46  48
HETATM   48  S2  UNL     1      -3.467 -21.702  -4.861  1.00  0.00     0.315 S 
HETATM   49  O10 UNL     1      -4.363 -20.884  -3.973  1.00  0.00    -0.183 OA
HETATM   50  O11 UNL     1      -2.964 -22.870  -4.023  1.00  0.00    -0.183 OA
BRANCH  48  51
HETATM   51  N4  UNL     1      -4.459 -22.320  -6.125  1.00  0.00    -0.312 N 
ATOM     52  H42 UNL     1      -4.626 -23.313  -6.291  1.00  0.00     0.170 HD
ATOM     53  H41 UNL     1      -4.846 -21.549  -6.670  1.00  0.00     0.170 HD
ENDBRANCH  48  51
ENDBRANCH  46  48
ENDBRANCH   5  46
TORSDOF 14
ENDMDL
MODEL 4
REMARK VINA RESULT: -6.804443573      2.869      6.836
REMARK  14 active torsions:
REMARK  status: ('A' for Active; 'I' for Inactive)
REMARK    1  A    between atoms: C2_2  and  O1_3 
REMARK    2  A    between atoms: O1_3  and  C3_4 
REMARK    3  A    between atoms: C3_4  and  C4_6 
REMARK    4  A    between atoms: C4_6  and  C5_7 
REMARK    5  A    between atoms: C8_12  and  O3_13 
REMARK    6  A    between atoms: N2_15  and  C9_16 
REMARK    7  A    between atoms: C10_17  and  C11_18 
REMARK    8  A    between atoms: C13_22  and  O6_23 
REMARK    9  A    between atoms: O6_23  and  S1_24 
REMARK   10  A    between atoms: C14_28  and  N3_29 
REMARK   11  A    between atoms: N3_29  and  S2_31 
REMARK   12  A    between atoms: S2_31  and  N4_32 
REMARK   13  A    between atoms: C15_44  and  C16_45 
REMARK   14  A    between atoms: C17_48  and  N8_49 
REMARK       I    between atoms: N8_49  and  C18_51 
ROOT
HETATM    1  C9  UNL     1      -2.779 -22.206  -7.936  1.00  0.00     0.065 C 
HETATM    2  C10 UNL     1      -1.472 -22.438  -8.072  1.00  0.00     0.093 C 
HETATM    3  C12 UNL     1      -1.151 -23.631  -8.918  1.00  0.00     0.085 C 
HETATM    4  C13 UNL     1       0.174 -23.756  -9.494  1.00  0.00     0.250 C 
HETATM    5  C14 UNL     1       1.194 -24.622  -8.824  1.00  0.00     0.309 C 
HETATM    6  O12 UNL     1       1.042 -25.978  -9.272  1.00  0.00    -0.186 OA
HETATM    7  O13 UNL     1       0.643 -26.645  -8.180  1.00  0.00    -0.093 OA
HETATM    8  N5  UNL     1      -0.605 -26.715  -7.585  1.00  0.00    -0.161 N 
ATOM      9  H5  UNL     1      -0.768 -27.541  -7.009  1.00  0.00     0.220 HD
HETATM   10  N6  UNL     1      -1.588 -25.890  -7.655  1.00  0.00    -0.217 N 
ATOM     11  H6  UNL     1      -2.391 -26.203  -7.111  1.00  0.00     0.210 HD
HETATM   12  N7  UNL     1      -1.822 -24.692  -8.282  1.00  0.00    -0.259 N 
HETATM   13  C15 UNL     1      -3.286 -24.560  -8.203  1.00  0.00     0.239 C 
HETATM   14  C17 UNL     1      -3.731 -23.167  -8.625  1.00  0.00     0.171 C 
ENDROOT
BRANCH   1  15
HETATM   15  N2  UNL     1      -3.357 -21.157  -7.192  1.00  0.00    -0.280 N 
HETATM   16  C5  UNL     1      -3.653 -21.227  -5.869  1.00  0.00     0.099 A 
HETATM   17  N1  UNL     1      -4.149 -20.038  -5.459  1.00  0.00    -0.345 N 
HETATM   18  C6  UNL     1      -4.167 -19.220  -6.516  1.00  0.00     0.058 A 
ATOM     19  H1  UNL     1      -4.454 -19.807  -4.513  1.00  0.00     0.167 HD
HETATM   20  C7  UNL     1      -4.641 -17.819  -6.488  1.00  0.00     0.072 C 
HETATM   21  C8  UNL     1      -3.682 -19.903  -7.584  1.00  0.00     0.171 A 
BRANCH  16  22
HETATM   22  C4  UNL     1      -3.463 -22.350  -4.925  1.00  0.00     0.188 C 
BRANCH  22  23
HETATM   23  C3  UNL     1      -4.689 -23.079  -4.610  1.00  0.00     0.265 C 
HETATM   24  O2  UNL     1      -5.247 -23.960  -5.292  1.00  0.00    -0.265 OA
BRANCH  23  25
HETATM   25  O1  UNL     1      -5.340 -22.769  -3.398  1.00  0.00    -0.322 OA
BRANCH  25  26
HETATM   26  C2  UNL     1      -6.712 -22.510  -3.350  1.00  0.00     0.174 C 
HETATM   27  C1  UNL     1      -7.109 -21.143  -3.840  1.00  0.00     0.034 C 
ENDBRANCH  25  26
ENDBRANCH  23  25
ENDBRANCH  22  23
ENDBRANCH  16  22
BRANCH  21  28
HETATM   28  O3  UNL     1      -3.523 -19.441  -8.880  1.00  0.00    -0.344 OA
ATOM     29  H3  UNL     1      -3.383 -19.957  -9.666  1.00  0.00     0.219 HD
ENDBRANCH  21  28
ENDBRANCH   1  15
BRANCH   2  30
HETATM   30  C11 UNL     1      -0.532 -21.582  -7.427  1.00  0.00     0.213 C 
HETATM   31  O4  UNL     1      -0.041 -20.556  -7.999  1.00  0.00    -0.644 OA
HETATM   32  O5  UNL     1      -0.034 -21.741  -6.124  1.00  0.00    -0.644 OA
ENDBRANCH   2  30
BRANCH  14  33
HETATM   33  N8  UNL     1      -5.071 -22.966  -8.158  1.00  0.00    -0.349 N 
HETATM   34  C18 UNL     1      -6.001 -22.194  -8.886  1.00  0.00     0.214 C 
HETATM   35  C19 UNL     1      -7.394 -21.969  -8.430  1.00  0.00     0.117 C 
HETATM   36  O16 UNL     1      -5.632 -21.675  -9.969  1.00  0.00    -0.274 OA
ATOM     37  H8  UNL     1      -5.360 -23.393  -7.278  1.00  0.00     0.163 HD
ENDBRANCH  14  33
BRANCH  13  38
HETATM   38  C16 UNL     1      -3.959 -25.613  -8.970  1.00  0.00     0.201 C 
HETATM   39  O14 UNL     1      -3.791 -26.832  -8.735  1.00  0.00    -0.646 OA
HETATM   40  O15 UNL     1      -4.818 -25.263 -10.000  1.00  0.00    -0.646 OA
ENDBRANCH  13  38
BRANCH   4  41
HETATM   41  O6  UNL     1       0.171 -24.169 -10.846  1.00  0.00    -0.241 OA
BRANCH  41  42
HETATM   42  S1  UNL     1      -1.046 -25.063 -11.391  1.00  0.00     0.252 S 
HETATM   43  O7  UNL     1      -2.379 -24.363 -11.556  1.00  0.00    -0.572 OA
HETATM   44  O8  UNL     1      -1.333 -26.322 -10.619  1.00  0.00    -0.572 OA
HETATM   45  O9  UNL     1      -0.651 -25.599 -12.957  1.00  0.00    -0.572 OA
ENDBRANCH  41  42
ENDBRANCH   4  41
BRANCH   5  46
HETATM   46  N3  UNL     1       2.552 -24.318  -9.305  1.00  0.00    -0.270 N 
ATOM     47  H3  UNL     1       3.155 -25.023  -9.730  1.00  0.00     0.176 HD
BRANCH  46  48
HETATM   48  S2  UNL     1       3.035 -22.711  -9.102  1.00  0.00     0.315 S 
HETATM   49  O10 UNL     1       2.371 -21.764 -10.062  1.00  0.00    -0.183 OA
HETATM   50  O11 UNL     1       4.538 -22.552  -9.296  1.00  0.00    -0.183 OA
BRANCH  48  51
HETATM   51  N4  UNL     1       2.626 -22.174  -7.519  1.00  0.00    -0.312 N 
ATOM     52  H42 UNL     1       3.193 -22.348  -6.689  1.00  0.00     0.170 HD
ATOM     53  H41 UNL     1       1.742 -21.665  -7.544  1.00  0.00     0.170 HD
ENDBRANCH  48  51
ENDBRANCH  46  48
ENDBRANCH   5  46
TORSDOF 14
ENDMDL
MODEL 5
REMARK VINA RESULT: -6.743740139      2.860      7.667
REMARK  14 active torsions:
REMARK  status: ('A' for Active; 'I' for Inactive)
REMARK    1  A    between atoms: C2_2  and  O1_3 
REMARK    2  A    between atoms: O1_3  and  C3_4 
REMARK    3  A    between atoms: C3_4  and  C4_6 
REMARK    4  A    between atoms: C4_6  and  C5_7 
REMARK    5  A    between atoms: C8_12  and  O3_13 
REMARK    6  A    between atoms: N2_15  and  C9_16 
REMARK    7  A    between atoms: C10_17  and  C11_18 
REMARK    8  A    between atoms: C13_22  and  O6_23 
REMARK    9  A    between atoms: O6_23  and  S1_24 
REMARK   10  A    between atoms: C14_28  and  N3_29 
REMARK   11  A    between atoms: N3_29  and  S2_31 
REMARK   12  A    between atoms: S2_31  and  N4_32 
REMARK   13  A    between atoms: C15_44  and  C16_45 
REMARK   14  A    between atoms: C17_48  and  N8_49 
REMARK       I    between atoms: N8_49  and  C18_51 
ROOT
HETATM    1  C9  UNL     1      -2.652 -21.716  -7.682  1.00  0.00     0.065 C 
HETATM    2  C10 UNL     1      -2.273 -22.979  -7.878  1.00  0.00     0.093 C 
HETATM    3  C12 UNL     1      -2.933 -23.637  -9.049  1.00  0.00     0.085 C 
HETATM    4  C13 UNL     1      -2.330 -24.820  -9.631  1.00  0.00     0.250 C 
HETATM    5  C14 UNL     1      -2.844 -26.175  -9.257  1.00  0.00     0.309 C 
HETATM    6  O12 UNL     1      -3.954 -26.517 -10.102  1.00  0.00    -0.186 OA
HETATM    7  O13 UNL     1      -5.004 -26.554  -9.269  1.00  0.00    -0.093 OA
HETATM    8  N5  UNL     1      -5.751 -25.521  -8.729  1.00  0.00    -0.161 N 
ATOM      9  H5  UNL     1      -6.695 -25.772  -8.436  1.00  0.00     0.220 HD
HETATM   10  N6  UNL     1      -5.425 -24.292  -8.545  1.00  0.00    -0.217 N 
ATOM     11  H6  UNL     1      -6.182 -23.753  -8.126  1.00  0.00     0.210 HD
HETATM   12  N7  UNL     1      -4.309 -23.526  -8.773  1.00  0.00    -0.259 N 
HETATM   13  C15 UNL     1      -4.824 -22.152  -8.662  1.00  0.00     0.239 C 
HETATM   14  C17 UNL     1      -3.685 -21.143  -8.635  1.00  0.00     0.171 C 
ENDROOT
BRANCH   1  15
HETATM   15  N2  UNL     1      -2.194 -20.868  -6.653  1.00  0.00    -0.280 N 
HETATM   16  C5  UNL     1      -0.964 -20.294  -6.621  1.00  0.00     0.099 A 
HETATM   17  N1  UNL     1      -0.866 -19.506  -5.527  1.00  0.00    -0.345 N 
HETATM   18  C6  UNL     1      -2.028 -19.580  -4.869  1.00  0.00     0.058 A 
ATOM     19  H1  UNL     1      -0.053 -18.954  -5.252  1.00  0.00     0.167 HD
HETATM   20  C7  UNL     1      -2.331 -18.861  -3.612  1.00  0.00     0.072 C 
HETATM   21  C8  UNL     1      -2.847 -20.416  -5.556  1.00  0.00     0.171 A 
BRANCH  16  22
HETATM   22  C4  UNL     1       0.147 -20.405  -7.592  1.00  0.00     0.188 C 
BRANCH  22  23
HETATM   23  C3  UNL     1       1.315 -21.120  -7.084  1.00  0.00     0.265 C 
HETATM   24  O2  UNL     1       1.522 -21.505  -5.917  1.00  0.00    -0.265 OA
BRANCH  23  25
HETATM   25  O1  UNL     1       2.344 -21.423  -7.999  1.00  0.00    -0.322 OA
BRANCH  25  26
HETATM   26  C2  UNL     1       3.372 -20.518  -8.269  1.00  0.00     0.174 C 
HETATM   27  C1  UNL     1       4.679 -20.834  -7.592  1.00  0.00     0.034 C 
ENDBRANCH  25  26
ENDBRANCH  23  25
ENDBRANCH  22  23
ENDBRANCH  16  22
BRANCH  21  28
HETATM   28  O3  UNL     1      -4.144 -20.779  -5.234  1.00  0.00    -0.344 OA
ATOM     29  H3  UNL     1      -4.454 -21.634  -4.955  1.00  0.00     0.219 HD
ENDBRANCH  21  28
ENDBRANCH   1  15
BRANCH   2  30
HETATM   30  C11 UNL     1      -1.324 -23.576  -6.998  1.00  0.00     0.213 C 
HETATM   31  O4  UNL     1      -1.563 -23.762  -5.761  1.00  0.00    -0.644 OA
HETATM   32  O5  UNL     1      -0.043 -24.029  -7.353  1.00  0.00    -0.644 OA
ENDBRANCH   2  30
BRANCH  14  33
HETATM   33  N8  UNL     1      -4.199 -19.903  -8.134  1.00  0.00    -0.349 N 
HETATM   34  C18 UNL     1      -3.601 -18.667  -8.460  1.00  0.00     0.214 C 
HETATM   35  C19 UNL     1      -4.109 -17.367  -7.957  1.00  0.00     0.117 C 
HETATM   36  O16 UNL     1      -2.592 -18.669  -9.210  1.00  0.00    -0.274 OA
ATOM     37  H8  UNL     1      -5.018 -19.913  -7.526  1.00  0.00     0.163 HD
ENDBRANCH  14  33
BRANCH  13  38
HETATM   38  C16 UNL     1      -5.799 -21.860  -9.718  1.00  0.00     0.201 C 
HETATM   39  O14 UNL     1      -6.918 -21.348  -9.482  1.00  0.00    -0.646 OA
HETATM   40  O15 UNL     1      -5.486 -22.156 -11.035  1.00  0.00    -0.646 OA
ENDBRANCH  13  38
BRANCH   4  41
HETATM   41  O6  UNL     1      -2.308 -24.812 -11.045  1.00  0.00    -0.241 OA
BRANCH  41  42
HETATM   42  S1  UNL     1      -0.896 -24.781 -11.808  1.00  0.00     0.252 S 
HETATM   43  O7  UNL     1       0.252 -24.111 -11.080  1.00  0.00    -0.572 OA
HETATM   44  O8  UNL     1      -0.910 -24.189 -13.191  1.00  0.00    -0.572 OA
HETATM   45  O9  UNL     1      -0.378 -26.386 -12.031  1.00  0.00    -0.572 OA
ENDBRANCH  41  42
ENDBRANCH   4  41
BRANCH   5  46
HETATM   46  N3  UNL     1      -1.882 -27.229  -9.618  1.00  0.00    -0.270 N 
ATOM     47  H3  UNL     1      -1.994 -27.815 -10.445  1.00  0.00     0.176 HD
BRANCH  46  48
HETATM   48  S2  UNL     1      -0.578 -27.395  -8.556  1.00  0.00     0.315 S 
HETATM   49  O10 UNL     1      -0.162 -28.824  -8.343  1.00  0.00    -0.183 OA
HETATM   50  O11 UNL     1      -0.900 -26.822  -7.182  1.00  0.00    -0.183 OA
BRANCH  48  51
HETATM   51  N4  UNL     1       0.796 -26.572  -9.186  1.00  0.00    -0.312 N 
ATOM     52  H42 UNL     1       1.655 -26.403  -8.663  1.00  0.00     0.170 HD
ATOM     53  H41 UNL     1       0.616 -26.285 -10.149  1.00  0.00     0.170 HD
ENDBRANCH  48  51
ENDBRANCH  46  48
ENDBRANCH   5  46
TORSDOF 14
ENDMDL
