MODEL 1
REMARK VINA RESULT: -7.419537046      0.000      0.000
REMARK  7 active torsions:
REMARK  status: ('A' for Active; 'I' for Inactive)
REMARK    1  A    between atoms: C2_2  and  C4_4 
REMARK    2  A    between atoms: C4_4  and  S1_5 
REMARK    3  A    between atoms: S1_5  and  C5_6 
REMARK    4  A    between atoms: C5_6  and  N1_8 
REMARK    5  A    between atoms: N1_8  and  C6_10 
REMARK    6  A    between atoms: C6_10  and  C7_15 
REMARK    7  A    between atoms: N2_11  and  O1_13 
ROOT
HETATM    1  C6  UNL     1      27.845  -3.060  17.130  1.00  0.00     0.143 C 
HETATM    2  N2  UNL     1      28.222  -2.491  18.187  1.00  0.00    -0.252 N 
ATOM      3  H2  UNL     1      29.105  -2.838  18.560  1.00  0.00     0.196 HD
ENDROOT
BRANCH   1   4
HETATM    4  N1  UNL     1      28.661  -4.090  16.580  1.00  0.00    -0.326 N 
ATOM      5  H1  UNL     1      28.245  -5.002  16.392  1.00  0.00     0.169 HD
BRANCH   4   6
HETATM    6  C5  UNL     1      30.041  -3.887  16.285  1.00  0.00     0.140 C 
HETATM    7  S2  UNL     1      31.199  -4.855  16.910  1.00  0.00    -0.053 SA
BRANCH   6   8
HETATM    8  S1  UNL     1      30.591  -2.568  15.215  1.00  0.00    -0.100 SA
BRANCH   8   9
HETATM    9  C4  UNL     1      30.895  -1.063  16.176  1.00  0.00     0.085 C 
BRANCH   9  10
HETATM   10  C2  UNL     1      31.562   0.004  15.377  1.00  0.00    -0.013 C 
HETATM   11  C1  UNL     1      31.775  -0.431  13.927  1.00  0.00     0.010 C 
HETATM   12  C3  UNL     1      30.867   1.335  15.445  1.00  0.00     0.010 C 
ENDBRANCH   9  10
ENDBRANCH   8   9
ENDBRANCH   6   8
ENDBRANCH   4   6
ENDBRANCH   1   4
BRANCH   1  13
HETATM   13  C7  UNL     1      26.621  -2.746  16.438  1.00  0.00     0.093 A 
HETATM   14  C8  UNL     1      26.486  -1.788  15.451  1.00  0.00     0.175 A 
HETATM   15  F1  UNL     1      27.558  -1.022  15.089  1.00  0.00    -0.202 F 
HETATM   16  C9  UNL     1      25.293  -1.537  14.802  1.00  0.00     0.197 A 
HETATM   17  F2  UNL     1      25.176  -0.596  13.834  1.00  0.00    -0.199 F 
HETATM   18  C10 UNL     1      24.182  -2.271  15.150  1.00  0.00     0.199 A 
HETATM   19  F3  UNL     1      22.964  -2.086  14.556  1.00  0.00    -0.199 F 
HETATM   20  C11 UNL     1      24.310  -3.227  16.135  1.00  0.00     0.197 A 
HETATM   21  F4  UNL     1      23.227  -3.986  16.518  1.00  0.00    -0.199 F 
HETATM   22  C12 UNL     1      25.485  -3.493  16.792  1.00  0.00     0.175 A 
HETATM   23  F5  UNL     1      25.582  -4.450  17.769  1.00  0.00    -0.202 F 
ENDBRANCH   1  13
BRANCH   2  24
HETATM   24  O1  UNL     1      27.661  -1.505  18.910  1.00  0.00    -0.288 OA
ATOM     25  H1  UNL     1      27.049  -1.532  19.636  1.00  0.00     0.244 HD
ENDBRANCH   2  24
TORSDOF 7
ENDMDL
MODEL 2
REMARK VINA RESULT: -7.413434713      5.332      7.377
REMARK  7 active torsions:
REMARK  status: ('A' for Active; 'I' for Inactive)
REMARK    1  A    between atoms: C2_2  and  C4_4 
REMARK    2  A    between atoms: C4_4  and  S1_5 
REMARK    3  A    between atoms: S1_5  and  C5_6 
REMARK    4  A    between atoms: C5_6  and  N1_8 
REMARK    5  A    between atoms: N1_8  and  C6_10 
REMARK    6  A    between atoms: C6_10  and  C7_15 
REMARK    7  A    between atoms: N2_11  and  O1_13 
ROOT
HETATM    1  C6  UNL     1      30.826  -4.855  14.400  1.00  0.00     0.143 C 
HETATM    2  N2  UNL     1      29.943  -5.196  15.228  1.00  0.00    -0.252 N 
ATOM      3  H2  UNL     1      29.339  -4.435  15.539  1.00  0.00     0.196 HD
ENDROOT
BRANCH   1   4
HETATM    4  N1  UNL     1      30.890  -3.490  13.994  1.00  0.00    -0.326 N 
ATOM      5  H1  UNL     1      31.726  -3.158  13.512  1.00  0.00     0.169 HD
BRANCH   4   6
HETATM    6  C5  UNL     1      29.825  -2.575  14.240  1.00  0.00     0.140 C 
HETATM    7  S2  UNL     1      28.529  -2.488  13.251  1.00  0.00    -0.053 SA
BRANCH   6   8
HETATM    8  S1  UNL     1      29.841  -1.469  15.642  1.00  0.00    -0.100 SA
BRANCH   8   9
HETATM    9  C4  UNL     1      30.385   0.182  15.135  1.00  0.00     0.085 C 
BRANCH   9  10
HETATM   10  C2  UNL     1      31.845   0.397  15.351  1.00  0.00    -0.013 C 
HETATM   11  C1  UNL     1      32.307   1.735  14.771  1.00  0.00     0.010 C 
HETATM   12  C3  UNL     1      32.273   0.254  16.784  1.00  0.00     0.010 C 
ENDBRANCH   9  10
ENDBRANCH   8   9
ENDBRANCH   6   8
ENDBRANCH   4   6
ENDBRANCH   1   4
BRANCH   1  13
HETATM   13  C7  UNL     1      31.799  -5.758  13.840  1.00  0.00     0.093 A 
HETATM   14  C8  UNL     1      32.875  -6.292  14.521  1.00  0.00     0.175 A 
HETATM   15  F1  UNL     1      33.107  -5.940  15.822  1.00  0.00    -0.202 F 
HETATM   16  C9  UNL     1      33.771  -7.172  13.945  1.00  0.00     0.197 A 
HETATM   17  F2  UNL     1      34.822  -7.690  14.626  1.00  0.00    -0.199 F 
HETATM   18  C10 UNL     1      33.588  -7.538  12.631  1.00  0.00     0.199 A 
HETATM   19  F3  UNL     1      34.428  -8.403  11.986  1.00  0.00    -0.199 F 
HETATM   20  C11 UNL     1      32.517  -7.007  11.945  1.00  0.00     0.197 A 
HETATM   21  F4  UNL     1      32.293  -7.342  10.629  1.00  0.00    -0.199 F 
HETATM   22  C12 UNL     1      31.615  -6.133  12.498  1.00  0.00     0.175 A 
HETATM   23  F5  UNL     1      30.558  -5.620  11.791  1.00  0.00    -0.202 F 
ENDBRANCH   1  13
BRANCH   2  24
HETATM   24  O1  UNL     1      29.655  -6.393  15.773  1.00  0.00    -0.288 OA
ATOM     25  H1  UNL     1      28.965  -6.658  16.369  1.00  0.00     0.244 HD
ENDBRANCH   2  24
TORSDOF 7
ENDMDL
MODEL 3
REMARK VINA RESULT: -7.388995810      5.314      7.248
REMARK  7 active torsions:
REMARK  status: ('A' for Active; 'I' for Inactive)
REMARK    1  A    between atoms: C2_2  and  C4_4 
REMARK    2  A    between atoms: C4_4  and  S1_5 
REMARK    3  A    between atoms: S1_5  and  C5_6 
REMARK    4  A    between atoms: C5_6  and  N1_8 
REMARK    5  A    between atoms: N1_8  and  C6_10 
REMARK    6  A    between atoms: C6_10  and  C7_15 
REMARK    7  A    between atoms: N2_11  and  O1_13 
ROOT
HETATM    1  C6  UNL     1      30.771  -4.882  14.421  1.00  0.00     0.143 C 
HETATM    2  N2  UNL     1      29.942  -5.240  15.297  1.00  0.00    -0.252 N 
ATOM      3  H2  UNL     1      29.377  -4.481  15.678  1.00  0.00     0.196 HD
ENDROOT
BRANCH   1   4
HETATM    4  N1  UNL     1      30.832  -3.505  14.062  1.00  0.00    -0.326 N 
ATOM      5  H1  UNL     1      31.663  -3.156  13.583  1.00  0.00     0.169 HD
BRANCH   4   6
HETATM    6  C5  UNL     1      29.771  -2.598  14.351  1.00  0.00     0.140 C 
HETATM    7  S2  UNL     1      28.404  -2.570  13.457  1.00  0.00    -0.053 SA
BRANCH   6   8
HETATM    8  S1  UNL     1      29.868  -1.438  15.705  1.00  0.00    -0.100 SA
BRANCH   8   9
HETATM    9  C4  UNL     1      30.402   0.186  15.106  1.00  0.00     0.085 C 
BRANCH   9  10
HETATM   10  C2  UNL     1      31.859   0.425  15.315  1.00  0.00    -0.013 C 
HETATM   11  C1  UNL     1      32.289   1.786  14.767  1.00  0.00     0.010 C 
HETATM   12  C3  UNL     1      32.302   0.252  16.740  1.00  0.00     0.010 C 
ENDBRANCH   9  10
ENDBRANCH   8   9
ENDBRANCH   6   8
ENDBRANCH   4   6
ENDBRANCH   1   4
BRANCH   1  13
HETATM   13  C7  UNL     1      31.683  -5.780  13.760  1.00  0.00     0.093 A 
HETATM   14  C8  UNL     1      31.567  -6.215  12.454  1.00  0.00     0.175 A 
HETATM   15  F1  UNL     1      30.501  -5.824  11.693  1.00  0.00    -0.202 F 
HETATM   16  C9  UNL     1      32.481  -7.062  11.857  1.00  0.00     0.197 A 
HETATM   17  F2  UNL     1      32.356  -7.479  10.574  1.00  0.00    -0.199 F 
HETATM   18  C10 UNL     1      33.560  -7.497  12.592  1.00  0.00     0.199 A 
HETATM   19  F3  UNL     1      34.510  -8.335  12.077  1.00  0.00    -0.199 F 
HETATM   20  C11 UNL     1      33.681  -7.067  13.897  1.00  0.00     0.197 A 
HETATM   21  F4  UNL     1      34.742  -7.476  14.673  1.00  0.00    -0.199 F 
HETATM   22  C12 UNL     1      32.785  -6.226  14.508  1.00  0.00     0.175 A 
HETATM   23  F5  UNL     1      32.931  -5.816  15.808  1.00  0.00    -0.202 F 
ENDBRANCH   1  13
BRANCH   2  24
HETATM   24  O1  UNL     1      29.671  -6.451  15.817  1.00  0.00    -0.288 OA
ATOM     25  H1  UNL     1      29.966  -6.867  16.619  1.00  0.00     0.244 HD
ENDBRANCH   2  24
TORSDOF 7
ENDMDL
MODEL 4
REMARK VINA RESULT: -7.341452969      2.147      3.048
REMARK  7 active torsions:
REMARK  status: ('A' for Active; 'I' for Inactive)
REMARK    1  A    between atoms: C2_2  and  C4_4 
REMARK    2  A    between atoms: C4_4  and  S1_5 
REMARK    3  A    between atoms: S1_5  and  C5_6 
REMARK    4  A    between atoms: C5_6  and  N1_8 
REMARK    5  A    between atoms: N1_8  and  C6_10 
REMARK    6  A    between atoms: C6_10  and  C7_15 
REMARK    7  A    between atoms: N2_11  and  O1_13 
ROOT
HETATM    1  C6  UNL     1      27.959  -2.858  16.931  1.00  0.00     0.143 C 
HETATM    2  N2  UNL     1      28.474  -3.096  18.055  1.00  0.00    -0.252 N 
ATOM      3  H2  UNL     1      29.186  -2.425  18.343  1.00  0.00     0.196 HD
ENDROOT
BRANCH   1   4
HETATM    4  N1  UNL     1      28.405  -1.716  16.205  1.00  0.00    -0.326 N 
ATOM      5  H1  UNL     1      27.828  -0.875  16.206  1.00  0.00     0.169 HD
BRANCH   4   6
HETATM    6  C5  UNL     1      29.630  -1.711  15.477  1.00  0.00     0.140 C 
HETATM    7  S2  UNL     1      29.659  -1.876  13.852  1.00  0.00    -0.053 SA
BRANCH   6   8
HETATM    8  S1  UNL     1      31.208  -1.525  16.292  1.00  0.00    -0.100 SA
BRANCH   8   9
HETATM    9  C4  UNL     1      31.545   0.225  16.618  1.00  0.00     0.085 C 
BRANCH   9  10
HETATM   10  C2  UNL     1      31.265   1.093  15.438  1.00  0.00    -0.013 C 
HETATM   11  C1  UNL     1      30.462   2.333  15.832  1.00  0.00     0.010 C 
HETATM   12  C3  UNL     1      32.492   1.471  14.659  1.00  0.00     0.010 C 
ENDBRANCH   9  10
ENDBRANCH   8   9
ENDBRANCH   6   8
ENDBRANCH   4   6
ENDBRANCH   1   4
BRANCH   1  13
HETATM   13  C7  UNL     1      26.949  -3.681  16.317  1.00  0.00     0.093 A 
HETATM   14  C8  UNL     1      25.591  -3.581  16.548  1.00  0.00     0.175 A 
HETATM   15  F1  UNL     1      25.114  -2.673  17.451  1.00  0.00    -0.202 F 
HETATM   16  C9  UNL     1      24.658  -4.382  15.917  1.00  0.00     0.197 A 
HETATM   17  F2  UNL     1      23.328  -4.272  16.153  1.00  0.00    -0.199 F 
HETATM   18  C10 UNL     1      25.095  -5.325  15.015  1.00  0.00     0.199 A 
HETATM   19  F3  UNL     1      24.238  -6.156  14.349  1.00  0.00    -0.199 F 
HETATM   20  C11 UNL     1      26.450  -5.430  14.782  1.00  0.00     0.197 A 
HETATM   21  F4  UNL     1      26.936  -6.359  13.890  1.00  0.00    -0.199 F 
HETATM   22  C12 UNL     1      27.393  -4.645  15.396  1.00  0.00     0.175 A 
HETATM   23  F5  UNL     1      28.735  -4.773  15.144  1.00  0.00    -0.202 F 
ENDBRANCH   1  13
BRANCH   2  24
HETATM   24  O1  UNL     1      28.247  -4.083  18.941  1.00  0.00    -0.288 OA
ATOM     25  H1  UNL     1      27.972  -4.056  19.850  1.00  0.00     0.244 HD
ENDBRANCH   2  24
TORSDOF 7
ENDMDL
MODEL 5
REMARK VINA RESULT: -7.329643129      0.130      2.271
REMARK  7 active torsions:
REMARK  status: ('A' for Active; 'I' for Inactive)
REMARK    1  A    between atoms: C2_2  and  C4_4 
REMARK    2  A    between atoms: C4_4  and  S1_5 
REMARK    3  A    between atoms: S1_5  and  C5_6 
REMARK    4  A    between atoms: C5_6  and  N1_8 
REMARK    5  A    between atoms: N1_8  and  C6_10 
REMARK    6  A    between atoms: C6_10  and  C7_15 
REMARK    7  A    between atoms: N2_11  and  O1_13 
ROOT
HETATM    1  C6  UNL     1      27.866  -3.100  17.104  1.00  0.00     0.143 C 
HETATM    2  N2  UNL     1      28.254  -2.485  18.130  1.00  0.00    -0.252 N 
ATOM      3  H2  UNL     1      29.181  -2.757  18.460  1.00  0.00     0.196 HD
ENDROOT
BRANCH   1   4
HETATM    4  N1  UNL     1      28.728  -4.076  16.526  1.00  0.00    -0.326 N 
ATOM      5  H1  UNL     1      28.345  -4.988  16.277  1.00  0.00     0.169 HD
BRANCH   4   6
HETATM    6  C5  UNL     1      30.110  -3.820  16.285  1.00  0.00     0.140 C 
HETATM    7  S2  UNL     1      31.279  -4.745  16.952  1.00  0.00    -0.053 SA
BRANCH   6   8
HETATM    8  S1  UNL     1      30.649  -2.475  15.241  1.00  0.00    -0.100 SA
BRANCH   8   9
HETATM    9  C4  UNL     1      30.933  -0.985  16.230  1.00  0.00     0.085 C 
BRANCH   9  10
HETATM   10  C2  UNL     1      31.598   0.101  15.455  1.00  0.00    -0.013 C 
HETATM   11  C1  UNL     1      31.846  -0.315  14.005  1.00  0.00     0.010 C 
HETATM   12  C3  UNL     1      30.881   1.419  15.522  1.00  0.00     0.010 C 
ENDBRANCH   9  10
ENDBRANCH   8   9
ENDBRANCH   6   8
ENDBRANCH   4   6
ENDBRANCH   1   4
BRANCH   1  13
HETATM   13  C7  UNL     1      26.586  -2.892  16.476  1.00  0.00     0.093 A 
HETATM   14  C8  UNL     1      25.434  -3.597  16.764  1.00  0.00     0.175 A 
HETATM   15  F1  UNL     1      25.460  -4.608  17.684  1.00  0.00    -0.202 F 
HETATM   16  C9  UNL     1      24.223  -3.346  16.147  1.00  0.00     0.197 A 
HETATM   17  F2  UNL     1      23.099  -4.044  16.442  1.00  0.00    -0.199 F 
HETATM   18  C10 UNL     1      24.155  -2.351  15.199  1.00  0.00     0.199 A 
HETATM   19  F3  UNL     1      22.997  -2.040  14.543  1.00  0.00    -0.199 F 
HETATM   20  C11 UNL     1      25.303  -1.645  14.906  1.00  0.00     0.197 A 
HETATM   21  F4  UNL     1      25.285  -0.642  13.964  1.00  0.00    -0.199 F 
HETATM   22  C12 UNL     1      26.514  -1.877  15.507  1.00  0.00     0.175 A 
HETATM   23  F5  UNL     1      27.640  -1.159  15.194  1.00  0.00    -0.202 F 
ENDBRANCH   1  13
BRANCH   2  24
HETATM   24  O1  UNL     1      27.659  -1.529  18.868  1.00  0.00    -0.288 OA
ATOM     25  H1  UNL     1      27.540  -1.449  19.807  1.00  0.00     0.244 HD
ENDBRANCH   2  24
TORSDOF 7
ENDMDL
