MODEL 1
REMARK VINA RESULT: -7.147337861      0.000      0.000
REMARK  4 active torsions:
REMARK  status: ('A' for Active; 'I' for Inactive)
REMARK    1  A    between atoms: C2_7  and  C3_8 
REMARK    2  A    between atoms: N3_12  and  C6_13 
REMARK    3  A    between atoms: C6_13  and  C7_14 
REMARK    4  A    between atoms: C7_14  and  C8_16 
ROOT
HETATM    1  C3  UNL     1      27.398  -2.103  15.617  1.00  0.00     0.104 A 
HETATM    2  C4  UNL     1      27.658  -3.224  16.371  1.00  0.00     0.079 A 
HETATM    3  C5  UNL     1      29.004  -3.275  16.678  1.00  0.00     0.122 A 
HETATM    4 CL1  UNL     1      29.795  -4.525  17.624  1.00  0.00    -0.063 Cl
HETATM    5  N3  UNL     1      29.538  -2.183  16.104  1.00  0.00    -0.275 N 
HETATM    6  N4  UNL     1      28.594  -1.489  15.476  1.00  0.00    -0.293 N 
ATOM      7  H4  UNL     1      28.750  -0.621  14.963  1.00  0.00     0.187 HD
ENDROOT
BRANCH   1   8
HETATM    8  C2  UNL     1      26.131  -1.644  15.068  1.00  0.00     0.193 A 
HETATM    9  N2  UNL     1      25.436  -0.591  15.527  1.00  0.00    -0.275 N 
HETATM   10  N1  UNL     1      24.336  -0.434  14.820  1.00  0.00    -0.268 N 
ATOM     11  H2  UNL     1      25.718   0.001  16.308  1.00  0.00     0.189 HD
HETATM   12  C1  UNL     1      24.325  -1.402  13.891  1.00  0.00     0.235 A 
ATOM     13  H1  UNL     1      23.628   0.287  14.954  1.00  0.00     0.190 HD
HETATM   14  S1  UNL     1      23.158  -1.656  12.743  1.00  0.00    -0.031 SA
HETATM   15  O1  UNL     1      25.415  -2.101  14.076  1.00  0.00    -0.262 OA
ENDBRANCH   1   8
BRANCH   5  16
HETATM   16  C6  UNL     1      30.970  -1.855  16.192  1.00  0.00     0.204 C 
BRANCH  16  17
HETATM   17  C7  UNL     1      31.208  -0.422  15.931  1.00  0.00     0.065 C 
HETATM   18 CL2  UNL     1      30.987   0.713  17.244  1.00  0.00    -0.084 Cl
BRANCH  17  19
HETATM   19  C8  UNL     1      31.581  -0.016  14.728  1.00  0.00     0.122 C 
HETATM   20 CL3  UNL     1      32.297   1.561  14.521  1.00  0.00    -0.069 Cl
HETATM   21 CL4  UNL     1      31.372  -1.032  13.321  1.00  0.00    -0.069 Cl
ENDBRANCH  17  19
ENDBRANCH  16  17
ENDBRANCH   5  16
TORSDOF 4
ENDMDL
MODEL 2
REMARK VINA RESULT: -7.011542093      4.775      5.953
REMARK  4 active torsions:
REMARK  status: ('A' for Active; 'I' for Inactive)
REMARK    1  A    between atoms: C2_7  and  C3_8 
REMARK    2  A    between atoms: N3_12  and  C6_13 
REMARK    3  A    between atoms: C6_13  and  C7_14 
REMARK    4  A    between atoms: C7_14  and  C8_16 
ROOT
HETATM    1  C3  UNL     1      29.935  -2.980  14.731  1.00  0.00     0.104 A 
HETATM    2  C4  UNL     1      28.843  -3.788  14.956  1.00  0.00     0.079 A 
HETATM    3  C5  UNL     1      28.974  -4.956  14.231  1.00  0.00     0.122 A 
HETATM    4 CL1  UNL     1      27.825  -6.284  14.207  1.00  0.00    -0.063 Cl
HETATM    5  N3  UNL     1      30.143  -4.837  13.578  1.00  0.00    -0.275 N 
HETATM    6  N4  UNL     1      30.713  -3.672  13.869  1.00  0.00    -0.293 N 
ATOM      7  H4  UNL     1      31.606  -3.348  13.497  1.00  0.00     0.187 HD
ENDROOT
BRANCH   1   8
HETATM    8  C2  UNL     1      30.225  -1.662  15.277  1.00  0.00     0.193 A 
HETATM    9  N2  UNL     1      30.163  -1.344  16.579  1.00  0.00    -0.275 N 
HETATM   10  N1  UNL     1      30.483  -0.079  16.750  1.00  0.00    -0.268 N 
ATOM     11  H2  UNL     1      29.906  -1.988  17.327  1.00  0.00     0.189 HD
HETATM   12  C1  UNL     1      30.755   0.425  15.537  1.00  0.00     0.235 A 
ATOM     13  H1  UNL     1      30.517   0.424  17.637  1.00  0.00     0.190 HD
HETATM   14  S1  UNL     1      31.210   1.980  15.190  1.00  0.00    -0.031 SA
HETATM   15  O1  UNL     1      30.589  -0.555  14.686  1.00  0.00    -0.262 OA
ENDBRANCH   1   8
BRANCH   5  16
HETATM   16  C6  UNL     1      30.666  -5.880  12.682  1.00  0.00     0.204 C 
BRANCH  16  17
HETATM   17  C7  UNL     1      31.890  -6.495  13.230  1.00  0.00     0.065 C 
HETATM   18 CL2  UNL     1      32.101  -6.525  14.967  1.00  0.00    -0.084 Cl
BRANCH  17  19
HETATM   19  C8  UNL     1      32.800  -7.008  12.420  1.00  0.00     0.122 C 
HETATM   20 CL3  UNL     1      32.472  -7.147  10.711  1.00  0.00    -0.069 Cl
HETATM   21 CL4  UNL     1      34.347  -7.560  13.022  1.00  0.00    -0.069 Cl
ENDBRANCH  17  19
ENDBRANCH  16  17
ENDBRANCH   5  16
TORSDOF 4
ENDMDL
MODEL 3
REMARK VINA RESULT: -6.973522896      1.545      2.037
REMARK  4 active torsions:
REMARK  status: ('A' for Active; 'I' for Inactive)
REMARK    1  A    between atoms: C2_7  and  C3_8 
REMARK    2  A    between atoms: N3_12  and  C6_13 
REMARK    3  A    between atoms: C6_13  and  C7_14 
REMARK    4  A    between atoms: C7_14  and  C8_16 
ROOT
HETATM    1  C3  UNL     1      27.688  -2.536  16.126  1.00  0.00     0.104 A 
HETATM    2  C4  UNL     1      28.470  -3.622  16.448  1.00  0.00     0.079 A 
HETATM    3  C5  UNL     1      29.792  -3.231  16.538  1.00  0.00     0.122 A 
HETATM    4 CL1  UNL     1      31.149  -4.276  16.926  1.00  0.00    -0.063 Cl
HETATM    5  N3  UNL     1      29.789  -1.914  16.267  1.00  0.00    -0.275 N 
HETATM    6  N4  UNL     1      28.550  -1.500  16.023  1.00  0.00    -0.293 N 
ATOM      7  H4  UNL     1      28.288  -0.542  15.792  1.00  0.00     0.187 HD
ENDROOT
BRANCH   1   8
HETATM    8  C2  UNL     1      26.248  -2.474  15.928  1.00  0.00     0.193 A 
HETATM    9  N2  UNL     1      25.596  -1.442  15.370  1.00  0.00    -0.275 N 
HETATM   10  N1  UNL     1      24.304  -1.691  15.333  1.00  0.00    -0.268 N 
ATOM     11  H2  UNL     1      26.037  -0.589  15.027  1.00  0.00     0.189 HD
HETATM   12  C1  UNL     1      24.122  -2.905  15.875  1.00  0.00     0.235 A 
ATOM     13  H1  UNL     1      23.579  -1.078  14.962  1.00  0.00     0.190 HD
HETATM   14  S1  UNL     1      22.679  -3.695  16.070  1.00  0.00    -0.031 SA
HETATM   15  O1  UNL     1      25.309  -3.337  16.216  1.00  0.00    -0.262 OA
ENDBRANCH   1   8
BRANCH   5  16
HETATM   16  C6  UNL     1      31.014  -1.098  16.257  1.00  0.00     0.204 C 
BRANCH  16  17
HETATM   17  C7  UNL     1      31.139  -0.335  15.001  1.00  0.00     0.065 C 
HETATM   18 CL2  UNL     1      30.996  -1.196  13.484  1.00  0.00    -0.084 Cl
BRANCH  17  19
HETATM   19  C8  UNL     1      31.354   0.970  15.031  1.00  0.00     0.122 C 
HETATM   20 CL3  UNL     1      32.725   1.651  14.192  1.00  0.00    -0.069 Cl
HETATM   21 CL4  UNL     1      30.287   2.047  15.902  1.00  0.00    -0.069 Cl
ENDBRANCH  17  19
ENDBRANCH  16  17
ENDBRANCH   5  16
TORSDOF 4
ENDMDL
MODEL 4
REMARK VINA RESULT: -6.753059610      4.777      6.044
REMARK  4 active torsions:
REMARK  status: ('A' for Active; 'I' for Inactive)
REMARK    1  A    between atoms: C2_7  and  C3_8 
REMARK    2  A    between atoms: N3_12  and  C6_13 
REMARK    3  A    between atoms: C6_13  and  C7_14 
REMARK    4  A    between atoms: C7_14  and  C8_16 
ROOT
HETATM    1  C3  UNL     1      29.937  -3.050  14.852  1.00  0.00     0.104 A 
HETATM    2  C4  UNL     1      28.715  -3.682  14.879  1.00  0.00     0.079 A 
HETATM    3  C5  UNL     1      28.833  -4.945  14.332  1.00  0.00     0.122 A 
HETATM    4 CL1  UNL     1      27.535  -6.115  14.158  1.00  0.00    -0.063 Cl
HETATM    5  N3  UNL     1      30.126  -5.058  13.982  1.00  0.00    -0.275 N 
HETATM    6  N4  UNL     1      30.781  -3.942  14.286  1.00  0.00    -0.293 N 
ATOM      7  H4  UNL     1      31.774  -3.782  14.117  1.00  0.00     0.187 HD
ENDROOT
BRANCH   1   8
HETATM    8  C2  UNL     1      30.287  -1.717  15.317  1.00  0.00     0.193 A 
HETATM    9  N2  UNL     1      30.186  -1.299  16.588  1.00  0.00    -0.275 N 
HETATM   10  N1  UNL     1      30.580  -0.046  16.684  1.00  0.00    -0.268 N 
ATOM     11  H2  UNL     1      29.854  -1.869  17.366  1.00  0.00     0.189 HD
HETATM   12  C1  UNL     1      30.940   0.348  15.453  1.00  0.00     0.235 A 
ATOM     13  H1  UNL     1      30.606   0.518  17.534  1.00  0.00     0.190 HD
HETATM   14  S1  UNL     1      31.511   1.841  15.021  1.00  0.00    -0.031 SA
HETATM   15  O1  UNL     1      30.749  -0.681  14.668  1.00  0.00    -0.262 OA
ENDBRANCH   1   8
BRANCH   5  16
HETATM   16  C6  UNL     1      30.681  -6.268  13.354  1.00  0.00     0.204 C 
BRANCH  16  17
HETATM   17  C7  UNL     1      30.836  -6.093  11.898  1.00  0.00     0.065 C 
HETATM   18 CL2  UNL     1      29.719  -5.039  11.060  1.00  0.00    -0.084 Cl
BRANCH  17  19
HETATM   19  C8  UNL     1      31.802  -6.722  11.249  1.00  0.00     0.122 C 
HETATM   20 CL3  UNL     1      33.219  -7.271  12.108  1.00  0.00    -0.069 Cl
HETATM   21 CL4  UNL     1      31.697  -7.023   9.530  1.00  0.00    -0.069 Cl
ENDBRANCH  17  19
ENDBRANCH  16  17
ENDBRANCH   5  16
TORSDOF 4
ENDMDL
MODEL 5
REMARK VINA RESULT: -6.708623561      4.500      6.343
REMARK  4 active torsions:
REMARK  status: ('A' for Active; 'I' for Inactive)
REMARK    1  A    between atoms: C2_7  and  C3_8 
REMARK    2  A    between atoms: N3_12  and  C6_13 
REMARK    3  A    between atoms: C6_13  and  C7_14 
REMARK    4  A    between atoms: C7_14  and  C8_16 
ROOT
HETATM    1  C3  UNL     1      28.604  -2.611  14.977  1.00  0.00     0.104 A 
HETATM    2  C4  UNL     1      28.917  -3.950  14.907  1.00  0.00     0.079 A 
HETATM    3  C5  UNL     1      27.827  -4.657  14.438  1.00  0.00     0.122 A 
HETATM    4 CL1  UNL     1      27.760  -6.393  14.183  1.00  0.00    -0.063 Cl
HETATM    5  N3  UNL     1      26.871  -3.734  14.231  1.00  0.00    -0.275 N 
HETATM    6  N4  UNL     1      27.325  -2.526  14.549  1.00  0.00    -0.293 N 
ATOM      7  H4  UNL     1      26.788  -1.662  14.479  1.00  0.00     0.187 HD
ENDROOT
BRANCH   1   8
HETATM    8  C2  UNL     1      29.437  -1.500  15.413  1.00  0.00     0.193 A 
HETATM    9  N2  UNL     1      29.787  -1.261  16.686  1.00  0.00    -0.275 N 
HETATM   10  N1  UNL     1      30.543  -0.185  16.752  1.00  0.00    -0.268 N 
ATOM     11  H2  UNL     1      29.508  -1.829  17.486  1.00  0.00     0.189 HD
HETATM   12  C1  UNL     1      30.681   0.275  15.499  1.00  0.00     0.235 A 
ATOM     13  H1  UNL     1      30.946   0.222  17.595  1.00  0.00     0.190 HD
HETATM   14  S1  UNL     1      31.540   1.610  15.024  1.00  0.00    -0.031 SA
HETATM   15  O1  UNL     1      30.005  -0.541  14.731  1.00  0.00    -0.262 OA
ENDBRANCH   1   8
BRANCH   5  16
HETATM   16  C6  UNL     1      25.532  -4.073  13.724  1.00  0.00     0.204 C 
BRANCH  16  17
HETATM   17  C7  UNL     1      24.685  -4.646  14.788  1.00  0.00     0.065 C 
HETATM   18 CL2  UNL     1      24.313  -6.355  14.727  1.00  0.00    -0.084 Cl
BRANCH  17  19
HETATM   19  C8  UNL     1      24.224  -3.878  15.761  1.00  0.00     0.122 C 
HETATM   20 CL3  UNL     1      25.172  -3.631  17.205  1.00  0.00    -0.069 Cl
HETATM   21 CL4  UNL     1      22.667  -3.092  15.637  1.00  0.00    -0.069 Cl
ENDBRANCH  17  19
ENDBRANCH  16  17
ENDBRANCH   5  16
TORSDOF 4
ENDMDL
