MODEL 1
REMARK VINA RESULT: -6.673329852      0.000      0.000
REMARK  1 active torsions:
REMARK  status: ('A' for Active; 'I' for Inactive)
REMARK    1  A    between atoms: N1_1  and  C1_4 
REMARK       I    between atoms: N3_9  and  C3_10 
REMARK       I    between atoms: C3_10  and  N4_11 
REMARK       I    between atoms: C3_10  and  N5_15 
ROOT
HETATM    1  C1  UNL     1     -18.966  51.580 -59.331  1.00  0.00     0.683 A 
HETATM    2  N2  UNL     1     -18.594  52.218 -60.450  1.00  0.00    -0.141 N 
ATOM      3  H2  UNL     1     -17.606  52.392 -60.630  1.00  0.00     0.189 HD
HETATM    4  C2  UNL     1     -19.530  52.635 -61.348  1.00  0.00     0.347 A 
HETATM    5  O1  UNL     1     -19.172  53.231 -62.391  1.00  0.00    -0.246 OA
HETATM    6  N3  UNL     1     -20.836  52.419 -61.137  1.00  0.00    -0.197 N 
HETATM    7  C3  UNL     1     -21.842  52.854 -62.079  1.00  0.00     0.494 C 
HETATM    8  N4  UNL     1     -21.335  53.883 -62.969  1.00  0.00    -0.032 N 
ATOM      9  H41 UNL     1     -22.045  54.190 -63.634  1.00  0.00     0.279 HD
ATOM     10  H42 UNL     1     -20.487  53.577 -63.445  1.00  0.00     0.279 HD
ATOM     11  H43 UNL     1     -20.950  54.670 -62.446  1.00  0.00     0.279 HD
HETATM   12  N5  UNL     1     -23.031  53.350 -61.465  1.00  0.00    -0.032 N 
ATOM     13  H51 UNL     1     -23.741  53.657 -62.130  1.00  0.00     0.279 HD
ATOM     14  H52 UNL     1     -22.811  54.096 -60.805  1.00  0.00     0.279 HD
ATOM     15  H53 UNL     1     -23.417  52.659 -60.820  1.00  0.00     0.279 HD
HETATM   16  C4  UNL     1     -21.207  51.787 -60.027  1.00  0.00     0.347 A 
HETATM   17  O2  UNL     1     -22.409  51.559 -59.778  1.00  0.00    -0.246 OA
HETATM   18  N6  UNL     1     -20.278  51.365 -59.120  1.00  0.00    -0.141 N 
ATOM     19  H6  UNL     1     -20.581  50.882 -58.274  1.00  0.00     0.189 HD
ENDROOT
BRANCH   1  20
HETATM   20  N1  UNL     1     -18.098  51.183 -58.479  1.00  0.00    -0.234 N 
ATOM     21  H12 UNL     1     -17.207  51.671 -58.381  1.00  0.00     0.174 HD
ATOM     22  H11 UNL     1     -18.278  50.376 -57.883  1.00  0.00     0.174 HD
ENDBRANCH   1  20
TORSDOF 1
ENDMDL
MODEL 2
REMARK VINA RESULT: -6.447422606      2.416      2.871
REMARK  1 active torsions:
REMARK  status: ('A' for Active; 'I' for Inactive)
REMARK    1  A    between atoms: N1_1  and  C1_4 
REMARK       I    between atoms: N3_9  and  C3_10 
REMARK       I    between atoms: C3_10  and  N4_11 
REMARK       I    between atoms: C3_10  and  N5_15 
ROOT
HETATM    1  C1  UNL     1     -21.358  51.573 -59.621  1.00  0.00     0.683 A 
HETATM    2  N2  UNL     1     -21.928  52.782 -59.711  1.00  0.00    -0.141 N 
ATOM      3  H2  UNL     1     -21.847  53.440 -58.936  1.00  0.00     0.189 HD
HETATM    4  C2  UNL     1     -22.615  53.138 -60.833  1.00  0.00     0.347 A 
HETATM    5  O1  UNL     1     -23.145  54.272 -60.907  1.00  0.00    -0.246 OA
HETATM    6  N3  UNL     1     -22.736  52.294 -61.867  1.00  0.00    -0.197 N 
HETATM    7  C3  UNL     1     -23.461  52.655 -63.064  1.00  0.00     0.494 C 
HETATM    8  N4  UNL     1     -24.362  53.769 -62.831  1.00  0.00    -0.032 N 
ATOM      9  H41 UNL     1     -24.874  54.023 -63.676  1.00  0.00     0.279 HD
ATOM     10  H42 UNL     1     -23.868  54.570 -62.439  1.00  0.00     0.279 HD
ATOM     11  H43 UNL     1     -24.997  53.577 -62.056  1.00  0.00     0.279 HD
HETATM   12  N5  UNL     1     -24.219  51.584 -63.625  1.00  0.00    -0.032 N 
ATOM     13  H51 UNL     1     -24.730  51.839 -64.470  1.00  0.00     0.279 HD
ATOM     14  H52 UNL     1     -24.851  51.189 -62.929  1.00  0.00     0.279 HD
ATOM     15  H53 UNL     1     -23.623  50.773 -63.796  1.00  0.00     0.279 HD
HETATM   16  C4  UNL     1     -22.171  51.093 -61.780  1.00  0.00     0.347 A 
HETATM   17  O2  UNL     1     -22.252  50.265 -62.712  1.00  0.00    -0.246 OA
HETATM   18  N6  UNL     1     -21.481  50.725 -60.661  1.00  0.00    -0.141 N 
ATOM     19  H6  UNL     1     -21.055  49.800 -60.612  1.00  0.00     0.189 HD
ENDROOT
BRANCH   1  20
HETATM   20  N1  UNL     1     -20.710  51.225 -58.574  1.00  0.00    -0.234 N 
ATOM     21  H12 UNL     1     -21.154  51.257 -57.656  1.00  0.00     0.174 HD
ATOM     22  H11 UNL     1     -19.742  50.911 -58.635  1.00  0.00     0.174 HD
ENDBRANCH   1  20
TORSDOF 1
ENDMDL
MODEL 3
REMARK VINA RESULT: -6.394847225      2.161      3.813
REMARK  1 active torsions:
REMARK  status: ('A' for Active; 'I' for Inactive)
REMARK    1  A    between atoms: N1_1  and  C1_4 
REMARK       I    between atoms: N3_9  and  C3_10 
REMARK       I    between atoms: C3_10  and  N4_11 
REMARK       I    between atoms: C3_10  and  N5_15 
ROOT
HETATM    1  C1  UNL     1     -22.039  53.751 -59.969  1.00  0.00     0.683 A 
HETATM    2  N2  UNL     1     -20.924  53.590 -59.243  1.00  0.00    -0.141 N 
ATOM      3  H2  UNL     1     -20.504  54.392 -58.774  1.00  0.00     0.189 HD
HETATM    4  C2  UNL     1     -20.347  52.360 -59.129  1.00  0.00     0.347 A 
HETATM    5  O1  UNL     1     -19.304  52.221 -58.448  1.00  0.00    -0.246 OA
HETATM    6  N3  UNL     1     -20.877  51.288 -59.736  1.00  0.00    -0.197 N 
HETATM    7  C3  UNL     1     -20.279  49.977 -59.625  1.00  0.00     0.494 C 
HETATM    8  N4  UNL     1     -18.892  50.054 -59.205  1.00  0.00    -0.032 N 
ATOM      9  H41 UNL     1     -18.470  49.128 -59.127  1.00  0.00     0.279 HD
ATOM     10  H42 UNL     1     -18.795  50.581 -58.337  1.00  0.00     0.279 HD
ATOM     11  H43 UNL     1     -18.350  50.659 -59.821  1.00  0.00     0.279 HD
HETATM   12  N5  UNL     1     -20.334  49.216 -60.831  1.00  0.00    -0.032 N 
ATOM     13  H51 UNL     1     -19.911  48.290 -60.753  1.00  0.00     0.279 HD
ATOM     14  H52 UNL     1     -19.917  49.736 -61.603  1.00  0.00     0.279 HD
ATOM     15  H53 UNL     1     -21.294  49.146 -61.169  1.00  0.00     0.279 HD
HETATM   16  C4  UNL     1     -21.983  51.446 -60.457  1.00  0.00     0.347 A 
HETATM   17  O2  UNL     1     -22.522  50.484 -61.044  1.00  0.00    -0.246 OA
HETATM   18  N6  UNL     1     -22.570  52.673 -60.578  1.00  0.00    -0.141 N 
ATOM     19  H6  UNL     1     -23.418  52.775 -61.136  1.00  0.00     0.189 HD
ENDROOT
BRANCH   1  20
HETATM   20  N1  UNL     1     -22.590  54.899 -60.085  1.00  0.00    -0.234 N 
ATOM     21  H12 UNL     1     -22.741  55.487 -59.264  1.00  0.00     0.174 HD
ATOM     22  H11 UNL     1     -22.889  55.250 -60.995  1.00  0.00     0.174 HD
ENDBRANCH   1  20
TORSDOF 1
ENDMDL
MODEL 4
REMARK VINA RESULT: -6.280810874      1.682      3.069
REMARK  1 active torsions:
REMARK  status: ('A' for Active; 'I' for Inactive)
REMARK    1  A    between atoms: N1_1  and  C1_4 
REMARK       I    between atoms: N3_9  and  C3_10 
REMARK       I    between atoms: C3_10  and  N4_11 
REMARK       I    between atoms: C3_10  and  N5_15 
ROOT
HETATM    1  C1  UNL     1     -20.293  51.643 -60.557  1.00  0.00     0.683 A 
HETATM    2  N2  UNL     1     -21.494  51.049 -60.529  1.00  0.00    -0.141 N 
ATOM      3  H2  UNL     1     -21.658  50.267 -59.895  1.00  0.00     0.189 HD
HETATM    4  C2  UNL     1     -22.497  51.484 -61.342  1.00  0.00     0.347 A 
HETATM    5  O1  UNL     1     -23.616  50.920 -61.309  1.00  0.00    -0.246 OA
HETATM    6  N3  UNL     1     -22.309  52.510 -62.185  1.00  0.00    -0.197 N 
HETATM    7  C3  UNL     1     -23.361  52.984 -63.054  1.00  0.00     0.494 C 
HETATM    8  N4  UNL     1     -24.405  51.990 -63.225  1.00  0.00    -0.032 N 
ATOM      9  H41 UNL     1     -25.148  52.325 -63.839  1.00  0.00     0.279 HD
ATOM     10  H42 UNL     1     -24.776  51.682 -62.326  1.00  0.00     0.279 HD
ATOM     11  H43 UNL     1     -24.024  51.103 -63.553  1.00  0.00     0.279 HD
HETATM   12  N5  UNL     1     -22.907  53.373 -64.350  1.00  0.00    -0.032 N 
ATOM     13  H51 UNL     1     -23.650  53.708 -64.964  1.00  0.00     0.279 HD
ATOM     14  H52 UNL     1     -22.391  52.613 -64.793  1.00  0.00     0.279 HD
ATOM     15  H53 UNL     1     -22.162  54.066 -64.276  1.00  0.00     0.279 HD
HETATM   16  C4  UNL     1     -21.118  53.100 -62.214  1.00  0.00     0.347 A 
HETATM   17  O2  UNL     1     -20.885  54.060 -62.978  1.00  0.00    -0.246 OA
HETATM   18  N6  UNL     1     -20.105  52.673 -61.404  1.00  0.00    -0.141 N 
ATOM     19  H6  UNL     1     -19.198  53.138 -61.440  1.00  0.00     0.189 HD
ENDROOT
BRANCH   1  20
HETATM   20  N1  UNL     1     -19.342  51.245 -59.798  1.00  0.00    -0.234 N 
ATOM     21  H12 UNL     1     -18.778  50.435 -60.057  1.00  0.00     0.174 HD
ATOM     22  H11 UNL     1     -19.129  51.727 -58.925  1.00  0.00     0.174 HD
ENDBRANCH   1  20
TORSDOF 1
ENDMDL
MODEL 5
REMARK VINA RESULT: -6.234493031      2.110      4.006
REMARK  1 active torsions:
REMARK  status: ('A' for Active; 'I' for Inactive)
REMARK    1  A    between atoms: N1_1  and  C1_4 
REMARK       I    between atoms: N3_9  and  C3_10 
REMARK       I    between atoms: C3_10  and  N4_11 
REMARK       I    between atoms: C3_10  and  N5_15 
ROOT
HETATM    1  C1  UNL     1     -22.166  53.645 -59.804  1.00  0.00     0.683 A 
HETATM    2  N2  UNL     1     -22.583  52.624 -60.565  1.00  0.00    -0.141 N 
ATOM      3  H2  UNL     1     -23.463  52.699 -61.075  1.00  0.00     0.189 HD
HETATM    4  C2  UNL     1     -21.838  51.487 -60.661  1.00  0.00     0.347 A 
HETATM    5  O1  UNL     1     -22.238  50.537 -61.376  1.00  0.00    -0.246 OA
HETATM    6  N3  UNL     1     -20.678  51.362 -60.001  1.00  0.00    -0.197 N 
HETATM    7  C3  UNL     1     -19.875  50.164 -60.091  1.00  0.00     0.494 C 
HETATM    8  N4  UNL     1     -20.651  49.033 -60.565  1.00  0.00    -0.032 N 
ATOM      9  H41 UNL     1     -20.085  48.187 -60.629  1.00  0.00     0.279 HD
ATOM     10  H42 UNL     1     -21.109  49.242 -61.453  1.00  0.00     0.279 HD
ATOM     11  H43 UNL     1     -21.480  48.882 -59.989  1.00  0.00     0.279 HD
HETATM   12  N5  UNL     1     -19.257  49.790 -58.861  1.00  0.00    -0.032 N 
ATOM     13  H51 UNL     1     -18.690  48.944 -58.925  1.00  0.00     0.279 HD
ATOM     14  H52 UNL     1     -19.954  49.700 -58.122  1.00  0.00     0.279 HD
ATOM     15  H53 UNL     1     -18.707  50.563 -58.486  1.00  0.00     0.279 HD
HETATM   16  C4  UNL     1     -20.262  52.374 -59.245  1.00  0.00     0.347 A 
HETATM   17  O2  UNL     1     -19.190  52.315 -58.608  1.00  0.00    -0.246 OA
HETATM   18  N6  UNL     1     -21.000  53.518 -59.141  1.00  0.00    -0.141 N 
ATOM     19  H6  UNL     1     -20.666  54.284 -58.556  1.00  0.00     0.189 HD
ENDROOT
BRANCH   1  20
HETATM   20  N1  UNL     1     -22.855  54.719 -59.705  1.00  0.00    -0.234 N 
ATOM     21  H12 UNL     1     -22.486  55.605 -60.050  1.00  0.00     0.174 HD
ATOM     22  H11 UNL     1     -23.783  54.710 -59.282  1.00  0.00     0.174 HD
ENDBRANCH   1  20
TORSDOF 1
ENDMDL
