MODEL 1
REMARK VINA RESULT: -6.587987543      0.000      0.000
REMARK  11 active torsions:
REMARK  status: ('A' for Active; 'I' for Inactive)
REMARK    1  A    between atoms: N1_2  and  C3_4 
REMARK    2  A    between atoms: C3_4  and  C4_5 
REMARK    3  A    between atoms: C6_8  and  N2_9 
REMARK       I    between atoms: N2_9  and  C7_11 
REMARK       I    between atoms: C7_11  and  N4_15 
REMARK    4  A    between atoms: N4_15  and  N5_17 
REMARK    5  A    between atoms: N6_20  and  N7_21 
REMARK       I    between atoms: N7_21  and  C8_23 
REMARK    6  A    between atoms: C8_23  and  C9_25 
REMARK    7  A    between atoms: C9_25  and  C10_26 
REMARK    8  A    between atoms: C10_26  and  C11_28 
REMARK    9  A    between atoms: C11_28  and  N8_29 
REMARK   10  A    between atoms: C11_28  and  C12_33 
REMARK   11  A    between atoms: C12_33  and  O3_36 
ROOT
HETATM    1  C4  UNL     1      -9.431  17.406 -12.921  1.00  0.00     0.071 A 
HETATM    2  C5  UNL     1      -9.494  18.192 -11.814  1.00  0.00     0.082 A 
HETATM    3  S1  UNL     1      -8.571  19.543 -12.225  1.00  0.00    -0.061 SA
HETATM    4  C6  UNL     1      -8.136  19.049 -13.810  1.00  0.00     0.185 A 
HETATM    5  N6  UNL     1      -8.718  17.867 -13.958  1.00  0.00    -0.233 N 
ENDROOT
BRANCH   5   6
HETATM    6  N7  UNL     1      -8.662  17.097 -15.156  1.00  0.00    -0.261 N 
HETATM    7  C8  UNL     1      -9.263  17.284 -16.366  1.00  0.00     0.243 C 
HETATM    8  O1  UNL     1     -10.005  18.175 -16.726  1.00  0.00    -0.271 OA
ATOM      9  H7  UNL     1      -8.074  16.266 -15.098  1.00  0.00     0.190 HD
BRANCH   7  10
HETATM   10  C9  UNL     1      -8.971  16.234 -17.428  1.00  0.00     0.185 C 
BRANCH  10  11
HETATM   11  C10 UNL     1      -7.541  15.903 -17.501  1.00  0.00     0.169 C 
HETATM   12  O2  UNL     1      -6.653  16.692 -17.130  1.00  0.00    -0.295 OA
BRANCH  11  13
HETATM   13  C11 UNL     1      -7.049  14.603 -18.017  1.00  0.00     0.286 C 
BRANCH  13  14
HETATM   14  N8  UNL     1      -8.163  14.038 -18.826  1.00  0.00    -0.065 N 
ATOM     15  H83 UNL     1      -8.091  13.031 -18.972  1.00  0.00     0.275 HD
ATOM     16  H82 UNL     1      -9.058  14.026 -18.336  1.00  0.00     0.275 HD
ATOM     17  H81 UNL     1      -8.179  14.576 -19.692  1.00  0.00     0.275 HD
ENDBRANCH  13  14
BRANCH  13  18
HETATM   18  C12 UNL     1      -6.860  13.630 -16.864  1.00  0.00     0.086 C 
HETATM   19  C13 UNL     1      -7.268  12.229 -17.155  1.00  0.00     0.048 C 
HETATM   20  C14 UNL     1      -5.426  13.646 -16.398  1.00  0.00     0.048 C 
BRANCH  18  21
HETATM   21  O3  UNL     1      -7.692  14.088 -15.812  1.00  0.00    -0.388 OA
ATOM     22  H3  UNL     1      -8.535  13.667 -15.933  1.00  0.00     0.210 HD
ENDBRANCH  18  21
ENDBRANCH  13  18
ENDBRANCH  11  13
ENDBRANCH  10  11
ENDBRANCH   7  10
ENDBRANCH   5   6
BRANCH   1  23
HETATM   23  C3  UNL     1     -10.146  16.050 -12.891  1.00  0.00     0.330 C 
BRANCH  23  24
HETATM   24  N1  UNL     1     -11.582  16.261 -12.996  1.00  0.00     0.085 N 
HETATM   25  C1  UNL     1     -12.048  15.902 -14.320  1.00  0.00     0.309 C 
HETATM   26  C2  UNL     1     -12.295  15.510 -11.972  1.00  0.00     0.309 C 
ENDBRANCH  23  24
ENDBRANCH   1  23
BRANCH   4  27
HETATM   27  N2  UNL     1      -7.395  19.779 -14.590  1.00  0.00    -0.167 N 
HETATM   28  C7  UNL     1      -7.892  20.980 -15.126  1.00  0.00     0.692 C 
HETATM   29  N3  UNL     1      -9.011  20.988 -15.751  1.00  0.00    -0.233 N 
HETATM   30  N4  UNL     1      -7.162  22.176 -14.975  1.00  0.00    -0.139 N 
ATOM     31  H32 UNL     1      -9.540  20.122 -15.861  1.00  0.00     0.174 HD
ATOM     32  H31 UNL     1      -9.372  21.860 -16.140  1.00  0.00     0.174 HD
ATOM     33  H4  UNL     1      -6.182  22.115 -14.700  1.00  0.00     0.205 HD
ATOM     34  H2  UNL     1      -6.446  19.479 -14.815  1.00  0.00     0.186 HD
BRANCH  30  35
HETATM   35  N5  UNL     1      -7.717  23.441 -15.186  1.00  0.00    -0.331 N 
ATOM     36  H52 UNL     1      -7.951  23.994 -14.362  1.00  0.00     0.177 HD
ATOM     37  H51 UNL     1      -7.892  23.824 -16.115  1.00  0.00     0.177 HD
ENDBRANCH  30  35
ENDBRANCH   4  27
TORSDOF 11
ENDMDL
MODEL 2
REMARK VINA RESULT: -6.541564137      0.810      1.185
REMARK  11 active torsions:
REMARK  status: ('A' for Active; 'I' for Inactive)
REMARK    1  A    between atoms: N1_2  and  C3_4 
REMARK    2  A    between atoms: C3_4  and  C4_5 
REMARK    3  A    between atoms: C6_8  and  N2_9 
REMARK       I    between atoms: N2_9  and  C7_11 
REMARK       I    between atoms: C7_11  and  N4_15 
REMARK    4  A    between atoms: N4_15  and  N5_17 
REMARK    5  A    between atoms: N6_20  and  N7_21 
REMARK       I    between atoms: N7_21  and  C8_23 
REMARK    6  A    between atoms: C8_23  and  C9_25 
REMARK    7  A    between atoms: C9_25  and  C10_26 
REMARK    8  A    between atoms: C10_26  and  C11_28 
REMARK    9  A    between atoms: C11_28  and  N8_29 
REMARK   10  A    between atoms: C11_28  and  C12_33 
REMARK   11  A    between atoms: C12_33  and  O3_36 
ROOT
HETATM    1  C4  UNL     1      -9.427  17.397 -12.909  1.00  0.00     0.071 A 
HETATM    2  C5  UNL     1      -9.484  18.187 -11.804  1.00  0.00     0.082 A 
HETATM    3  S1  UNL     1      -8.566  19.538 -12.225  1.00  0.00    -0.061 SA
HETATM    4  C6  UNL     1      -8.141  19.040 -13.811  1.00  0.00     0.185 A 
HETATM    5  N6  UNL     1      -8.721  17.857 -13.952  1.00  0.00    -0.233 N 
ENDROOT
BRANCH   5   6
HETATM    6  N7  UNL     1      -8.672  17.084 -15.148  1.00  0.00    -0.261 N 
HETATM    7  C8  UNL     1      -9.271  17.273 -16.359  1.00  0.00     0.243 C 
HETATM    8  O1  UNL     1     -10.005  18.169 -16.721  1.00  0.00    -0.271 OA
ATOM      9  H7  UNL     1      -8.092  16.248 -15.088  1.00  0.00     0.190 HD
BRANCH   7  10
HETATM   10  C9  UNL     1      -8.988  16.218 -17.419  1.00  0.00     0.185 C 
BRANCH  10  11
HETATM   11  C10 UNL     1      -7.559  15.888 -17.504  1.00  0.00     0.169 C 
HETATM   12  O2  UNL     1      -6.668  16.680 -17.144  1.00  0.00    -0.295 OA
BRANCH  11  13
HETATM   13  C11 UNL     1      -7.069  14.588 -18.020  1.00  0.00     0.286 C 
BRANCH  13  14
HETATM   14  N8  UNL     1      -8.189  14.020 -18.820  1.00  0.00    -0.065 N 
ATOM     15  H83 UNL     1      -8.707  14.720 -19.350  1.00  0.00     0.275 HD
ATOM     16  H82 UNL     1      -7.879  13.467 -19.619  1.00  0.00     0.275 HD
ATOM     17  H81 UNL     1      -8.765  13.498 -18.161  1.00  0.00     0.275 HD
ENDBRANCH  13  14
BRANCH  13  18
HETATM   18  C12 UNL     1      -6.872  13.618 -16.866  1.00  0.00     0.086 C 
HETATM   19  C13 UNL     1      -7.278  12.215 -17.153  1.00  0.00     0.048 C 
HETATM   20  C14 UNL     1      -5.436  13.638 -16.407  1.00  0.00     0.048 C 
BRANCH  18  21
HETATM   21  O3  UNL     1      -7.700  14.075 -15.811  1.00  0.00    -0.388 OA
ATOM     22  H3  UNL     1      -7.469  13.561 -15.046  1.00  0.00     0.210 HD
ENDBRANCH  18  21
ENDBRANCH  13  18
ENDBRANCH  11  13
ENDBRANCH  10  11
ENDBRANCH   7  10
ENDBRANCH   5   6
BRANCH   1  23
HETATM   23  C3  UNL     1     -10.140  16.040 -12.871  1.00  0.00     0.330 C 
BRANCH  23  24
HETATM   24  N1  UNL     1      -9.574  15.230 -11.803  1.00  0.00     0.085 N 
HETATM   25  C1  UNL     1     -10.599  14.402 -11.202  1.00  0.00     0.309 C 
HETATM   26  C2  UNL     1      -8.471  14.416 -12.296  1.00  0.00     0.309 C 
ENDBRANCH  23  24
ENDBRANCH   1  23
BRANCH   4  27
HETATM   27  N2  UNL     1      -7.405  19.769 -14.598  1.00  0.00    -0.167 N 
HETATM   28  C7  UNL     1      -7.904  20.974 -15.124  1.00  0.00     0.692 C 
HETATM   29  N3  UNL     1      -9.031  20.989 -15.736  1.00  0.00    -0.233 N 
HETATM   30  N4  UNL     1      -7.166  22.166 -14.979  1.00  0.00    -0.139 N 
ATOM     31  H32 UNL     1      -9.564  20.125 -15.842  1.00  0.00     0.174 HD
ATOM     32  H31 UNL     1      -9.392  21.863 -16.118  1.00  0.00     0.174 HD
ATOM     33  H4  UNL     1      -6.184  22.100 -14.716  1.00  0.00     0.205 HD
ATOM     34  H2  UNL     1      -6.461  19.465 -14.835  1.00  0.00     0.186 HD
BRANCH  30  35
HETATM   35  N5  UNL     1      -7.718  23.434 -15.180  1.00  0.00    -0.331 N 
ATOM     36  H52 UNL     1      -8.708  23.481 -15.424  1.00  0.00     0.177 HD
ATOM     37  H51 UNL     1      -7.180  24.296 -15.093  1.00  0.00     0.177 HD
ENDBRANCH  30  35
ENDBRANCH   4  27
TORSDOF 11
ENDMDL
MODEL 3
REMARK VINA RESULT: -6.477983204      1.181      1.440
REMARK  11 active torsions:
REMARK  status: ('A' for Active; 'I' for Inactive)
REMARK    1  A    between atoms: N1_2  and  C3_4 
REMARK    2  A    between atoms: C3_4  and  C4_5 
REMARK    3  A    between atoms: C6_8  and  N2_9 
REMARK       I    between atoms: N2_9  and  C7_11 
REMARK       I    between atoms: C7_11  and  N4_15 
REMARK    4  A    between atoms: N4_15  and  N5_17 
REMARK    5  A    between atoms: N6_20  and  N7_21 
REMARK       I    between atoms: N7_21  and  C8_23 
REMARK    6  A    between atoms: C8_23  and  C9_25 
REMARK    7  A    between atoms: C9_25  and  C10_26 
REMARK    8  A    between atoms: C10_26  and  C11_28 
REMARK    9  A    between atoms: C11_28  and  N8_29 
REMARK   10  A    between atoms: C11_28  and  C12_33 
REMARK   11  A    between atoms: C12_33  and  O3_36 
ROOT
HETATM    1  C4  UNL     1      -8.986  17.337 -12.819  1.00  0.00     0.071 A 
HETATM    2  C5  UNL     1      -8.847  18.141 -11.731  1.00  0.00     0.082 A 
HETATM    3  S1  UNL     1      -8.071  19.509 -12.339  1.00  0.00    -0.061 SA
HETATM    4  C6  UNL     1      -7.953  18.999 -13.973  1.00  0.00     0.185 A 
HETATM    5  N6  UNL     1      -8.515  17.799 -13.985  1.00  0.00    -0.233 N 
ENDROOT
BRANCH   5   6
HETATM    6  N7  UNL     1      -8.680  17.009 -15.159  1.00  0.00    -0.261 N 
HETATM    7  C8  UNL     1      -9.311  17.283 -16.337  1.00  0.00     0.243 C 
HETATM    8  O1  UNL     1      -9.895  18.290 -16.681  1.00  0.00    -0.271 OA
ATOM      9  H7  UNL     1      -8.256  16.083 -15.110  1.00  0.00     0.190 HD
BRANCH   7  10
HETATM   10  C9  UNL     1      -9.289  16.176 -17.382  1.00  0.00     0.185 C 
BRANCH  10  11
HETATM   11  C10 UNL     1      -8.055  15.380 -17.319  1.00  0.00     0.169 C 
HETATM   12  O2  UNL     1      -6.985  15.766 -17.824  1.00  0.00    -0.295 OA
BRANCH  11  13
HETATM   13  C11 UNL     1      -7.990  14.060 -16.647  1.00  0.00     0.286 C 
BRANCH  13  14
HETATM   14  N8  UNL     1      -6.555  13.842 -16.317  1.00  0.00    -0.065 N 
ATOM     15  H83 UNL     1      -6.172  12.984 -16.714  1.00  0.00     0.275 HD
ATOM     16  H82 UNL     1      -5.925  14.488 -16.793  1.00  0.00     0.275 HD
ATOM     17  H81 UNL     1      -6.493  13.885 -15.300  1.00  0.00     0.275 HD
ENDBRANCH  13  14
BRANCH  13  18
HETATM   18  C12 UNL     1      -8.344  12.961 -17.635  1.00  0.00     0.086 C 
HETATM   19  C13 UNL     1      -7.451  11.771 -17.593  1.00  0.00     0.048 C 
HETATM   20  C14 UNL     1      -9.772  12.520 -17.435  1.00  0.00     0.048 C 
BRANCH  18  21
HETATM   21  O3  UNL     1      -8.213  13.525 -18.928  1.00  0.00    -0.388 OA
ATOM     22  H3  UNL     1      -8.800  13.039 -19.495  1.00  0.00     0.210 HD
ENDBRANCH  18  21
ENDBRANCH  13  18
ENDBRANCH  11  13
ENDBRANCH  10  11
ENDBRANCH   7  10
ENDBRANCH   5   6
BRANCH   1  23
HETATM   23  C3  UNL     1      -9.637  15.962 -12.626  1.00  0.00     0.330 C 
BRANCH  23  24
HETATM   24  N1  UNL     1     -11.035  16.138 -12.262  1.00  0.00     0.085 N 
HETATM   25  C1  UNL     1     -11.844  16.332 -13.448  1.00  0.00     0.309 C 
HETATM   26  C2  UNL     1     -11.517  15.005 -11.482  1.00  0.00     0.309 C 
ENDBRANCH  23  24
ENDBRANCH   1  23
BRANCH   4  27
HETATM   27  N2  UNL     1      -7.409  19.736 -14.897  1.00  0.00    -0.167 N 
HETATM   28  C7  UNL     1      -7.978  20.972 -15.248  1.00  0.00     0.692 C 
HETATM   29  N3  UNL     1      -9.220  21.042 -15.559  1.00  0.00    -0.233 N 
HETATM   30  N4  UNL     1      -7.185  22.137 -15.257  1.00  0.00    -0.139 N 
ATOM     31  H32 UNL     1      -9.794  20.199 -15.553  1.00  0.00     0.174 HD
ATOM     32  H31 UNL     1      -9.633  21.940 -15.814  1.00  0.00     0.174 HD
ATOM     33  H4  UNL     1      -6.170  22.034 -15.248  1.00  0.00     0.205 HD
ATOM     34  H2  UNL     1      -6.565  19.414 -15.371  1.00  0.00     0.186 HD
BRANCH  30  35
HETATM   35  N5  UNL     1      -7.722  23.427 -15.278  1.00  0.00    -0.331 N 
ATOM     36  H52 UNL     1      -8.732  23.512 -15.394  1.00  0.00     0.177 HD
ATOM     37  H51 UNL     1      -7.154  24.269 -15.182  1.00  0.00     0.177 HD
ENDBRANCH  30  35
ENDBRANCH   4  27
TORSDOF 11
ENDMDL
MODEL 4
REMARK VINA RESULT: -6.451389996      1.475      1.920
REMARK  11 active torsions:
REMARK  status: ('A' for Active; 'I' for Inactive)
REMARK    1  A    between atoms: N1_2  and  C3_4 
REMARK    2  A    between atoms: C3_4  and  C4_5 
REMARK    3  A    between atoms: C6_8  and  N2_9 
REMARK       I    between atoms: N2_9  and  C7_11 
REMARK       I    between atoms: C7_11  and  N4_15 
REMARK    4  A    between atoms: N4_15  and  N5_17 
REMARK    5  A    between atoms: N6_20  and  N7_21 
REMARK       I    between atoms: N7_21  and  C8_23 
REMARK    6  A    between atoms: C8_23  and  C9_25 
REMARK    7  A    between atoms: C9_25  and  C10_26 
REMARK    8  A    between atoms: C10_26  and  C11_28 
REMARK    9  A    between atoms: C11_28  and  N8_29 
REMARK   10  A    between atoms: C11_28  and  C12_33 
REMARK   11  A    between atoms: C12_33  and  O3_36 
ROOT
HETATM    1  C4  UNL     1      -9.015  17.343 -12.827  1.00  0.00     0.071 A 
HETATM    2  C5  UNL     1      -8.881  18.145 -11.737  1.00  0.00     0.082 A 
HETATM    3  S1  UNL     1      -8.092  19.510 -12.336  1.00  0.00    -0.061 SA
HETATM    4  C6  UNL     1      -7.962  19.001 -13.970  1.00  0.00     0.185 A 
HETATM    5  N6  UNL     1      -8.530  17.804 -13.989  1.00  0.00    -0.233 N 
ENDROOT
BRANCH   5   6
HETATM    6  N7  UNL     1      -8.690  17.018 -15.165  1.00  0.00    -0.261 N 
HETATM    7  C8  UNL     1      -9.306  17.297 -16.350  1.00  0.00     0.243 C 
HETATM    8  O1  UNL     1      -9.878  18.309 -16.698  1.00  0.00    -0.271 OA
ATOM      9  H7  UNL     1      -8.273  16.088 -15.113  1.00  0.00     0.190 HD
BRANCH   7  10
HETATM   10  C9  UNL     1      -9.281  16.191 -17.395  1.00  0.00     0.185 C 
BRANCH  10  11
HETATM   11  C10 UNL     1      -8.045  15.399 -17.335  1.00  0.00     0.169 C 
HETATM   12  O2  UNL     1      -6.979  15.784 -17.849  1.00  0.00    -0.295 OA
BRANCH  11  13
HETATM   13  C11 UNL     1      -7.973  14.085 -16.652  1.00  0.00     0.286 C 
BRANCH  13  14
HETATM   14  N8  UNL     1      -6.533  13.866 -16.343  1.00  0.00    -0.065 N 
ATOM     15  H83 UNL     1      -5.954  13.727 -17.172  1.00  0.00     0.275 HD
ATOM     16  H82 UNL     1      -6.058  14.701 -16.001  1.00  0.00     0.275 HD
ATOM     17  H81 UNL     1      -6.504  13.083 -15.690  1.00  0.00     0.275 HD
ENDBRANCH  13  14
BRANCH  13  18
HETATM   18  C12 UNL     1      -8.344  12.978 -17.626  1.00  0.00     0.086 C 
HETATM   19  C13 UNL     1      -7.465  11.778 -17.574  1.00  0.00     0.048 C 
HETATM   20  C14 UNL     1      -9.776  12.557 -17.415  1.00  0.00     0.048 C 
BRANCH  18  21
HETATM   21  O3  UNL     1      -8.211  13.525 -18.926  1.00  0.00    -0.388 OA
ATOM     22  H3  UNL     1      -7.920  12.817 -19.488  1.00  0.00     0.210 HD
ENDBRANCH  18  21
ENDBRANCH  13  18
ENDBRANCH  11  13
ENDBRANCH  10  11
ENDBRANCH   7  10
ENDBRANCH   5   6
BRANCH   1  23
HETATM   23  C3  UNL     1      -9.676  15.972 -12.643  1.00  0.00     0.330 C 
BRANCH  23  24
HETATM   24  N1  UNL     1      -9.194  15.368 -11.410  1.00  0.00     0.085 N 
HETATM   25  C1  UNL     1     -10.278  14.698 -10.721  1.00  0.00     0.309 C 
HETATM   26  C2  UNL     1      -8.097  14.445 -11.676  1.00  0.00     0.309 C 
ENDBRANCH  23  24
ENDBRANCH   1  23
BRANCH   4  27
HETATM   27  N2  UNL     1      -7.406  19.736 -14.888  1.00  0.00    -0.167 N 
HETATM   28  C7  UNL     1      -7.967  20.974 -15.245  1.00  0.00     0.692 C 
HETATM   29  N3  UNL     1      -9.205  21.047 -15.571  1.00  0.00    -0.233 N 
HETATM   30  N4  UNL     1      -7.171  22.137 -15.245  1.00  0.00    -0.139 N 
ATOM     31  H32 UNL     1      -9.782  20.206 -15.571  1.00  0.00     0.174 HD
ATOM     32  H31 UNL     1      -9.613  21.946 -15.830  1.00  0.00     0.174 HD
ATOM     33  H4  UNL     1      -6.157  22.031 -15.225  1.00  0.00     0.205 HD
ATOM     34  H2  UNL     1      -6.557  19.412 -15.351  1.00  0.00     0.186 HD
BRANCH  30  35
HETATM   35  N5  UNL     1      -7.704  23.428 -15.273  1.00  0.00    -0.331 N 
ATOM     36  H52 UNL     1      -8.023  23.823 -14.388  1.00  0.00     0.177 HD
ATOM     37  H51 UNL     1      -7.785  23.980 -16.127  1.00  0.00     0.177 HD
ENDBRANCH  30  35
ENDBRANCH   4  27
TORSDOF 11
ENDMDL
MODEL 5
REMARK VINA RESULT: -6.441249335      0.792      1.112
REMARK  11 active torsions:
REMARK  status: ('A' for Active; 'I' for Inactive)
REMARK    1  A    between atoms: N1_2  and  C3_4 
REMARK    2  A    between atoms: C3_4  and  C4_5 
REMARK    3  A    between atoms: C6_8  and  N2_9 
REMARK       I    between atoms: N2_9  and  C7_11 
REMARK       I    between atoms: C7_11  and  N4_15 
REMARK    4  A    between atoms: N4_15  and  N5_17 
REMARK    5  A    between atoms: N6_20  and  N7_21 
REMARK       I    between atoms: N7_21  and  C8_23 
REMARK    6  A    between atoms: C8_23  and  C9_25 
REMARK    7  A    between atoms: C9_25  and  C10_26 
REMARK    8  A    between atoms: C10_26  and  C11_28 
REMARK    9  A    between atoms: C11_28  and  N8_29 
REMARK   10  A    between atoms: C11_28  and  C12_33 
REMARK   11  A    between atoms: C12_33  and  O3_36 
ROOT
HETATM    1  C4  UNL     1      -8.971  17.173 -13.163  1.00  0.00     0.071 A 
HETATM    2  C5  UNL     1      -8.728  17.850 -12.009  1.00  0.00     0.082 A 
HETATM    3  S1  UNL     1      -7.912  19.235 -12.520  1.00  0.00    -0.061 SA
HETATM    4  C6  UNL     1      -7.913  18.895 -14.201  1.00  0.00     0.185 A 
HETATM    5  N6  UNL     1      -8.540  17.732 -14.302  1.00  0.00    -0.233 N 
ENDROOT
BRANCH   5   6
HETATM    6  N7  UNL     1      -8.813  17.080 -15.539  1.00  0.00    -0.261 N 
HETATM    7  C8  UNL     1      -9.597  17.453 -16.591  1.00  0.00     0.243 C 
HETATM    8  O1  UNL     1     -10.265  18.457 -16.734  1.00  0.00    -0.271 OA
ATOM      9  H7  UNL     1      -8.344  16.183 -15.657  1.00  0.00     0.190 HD
BRANCH   7  10
HETATM   10  C9  UNL     1      -9.653  16.483 -17.762  1.00  0.00     0.185 C 
BRANCH  10  11
HETATM   11  C10 UNL     1      -8.931  15.234 -17.482  1.00  0.00     0.169 C 
HETATM   12  O2  UNL     1      -9.219  14.498 -16.520  1.00  0.00    -0.295 OA
BRANCH  11  13
HETATM   13  C11 UNL     1      -7.811  14.753 -18.326  1.00  0.00     0.286 C 
BRANCH  13  14
HETATM   14  N8  UNL     1      -8.184  13.377 -18.751  1.00  0.00    -0.065 N 
ATOM     15  H83 UNL     1      -9.008  13.011 -18.273  1.00  0.00     0.275 HD
ATOM     16  H82 UNL     1      -8.562  13.330 -19.697  1.00  0.00     0.275 HD
ATOM     17  H81 UNL     1      -7.348  12.808 -18.617  1.00  0.00     0.275 HD
ENDBRANCH  13  14
BRANCH  13  18
HETATM   18  C12 UNL     1      -6.563  14.584 -17.476  1.00  0.00     0.086 C 
HETATM   19  C13 UNL     1      -6.425  13.253 -16.826  1.00  0.00     0.048 C 
HETATM   20  C14 UNL     1      -5.330  14.868 -18.298  1.00  0.00     0.048 C 
BRANCH  18  21
HETATM   21  O3  UNL     1      -6.653  15.540 -16.434  1.00  0.00    -0.388 OA
ATOM     22  H3  UNL     1      -6.108  16.273 -16.694  1.00  0.00     0.210 HD
ENDBRANCH  18  21
ENDBRANCH  13  18
ENDBRANCH  11  13
ENDBRANCH  10  11
ENDBRANCH   7  10
ENDBRANCH   5   6
BRANCH   1  23
HETATM   23  C3  UNL     1      -9.685  15.819 -13.074  1.00  0.00     0.330 C 
BRANCH  23  24
HETATM   24  N1  UNL     1     -11.123  16.036 -13.024  1.00  0.00     0.085 N 
HETATM   25  C1  UNL     1     -11.760  15.461 -14.192  1.00  0.00     0.309 C 
HETATM   26  C2  UNL     1     -11.691  15.488 -11.799  1.00  0.00     0.309 C 
ENDBRANCH  23  24
ENDBRANCH   1  23
BRANCH   4  27
HETATM   27  N2  UNL     1      -7.381  19.698 -15.076  1.00  0.00    -0.167 N 
HETATM   28  C7  UNL     1      -7.934  20.970 -15.303  1.00  0.00     0.692 C 
HETATM   29  N3  UNL     1      -9.183  21.089 -15.568  1.00  0.00    -0.233 N 
HETATM   30  N4  UNL     1      -7.116  22.117 -15.238  1.00  0.00    -0.139 N 
ATOM     31  H32 UNL     1      -9.774  20.260 -15.616  1.00  0.00     0.174 HD
ATOM     32  H31 UNL     1      -9.584  22.013 -15.733  1.00  0.00     0.174 HD
ATOM     33  H4  UNL     1      -6.105  21.994 -15.270  1.00  0.00     0.205 HD
ATOM     34  H2  UNL     1      -6.559  19.402 -15.602  1.00  0.00     0.186 HD
BRANCH  30  35
HETATM   35  N5  UNL     1      -7.627  23.413 -15.133  1.00  0.00    -0.331 N 
ATOM     36  H52 UNL     1      -8.622  23.541 -15.314  1.00  0.00     0.177 HD
ATOM     37  H51 UNL     1      -7.053  24.219 -14.886  1.00  0.00     0.177 HD
ENDBRANCH  30  35
ENDBRANCH   4  27
TORSDOF 11
ENDMDL
