MODEL 1
REMARK VINA RESULT: -8.075539680      0.000      0.000
REMARK  7 active torsions:
REMARK  status: ('A' for Active; 'I' for Inactive)
REMARK    1  A    between atoms: C3_5  and  C4_6 
REMARK       I    between atoms: C4_6  and  N2_8 
REMARK    2  A    between atoms: N2_8  and  C5_10 
REMARK    3  A    between atoms: C5_10  and  C6_11 
REMARK    4  A    between atoms: C5_10  and  C10_23 
REMARK    5  A    between atoms: C7_14  and  C8_15 
REMARK    6  A    between atoms: N9_30  and  C12_31 
REMARK    7  A    between atoms: C14_36  and  N12_37 
ROOT
HETATM    1  C12 UNL     1      68.940  46.792  26.935  1.00  0.00     0.259 C 
HETATM    2  C13 UNL     1      68.517  45.689  26.072  1.00  0.00     0.079 C 
HETATM    3  N10 UNL     1      68.166  44.808  25.377  1.00  0.00    -0.196 NA
ENDROOT
BRANCH   1   4
HETATM    4  N9  UNL     1      69.399  47.919  26.132  1.00  0.00    -0.271 N 
HETATM    5  C10 UNL     1      68.658  48.945  25.682  1.00  0.00     0.135 A 
HETATM    6  N7  UNL     1      69.503  49.743  24.989  1.00  0.00    -0.283 N 
HETATM    7  N8  UNL     1      70.722  49.231  25.009  1.00  0.00    -0.250 N 
ATOM      8  H7  UNL     1      69.239  50.610  24.522  1.00  0.00     0.188 HD
HETATM    9  C11 UNL     1      70.688  48.087  25.717  1.00  0.00     0.343 A 
ATOM     10  H8  UNL     1      71.546  49.634  24.563  1.00  0.00     0.192 HD
HETATM   11  O2  UNL     1      71.652  47.297  25.969  1.00  0.00    -0.245 OA
BRANCH   5  12
HETATM   12  C5  UNL     1      67.205  49.161  25.904  1.00  0.00     0.238 C 
BRANCH  12  13
HETATM   13  N2  UNL     1      66.908  50.560  25.579  1.00  0.00    -0.255 N 
HETATM   14  C4  UNL     1      66.926  51.568  26.555  1.00  0.00     0.300 C 
HETATM   15  O1  UNL     1      67.203  51.267  27.742  1.00  0.00    -0.263 OA
HETATM   16  S1  UNL     1      66.523  50.961  23.912  1.00  0.00     0.049 SA
BRANCH  14  17
HETATM   17  C3  UNL     1      66.636  52.939  26.234  1.00  0.00     0.191 A 
HETATM   18  N1  UNL     1      65.516  53.314  25.613  1.00  0.00    -0.327 N 
HETATM   19  C2  UNL     1      65.190  54.568  25.289  1.00  0.00     0.095 A 
ATOM     20  H1  UNL     1      64.852  52.581  25.365  1.00  0.00     0.169 HD
HETATM   21  C1  UNL     1      63.913  54.902  24.593  1.00  0.00     0.089 C 
HETATM   22  N13 UNL     1      66.067  55.543  25.615  1.00  0.00    -0.181 N 
HETATM   23  C14 UNL     1      67.210  55.215  26.241  1.00  0.00     0.678 A 
ATOM     24  H13 UNL     1      65.863  56.516  25.388  1.00  0.00     0.185 HD
HETATM   25  N11 UNL     1      67.502  53.945  26.551  1.00  0.00    -0.171 N 
ATOM     26  H11 UNL     1      68.378  53.728  27.027  1.00  0.00     0.186 HD
BRANCH  23  27
HETATM   27  N12 UNL     1      68.062  56.129  26.562  1.00  0.00    -0.234 N 
ATOM     28 2H12 UNL     1      68.341  56.835  25.881  1.00  0.00     0.174 HD
ATOM     29 1H12 UNL     1      68.441  56.120  27.509  1.00  0.00     0.174 HD
ENDBRANCH  23  27
ENDBRANCH  14  17
ENDBRANCH  12  13
BRANCH  12  30
HETATM   30  C6  UNL     1      66.415  48.242  25.054  1.00  0.00     0.114 A 
HETATM   31  N3  UNL     1      66.856  47.510  23.988  1.00  0.00    -0.340 N 
HETATM   32  C7  UNL     1      65.791  46.812  23.511  1.00  0.00     0.090 A 
ATOM     33  H3  UNL     1      67.807  47.491  23.619  1.00  0.00     0.167 HD
HETATM   34  C9  UNL     1      64.697  47.115  24.284  1.00  0.00     0.122 A 
HETATM   35  N6  UNL     1      65.096  47.989  25.222  1.00  0.00    -0.351 N 
ATOM     36  H6  UNL     1      64.501  48.396  25.943  1.00  0.00     0.166 HD
BRANCH  32  37
HETATM   37  C8  UNL     1      65.779  45.893  22.377  1.00  0.00     0.138 C 
HETATM   38  N4  UNL     1      66.497  44.825  22.353  1.00  0.00    -0.386 N 
ATOM     39  H42 UNL     1      67.093  44.613  23.153  1.00  0.00     0.157 HD
ATOM     40  H41 UNL     1      66.488  44.183  21.560  1.00  0.00     0.157 HD
HETATM   41  N5  UNL     1      64.943  46.190  21.255  1.00  0.00    -0.081 NA
ENDBRANCH  32  37
ENDBRANCH  12  30
ENDBRANCH   5  12
ENDBRANCH   1   4
TORSDOF 7
ENDMDL
MODEL 2
REMARK VINA RESULT: -7.983926816      1.926      2.605
REMARK  7 active torsions:
REMARK  status: ('A' for Active; 'I' for Inactive)
REMARK    1  A    between atoms: C3_5  and  C4_6 
REMARK       I    between atoms: C4_6  and  N2_8 
REMARK    2  A    between atoms: N2_8  and  C5_10 
REMARK    3  A    between atoms: C5_10  and  C6_11 
REMARK    4  A    between atoms: C5_10  and  C10_23 
REMARK    5  A    between atoms: C7_14  and  C8_15 
REMARK    6  A    between atoms: N9_30  and  C12_31 
REMARK    7  A    between atoms: C14_36  and  N12_37 
ROOT
HETATM    1  C12 UNL     1      71.756  49.484  27.871  1.00  0.00     0.259 C 
HETATM    2  C13 UNL     1      71.695  48.736  29.127  1.00  0.00     0.079 C 
HETATM    3  N10 UNL     1      71.634  48.137  30.136  1.00  0.00    -0.196 NA
ENDROOT
BRANCH   1   4
HETATM    4  N9  UNL     1      71.452  48.611  26.744  1.00  0.00    -0.271 N 
HETATM    5  C10 UNL     1      70.233  48.236  26.318  1.00  0.00     0.135 A 
HETATM    6  N7  UNL     1      70.440  47.430  25.251  1.00  0.00    -0.283 N 
HETATM    7  N8  UNL     1      71.737  47.310  25.023  1.00  0.00    -0.250 N 
ATOM      8  H7  UNL     1      69.705  46.982  24.703  1.00  0.00     0.188 HD
HETATM    9  C11 UNL     1      72.396  48.038  25.943  1.00  0.00     0.343 A 
ATOM     10  H8  UNL     1      72.164  46.759  24.277  1.00  0.00     0.192 HD
HETATM   11  O2  UNL     1      73.654  48.185  26.066  1.00  0.00    -0.245 OA
BRANCH   5  12
HETATM   12  C5  UNL     1      68.925  48.629  26.901  1.00  0.00     0.238 C 
BRANCH  12  13
HETATM   13  N2  UNL     1      68.650  50.008  26.487  1.00  0.00    -0.255 N 
HETATM   14  C4  UNL     1      67.812  50.854  27.230  1.00  0.00     0.300 C 
HETATM   15  O1  UNL     1      67.280  50.419  28.280  1.00  0.00    -0.263 OA
HETATM   16  S1  UNL     1      69.405  50.598  25.013  1.00  0.00     0.049 SA
BRANCH  14  17
HETATM   17  C3  UNL     1      67.546  52.206  26.822  1.00  0.00     0.191 A 
HETATM   18  N1  UNL     1      66.492  52.541  26.076  1.00  0.00    -0.327 N 
HETATM   19  C2  UNL     1      66.192  53.777  25.666  1.00  0.00     0.095 A 
ATOM     20  H1  UNL     1      65.862  51.791  25.794  1.00  0.00     0.169 HD
HETATM   21  C1  UNL     1      64.989  54.066  24.830  1.00  0.00     0.089 C 
HETATM   22  N13 UNL     1      67.023  54.775  26.037  1.00  0.00    -0.181 N 
HETATM   23  C14 UNL     1      68.099  54.487  26.789  1.00  0.00     0.678 A 
ATOM     24  H13 UNL     1      66.837  55.735  25.748  1.00  0.00     0.185 HD
HETATM   25  N11 UNL     1      68.368  53.235  27.181  1.00  0.00    -0.171 N 
ATOM     26  H11 UNL     1      69.192  53.049  27.752  1.00  0.00     0.186 HD
BRANCH  23  27
HETATM   27  N12 UNL     1      68.907  55.424  27.155  1.00  0.00    -0.234 N 
ATOM     28 2H12 UNL     1      68.884  55.780  28.110  1.00  0.00     0.174 HD
ATOM     29 1H12 UNL     1      69.561  55.790  26.463  1.00  0.00     0.174 HD
ENDBRANCH  23  27
ENDBRANCH  14  17
ENDBRANCH  12  13
BRANCH  12  30
HETATM   30  C6  UNL     1      67.859  47.714  26.433  1.00  0.00     0.114 A 
HETATM   31  N3  UNL     1      67.000  47.906  25.387  1.00  0.00    -0.340 N 
HETATM   32  C7  UNL     1      66.195  46.812  25.323  1.00  0.00     0.090 A 
ATOM     33  H3  UNL     1      66.969  48.718  24.771  1.00  0.00     0.167 HD
HETATM   34  C9  UNL     1      66.560  45.949  26.328  1.00  0.00     0.122 A 
HETATM   35  N6  UNL     1      67.578  46.516  26.995  1.00  0.00    -0.351 N 
ATOM     36  H6  UNL     1      68.061  46.109  27.796  1.00  0.00     0.166 HD
BRANCH  32  37
HETATM   37  C8  UNL     1      65.120  46.566  24.367  1.00  0.00     0.138 C 
HETATM   38  N4  UNL     1      65.216  45.673  23.444  1.00  0.00    -0.386 N 
ATOM     39  H42 UNL     1      66.070  45.119  23.381  1.00  0.00     0.157 HD
ATOM     40  H41 UNL     1      64.464  45.502  22.776  1.00  0.00     0.157 HD
HETATM   41  N5  UNL     1      63.923  47.344  24.456  1.00  0.00    -0.081 NA
ENDBRANCH  32  37
ENDBRANCH  12  30
ENDBRANCH   5  12
ENDBRANCH   1   4
TORSDOF 7
ENDMDL
MODEL 3
REMARK VINA RESULT: -7.972860408      2.283      4.212
REMARK  7 active torsions:
REMARK  status: ('A' for Active; 'I' for Inactive)
REMARK    1  A    between atoms: C3_5  and  C4_6 
REMARK       I    between atoms: C4_6  and  N2_8 
REMARK    2  A    between atoms: N2_8  and  C5_10 
REMARK    3  A    between atoms: C5_10  and  C6_11 
REMARK    4  A    between atoms: C5_10  and  C10_23 
REMARK    5  A    between atoms: C7_14  and  C8_15 
REMARK    6  A    between atoms: N9_30  and  C12_31 
REMARK    7  A    between atoms: C14_36  and  N12_37 
ROOT
HETATM    1  C12 UNL     1      66.745  47.062  25.696  1.00  0.00     0.259 C 
HETATM    2  C13 UNL     1      65.390  47.225  25.169  1.00  0.00     0.079 C 
HETATM    3  N10 UNL     1      64.297  47.349  24.756  1.00  0.00    -0.196 NA
ENDROOT
BRANCH   1   4
HETATM    4  N9  UNL     1      67.006  48.044  26.742  1.00  0.00    -0.271 N 
HETATM    5  C10 UNL     1      67.458  49.299  26.577  1.00  0.00     0.135 A 
HETATM    6  N7  UNL     1      67.546  49.832  27.817  1.00  0.00    -0.283 N 
HETATM    7  N8  UNL     1      67.162  48.942  28.717  1.00  0.00    -0.250 N 
ATOM      8  H7  UNL     1      67.861  50.779  28.027  1.00  0.00     0.188 HD
HETATM    9  C11 UNL     1      66.818  47.812  28.073  1.00  0.00     0.343 A 
ATOM     10  H8  UNL     1      67.133  49.088  29.727  1.00  0.00     0.192 HD
HETATM   11  O2  UNL     1      66.397  46.724  28.579  1.00  0.00    -0.245 OA
BRANCH   5  12
HETATM   12  C5  UNL     1      67.792  49.965  25.292  1.00  0.00     0.238 C 
BRANCH  12  13
HETATM   13  N2  UNL     1      67.658  51.411  25.493  1.00  0.00    -0.255 N 
HETATM   14  C4  UNL     1      66.439  52.078  25.302  1.00  0.00     0.300 C 
HETATM   15  O1  UNL     1      65.430  51.420  24.947  1.00  0.00    -0.263 OA
HETATM   16  S1  UNL     1      69.082  52.314  25.990  1.00  0.00     0.049 SA
BRANCH  14  17
HETATM   17  C3  UNL     1      66.311  53.496  25.501  1.00  0.00     0.191 A 
HETATM   18  N1  UNL     1      65.242  54.188  25.105  1.00  0.00    -0.327 N 
HETATM   19  C2  UNL     1      65.066  55.503  25.262  1.00  0.00     0.095 A 
ATOM     20  H1  UNL     1      64.495  53.670  24.644  1.00  0.00     0.169 HD
HETATM   21  C1  UNL     1      63.834  56.202  24.788  1.00  0.00     0.089 C 
HETATM   22  N13 UNL     1      66.053  56.195  25.872  1.00  0.00    -0.181 N 
HETATM   23  C14 UNL     1      67.151  55.542  26.289  1.00  0.00     0.678 A 
ATOM     24  H13 UNL     1      65.965  57.201  26.014  1.00  0.00     0.185 HD
HETATM   25  N11 UNL     1      67.292  54.221  26.114  1.00  0.00    -0.171 N 
ATOM     26  H11 UNL     1      68.137  53.754  26.442  1.00  0.00     0.186 HD
BRANCH  23  27
HETATM   27  N12 UNL     1      68.106  56.181  26.874  1.00  0.00    -0.234 N 
ATOM     28 2H12 UNL     1      68.794  56.697  26.325  1.00  0.00     0.174 HD
ATOM     29 1H12 UNL     1      68.148  56.153  27.893  1.00  0.00     0.174 HD
ENDBRANCH  23  27
ENDBRANCH  14  17
ENDBRANCH  12  13
BRANCH  12  30
HETATM   30  C6  UNL     1      69.167  49.614  24.875  1.00  0.00     0.114 A 
HETATM   31  N3  UNL     1      70.187  49.165  25.666  1.00  0.00    -0.340 N 
HETATM   32  C7  UNL     1      71.266  48.971  24.861  1.00  0.00     0.090 A 
ATOM     33  H3  UNL     1      70.146  49.005  26.673  1.00  0.00     0.167 HD
HETATM   34  C9  UNL     1      70.908  49.301  23.576  1.00  0.00     0.122 A 
HETATM   35  N6  UNL     1      69.624  49.690  23.603  1.00  0.00    -0.351 N 
ATOM     36  H6  UNL     1      69.080  49.995  22.795  1.00  0.00     0.166 HD
BRANCH  32  37
HETATM   37  C8  UNL     1      72.587  48.498  25.261  1.00  0.00     0.138 C 
HETATM   38  N4  UNL     1      73.139  47.469  24.719  1.00  0.00    -0.386 N 
ATOM     39  H42 UNL     1      72.636  46.968  23.986  1.00  0.00     0.157 HD
ATOM     40  H41 UNL     1      74.063  47.138  24.998  1.00  0.00     0.157 HD
HETATM   41  N5  UNL     1      73.292  49.200  26.289  1.00  0.00    -0.081 NA
ENDBRANCH  32  37
ENDBRANCH  12  30
ENDBRANCH   5  12
ENDBRANCH   1   4
TORSDOF 7
ENDMDL
MODEL 4
REMARK VINA RESULT: -7.961155159      1.946      3.230
REMARK  7 active torsions:
REMARK  status: ('A' for Active; 'I' for Inactive)
REMARK    1  A    between atoms: C3_5  and  C4_6 
REMARK       I    between atoms: C4_6  and  N2_8 
REMARK    2  A    between atoms: N2_8  and  C5_10 
REMARK    3  A    between atoms: C5_10  and  C6_11 
REMARK    4  A    between atoms: C5_10  and  C10_23 
REMARK    5  A    between atoms: C7_14  and  C8_15 
REMARK    6  A    between atoms: N9_30  and  C12_31 
REMARK    7  A    between atoms: C14_36  and  N12_37 
ROOT
HETATM    1  C12 UNL     1      71.208  48.200  26.898  1.00  0.00     0.259 C 
HETATM    2  C13 UNL     1      71.046  49.645  26.731  1.00  0.00     0.079 C 
HETATM    3  N10 UNL     1      70.929  50.806  26.595  1.00  0.00    -0.196 NA
ENDROOT
BRANCH   1   4
HETATM    4  N9  UNL     1      71.224  47.537  25.599  1.00  0.00    -0.271 N 
HETATM    5  C10 UNL     1      70.166  47.061  24.921  1.00  0.00     0.135 A 
HETATM    6  N7  UNL     1      70.659  46.535  23.777  1.00  0.00    -0.283 N 
HETATM    7  N8  UNL     1      71.973  46.679  23.745  1.00  0.00    -0.250 N 
ATOM      8  H7  UNL     1      70.100  46.094  23.047  1.00  0.00     0.188 HD
HETATM    9  C11 UNL     1      72.356  47.304  24.874  1.00  0.00     0.343 A 
ATOM     10  H8  UNL     1      72.590  46.370  22.994  1.00  0.00     0.192 HD
HETATM   11  O2  UNL     1      73.535  47.627  25.225  1.00  0.00    -0.245 OA
BRANCH   5  12
HETATM   12  C5  UNL     1      68.743  47.106  25.344  1.00  0.00     0.238 C 
BRANCH  12  13
HETATM   13  N2  UNL     1      68.270  48.483  25.168  1.00  0.00    -0.255 N 
HETATM   14  C4  UNL     1      67.503  49.135  26.146  1.00  0.00     0.300 C 
HETATM   15  O1  UNL     1      67.210  48.525  27.203  1.00  0.00    -0.263 OA
HETATM   16  S1  UNL     1      68.690  49.321  23.681  1.00  0.00     0.049 SA
BRANCH  14  17
HETATM   17  C3  UNL     1      67.042  50.486  25.970  1.00  0.00     0.191 A 
HETATM   18  N1  UNL     1      67.740  51.547  26.378  1.00  0.00    -0.327 N 
HETATM   19  C2  UNL     1      67.366  52.822  26.243  1.00  0.00     0.095 A 
ATOM     20  H1  UNL     1      68.636  51.370  26.831  1.00  0.00     0.169 HD
HETATM   21  C1  UNL     1      68.210  53.953  26.729  1.00  0.00     0.089 C 
HETATM   22  N13 UNL     1      66.179  53.062  25.644  1.00  0.00    -0.181 N 
HETATM   23  C14 UNL     1      65.438  52.026  25.215  1.00  0.00     0.678 A 
ATOM     24  H13 UNL     1      65.849  54.019  25.518  1.00  0.00     0.185 HD
HETATM   25  N11 UNL     1      65.848  50.759  25.368  1.00  0.00    -0.171 N 
ATOM     26  H11 UNL     1      65.262  49.994  25.033  1.00  0.00     0.186 HD
BRANCH  23  27
HETATM   27  N12 UNL     1      64.302  52.231  24.640  1.00  0.00    -0.234 N 
ATOM     28 2H12 UNL     1      63.779  51.452  24.240  1.00  0.00     0.174 HD
ATOM     29 1H12 UNL     1      63.951  53.187  24.600  1.00  0.00     0.174 HD
ENDBRANCH  23  27
ENDBRANCH  14  17
ENDBRANCH  12  13
BRANCH  12  30
HETATM   30  C6  UNL     1      67.937  46.164  24.536  1.00  0.00     0.114 A 
HETATM   31  N3  UNL     1      67.170  46.453  23.442  1.00  0.00    -0.340 N 
HETATM   32  C7  UNL     1      66.613  45.285  23.023  1.00  0.00     0.090 A 
ATOM     33  H3  UNL     1      67.040  47.372  23.020  1.00  0.00     0.167 HD
HETATM   34  C9  UNL     1      67.038  44.280  23.858  1.00  0.00     0.122 A 
HETATM   35  N6  UNL     1      67.846  44.835  24.776  1.00  0.00    -0.351 N 
ATOM     36  H6  UNL     1      68.315  44.335  25.531  1.00  0.00     0.166 HD
BRANCH  32  37
HETATM   37  C8  UNL     1      65.715  45.098  21.888  1.00  0.00     0.138 C 
HETATM   38  N4  UNL     1      65.535  43.947  21.339  1.00  0.00    -0.386 N 
ATOM     39  H42 UNL     1      66.036  43.140  21.711  1.00  0.00     0.157 HD
ATOM     40  H41 UNL     1      64.907  43.816  20.546  1.00  0.00     0.157 HD
HETATM   41  N5  UNL     1      65.012  46.230  21.366  1.00  0.00    -0.081 NA
ENDBRANCH  32  37
ENDBRANCH  12  30
ENDBRANCH   5  12
ENDBRANCH   1   4
TORSDOF 7
ENDMDL
MODEL 5
REMARK VINA RESULT: -7.873496046      1.707      2.826
REMARK  7 active torsions:
REMARK  status: ('A' for Active; 'I' for Inactive)
REMARK    1  A    between atoms: C3_5  and  C4_6 
REMARK       I    between atoms: C4_6  and  N2_8 
REMARK    2  A    between atoms: N2_8  and  C5_10 
REMARK    3  A    between atoms: C5_10  and  C6_11 
REMARK    4  A    between atoms: C5_10  and  C10_23 
REMARK    5  A    between atoms: C7_14  and  C8_15 
REMARK    6  A    between atoms: N9_30  and  C12_31 
REMARK    7  A    between atoms: C14_36  and  N12_37 
ROOT
HETATM    1  C12 UNL     1      70.109  50.268  25.958  1.00  0.00     0.259 C 
HETATM    2  C13 UNL     1      69.938  51.706  25.752  1.00  0.00     0.079 C 
HETATM    3  N10 UNL     1      69.813  52.862  25.581  1.00  0.00    -0.196 NA
ENDROOT
BRANCH   1   4
HETATM    4  N9  UNL     1      69.923  49.548  24.704  1.00  0.00    -0.271 N 
HETATM    5  C10 UNL     1      68.781  49.010  24.243  1.00  0.00     0.135 A 
HETATM    6  N7  UNL     1      69.085  48.449  23.050  1.00  0.00    -0.283 N 
HETATM    7  N8  UNL     1      70.367  48.632  22.781  1.00  0.00    -0.250 N 
ATOM      8  H7  UNL     1      68.425  47.958  22.448  1.00  0.00     0.188 HD
HETATM    9  C11 UNL     1      70.918  49.318  23.800  1.00  0.00     0.343 A 
ATOM     10  H8  UNL     1      70.854  48.309  21.945  1.00  0.00     0.192 HD
HETATM   11  O2  UNL     1      72.127  49.693  23.923  1.00  0.00    -0.245 OA
BRANCH   5  12
HETATM   12  C5  UNL     1      67.453  49.030  24.909  1.00  0.00     0.238 C 
BRANCH  12  13
HETATM   13  N2  UNL     1      66.880  50.366  24.717  1.00  0.00    -0.255 N 
HETATM   14  C4  UNL     1      66.522  51.182  25.801  1.00  0.00     0.300 C 
HETATM   15  O1  UNL     1      66.695  50.760  26.970  1.00  0.00    -0.263 OA
HETATM   16  S1  UNL     1      66.644  50.939  23.073  1.00  0.00     0.049 SA
BRANCH  14  17
HETATM   17  C3  UNL     1      65.960  52.492  25.610  1.00  0.00     0.191 A 
HETATM   18  N1  UNL     1      66.649  53.613  25.829  1.00  0.00    -0.327 N 
HETATM   19  C2  UNL     1      66.184  54.854  25.669  1.00  0.00     0.095 A 
ATOM     20  H1  UNL     1      67.613  53.514  26.146  1.00  0.00     0.169 HD
HETATM   21  C1  UNL     1      67.025  56.059  25.938  1.00  0.00     0.089 C 
HETATM   22  N13 UNL     1      64.907  54.992  25.249  1.00  0.00    -0.181 N 
HETATM   23  C14 UNL     1      64.172  53.892  25.014  1.00  0.00     0.678 A 
ATOM     24  H13 UNL     1      64.506  55.920  25.113  1.00  0.00     0.185 HD
HETATM   25  N11 UNL     1      64.674  52.661  25.186  1.00  0.00    -0.171 N 
ATOM     26  H11 UNL     1      64.090  51.846  24.999  1.00  0.00     0.186 HD
BRANCH  23  27
HETATM   27  N12 UNL     1      62.951  53.998  24.613  1.00  0.00    -0.234 N 
ATOM     28 2H12 UNL     1      62.328  53.190  24.636  1.00  0.00     0.174 HD
ATOM     29 1H12 UNL     1      62.634  54.907  24.276  1.00  0.00     0.174 HD
ENDBRANCH  23  27
ENDBRANCH  14  17
ENDBRANCH  12  13
BRANCH  12  30
HETATM   30  C6  UNL     1      66.574  47.989  24.331  1.00  0.00     0.114 A 
HETATM   31  N3  UNL     1      66.700  47.376  23.116  1.00  0.00    -0.340 N 
HETATM   32  C7  UNL     1      65.673  46.491  23.004  1.00  0.00     0.090 A 
ATOM     33  H3  UNL     1      67.428  47.550  22.423  1.00  0.00     0.167 HD
HETATM   34  C9  UNL     1      64.918  46.561  24.150  1.00  0.00     0.122 A 
HETATM   35  N6  UNL     1      65.483  47.480  24.949  1.00  0.00    -0.351 N 
ATOM     36  H6  UNL     1      65.144  47.751  25.872  1.00  0.00     0.166 HD
BRANCH  32  37
HETATM   37  C8  UNL     1      65.393  45.607  21.877  1.00  0.00     0.138 C 
HETATM   38  N4  UNL     1      65.784  44.381  21.855  1.00  0.00    -0.386 N 
ATOM     39  H42 UNL     1      66.306  44.015  22.652  1.00  0.00     0.157 HD
ATOM     40  H41 UNL     1      65.588  43.763  21.067  1.00  0.00     0.157 HD
HETATM   41  N5  UNL     1      64.662  46.121  20.760  1.00  0.00    -0.081 NA
ENDBRANCH  32  37
ENDBRANCH  12  30
ENDBRANCH   5  12
ENDBRANCH   1   4
TORSDOF 7
ENDMDL
