MODEL 1
REMARK VINA RESULT: -8.458394013      0.000      0.000
REMARK  5 active torsions:
REMARK  status: ('A' for Active; 'I' for Inactive)
REMARK    1  A    between atoms: N1_2  and  C3_4 
REMARK    2  A    between atoms: C4_7  and  N3_8 
REMARK    3  A    between atoms: N3_8  and  N4_10 
REMARK    4  A    between atoms: N4_10  and  C5_12 
REMARK    5  A    between atoms: C8_15  and  N5_16 
ROOT
HETATM    1  C3  UNL     1      -2.830   6.127  11.430  1.00  0.00     0.704 A 
HETATM    2  N2  UNL     1      -1.725   6.095  12.069  1.00  0.00    -0.182 N 
ATOM      3  H2  UNL     1      -1.203   6.912  12.384  1.00  0.00     0.182 HD
HETATM    4  C4  UNL     1      -1.325   4.708  12.281  1.00  0.00     0.347 A 
HETATM    5  N7  UNL     1      -2.341   3.938  11.620  1.00  0.00    -0.183 N 
HETATM    6  C9  UNL     1      -2.538   2.625  11.422  1.00  0.00     0.334 A 
HETATM    7  O3  UNL     1      -1.745   1.739  11.835  1.00  0.00    -0.260 OA
HETATM    8  C10 UNL     1      -3.655   2.153  10.728  1.00  0.00     0.319 A 
HETATM    9  O4  UNL     1      -3.816   0.919  10.557  1.00  0.00    -0.262 OA
HETATM   10  N8  UNL     1      -4.554   3.028  10.247  1.00  0.00    -0.269 N 
ATOM     11  H8  UNL     1      -5.382   2.720   9.737  1.00  0.00     0.174 HD
HETATM   12  C11 UNL     1      -4.306   4.322  10.474  1.00  0.00     0.363 A 
HETATM   13  O5  UNL     1      -5.146   5.145  10.024  1.00  0.00    -0.244 OA
HETATM   14  N9  UNL     1      -3.229   4.790  11.143  1.00  0.00    -0.023 N 
ENDROOT
BRANCH   4  15
HETATM   15  N3  UNL     1      -1.363   4.521  13.700  1.00  0.00    -0.292 N 
ATOM     16  H3  UNL     1      -0.590   4.067  14.185  1.00  0.00     0.184 HD
BRANCH  15  17
HETATM   17  N4  UNL     1      -2.450   4.961  14.387  1.00  0.00    -0.287 N 
ATOM     18  H4  UNL     1      -2.547   5.961  14.563  1.00  0.00     0.188 HD
BRANCH  17  19
HETATM   19  C5  UNL     1      -3.472   4.071  14.875  1.00  0.00     0.121 A 
HETATM   20  C6  UNL     1      -4.831   4.352  14.911  1.00  0.00     0.054 A 
HETATM   21  C7  UNL     1      -5.507   3.271  15.440  1.00  0.00     0.059 A 
HETATM   22  C8  UNL     1      -4.523   2.331  15.723  1.00  0.00     0.175 A 
HETATM   23  N6  UNL     1      -3.342   2.849  15.373  1.00  0.00    -0.323 N 
ATOM     24  H6  UNL     1      -2.451   2.364  15.476  1.00  0.00     0.169 HD
BRANCH  22  25
HETATM   25  N5  UNL     1      -4.738   1.064  16.278  1.00  0.00    -0.098 N 
HETATM   26  O1  UNL     1      -4.916   0.881  17.505  1.00  0.00    -0.531 OA
HETATM   27  O2  UNL     1      -4.759  -0.044  15.485  1.00  0.00    -0.531 OA
ENDBRANCH  22  25
ENDBRANCH  17  19
ENDBRANCH  15  17
ENDBRANCH   4  15
BRANCH   1  28
HETATM   28  N1  UNL     1      -3.565   7.301  11.023  1.00  0.00    -0.225 N 
HETATM   29  C1  UNL     1      -3.278   7.932   9.769  1.00  0.00     0.168 C 
HETATM   30  C2  UNL     1      -4.572   7.803  11.900  1.00  0.00     0.168 C 
ENDBRANCH   1  28
TORSDOF 5
ENDMDL
MODEL 2
REMARK VINA RESULT: -8.026726230      1.476      1.865
REMARK  5 active torsions:
REMARK  status: ('A' for Active; 'I' for Inactive)
REMARK    1  A    between atoms: N1_2  and  C3_4 
REMARK    2  A    between atoms: C4_7  and  N3_8 
REMARK    3  A    between atoms: N3_8  and  N4_10 
REMARK    4  A    between atoms: N4_10  and  C5_12 
REMARK    5  A    between atoms: C8_15  and  N5_16 
ROOT
HETATM    1  C3  UNL     1      -4.278   6.646  12.409  1.00  0.00     0.704 A 
HETATM    2  N2  UNL     1      -3.510   7.050  13.346  1.00  0.00    -0.182 N 
ATOM      3  H2  UNL     1      -3.706   7.830  13.972  1.00  0.00     0.182 HD
HETATM    4  C4  UNL     1      -2.309   6.221  13.383  1.00  0.00     0.347 A 
HETATM    5  N7  UNL     1      -2.473   5.306  12.287  1.00  0.00    -0.183 N 
HETATM    6  C9  UNL     1      -1.718   4.325  11.770  1.00  0.00     0.334 A 
HETATM    7  O3  UNL     1      -0.585   4.015  12.223  1.00  0.00    -0.260 OA
HETATM    8  C10 UNL     1      -2.151   3.574  10.675  1.00  0.00     0.319 A 
HETATM    9  O4  UNL     1      -1.426   2.659  10.210  1.00  0.00    -0.262 OA
HETATM   10  N8  UNL     1      -3.348   3.836  10.124  1.00  0.00    -0.269 N 
ATOM     11  H8  UNL     1      -3.698   3.309   9.324  1.00  0.00     0.174 HD
HETATM   12  C11 UNL     1      -4.055   4.825  10.680  1.00  0.00     0.363 A 
HETATM   13  O5  UNL     1      -5.178   5.075  10.167  1.00  0.00    -0.244 OA
HETATM   14  N9  UNL     1      -3.646   5.558  11.739  1.00  0.00    -0.023 N 
ENDROOT
BRANCH   4  15
HETATM   15  N3  UNL     1      -2.360   5.547  14.644  1.00  0.00    -0.292 N 
ATOM     16  H3  UNL     1      -2.224   6.061  15.514  1.00  0.00     0.184 HD
BRANCH  15  17
HETATM   17  N4  UNL     1      -2.593   4.208  14.659  1.00  0.00    -0.287 N 
ATOM     18  H4  UNL     1      -1.880   3.582  14.285  1.00  0.00     0.188 HD
BRANCH  17  19
HETATM   19  C5  UNL     1      -3.807   3.638  15.184  1.00  0.00     0.121 A 
HETATM   20  C6  UNL     1      -5.075   4.183  15.044  1.00  0.00     0.054 A 
HETATM   21  C7  UNL     1      -5.995   3.367  15.672  1.00  0.00     0.059 A 
HETATM   22  C8  UNL     1      -5.251   2.316  16.195  1.00  0.00     0.175 A 
HETATM   23  N6  UNL     1      -3.968   2.521  15.880  1.00  0.00    -0.323 N 
ATOM     24  H6  UNL     1      -3.207   1.895  16.144  1.00  0.00     0.169 HD
BRANCH  22  25
HETATM   25  N5  UNL     1      -5.761   1.235  16.921  1.00  0.00    -0.098 N 
HETATM   26  O1  UNL     1      -5.083   0.601  17.763  1.00  0.00    -0.531 OA
HETATM   27  O2  UNL     1      -7.046   0.820  16.734  1.00  0.00    -0.531 OA
ENDBRANCH  22  25
ENDBRANCH  17  19
ENDBRANCH  15  17
ENDBRANCH   4  15
BRANCH   1  28
HETATM   28  N1  UNL     1      -5.561   7.193  12.041  1.00  0.00    -0.225 N 
HETATM   29  C1  UNL     1      -6.760   6.679  12.634  1.00  0.00     0.168 C 
HETATM   30  C2  UNL     1      -5.594   8.248  11.082  1.00  0.00     0.168 C 
ENDBRANCH   1  28
TORSDOF 5
ENDMDL
MODEL 3
REMARK VINA RESULT: -8.015717567      2.002      3.136
REMARK  5 active torsions:
REMARK  status: ('A' for Active; 'I' for Inactive)
REMARK    1  A    between atoms: N1_2  and  C3_4 
REMARK    2  A    between atoms: C4_7  and  N3_8 
REMARK    3  A    between atoms: N3_8  and  N4_10 
REMARK    4  A    between atoms: N4_10  and  C5_12 
REMARK    5  A    between atoms: C8_15  and  N5_16 
ROOT
HETATM    1  C3  UNL     1      -0.571   4.564  11.179  1.00  0.00     0.704 A 
HETATM    2  N2  UNL     1      -0.836   3.948  12.265  1.00  0.00    -0.182 N 
ATOM      3  H2  UNL     1      -0.146   3.517  12.881  1.00  0.00     0.182 HD
HETATM    4  C4  UNL     1      -2.277   3.956  12.491  1.00  0.00     0.347 A 
HETATM    5  N7  UNL     1      -2.815   4.626  11.340  1.00  0.00    -0.183 N 
HETATM    6  C9  UNL     1      -4.057   4.924  10.929  1.00  0.00     0.334 A 
HETATM    7  O3  UNL     1      -5.091   4.611  11.575  1.00  0.00    -0.260 OA
HETATM    8  C10 UNL     1      -4.283   5.612   9.734  1.00  0.00     0.319 A 
HETATM    9  O4  UNL     1      -5.456   5.880   9.372  1.00  0.00    -0.262 OA
HETATM   10  N8  UNL     1      -3.238   5.985   8.977  1.00  0.00    -0.269 N 
ATOM     11  H8  UNL     1      -3.363   6.489   8.099  1.00  0.00     0.174 HD
HETATM   12  C11 UNL     1      -2.024   5.660   9.436  1.00  0.00     0.363 A 
HETATM   13  O5  UNL     1      -1.041   6.007   8.729  1.00  0.00    -0.244 OA
HETATM   14  N9  UNL     1      -1.794   4.995  10.589  1.00  0.00    -0.023 N 
ENDROOT
BRANCH   4  15
HETATM   15  N3  UNL     1      -2.464   4.725  13.683  1.00  0.00    -0.292 N 
ATOM     16  H3  UNL     1      -2.505   5.744  13.643  1.00  0.00     0.184 HD
BRANCH  15  17
HETATM   17  N4  UNL     1      -2.585   4.072  14.869  1.00  0.00    -0.287 N 
ATOM     18  H4  UNL     1      -1.758   3.965  15.456  1.00  0.00     0.188 HD
BRANCH  17  19
HETATM   19  C5  UNL     1      -3.835   3.525  15.330  1.00  0.00     0.121 A 
HETATM   20  C6  UNL     1      -5.088   4.069  15.083  1.00  0.00     0.054 A 
HETATM   21  C7  UNL     1      -6.054   3.280  15.677  1.00  0.00     0.059 A 
HETATM   22  C8  UNL     1      -5.352   2.247  16.287  1.00  0.00     0.175 A 
HETATM   23  N6  UNL     1      -4.050   2.436  16.054  1.00  0.00    -0.323 N 
ATOM     24  H6  UNL     1      -3.312   1.818  16.393  1.00  0.00     0.169 HD
BRANCH  22  25
HETATM   25  N5  UNL     1      -5.917   1.194  17.017  1.00  0.00    -0.098 N 
HETATM   26  O1  UNL     1      -5.290   0.567  17.901  1.00  0.00    -0.531 OA
HETATM   27  O2  UNL     1      -7.202   0.803  16.784  1.00  0.00    -0.531 OA
ENDBRANCH  22  25
ENDBRANCH  17  19
ENDBRANCH  15  17
ENDBRANCH   4  15
BRANCH   1  28
HETATM   28  N1  UNL     1       0.733   4.782  10.599  1.00  0.00    -0.225 N 
HETATM   29  C1  UNL     1       1.255   3.860   9.635  1.00  0.00     0.168 C 
HETATM   30  C2  UNL     1       1.471   5.930  11.013  1.00  0.00     0.168 C 
ENDBRANCH   1  28
TORSDOF 5
ENDMDL
MODEL 4
REMARK VINA RESULT: -8.008500973      1.972      2.513
REMARK  5 active torsions:
REMARK  status: ('A' for Active; 'I' for Inactive)
REMARK    1  A    between atoms: N1_2  and  C3_4 
REMARK    2  A    between atoms: C4_7  and  N3_8 
REMARK    3  A    between atoms: N3_8  and  N4_10 
REMARK    4  A    between atoms: N4_10  and  C5_12 
REMARK    5  A    between atoms: C8_15  and  N5_16 
ROOT
HETATM    1  C3  UNL     1      -4.809   6.654  10.918  1.00  0.00     0.704 A 
HETATM    2  N2  UNL     1      -5.197   6.990  12.086  1.00  0.00    -0.182 N 
ATOM      3  H2  UNL     1      -5.745   7.821  12.308  1.00  0.00     0.182 HD
HETATM    4  C4  UNL     1      -4.737   6.001  13.056  1.00  0.00     0.347 A 
HETATM    5  N7  UNL     1      -3.974   5.066  12.277  1.00  0.00    -0.183 N 
HETATM    6  C9  UNL     1      -3.270   3.961  12.571  1.00  0.00     0.334 A 
HETATM    7  O3  UNL     1      -3.143   3.516  13.741  1.00  0.00    -0.260 OA
HETATM    8  C10 UNL     1      -2.622   3.226  11.576  1.00  0.00     0.319 A 
HETATM    9  O4  UNL     1      -1.969   2.195  11.877  1.00  0.00    -0.262 OA
HETATM   10  N8  UNL     1      -2.700   3.629  10.297  1.00  0.00    -0.269 N 
ATOM     11  H8  UNL     1      -2.240   3.118   9.543  1.00  0.00     0.174 HD
HETATM   12  C11 UNL     1      -3.414   4.736  10.064  1.00  0.00     0.363 A 
HETATM   13  O5  UNL     1      -3.490   5.118   8.866  1.00  0.00    -0.244 OA
HETATM   14  N9  UNL     1      -4.045   5.455  11.018  1.00  0.00    -0.023 N 
ENDROOT
BRANCH   4  15
HETATM   15  N3  UNL     1      -5.929   5.405  13.576  1.00  0.00    -0.292 N 
ATOM     16  H3  UNL     1      -6.620   4.992  12.949  1.00  0.00     0.184 HD
BRANCH  15  17
HETATM   17  N4  UNL     1      -6.124   5.401  14.921  1.00  0.00    -0.287 N 
ATOM     18  H4  UNL     1      -6.287   6.289  15.395  1.00  0.00     0.188 HD
BRANCH  17  19
HETATM   19  C5  UNL     1      -6.110   4.192  15.703  1.00  0.00     0.121 A 
HETATM   20  C6  UNL     1      -6.963   3.911  16.761  1.00  0.00     0.054 A 
HETATM   21  C7  UNL     1      -6.661   2.664  17.273  1.00  0.00     0.059 A 
HETATM   22  C8  UNL     1      -5.604   2.201  16.498  1.00  0.00     0.175 A 
HETATM   23  N6  UNL     1      -5.317   3.136  15.588  1.00  0.00    -0.323 N 
ATOM     24  H6  UNL     1      -4.578   3.048  14.890  1.00  0.00     0.169 HD
BRANCH  22  25
HETATM   25  N5  UNL     1      -4.959   0.968  16.649  1.00  0.00    -0.098 N 
HETATM   26  O1  UNL     1      -3.746   0.799  16.385  1.00  0.00    -0.531 OA
HETATM   27  O2  UNL     1      -5.644  -0.121  17.098  1.00  0.00    -0.531 OA
ENDBRANCH  22  25
ENDBRANCH  17  19
ENDBRANCH  15  17
ENDBRANCH   4  15
BRANCH   1  28
HETATM   28  N1  UNL     1      -5.056   7.360   9.683  1.00  0.00    -0.225 N 
HETATM   29  C1  UNL     1      -6.199   7.034   8.883  1.00  0.00     0.168 C 
HETATM   30  C2  UNL     1      -4.137   8.379   9.294  1.00  0.00     0.168 C 
ENDBRANCH   1  28
TORSDOF 5
ENDMDL
MODEL 5
REMARK VINA RESULT: -7.939084095      2.090      3.941
REMARK  5 active torsions:
REMARK  status: ('A' for Active; 'I' for Inactive)
REMARK    1  A    between atoms: N1_2  and  C3_4 
REMARK    2  A    between atoms: C4_7  and  N3_8 
REMARK    3  A    between atoms: N3_8  and  N4_10 
REMARK    4  A    between atoms: N4_10  and  C5_12 
REMARK    5  A    between atoms: C8_15  and  N5_16 
ROOT
HETATM    1  C3  UNL     1      -4.151   2.864  11.988  1.00  0.00     0.704 A 
HETATM    2  N2  UNL     1      -5.051   3.744  12.201  1.00  0.00    -0.182 N 
ATOM      3  H2  UNL     1      -6.054   3.565  12.230  1.00  0.00     0.182 HD
HETATM    4  C4  UNL     1      -4.422   5.047  12.398  1.00  0.00     0.347 A 
HETATM    5  N7  UNL     1      -3.019   4.797  12.213  1.00  0.00    -0.183 N 
HETATM    6  C9  UNL     1      -1.923   5.572  12.229  1.00  0.00     0.334 A 
HETATM    7  O3  UNL     1      -1.960   6.814  12.427  1.00  0.00    -0.260 OA
HETATM    8  C10 UNL     1      -0.651   5.036  12.020  1.00  0.00     0.319 A 
HETATM    9  O4  UNL     1       0.360   5.782  12.040  1.00  0.00    -0.262 OA
HETATM   10  N8  UNL     1      -0.516   3.718  11.798  1.00  0.00    -0.269 N 
ATOM     11  H8  UNL     1       0.398   3.290  11.642  1.00  0.00     0.174 HD
HETATM   12  C11 UNL     1      -1.641   2.996  11.792  1.00  0.00     0.363 A 
HETATM   13  O5  UNL     1      -1.519   1.760  11.584  1.00  0.00    -0.244 OA
HETATM   14  N9  UNL     1      -2.877   3.504  11.993  1.00  0.00    -0.023 N 
ENDROOT
BRANCH   4  15
HETATM   15  N3  UNL     1      -4.719   5.403  13.752  1.00  0.00    -0.292 N 
ATOM     16  H3  UNL     1      -4.057   5.949  14.303  1.00  0.00     0.184 HD
BRANCH  15  17
HETATM   17  N4  UNL     1      -5.902   5.000  14.288  1.00  0.00    -0.287 N 
ATOM     18  H4  UNL     1      -6.762   5.446  13.968  1.00  0.00     0.188 HD
BRANCH  17  19
HETATM   19  C5  UNL     1      -5.988   3.969  15.290  1.00  0.00     0.121 A 
HETATM   20  C6  UNL     1      -6.806   4.007  16.411  1.00  0.00     0.054 A 
HETATM   21  C7  UNL     1      -6.627   2.851  17.146  1.00  0.00     0.059 A 
HETATM   22  C8  UNL     1      -5.681   2.116  16.441  1.00  0.00     0.175 A 
HETATM   23  N6  UNL     1      -5.336   2.817  15.356  1.00  0.00    -0.323 N 
ATOM     24  H6  UNL     1      -4.655   2.503  14.664  1.00  0.00     0.169 HD
BRANCH  22  25
HETATM   25  N5  UNL     1      -5.181   0.861  16.807  1.00  0.00    -0.098 N 
HETATM   26  O1  UNL     1      -5.838   0.042  17.491  1.00  0.00    -0.531 OA
HETATM   27  O2  UNL     1      -3.931   0.476  16.427  1.00  0.00    -0.531 OA
ENDBRANCH  22  25
ENDBRANCH  17  19
ENDBRANCH  15  17
ENDBRANCH   4  15
BRANCH   1  28
HETATM   28  N1  UNL     1      -4.353   1.456  11.748  1.00  0.00    -0.225 N 
HETATM   29  C1  UNL     1      -4.640   0.984  10.426  1.00  0.00     0.168 C 
HETATM   30  C2  UNL     1      -4.256   0.563  12.856  1.00  0.00     0.168 C 
ENDBRANCH   1  28
TORSDOF 5
ENDMDL
