MODEL 1
REMARK VINA RESULT: -7.089217693      0.000      0.000
REMARK  6 active torsions:
REMARK  status: ('A' for Active; 'I' for Inactive)
REMARK    1  A    between atoms: O1_2  and  C2_3 
REMARK    2  A    between atoms: C5_6  and  C6_7 
REMARK    3  A    between atoms: C6_7  and  N1_9 
REMARK    4  A    between atoms: C6_7  and  C9_13 
REMARK    5  A    between atoms: C12_16  and  C13_17 
REMARK    6  A    between atoms: C17_26  and  O3_27 
ROOT
HETATM    1  N1  UNL     1      -3.101   4.184   4.623  1.00  0.00    -0.309 N 
ATOM      2  H1  UNL     1      -3.395   3.400   5.206  1.00  0.00     0.173 HD
HETATM    3  C8  UNL     1      -4.017   4.735   3.700  1.00  0.00     0.178 C 
HETATM    4  N2  UNL     1      -4.756   5.185   2.929  1.00  0.00    -0.172 NA
ENDROOT
BRANCH   1   5
HETATM    5  C6  UNL     1      -1.756   4.700   4.764  1.00  0.00     0.112 C 
HETATM    6  C7  UNL     1      -1.867   6.155   5.156  1.00  0.00     0.052 C 
BRANCH   5   7
HETATM    7  C5  UNL     1      -1.058   4.639   3.450  1.00  0.00    -0.021 A 
HETATM    8  C4  UNL     1      -0.877   3.427   2.825  1.00  0.00     0.013 A 
HETATM    9  C3  UNL     1      -0.221   3.381   1.629  1.00  0.00     0.040 A 
HETATM   10  C2  UNL     1       0.256   4.527   1.052  1.00  0.00     0.101 A 
HETATM   11  C17 UNL     1       0.105   5.770   1.633  1.00  0.00     0.102 A 
HETATM   12  C16 UNL     1      -0.572   5.774   2.857  1.00  0.00     0.049 A 
BRANCH  10  13
HETATM   13  O1  UNL     1       0.934   4.526  -0.172  1.00  0.00    -0.353 OA
HETATM   14  C1  UNL     1       2.110   3.808  -0.405  1.00  0.00     0.210 C 
ENDBRANCH  10  13
BRANCH  11  15
HETATM   15  O3  UNL     1       0.595   6.922   1.034  1.00  0.00    -0.353 OA
HETATM   16  C18 UNL     1       0.092   8.155   1.515  1.00  0.00     0.210 C 
ENDBRANCH  11  15
ENDBRANCH   5   7
BRANCH   5  17
HETATM   17  C9  UNL     1      -1.091   3.866   5.802  1.00  0.00     0.087 A 
HETATM   18  C10 UNL     1      -1.729   3.026   6.687  1.00  0.00     0.038 A 
HETATM   19  C11 UNL     1      -0.712   2.478   7.441  1.00  0.00     0.041 A 
HETATM   20  C12 UNL     1       0.487   3.005   6.984  1.00  0.00     0.088 A 
HETATM   21  O2  UNL     1       0.190   3.825   6.007  1.00  0.00    -0.311 OA
BRANCH  20  22
HETATM   22  C13 UNL     1       1.803   2.689   7.509  1.00  0.00     0.032 A 
HETATM   23  C14 UNL     1       2.386   1.456   7.677  1.00  0.00     0.122 A 
HETATM   24  N3  UNL     1       3.621   1.655   8.200  1.00  0.00    -0.311 N 
HETATM   25  N4  UNL     1       3.847   2.926   8.367  1.00  0.00    -0.311 N 
ATOM     26  H3  UNL     1       4.281   0.913   8.430  1.00  0.00     0.186 HD
HETATM   27  C15 UNL     1       2.743   3.595   7.950  1.00  0.00     0.122 A 
ATOM     28  H4  UNL     1       4.698   3.342   8.744  1.00  0.00     0.186 HD
ENDBRANCH  20  22
ENDBRANCH   5  17
ENDBRANCH   1   5
TORSDOF 6
ENDMDL
MODEL 2
REMARK VINA RESULT: -6.851044156      3.294      5.774
REMARK  6 active torsions:
REMARK  status: ('A' for Active; 'I' for Inactive)
REMARK    1  A    between atoms: O1_2  and  C2_3 
REMARK    2  A    between atoms: C5_6  and  C6_7 
REMARK    3  A    between atoms: C6_7  and  N1_9 
REMARK    4  A    between atoms: C6_7  and  C9_13 
REMARK    5  A    between atoms: C12_16  and  C13_17 
REMARK    6  A    between atoms: C17_26  and  O3_27 
ROOT
HETATM    1  N1  UNL     1      -0.518   3.595   3.543  1.00  0.00    -0.309 N 
ATOM      2  H1  UNL     1      -0.251   2.639   3.778  1.00  0.00     0.173 HD
HETATM    3  C8  UNL     1      -0.736   3.936   2.190  1.00  0.00     0.178 C 
HETATM    4  N2  UNL     1      -0.902   4.230   1.081  1.00  0.00    -0.172 NA
ENDROOT
BRANCH   1   5
HETATM    5  C6  UNL     1      -0.665   4.566   4.608  1.00  0.00     0.112 C 
HETATM    6  C7  UNL     1      -0.682   5.937   3.972  1.00  0.00     0.052 C 
BRANCH   5   7
HETATM    7  C5  UNL     1       0.518   4.502   5.509  1.00  0.00    -0.021 A 
HETATM    8  C4  UNL     1       1.524   5.433   5.388  1.00  0.00     0.013 A 
HETATM    9  C3  UNL     1       2.612   5.355   6.207  1.00  0.00     0.040 A 
HETATM   10  C2  UNL     1       2.709   4.360   7.143  1.00  0.00     0.101 A 
HETATM   11  C17 UNL     1       1.733   3.398   7.309  1.00  0.00     0.102 A 
HETATM   12  C16 UNL     1       0.635   3.514   6.450  1.00  0.00     0.049 A 
BRANCH  10  13
HETATM   13  O1  UNL     1       3.806   4.242   8.003  1.00  0.00    -0.353 OA
HETATM   14  C1  UNL     1       5.089   4.699   7.690  1.00  0.00     0.210 C 
ENDBRANCH  10  13
BRANCH  11  15
HETATM   15  O3  UNL     1       1.847   2.397   8.263  1.00  0.00    -0.353 OA
HETATM   16  C18 UNL     1       2.318   1.140   7.815  1.00  0.00     0.210 C 
ENDBRANCH  11  15
ENDBRANCH   5   7
BRANCH   5  17
HETATM   17  C9  UNL     1      -1.935   4.233   5.309  1.00  0.00     0.087 A 
HETATM   18  C10 UNL     1      -3.201   4.564   4.880  1.00  0.00     0.038 A 
HETATM   19  C11 UNL     1      -4.041   4.049   5.845  1.00  0.00     0.041 A 
HETATM   20  C12 UNL     1      -3.256   3.434   6.808  1.00  0.00     0.088 A 
HETATM   21  O2  UNL     1      -2.010   3.580   6.428  1.00  0.00    -0.311 OA
BRANCH  20  22
HETATM   22  C13 UNL     1      -3.747   2.765   7.999  1.00  0.00     0.032 A 
HETATM   23  C14 UNL     1      -4.877   3.041   8.733  1.00  0.00     0.122 A 
HETATM   24  N3  UNL     1      -4.924   2.155   9.758  1.00  0.00    -0.311 N 
HETATM   25  N4  UNL     1      -3.905   1.347   9.712  1.00  0.00    -0.311 N 
ATOM     26  H3  UNL     1      -5.657   2.125  10.466  1.00  0.00     0.186 HD
HETATM   27  C15 UNL     1      -3.156   1.697   8.636  1.00  0.00     0.122 A 
ATOM     28  H4  UNL     1      -3.705   0.591  10.366  1.00  0.00     0.186 HD
ENDBRANCH  20  22
ENDBRANCH   5  17
ENDBRANCH   1   5
TORSDOF 6
ENDMDL
MODEL 3
REMARK VINA RESULT: -6.722138742      2.787      4.555
REMARK  6 active torsions:
REMARK  status: ('A' for Active; 'I' for Inactive)
REMARK    1  A    between atoms: O1_2  and  C2_3 
REMARK    2  A    between atoms: C5_6  and  C6_7 
REMARK    3  A    between atoms: C6_7  and  N1_9 
REMARK    4  A    between atoms: C6_7  and  C9_13 
REMARK    5  A    between atoms: C12_16  and  C13_17 
REMARK    6  A    between atoms: C17_26  and  O3_27 
ROOT
HETATM    1  N1  UNL     1      -0.482   4.944   3.447  1.00  0.00    -0.309 N 
ATOM      2  H1  UNL     1       0.088   5.709   3.086  1.00  0.00     0.173 HD
HETATM    3  C8  UNL     1      -0.478   3.704   2.769  1.00  0.00     0.178 C 
HETATM    4  N2  UNL     1      -0.494   2.689   2.212  1.00  0.00    -0.172 NA
ENDROOT
BRANCH   1   5
HETATM    5  C6  UNL     1      -1.273   5.157   4.641  1.00  0.00     0.112 C 
HETATM    6  C7  UNL     1      -2.720   4.928   4.274  1.00  0.00     0.052 C 
BRANCH   5   7
HETATM    7  C5  UNL     1      -1.138   6.573   5.082  1.00  0.00    -0.021 A 
HETATM    8  C4  UNL     1       0.039   7.251   4.864  1.00  0.00     0.013 A 
HETATM    9  C3  UNL     1       0.158   8.542   5.287  1.00  0.00     0.040 A 
HETATM   10  C2  UNL     1      -0.882   9.164   5.924  1.00  0.00     0.101 A 
HETATM   11  C17 UNL     1      -2.086   8.535   6.171  1.00  0.00     0.102 A 
HETATM   12  C16 UNL     1      -2.166   7.213   5.722  1.00  0.00     0.049 A 
BRANCH  10  13
HETATM   13  O1  UNL     1      -0.804  10.487   6.374  1.00  0.00    -0.353 OA
HETATM   14  C1  UNL     1      -0.044  10.886   7.477  1.00  0.00     0.210 C 
ENDBRANCH  10  13
BRANCH  11  15
HETATM   15  O3  UNL     1      -3.130   9.181   6.818  1.00  0.00    -0.353 OA
HETATM   16  C18 UNL     1      -3.339   8.851   8.178  1.00  0.00     0.210 C 
ENDBRANCH  11  15
ENDBRANCH   5   7
BRANCH   5  17
HETATM   17  C9  UNL     1      -0.770   4.193   5.657  1.00  0.00     0.087 A 
HETATM   18  C10 UNL     1      -1.547   3.358   6.428  1.00  0.00     0.038 A 
HETATM   19  C11 UNL     1      -0.646   2.664   7.207  1.00  0.00     0.041 A 
HETATM   20  C12 UNL     1       0.627   3.104   6.879  1.00  0.00     0.088 A 
HETATM   21  O2  UNL     1       0.483   4.016   5.949  1.00  0.00    -0.311 OA
BRANCH  20  22
HETATM   22  C13 UNL     1       1.865   2.629   7.470  1.00  0.00     0.032 A 
HETATM   23  C14 UNL     1       2.329   1.338   7.565  1.00  0.00     0.122 A 
HETATM   24  N3  UNL     1       3.528   1.381   8.197  1.00  0.00    -0.311 N 
HETATM   25  N4  UNL     1       3.842   2.607   8.500  1.00  0.00    -0.311 N 
ATOM     26  H3  UNL     1       4.104   0.565   8.405  1.00  0.00     0.186 HD
HETATM   27  C15 UNL     1       2.835   3.405   8.065  1.00  0.00     0.122 A 
ATOM     28  H4  UNL     1       4.690   2.912   8.978  1.00  0.00     0.186 HD
ENDBRANCH  20  22
ENDBRANCH   5  17
ENDBRANCH   1   5
TORSDOF 6
ENDMDL
MODEL 4
REMARK VINA RESULT: -6.581065854      2.580      4.399
REMARK  6 active torsions:
REMARK  status: ('A' for Active; 'I' for Inactive)
REMARK    1  A    between atoms: O1_2  and  C2_3 
REMARK    2  A    between atoms: C5_6  and  C6_7 
REMARK    3  A    between atoms: C6_7  and  N1_9 
REMARK    4  A    between atoms: C6_7  and  C9_13 
REMARK    5  A    between atoms: C12_16  and  C13_17 
REMARK    6  A    between atoms: C17_26  and  O3_27 
ROOT
HETATM    1  N1  UNL     1      -0.697   4.827   3.614  1.00  0.00    -0.309 N 
ATOM      2  H1  UNL     1      -0.155   5.661   3.387  1.00  0.00     0.173 HD
HETATM    3  C8  UNL     1      -0.554   3.675   2.809  1.00  0.00     0.178 C 
HETATM    4  N2  UNL     1      -0.456   2.730   2.146  1.00  0.00    -0.172 NA
ENDROOT
BRANCH   1   5
HETATM    5  C6  UNL     1      -1.590   4.856   4.753  1.00  0.00     0.112 C 
HETATM    6  C7  UNL     1      -2.943   4.378   4.281  1.00  0.00     0.052 C 
BRANCH   5   7
HETATM    7  C5  UNL     1      -1.747   6.258   5.229  1.00  0.00    -0.021 A 
HETATM    8  C4  UNL     1      -2.840   6.607   5.987  1.00  0.00     0.013 A 
HETATM    9  C3  UNL     1      -2.983   7.898   6.403  1.00  0.00     0.040 A 
HETATM   10  C2  UNL     1      -2.051   8.843   6.071  1.00  0.00     0.101 A 
HETATM   11  C17 UNL     1      -0.935   8.553   5.312  1.00  0.00     0.102 A 
HETATM   12  C16 UNL     1      -0.826   7.219   4.906  1.00  0.00     0.049 A 
BRANCH  10  13
HETATM   13  O1  UNL     1      -2.157  10.179   6.476  1.00  0.00    -0.353 OA
HETATM   14  C1  UNL     1      -1.964  10.607   7.792  1.00  0.00     0.210 C 
ENDBRANCH  10  13
BRANCH  11  15
HETATM   15  O3  UNL     1       0.001   9.524   4.985  1.00  0.00    -0.353 OA
HETATM   16  C18 UNL     1       1.133   9.628   5.827  1.00  0.00     0.210 C 
ENDBRANCH  11  15
ENDBRANCH   5   7
BRANCH   5  17
HETATM   17  C9  UNL     1      -0.986   3.968   5.784  1.00  0.00     0.087 A 
HETATM   18  C10 UNL     1      -1.678   3.127   6.627  1.00  0.00     0.038 A 
HETATM   19  C11 UNL     1      -0.703   2.521   7.391  1.00  0.00     0.041 A 
HETATM   20  C12 UNL     1       0.526   3.015   6.982  1.00  0.00     0.088 A 
HETATM   21  O2  UNL     1       0.287   3.873   6.022  1.00  0.00    -0.311 OA
BRANCH  20  22
HETATM   22  C13 UNL     1       1.815   2.635   7.531  1.00  0.00     0.032 A 
HETATM   23  C14 UNL     1       2.781   3.440   8.087  1.00  0.00     0.122 A 
HETATM   24  N3  UNL     1       3.812   2.643   8.460  1.00  0.00    -0.311 N 
HETATM   25  N4  UNL     1       3.555   1.400   8.177  1.00  0.00    -0.311 N 
ATOM     26  H3  UNL     1       4.670   2.973   8.902  1.00  0.00     0.186 HD
HETATM   27  C15 UNL     1       2.328   1.358   7.601  1.00  0.00     0.122 A 
ATOM     28  H4  UNL     1       4.166   0.602   8.355  1.00  0.00     0.186 HD
ENDBRANCH  20  22
ENDBRANCH   5  17
ENDBRANCH   1   5
TORSDOF 6
ENDMDL
MODEL 5
REMARK VINA RESULT: -6.574911484      3.192      6.383
REMARK  6 active torsions:
REMARK  status: ('A' for Active; 'I' for Inactive)
REMARK    1  A    between atoms: O1_2  and  C2_3 
REMARK    2  A    between atoms: C5_6  and  C6_7 
REMARK    3  A    between atoms: C6_7  and  N1_9 
REMARK    4  A    between atoms: C6_7  and  C9_13 
REMARK    5  A    between atoms: C12_16  and  C13_17 
REMARK    6  A    between atoms: C17_26  and  O3_27 
ROOT
HETATM    1  N1  UNL     1      -0.150   3.713   3.788  1.00  0.00    -0.309 N 
ATOM      2  H1  UNL     1       0.242   2.781   3.923  1.00  0.00     0.173 HD
HETATM    3  C8  UNL     1      -0.735   4.040   2.545  1.00  0.00     0.178 C 
HETATM    4  N2  UNL     1      -1.204   4.324   1.524  1.00  0.00    -0.172 NA
ENDROOT
BRANCH   1   5
HETATM    5  C6  UNL     1      -0.093   4.665   4.878  1.00  0.00     0.112 C 
HETATM    6  C7  UNL     1       0.431   5.966   4.317  1.00  0.00     0.052 C 
BRANCH   5   7
HETATM    7  C5  UNL     1       0.879   4.193   5.902  1.00  0.00    -0.021 A 
HETATM    8  C4  UNL     1       1.990   4.949   6.195  1.00  0.00     0.013 A 
HETATM    9  C3  UNL     1       2.883   4.499   7.123  1.00  0.00     0.040 A 
HETATM   10  C2  UNL     1       2.681   3.305   7.760  1.00  0.00     0.101 A 
HETATM   11  C17 UNL     1       1.586   2.502   7.508  1.00  0.00     0.102 A 
HETATM   12  C16 UNL     1       0.696   3.000   6.551  1.00  0.00     0.049 A 
BRANCH  10  13
HETATM   13  O1  UNL     1       3.571   2.804   8.718  1.00  0.00    -0.353 OA
HETATM   14  C1  UNL     1       4.943   3.066   8.712  1.00  0.00     0.210 C 
ENDBRANCH  10  13
BRANCH  11  15
HETATM   15  O3  UNL     1       1.397   1.294   8.163  1.00  0.00    -0.353 OA
HETATM   16  C18 UNL     1       0.077   0.990   8.572  1.00  0.00     0.210 C 
ENDBRANCH  11  15
ENDBRANCH   5   7
BRANCH   5  17
HETATM   17  C9  UNL     1      -1.477   4.777   5.413  1.00  0.00     0.087 A 
HETATM   18  C10 UNL     1      -2.170   5.950   5.613  1.00  0.00     0.038 A 
HETATM   19  C11 UNL     1      -3.391   5.551   6.115  1.00  0.00     0.041 A 
HETATM   20  C12 UNL     1      -3.386   4.167   6.197  1.00  0.00     0.088 A 
HETATM   21  O2  UNL     1      -2.216   3.768   5.764  1.00  0.00    -0.311 OA
BRANCH  20  22
HETATM   22  C13 UNL     1      -4.482   3.345   6.676  1.00  0.00     0.032 A 
HETATM   23  C14 UNL     1      -5.706   3.122   6.092  1.00  0.00     0.122 A 
HETATM   24  N3  UNL     1      -6.401   2.287   6.903  1.00  0.00    -0.311 N 
HETATM   25  N4  UNL     1      -5.694   1.974   7.950  1.00  0.00    -0.311 N 
ATOM     26  H3  UNL     1      -7.346   1.951   6.719  1.00  0.00     0.186 HD
HETATM   27  C15 UNL     1      -4.501   2.611   7.842  1.00  0.00     0.122 A 
ATOM     28  H4  UNL     1      -5.984   1.361   8.713  1.00  0.00     0.186 HD
ENDBRANCH  20  22
ENDBRANCH   5  17
ENDBRANCH   1   5
TORSDOF 6
ENDMDL
