MODEL 1
REMARK VINA RESULT: -4.296902216      0.000      0.000
REMARK  4 active torsions:
REMARK  status: ('A' for Active; 'I' for Inactive)
REMARK    1  A    between atoms: O1_2  and  C2_3 
REMARK    2  A    between atoms: C2_3  and  C3_4 
REMARK    3  A    between atoms: C5_7  and  O3_8 
REMARK    4  A    between atoms: C10_14  and  N1_15 
ROOT
HETATM    1  C3  UNL     1      -0.312   4.126   5.055  1.00  0.00     0.168 C 
HETATM    2  O2  UNL     1      -0.848   3.413   3.952  1.00  0.00    -0.373 OA
HETATM    3  C4  UNL     1      -0.174   3.809   2.820  1.00  0.00     0.157 C 
HETATM    4  C5  UNL     1      -1.172   3.971   1.696  1.00  0.00     0.147 C 
HETATM    5  C6  UNL     1      -0.637   4.671   0.496  1.00  0.00     0.034 C 
HETATM    6  C7  UNL     1       0.669   5.400   0.742  1.00  0.00     0.003 C 
HETATM    7  C8  UNL     1       0.489   6.111   2.093  1.00  0.00     0.009 C 
HETATM    8  C9  UNL     1       0.602   5.036   3.133  1.00  0.00     0.042 C 
HETATM    9  C10 UNL     1      -0.039   5.474   4.457  1.00  0.00     0.115 C 
ENDROOT
BRANCH   1  10
HETATM   10  C2  UNL     1      -1.455   4.176   6.058  1.00  0.00     0.201 C 
BRANCH  10  11
HETATM   11  O1  UNL     1      -1.251   3.371   7.163  1.00  0.00    -0.393 OA
HETATM   12  C1  UNL     1       0.037   2.895   7.212  1.00  0.00     0.201 C 
ENDBRANCH  10  11
ENDBRANCH   1  10
BRANCH   9  13
HETATM   13  N1  UNL     1       0.873   6.324   5.080  1.00  0.00    -0.414 N 
HETATM   14  C11 UNL     1       0.225   7.446   5.725  1.00  0.00     0.143 C 
HETATM   15  C12 UNL     1       1.917   5.823   5.872  1.00  0.00     0.143 C 
ENDBRANCH   9  13
BRANCH   4  16
HETATM   16  O3  UNL     1      -2.361   4.573   2.164  1.00  0.00    -0.393 OA
ATOM     17  H3  UNL     1      -2.931   3.926   2.563  1.00  0.00     0.210 HD
ENDBRANCH   4  16
TORSDOF 4
ENDMDL
MODEL 2
REMARK VINA RESULT: -4.207303539      1.816      2.369
REMARK  4 active torsions:
REMARK  status: ('A' for Active; 'I' for Inactive)
REMARK    1  A    between atoms: O1_2  and  C2_3 
REMARK    2  A    between atoms: C2_3  and  C3_4 
REMARK    3  A    between atoms: C5_7  and  O3_8 
REMARK    4  A    between atoms: C10_14  and  N1_15 
ROOT
HETATM    1  C3  UNL     1      -0.223   4.749   5.295  1.00  0.00     0.168 C 
HETATM    2  O2  UNL     1       0.608   4.256   4.256  1.00  0.00    -0.373 OA
HETATM    3  C4  UNL     1       0.253   4.892   3.089  1.00  0.00     0.157 C 
HETATM    4  C5  UNL     1       0.247   3.877   1.968  1.00  0.00     0.147 C 
HETATM    5  C6  UNL     1      -0.395   4.353   0.712  1.00  0.00     0.034 C 
HETATM    6  C7  UNL     1      -1.229   5.606   0.885  1.00  0.00     0.003 C 
HETATM    7  C8  UNL     1      -2.027   5.386   2.181  1.00  0.00     0.009 C 
HETATM    8  C9  UNL     1      -1.045   5.582   3.298  1.00  0.00     0.042 C 
HETATM    9  C10 UNL     1      -1.537   4.922   4.593  1.00  0.00     0.115 C 
ENDROOT
BRANCH   1  10
HETATM   10  C2  UNL     1      -0.270   3.613   6.306  1.00  0.00     0.201 C 
BRANCH  10  11
HETATM   11  O1  UNL     1       0.911   2.899   6.385  1.00  0.00    -0.393 OA
HETATM   12  C1  UNL     1       1.162   2.476   7.667  1.00  0.00     0.201 C 
ENDBRANCH  10  11
ENDBRANCH   1  10
BRANCH   9  13
HETATM   13  N1  UNL     1      -2.494   5.776   5.139  1.00  0.00    -0.414 N 
HETATM   14  C11 UNL     1      -3.636   5.059   5.662  1.00  0.00     0.143 C 
HETATM   15  C12 UNL     1      -2.131   6.834   5.988  1.00  0.00     0.143 C 
ENDBRANCH   9  13
BRANCH   4  16
HETATM   16  O3  UNL     1      -0.305   2.652   2.405  1.00  0.00    -0.393 OA
ATOM     17  H3  UNL     1       0.382   2.031   2.620  1.00  0.00     0.210 HD
ENDBRANCH   4  16
TORSDOF 4
ENDMDL
MODEL 3
REMARK VINA RESULT: -4.140766853      1.159      1.297
REMARK  4 active torsions:
REMARK  status: ('A' for Active; 'I' for Inactive)
REMARK    1  A    between atoms: O1_2  and  C2_3 
REMARK    2  A    between atoms: C2_3  and  C3_4 
REMARK    3  A    between atoms: C5_7  and  O3_8 
REMARK    4  A    between atoms: C10_14  and  N1_15 
ROOT
HETATM    1  C3  UNL     1      -0.327   4.647   5.386  1.00  0.00     0.168 C 
HETATM    2  O2  UNL     1      -0.081   3.608   4.452  1.00  0.00    -0.373 OA
HETATM    3  C4  UNL     1       0.451   4.172   3.316  1.00  0.00     0.157 C 
HETATM    4  C5  UNL     1      -0.177   3.511   2.109  1.00  0.00     0.147 C 
HETATM    5  C6  UNL     1       0.082   4.211   0.822  1.00  0.00     0.034 C 
HETATM    6  C7  UNL     1       0.608   5.623   0.986  1.00  0.00     0.003 C 
HETATM    7  C8  UNL     1      -0.246   6.247   2.101  1.00  0.00     0.009 C 
HETATM    8  C9  UNL     1       0.256   5.643   3.379  1.00  0.00     0.042 C 
HETATM    9  C10 UNL     1      -0.786   5.765   4.499  1.00  0.00     0.115 C 
ENDROOT
BRANCH   1  10
HETATM   10  C2  UNL     1      -1.459   4.112   6.250  1.00  0.00     0.201 C 
BRANCH  10  11
HETATM   11  O1  UNL     1      -1.031   3.254   7.247  1.00  0.00    -0.393 OA
HETATM   12  C1  UNL     1      -2.082   2.585   7.825  1.00  0.00     0.201 C 
ENDBRANCH  10  11
ENDBRANCH   1  10
BRANCH   9  13
HETATM   13  N1  UNL     1      -0.720   7.077   4.966  1.00  0.00    -0.414 N 
HETATM   14  C11 UNL     1      -1.987   7.539   5.489  1.00  0.00     0.143 C 
HETATM   15  C12 UNL     1       0.345   7.515   5.768  1.00  0.00     0.143 C 
ENDBRANCH   9  13
BRANCH   4  16
HETATM   16  O3  UNL     1      -1.556   3.293   2.318  1.00  0.00    -0.393 OA
ATOM     17  H3  UNL     1      -1.700   2.758   3.090  1.00  0.00     0.210 HD
ENDBRANCH   4  16
TORSDOF 4
ENDMDL
MODEL 4
REMARK VINA RESULT: -4.084716247      1.021      1.110
REMARK  4 active torsions:
REMARK  status: ('A' for Active; 'I' for Inactive)
REMARK    1  A    between atoms: O1_2  and  C2_3 
REMARK    2  A    between atoms: C2_3  and  C3_4 
REMARK    3  A    between atoms: C5_7  and  O3_8 
REMARK    4  A    between atoms: C10_14  and  N1_15 
ROOT
HETATM    1  C3  UNL     1       0.102   4.505   4.988  1.00  0.00     0.168 C 
HETATM    2  O2  UNL     1       0.072   3.578   3.915  1.00  0.00    -0.373 OA
HETATM    3  C4  UNL     1       0.264   4.274   2.744  1.00  0.00     0.157 C 
HETATM    4  C5  UNL     1      -0.680   3.727   1.696  1.00  0.00     0.147 C 
HETATM    5  C6  UNL     1      -0.792   4.567   0.473  1.00  0.00     0.034 C 
HETATM    6  C7  UNL     1      -0.237   5.968   0.636  1.00  0.00     0.003 C 
HETATM    7  C8  UNL     1      -0.739   6.446   2.008  1.00  0.00     0.009 C 
HETATM    8  C9  UNL     1       0.100   5.724   3.020  1.00  0.00     0.042 C 
HETATM    9  C10 UNL     1      -0.585   5.698   4.393  1.00  0.00     0.115 C 
ENDROOT
BRANCH   1  10
HETATM   10  C2  UNL     1      -0.742   3.851   6.071  1.00  0.00     0.201 C 
BRANCH  10  11
HETATM   11  O1  UNL     1      -0.092   2.822   6.727  1.00  0.00    -0.393 OA
HETATM   12  C1  UNL     1       1.188   3.175   7.078  1.00  0.00     0.201 C 
ENDBRANCH  10  11
ENDBRANCH   1  10
BRANCH   9  13
HETATM   13  N1  UNL     1      -0.385   6.954   4.963  1.00  0.00    -0.414 N 
HETATM   14  C11 UNL     1      -1.563   7.440   5.648  1.00  0.00     0.143 C 
HETATM   15  C12 UNL     1       0.778   7.251   5.690  1.00  0.00     0.143 C 
ENDBRANCH   9  13
BRANCH   4  16
HETATM   16  O3  UNL     1      -1.946   3.451   2.258  1.00  0.00    -0.393 OA
ATOM     17  H3  UNL     1      -1.875   2.791   2.939  1.00  0.00     0.210 HD
ENDBRANCH   4  16
TORSDOF 4
ENDMDL
MODEL 5
REMARK VINA RESULT: -4.006735248      1.472      1.922
REMARK  4 active torsions:
REMARK  status: ('A' for Active; 'I' for Inactive)
REMARK    1  A    between atoms: O1_2  and  C2_3 
REMARK    2  A    between atoms: C2_3  and  C3_4 
REMARK    3  A    between atoms: C5_7  and  O3_8 
REMARK    4  A    between atoms: C10_14  and  N1_15 
ROOT
HETATM    1  C3  UNL     1      -1.720   4.398   5.180  1.00  0.00     0.168 C 
HETATM    2  O2  UNL     1      -2.463   4.598   3.988  1.00  0.00    -0.373 OA
HETATM    3  C4  UNL     1      -1.702   4.153   2.932  1.00  0.00     0.157 C 
HETATM    4  C5  UNL     1      -1.839   5.135   1.790  1.00  0.00     0.147 C 
HETATM    5  C6  UNL     1      -0.853   4.940   0.692  1.00  0.00     0.034 C 
HETATM    6  C7  UNL     1       0.315   4.049   1.066  1.00  0.00     0.003 C 
HETATM    7  C8  UNL     1       0.734   4.499   2.474  1.00  0.00     0.009 C 
HETATM    8  C9  UNL     1      -0.308   3.949   3.402  1.00  0.00     0.042 C 
HETATM    9  C10 UNL     1      -0.321   4.706   4.736  1.00  0.00     0.115 C 
ENDROOT
BRANCH   1  10
HETATM   10  C2  UNL     1      -2.254   5.455   6.135  1.00  0.00     0.201 C 
BRANCH  10  11
HETATM   11  O1  UNL     1      -2.693   4.936   7.339  1.00  0.00    -0.393 OA
HETATM   12  C1  UNL     1      -3.076   3.623   7.214  1.00  0.00     0.201 C 
ENDBRANCH  10  11
ENDBRANCH   1  10
BRANCH   9  13
HETATM   13  N1  UNL     1       0.752   4.223   5.481  1.00  0.00    -0.414 N 
HETATM   14  C11 UNL     1       1.687   5.267   5.840  1.00  0.00     0.143 C 
HETATM   15  C12 UNL     1       0.560   3.331   6.548  1.00  0.00     0.143 C 
ENDBRANCH   9  13
BRANCH   4  16
HETATM   16  O3  UNL     1      -1.833   6.464   2.268  1.00  0.00    -0.393 OA
ATOM     17  H3  UNL     1      -0.945   6.797   2.325  1.00  0.00     0.210 HD
ENDBRANCH   4  16
TORSDOF 4
ENDMDL
