MODEL 1
REMARK VINA RESULT: -7.892313653      0.000      0.000
REMARK  9 active torsions:
REMARK  status: ('A' for Active; 'I' for Inactive)
REMARK    1  A    between atoms: O1_2  and  C2_3 
REMARK    2  A    between atoms: C2_3  and  C3_4 
REMARK    3  A    between atoms: C3_4  and  C4_5 
REMARK    4  A    between atoms: C4_5  and  C5_6 
REMARK    5  A    between atoms: C5_6  and  C6_7 
REMARK    6  A    between atoms: C6_7  and  O2_8 
REMARK    7  A    between atoms: C6_7  and  C7_10 
REMARK    8  A    between atoms: C7_10  and  C8_11 
REMARK    9  A    between atoms: N1_31  and  O5_33 
ROOT
HETATM    1  C8  UNL     1       9.998 161.558  33.009  1.00  0.00    -0.009 C 
HETATM    2  C9  UNL     1      10.124 162.189  31.610  1.00  0.00     0.013 C 
HETATM    3  C10 UNL     1       9.723 163.607  31.593  1.00  0.00     0.028 C 
HETATM    4  C11 UNL     1       9.437 163.958  30.120  1.00  0.00    -0.012 C 
HETATM    5  C12 UNL     1       9.383 162.731  29.233  1.00  0.00     0.010 C 
HETATM    6  C13 UNL     1      10.479 164.841  29.485  1.00  0.00     0.005 C 
HETATM    7  C14 UNL     1      10.697 166.162  30.241  1.00  0.00     0.008 C 
HETATM    8  C15 UNL     1      10.059 165.932  31.533  1.00  0.00     0.028 C 
HETATM    9  C16 UNL     1      10.102 166.972  32.597  1.00  0.00    -0.011 C 
HETATM   10  C17 UNL     1      11.373 167.714  32.743  1.00  0.00     0.010 C 
HETATM   11  C18 UNL     1       9.795 166.058  33.818  1.00  0.00     0.013 C 
HETATM   12  C19 UNL     1      10.822 165.023  33.481  1.00  0.00     0.031 C 
HETATM   13  C20 UNL     1      11.167 163.968  34.420  1.00  0.00     0.026 C 
HETATM   14  C21 UNL     1      11.997 164.546  35.572  1.00  0.00     0.014 C 
HETATM   15  C22 UNL     1      12.007 163.001  33.569  1.00  0.00     0.097 C 
HETATM   16  C23 UNL     1      13.286 162.752  34.413  1.00  0.00     0.050 C 
HETATM   17  C24 UNL     1      11.286 161.675  33.684  1.00  0.00     0.046 C 
HETATM   18  O3  UNL     1      12.444 163.409  32.399  1.00  0.00    -0.229 OA
HETATM   19  O4  UNL     1      11.876 164.269  31.641  1.00  0.00    -0.228 OA
HETATM   20  C25 UNL     1      10.613 164.638  32.076  1.00  0.00     0.108 C 
ENDROOT
BRANCH   1  21
HETATM   21  C7  UNL     1       9.526 160.141  32.888  1.00  0.00     0.036 C 
BRANCH  21  22
HETATM   22  C6  UNL     1       9.392 159.723  31.465  1.00  0.00     0.118 C 
BRANCH  22  23
HETATM   23  C5  UNL     1      10.301 158.498  31.176  1.00  0.00     0.032 C 
BRANCH  23  24
HETATM   24  C4  UNL     1      11.719 158.842  31.607  1.00  0.00     0.010 C 
BRANCH  24  25
HETATM   25  C3  UNL     1      12.295 159.740  30.532  1.00  0.00     0.086 C 
BRANCH  25  26
HETATM   26  C2  UNL     1      13.461 160.512  31.047  1.00  0.00     0.137 C 
HETATM   27  N1  UNL     1      13.687 161.678  30.575  1.00  0.00    -0.251 N 
ATOM     28  H1  UNL     1      14.488 162.194  30.937  1.00  0.00     0.196 HD
BRANCH  26  29
HETATM   29  O1  UNL     1      14.276 159.963  32.018  1.00  0.00    -0.343 OA
HETATM   30  C1  UNL     1      15.451 160.694  32.362  1.00  0.00     0.211 C 
ENDBRANCH  26  29
BRANCH  27  31
HETATM   31  O5  UNL     1      12.925 162.271  29.621  1.00  0.00    -0.288 OA
ATOM     32  H5  UNL     1      13.242 162.945  29.031  1.00  0.00     0.244 HD
ENDBRANCH  27  31
ENDBRANCH  25  26
ENDBRANCH  24  25
ENDBRANCH  23  24
ENDBRANCH  22  23
BRANCH  22  33
HETATM   33  O2  UNL     1       8.089 159.206  31.287  1.00  0.00    -0.396 OA
ATOM     34  H2  UNL     1       7.958 159.269  30.348  1.00  0.00     0.210 HD
ENDBRANCH  22  33
ENDBRANCH  21  22
ENDBRANCH   1  21
TORSDOF 9
ENDMDL
MODEL 2
REMARK VINA RESULT: -7.808026961      2.326      6.112
REMARK  9 active torsions:
REMARK  status: ('A' for Active; 'I' for Inactive)
REMARK    1  A    between atoms: O1_2  and  C2_3 
REMARK    2  A    between atoms: C2_3  and  C3_4 
REMARK    3  A    between atoms: C3_4  and  C4_5 
REMARK    4  A    between atoms: C4_5  and  C5_6 
REMARK    5  A    between atoms: C5_6  and  C6_7 
REMARK    6  A    between atoms: C6_7  and  O2_8 
REMARK    7  A    between atoms: C6_7  and  C7_10 
REMARK    8  A    between atoms: C7_10  and  C8_11 
REMARK    9  A    between atoms: N1_31  and  O5_33 
ROOT
HETATM    1  C8  UNL     1      10.644 160.648  33.995  1.00  0.00    -0.009 C 
HETATM    2  C9  UNL     1      11.707 161.047  32.956  1.00  0.00     0.013 C 
HETATM    3  C10 UNL     1      11.781 160.098  31.831  1.00  0.00     0.028 C 
HETATM    4  C11 UNL     1      13.148 160.330  31.158  1.00  0.00    -0.012 C 
HETATM    5  C12 UNL     1      14.059 161.212  31.988  1.00  0.00     0.010 C 
HETATM    6  C13 UNL     1      13.066 161.019  29.821  1.00  0.00     0.005 C 
HETATM    7  C14 UNL     1      12.174 160.278  28.811  1.00  0.00     0.008 C 
HETATM    8  C15 UNL     1      11.422 159.338  29.637  1.00  0.00     0.028 C 
HETATM    9  C16 UNL     1      10.386 158.457  29.033  1.00  0.00    -0.011 C 
HETATM   10  C17 UNL     1       9.535 159.063  27.985  1.00  0.00     0.010 C 
HETATM   11  C18 UNL     1       9.594 158.118  30.328  1.00  0.00     0.013 C 
HETATM   12  C19 UNL     1       9.464 159.536  30.789  1.00  0.00     0.031 C 
HETATM   13  C20 UNL     1       8.594 159.891  31.899  1.00  0.00     0.026 C 
HETATM   14  C21 UNL     1       7.127 159.802  31.462  1.00  0.00     0.014 C 
HETATM   15  C22 UNL     1       8.990 161.345  32.203  1.00  0.00     0.097 C 
HETATM   16  C23 UNL     1       7.641 162.112  32.250  1.00  0.00     0.050 C 
HETATM   17  C24 UNL     1       9.397 161.328  33.661  1.00  0.00     0.046 C 
HETATM   18  O3  UNL     1       9.722 161.995  31.327  1.00  0.00    -0.229 OA
HETATM   19  O4  UNL     1      10.572 161.476  30.523  1.00  0.00    -0.228 OA
HETATM   20  C25 UNL     1      10.808 160.132  30.764  1.00  0.00     0.108 C 
ENDROOT
BRANCH   1  21
HETATM   21  C7  UNL     1      11.134 160.966  35.374  1.00  0.00     0.036 C 
BRANCH  21  22
HETATM   22  C6  UNL     1      12.399 161.750  35.344  1.00  0.00     0.118 C 
BRANCH  22  23
HETATM   23  C5  UNL     1      12.124 163.231  35.721  1.00  0.00     0.032 C 
BRANCH  23  24
HETATM   24  C4  UNL     1      12.158 164.063  34.448  1.00  0.00     0.010 C 
BRANCH  24  25
HETATM   25  C3  UNL     1      11.453 165.367  34.761  1.00  0.00     0.086 C 
BRANCH  25  26
HETATM   26  C2  UNL     1      10.667 165.846  33.589  1.00  0.00     0.137 C 
HETATM   27  N1  UNL     1      10.775 167.068  33.232  1.00  0.00    -0.251 N 
ATOM     28  H1  UNL     1      10.232 167.381  32.428  1.00  0.00     0.196 HD
BRANCH  26  29
HETATM   29  O1  UNL     1       9.840 164.972  32.910  1.00  0.00    -0.343 OA
HETATM   30  C1  UNL     1       9.227 165.459  31.719  1.00  0.00     0.211 C 
ENDBRANCH  26  29
BRANCH  27  31
HETATM   31  O5  UNL     1      11.569 167.974  33.857  1.00  0.00    -0.288 OA
ATOM     32  H5  UNL     1      11.280 168.839  34.123  1.00  0.00     0.244 HD
ENDBRANCH  27  31
ENDBRANCH  25  26
ENDBRANCH  24  25
ENDBRANCH  23  24
ENDBRANCH  22  23
BRANCH  22  33
HETATM   33  O2  UNL     1      13.216 161.295  36.403  1.00  0.00    -0.396 OA
ATOM     34  H2  UNL     1      12.641 160.712  36.884  1.00  0.00     0.210 HD
ENDBRANCH  22  33
ENDBRANCH  21  22
ENDBRANCH   1  21
TORSDOF 9
ENDMDL
MODEL 3
REMARK VINA RESULT: -7.806904551      2.177      5.360
REMARK  9 active torsions:
REMARK  status: ('A' for Active; 'I' for Inactive)
REMARK    1  A    between atoms: O1_2  and  C2_3 
REMARK    2  A    between atoms: C2_3  and  C3_4 
REMARK    3  A    between atoms: C3_4  and  C4_5 
REMARK    4  A    between atoms: C4_5  and  C5_6 
REMARK    5  A    between atoms: C5_6  and  C6_7 
REMARK    6  A    between atoms: C6_7  and  O2_8 
REMARK    7  A    between atoms: C6_7  and  C7_10 
REMARK    8  A    between atoms: C7_10  and  C8_11 
REMARK    9  A    between atoms: N1_31  and  O5_33 
ROOT
HETATM    1  C8  UNL     1      10.638 163.252  31.016  1.00  0.00    -0.009 C 
HETATM    2  C9  UNL     1      11.219 164.081  32.176  1.00  0.00     0.013 C 
HETATM    3  C10 UNL     1      11.068 163.411  33.480  1.00  0.00     0.028 C 
HETATM    4  C11 UNL     1      11.230 164.507  34.551  1.00  0.00    -0.012 C 
HETATM    5  C12 UNL     1      11.210 165.902  33.960  1.00  0.00     0.010 C 
HETATM    6  C13 UNL     1      12.528 164.435  35.312  1.00  0.00     0.005 C 
HETATM    7  C14 UNL     1      12.752 163.079  36.001  1.00  0.00     0.008 C 
HETATM    8  C15 UNL     1      11.775 162.201  35.366  1.00  0.00     0.028 C 
HETATM    9  C16 UNL     1      11.708 160.757  35.720  1.00  0.00    -0.011 C 
HETATM   10  C17 UNL     1      13.001 160.069  35.930  1.00  0.00     0.010 C 
HETATM   11  C18 UNL     1      10.956 160.249  34.456  1.00  0.00     0.013 C 
HETATM   12  C19 UNL     1      11.856 160.930  33.473  1.00  0.00     0.031 C 
HETATM   13  C20 UNL     1      11.775 160.643  32.050  1.00  0.00     0.026 C 
HETATM   14  C21 UNL     1      12.362 159.255  31.764  1.00  0.00     0.014 C 
HETATM   15  C22 UNL     1      12.639 161.746  31.419  1.00  0.00     0.097 C 
HETATM   16  C23 UNL     1      13.601 160.988  30.465  1.00  0.00     0.050 C 
HETATM   17  C24 UNL     1      11.711 162.443  30.447  1.00  0.00     0.046 C 
HETATM   18  O3  UNL     1      13.422 162.457  32.200  1.00  0.00    -0.229 OA
HETATM   19  O4  UNL     1      13.213 162.725  33.433  1.00  0.00    -0.228 OA
HETATM   20  C25 UNL     1      11.956 162.342  33.875  1.00  0.00     0.108 C 
ENDROOT
BRANCH   1  21
HETATM   21  C7  UNL     1       9.993 164.159  30.014  1.00  0.00     0.036 C 
BRANCH  21  22
HETATM   22  C6  UNL     1       8.508 164.047  30.042  1.00  0.00     0.118 C 
BRANCH  22  23
HETATM   23  C5  UNL     1       8.013 163.813  31.495  1.00  0.00     0.032 C 
BRANCH  23  24
HETATM   24  C4  UNL     1       7.054 162.632  31.489  1.00  0.00     0.010 C 
BRANCH  24  25
HETATM   25  C3  UNL     1       7.830 161.438  32.003  1.00  0.00     0.086 C 
BRANCH  25  26
HETATM   26  C2  UNL     1       7.863 160.345  30.992  1.00  0.00     0.137 C 
HETATM   27  N1  UNL     1       7.113 159.324  31.162  1.00  0.00    -0.251 N 
ATOM     28  H1  UNL     1       7.146 158.584  30.461  1.00  0.00     0.196 HD
BRANCH  26  29
HETATM   29  O1  UNL     1       8.695 160.447  29.893  1.00  0.00    -0.343 OA
HETATM   30  C1  UNL     1       9.319 159.246  29.444  1.00  0.00     0.211 C 
ENDBRANCH  26  29
BRANCH  27  31
HETATM   31  O5  UNL     1       6.276 159.164  32.218  1.00  0.00    -0.288 OA
ATOM     32  H5  UNL     1       6.072 159.851  32.842  1.00  0.00     0.244 HD
ENDBRANCH  27  31
ENDBRANCH  25  26
ENDBRANCH  24  25
ENDBRANCH  23  24
ENDBRANCH  22  23
BRANCH  22  33
HETATM   33  O2  UNL     1       7.972 165.314  29.720  1.00  0.00    -0.396 OA
ATOM     34  H2  UNL     1       8.564 165.634  29.049  1.00  0.00     0.210 HD
ENDBRANCH  22  33
ENDBRANCH  21  22
ENDBRANCH   1  21
TORSDOF 9
ENDMDL
MODEL 4
REMARK VINA RESULT: -7.701491186      1.064      1.681
REMARK  9 active torsions:
REMARK  status: ('A' for Active; 'I' for Inactive)
REMARK    1  A    between atoms: O1_2  and  C2_3 
REMARK    2  A    between atoms: C2_3  and  C3_4 
REMARK    3  A    between atoms: C3_4  and  C4_5 
REMARK    4  A    between atoms: C4_5  and  C5_6 
REMARK    5  A    between atoms: C5_6  and  C6_7 
REMARK    6  A    between atoms: C6_7  and  O2_8 
REMARK    7  A    between atoms: C6_7  and  C7_10 
REMARK    8  A    between atoms: C7_10  and  C8_11 
REMARK    9  A    between atoms: N1_31  and  O5_33 
ROOT
HETATM    1  C8  UNL     1       9.910 161.587  33.077  1.00  0.00    -0.009 C 
HETATM    2  C9  UNL     1      10.012 162.191  31.664  1.00  0.00     0.013 C 
HETATM    3  C10 UNL     1       9.657 163.621  31.635  1.00  0.00     0.028 C 
HETATM    4  C11 UNL     1       9.336 163.957  30.166  1.00  0.00    -0.012 C 
HETATM    5  C12 UNL     1       9.214 162.718  29.302  1.00  0.00     0.010 C 
HETATM    6  C13 UNL     1      10.385 164.795  29.483  1.00  0.00     0.005 C 
HETATM    7  C14 UNL     1      10.670 166.120  30.209  1.00  0.00     0.008 C 
HETATM    8  C15 UNL     1      10.065 165.932  31.524  1.00  0.00     0.028 C 
HETATM    9  C16 UNL     1      10.175 166.987  32.568  1.00  0.00    -0.011 C 
HETATM   10  C17 UNL     1      11.473 167.690  32.662  1.00  0.00     0.010 C 
HETATM   11  C18 UNL     1       9.878 166.105  33.814  1.00  0.00     0.013 C 
HETATM   12  C19 UNL     1      10.860 165.031  33.463  1.00  0.00     0.031 C 
HETATM   13  C20 UNL     1      11.200 163.980  34.409  1.00  0.00     0.026 C 
HETATM   14  C21 UNL     1      12.084 164.550  35.525  1.00  0.00     0.014 C 
HETATM   15  C22 UNL     1      11.981 162.973  33.550  1.00  0.00     0.097 C 
HETATM   16  C23 UNL     1      13.277 162.696  34.358  1.00  0.00     0.050 C 
HETATM   17  C24 UNL     1      11.222 161.673  33.710  1.00  0.00     0.046 C 
HETATM   18  O3  UNL     1      12.394 163.347  32.359  1.00  0.00    -0.229 OA
HETATM   19  O4  UNL     1      11.830 164.213  31.604  1.00  0.00    -0.228 OA
HETATM   20  C25 UNL     1      10.594 164.630  32.072  1.00  0.00     0.108 C 
ENDROOT
BRANCH   1  21
HETATM   21  C7  UNL     1       9.389 160.185  32.995  1.00  0.00     0.036 C 
BRANCH  21  22
HETATM   22  C6  UNL     1       9.583 159.602  31.638  1.00  0.00     0.118 C 
BRANCH  22  23
HETATM   23  C5  UNL     1      10.664 158.488  31.681  1.00  0.00     0.032 C 
BRANCH  23  24
HETATM   24  C4  UNL     1      11.413 158.497  30.356  1.00  0.00     0.010 C 
BRANCH  24  25
HETATM   25  C3  UNL     1      12.197 159.791  30.308  1.00  0.00     0.086 C 
BRANCH  25  26
HETATM   26  C2  UNL     1      12.200 160.364  28.933  1.00  0.00     0.137 C 
HETATM   27  N1  UNL     1      12.598 161.567  28.766  1.00  0.00    -0.251 N 
ATOM     28  H1  UNL     1      12.595 161.946  27.820  1.00  0.00     0.196 HD
BRANCH  26  29
HETATM   29  O1  UNL     1      11.777 159.597  27.865  1.00  0.00    -0.343 OA
HETATM   30  C1  UNL     1      10.765 160.156  27.030  1.00  0.00     0.211 C 
ENDBRANCH  26  29
BRANCH  27  31
HETATM   31  O5  UNL     1      13.025 162.372  29.773  1.00  0.00    -0.288 OA
ATOM     32  H5  UNL     1      13.408 163.231  29.640  1.00  0.00     0.244 HD
ENDBRANCH  27  31
ENDBRANCH  25  26
ENDBRANCH  24  25
ENDBRANCH  23  24
ENDBRANCH  22  23
BRANCH  22  33
HETATM   33  O2  UNL     1       8.407 158.896  31.299  1.00  0.00    -0.396 OA
ATOM     34  H2  UNL     1       7.962 159.490  30.706  1.00  0.00     0.210 HD
ENDBRANCH  22  33
ENDBRANCH  21  22
ENDBRANCH   1  21
TORSDOF 9
ENDMDL
MODEL 5
REMARK VINA RESULT: -7.679892671      2.170      5.405
REMARK  9 active torsions:
REMARK  status: ('A' for Active; 'I' for Inactive)
REMARK    1  A    between atoms: O1_2  and  C2_3 
REMARK    2  A    between atoms: C2_3  and  C3_4 
REMARK    3  A    between atoms: C3_4  and  C4_5 
REMARK    4  A    between atoms: C4_5  and  C5_6 
REMARK    5  A    between atoms: C5_6  and  C6_7 
REMARK    6  A    between atoms: C6_7  and  O2_8 
REMARK    7  A    between atoms: C6_7  and  C7_10 
REMARK    8  A    between atoms: C7_10  and  C8_11 
REMARK    9  A    between atoms: N1_31  and  O5_33 
ROOT
HETATM    1  C8  UNL     1      11.152 163.875  33.535  1.00  0.00    -0.009 C 
HETATM    2  C9  UNL     1      12.207 163.160  32.671  1.00  0.00     0.013 C 
HETATM    3  C10 UNL     1      11.814 161.783  32.324  1.00  0.00     0.028 C 
HETATM    4  C11 UNL     1      13.106 161.056  31.905  1.00  0.00    -0.012 C 
HETATM    5  C12 UNL     1      14.352 161.853  32.236  1.00  0.00     0.010 C 
HETATM    6  C13 UNL     1      13.209 160.786  30.427  1.00  0.00     0.005 C 
HETATM    7  C14 UNL     1      12.024 159.976  29.874  1.00  0.00     0.008 C 
HETATM    8  C15 UNL     1      11.021 160.063  30.932  1.00  0.00     0.028 C 
HETATM    9  C16 UNL     1       9.679 159.446  30.758  1.00  0.00    -0.011 C 
HETATM   10  C17 UNL     1       9.066 159.567  29.417  1.00  0.00     0.010 C 
HETATM   11  C18 UNL     1       8.914 160.258  31.843  1.00  0.00     0.013 C 
HETATM   12  C19 UNL     1       9.395 161.598  31.381  1.00  0.00     0.031 C 
HETATM   13  C20 UNL     1       8.823 162.827  31.907  1.00  0.00     0.026 C 
HETATM   14  C21 UNL     1       7.415 163.034  31.336  1.00  0.00     0.014 C 
HETATM   15  C22 UNL     1       9.788 163.910  31.396  1.00  0.00     0.097 C 
HETATM   16  C23 UNL     1       8.865 164.976  30.747  1.00  0.00     0.050 C 
HETATM   17  C24 UNL     1      10.259 164.616  32.649  1.00  0.00     0.046 C 
HETATM   18  O3  UNL     1      10.653 163.591  30.459  1.00  0.00    -0.229 OA
HETATM   19  O4  UNL     1      11.163 162.433  30.267  1.00  0.00    -0.228 OA
HETATM   20  C25 UNL     1      10.860 161.525  31.269  1.00  0.00     0.108 C 
ENDROOT
BRANCH   1  21
HETATM   21  C7  UNL     1      11.827 164.745  34.549  1.00  0.00     0.036 C 
BRANCH  21  22
HETATM   22  C6  UNL     1      11.984 164.051  35.857  1.00  0.00     0.118 C 
BRANCH  22  23
HETATM   23  C5  UNL     1      13.349 163.314  35.916  1.00  0.00     0.032 C 
BRANCH  23  24
HETATM   24  C4  UNL     1      13.160 162.019  36.691  1.00  0.00     0.010 C 
BRANCH  24  25
HETATM   25  C3  UNL     1      12.105 161.220  35.955  1.00  0.00     0.086 C 
BRANCH  25  26
HETATM   26  C2  UNL     1      12.700 160.020  35.303  1.00  0.00     0.137 C 
HETATM   27  N1  UNL     1      11.921 159.130  34.821  1.00  0.00    -0.251 N 
ATOM     28  H1  UNL     1      12.343 158.314  34.377  1.00  0.00     0.196 HD
BRANCH  26  29
HETATM   29  O1  UNL     1      14.073 159.886  35.228  1.00  0.00    -0.343 OA
HETATM   30  C1  UNL     1      14.574 158.814  34.431  1.00  0.00     0.211 C 
ENDBRANCH  26  29
BRANCH  27  31
HETATM   31  O5  UNL     1      10.566 159.203  34.863  1.00  0.00    -0.288 OA
ATOM     32  H5  UNL     1       9.990 158.730  34.274  1.00  0.00     0.244 HD
ENDBRANCH  27  31
ENDBRANCH  25  26
ENDBRANCH  24  25
ENDBRANCH  23  24
ENDBRANCH  22  23
BRANCH  22  33
HETATM   33  O2  UNL     1      12.108 165.039  36.859  1.00  0.00    -0.396 OA
ATOM     34  H2  UNL     1      11.835 164.584  37.646  1.00  0.00     0.210 HD
ENDBRANCH  22  33
ENDBRANCH  21  22
ENDBRANCH   1  21
TORSDOF 9
ENDMDL
