MODEL 1
REMARK VINA RESULT: -8.895723216      0.000      0.000
REMARK  7 active torsions:
REMARK  status: ('A' for Active; 'I' for Inactive)
REMARK    1  A    between atoms: C2_2  and  C3_3 
REMARK    2  A    between atoms: C3_3  and  C4_4 
REMARK    3  A    between atoms: C4_4  and  N1_5 
REMARK    4  A    between atoms: N1_5  and  C5_7 
REMARK    5  A    between atoms: C9_15  and  S1_16 
REMARK    6  A    between atoms: S1_16  and  C10_17 
REMARK    7  A    between atoms: C10_17  and  C11_18 
ROOT
HETATM    1  C5  UNL     1      12.564 160.625  35.637  1.00  0.00     0.680 A 
HETATM    2  N2  UNL     1      13.423 159.700  35.182  1.00  0.00    -0.177 N 
ATOM      3  H2  UNL     1      14.318 159.578  35.656  1.00  0.00     0.185 HD
HETATM    4  C6  UNL     1      13.139 158.933  34.120  1.00  0.00     0.155 A 
HETATM    5  N3  UNL     1      14.081 157.984  33.695  1.00  0.00    -0.080 NA
HETATM    6  C7  UNL     1      11.908 159.137  33.505  1.00  0.00     0.120 A 
HETATM    7  C8  UNL     1      11.591 158.337  32.385  1.00  0.00     0.106 C 
HETATM    8  N4  UNL     1      11.346 157.689  31.461  1.00  0.00    -0.191 NA
HETATM    9  C9  UNL     1      11.020 160.074  33.954  1.00  0.00     0.110 A 
HETATM   10  N5  UNL     1      11.371 160.806  35.022  1.00  0.00    -0.184 N 
ATOM     11  H5  UNL     1      10.727 161.513  35.377  1.00  0.00     0.185 HD
ENDROOT
BRANCH   9  12
HETATM   12  S1  UNL     1       9.447 160.331  33.165  1.00  0.00    -0.109 SA
BRANCH  12  13
HETATM   13  C10 UNL     1       9.171 162.128  33.099  1.00  0.00     0.093 C 
BRANCH  13  14
HETATM   14  C11 UNL     1       9.663 162.708  31.791  1.00  0.00     0.001 C 
HETATM   15  C12 UNL     1       8.402 163.185  31.056  1.00  0.00     0.018 C 
HETATM   16  C13 UNL     1       8.772 163.831  29.754  1.00  0.00    -0.013 C 
HETATM   17  C14 UNL     1       9.463 162.804  28.902  1.00  0.00     0.009 C 
HETATM   18  C18 UNL     1       9.675 165.016  30.054  1.00  0.00     0.012 C 
HETATM   19  C15 UNL     1      10.701 162.313  29.613  1.00  0.00    -0.013 C 
HETATM   20  C16 UNL     1      11.603 163.495  29.828  1.00  0.00     0.012 C 
HETATM   21  C23 UNL     1      10.394 161.703  30.962  1.00  0.00     0.018 C 
HETATM   22  C17 UNL     1      10.921 164.514  30.699  1.00  0.00     0.022 C 
HETATM   23  C19 UNL     1      10.543 163.911  32.058  1.00  0.00     0.073 C 
HETATM   24  C20 UNL     1      11.777 163.527  32.797  1.00  0.00     0.041 C 
HETATM   25  O1  UNL     1       9.875 164.896  32.748  1.00  0.00    -0.379 OA
HETATM   26  C21 UNL     1      11.852 164.531  33.913  1.00  0.00     0.029 C 
HETATM   27  C22 UNL     1      10.466 165.075  33.965  1.00  0.00     0.169 C 
ENDBRANCH  13  14
ENDBRANCH  12  13
ENDBRANCH   9  12
BRANCH   1  28
HETATM   28  N1  UNL     1      12.852 161.364  36.670  1.00  0.00    -0.226 N 
ATOM     29  H1  UNL     1      12.687 161.027  37.618  1.00  0.00     0.177 HD
BRANCH  28  30
HETATM   30  C4  UNL     1      13.414 162.678  36.435  1.00  0.00     0.138 C 
BRANCH  30  31
HETATM   31  C3  UNL     1      12.883 163.657  37.474  1.00  0.00     0.020 C 
BRANCH  31  32
HETATM   32  C2  UNL     1      13.239 165.079  37.112  1.00  0.00    -0.003 C 
HETATM   33  C1  UNL     1      14.281 165.660  38.009  1.00  0.00     0.005 C 
ENDBRANCH  31  32
ENDBRANCH  30  31
ENDBRANCH  28  30
ENDBRANCH   1  28
TORSDOF 7
ENDMDL
MODEL 2
REMARK VINA RESULT: -8.805121024      1.193      2.727
REMARK  7 active torsions:
REMARK  status: ('A' for Active; 'I' for Inactive)
REMARK    1  A    between atoms: C2_2  and  C3_3 
REMARK    2  A    between atoms: C3_3  and  C4_4 
REMARK    3  A    between atoms: C4_4  and  N1_5 
REMARK    4  A    between atoms: N1_5  and  C5_7 
REMARK    5  A    between atoms: C9_15  and  S1_16 
REMARK    6  A    between atoms: S1_16  and  C10_17 
REMARK    7  A    between atoms: C10_17  and  C11_18 
ROOT
HETATM    1  C5  UNL     1      12.627 160.564  35.589  1.00  0.00     0.680 A 
HETATM    2  N2  UNL     1      13.485 159.629  35.151  1.00  0.00    -0.177 N 
ATOM      3  H2  UNL     1      14.374 159.506  35.637  1.00  0.00     0.185 HD
HETATM    4  C6  UNL     1      13.208 158.854  34.094  1.00  0.00     0.155 A 
HETATM    5  N3  UNL     1      14.149 157.894  33.689  1.00  0.00    -0.080 NA
HETATM    6  C7  UNL     1      11.985 159.058  33.464  1.00  0.00     0.120 A 
HETATM    7  C8  UNL     1      11.675 158.250  32.348  1.00  0.00     0.106 C 
HETATM    8  N4  UNL     1      11.437 157.594  31.429  1.00  0.00    -0.191 NA
HETATM    9  C9  UNL     1      11.098 160.005  33.894  1.00  0.00     0.110 A 
HETATM   10  N5  UNL     1      11.442 160.746  34.958  1.00  0.00    -0.184 N 
ATOM     11  H5  UNL     1      10.798 161.460  35.299  1.00  0.00     0.185 HD
ENDROOT
BRANCH   9  12
HETATM   12  S1  UNL     1       9.535 160.264  33.086  1.00  0.00    -0.109 SA
BRANCH  12  13
HETATM   13  C10 UNL     1       9.897 160.787  31.382  1.00  0.00     0.093 C 
BRANCH  13  14
HETATM   14  C11 UNL     1       9.687 162.276  31.212  1.00  0.00     0.001 C 
HETATM   15  C12 UNL     1      10.579 162.937  32.272  1.00  0.00     0.018 C 
HETATM   16  C13 UNL     1      10.493 164.431  32.166  1.00  0.00    -0.013 C 
HETATM   17  C14 UNL     1       9.068 164.836  32.418  1.00  0.00     0.009 C 
HETATM   18  C18 UNL     1      10.957 164.834  30.776  1.00  0.00     0.012 C 
HETATM   19  C15 UNL     1       8.172 164.186  31.391  1.00  0.00    -0.013 C 
HETATM   20  C16 UNL     1       8.611 164.662  30.035  1.00  0.00     0.012 C 
HETATM   21  C23 UNL     1       8.262 162.677  31.412  1.00  0.00     0.018 C 
HETATM   22  C17 UNL     1      10.030 164.238  29.772  1.00  0.00     0.022 C 
HETATM   23  C19 UNL     1      10.169 162.712  29.844  1.00  0.00     0.073 C 
HETATM   24  C20 UNL     1       9.366 162.084  28.760  1.00  0.00     0.041 C 
HETATM   25  O1  UNL     1      11.504 162.434  29.654  1.00  0.00    -0.379 OA
HETATM   26  C21 UNL     1      10.402 161.556  27.807  1.00  0.00     0.029 C 
HETATM   27  C22 UNL     1      11.637 161.533  28.639  1.00  0.00     0.169 C 
ENDBRANCH  13  14
ENDBRANCH  12  13
ENDBRANCH   9  12
BRANCH   1  28
HETATM   28  N1  UNL     1      12.908 161.311  36.617  1.00  0.00    -0.226 N 
ATOM     29  H1  UNL     1      12.764 160.971  37.567  1.00  0.00     0.177 HD
BRANCH  28  30
HETATM   30  C4  UNL     1      13.432 162.640  36.374  1.00  0.00     0.138 C 
BRANCH  30  31
HETATM   31  C3  UNL     1      12.891 163.604  37.421  1.00  0.00     0.020 C 
BRANCH  31  32
HETATM   32  C2  UNL     1      12.583 164.951  36.810  1.00  0.00    -0.003 C 
HETATM   33  C1  UNL     1      12.169 164.854  35.379  1.00  0.00     0.005 C 
ENDBRANCH  31  32
ENDBRANCH  30  31
ENDBRANCH  28  30
ENDBRANCH   1  28
TORSDOF 7
ENDMDL
MODEL 3
REMARK VINA RESULT: -8.754224432      1.640      2.807
REMARK  7 active torsions:
REMARK  status: ('A' for Active; 'I' for Inactive)
REMARK    1  A    between atoms: C2_2  and  C3_3 
REMARK    2  A    between atoms: C3_3  and  C4_4 
REMARK    3  A    between atoms: C4_4  and  N1_5 
REMARK    4  A    between atoms: N1_5  and  C5_7 
REMARK    5  A    between atoms: C9_15  and  S1_16 
REMARK    6  A    between atoms: S1_16  and  C10_17 
REMARK    7  A    between atoms: C10_17  and  C11_18 
ROOT
HETATM    1  C5  UNL     1      12.783 161.898  35.947  1.00  0.00     0.680 A 
HETATM    2  N2  UNL     1      12.087 160.789  36.243  1.00  0.00    -0.177 N 
ATOM      3  H2  UNL     1      11.908 160.562  37.221  1.00  0.00     0.185 HD
HETATM    4  C6  UNL     1      11.620 159.971  35.289  1.00  0.00     0.155 A 
HETATM    5  N3  UNL     1      10.898 158.828  35.667  1.00  0.00    -0.080 NA
HETATM    6  C7  UNL     1      11.889 160.321  33.970  1.00  0.00     0.120 A 
HETATM    7  C8  UNL     1      11.405 159.472  32.951  1.00  0.00     0.106 C 
HETATM    8  N4  UNL     1      11.017 158.764  32.126  1.00  0.00    -0.191 NA
HETATM    9  C9  UNL     1      12.597 161.445  33.649  1.00  0.00     0.110 A 
HETATM   10  N5  UNL     1      13.034 162.217  34.655  1.00  0.00    -0.184 N 
ATOM     11  H5  UNL     1      13.565 163.062  34.443  1.00  0.00     0.185 HD
ENDROOT
BRANCH   9  12
HETATM   12  S1  UNL     1      12.939 161.889  31.961  1.00  0.00    -0.109 SA
BRANCH  12  13
HETATM   13  C10 UNL     1      11.345 161.927  31.086  1.00  0.00     0.093 C 
BRANCH  13  14
HETATM   14  C11 UNL     1      10.662 163.267  31.253  1.00  0.00     0.001 C 
HETATM   15  C12 UNL     1      10.769 163.953  29.883  1.00  0.00     0.018 C 
HETATM   16  C13 UNL     1      10.076 165.283  29.912  1.00  0.00    -0.013 C 
HETATM   17  C14 UNL     1      10.760 166.145  30.935  1.00  0.00     0.009 C 
HETATM   18  C18 UNL     1       8.615 165.046  30.259  1.00  0.00     0.012 C 
HETATM   19  C15 UNL     1      10.675 165.481  32.288  1.00  0.00    -0.013 C 
HETATM   20  C16 UNL     1       9.221 165.329  32.633  1.00  0.00     0.012 C 
HETATM   21  C23 UNL     1      11.309 164.108  32.304  1.00  0.00     0.018 C 
HETATM   22  C17 UNL     1       8.539 164.448  31.622  1.00  0.00     0.022 C 
HETATM   23  C19 UNL     1       9.195 163.063  31.570  1.00  0.00     0.073 C 
HETATM   24  C20 UNL     1       9.014 162.373  32.876  1.00  0.00     0.041 C 
HETATM   25  O1  UNL     1       8.545 162.362  30.580  1.00  0.00    -0.379 OA
HETATM   26  C21 UNL     1       8.027 161.280  32.571  1.00  0.00     0.029 C 
HETATM   27  C22 UNL     1       8.097 161.177  31.086  1.00  0.00     0.169 C 
ENDBRANCH  13  14
ENDBRANCH  12  13
ENDBRANCH   9  12
BRANCH   1  28
HETATM   28  N1  UNL     1      13.232 162.684  36.883  1.00  0.00    -0.226 N 
ATOM     29  H1  UNL     1      14.114 162.486  37.355  1.00  0.00     0.177 HD
BRANCH  28  30
HETATM   30  C4  UNL     1      12.444 163.846  37.236  1.00  0.00     0.138 C 
BRANCH  30  31
HETATM   31  C3  UNL     1      13.220 165.113  36.902  1.00  0.00     0.020 C 
BRANCH  31  32
HETATM   32  C2  UNL     1      14.291 165.381  37.932  1.00  0.00    -0.003 C 
HETATM   33  C1  UNL     1      14.738 166.806  37.943  1.00  0.00     0.005 C 
ENDBRANCH  31  32
ENDBRANCH  30  31
ENDBRANCH  28  30
ENDBRANCH   1  28
TORSDOF 7
ENDMDL
MODEL 4
REMARK VINA RESULT: -8.655922798      2.295      4.826
REMARK  7 active torsions:
REMARK  status: ('A' for Active; 'I' for Inactive)
REMARK    1  A    between atoms: C2_2  and  C3_3 
REMARK    2  A    between atoms: C3_3  and  C4_4 
REMARK    3  A    between atoms: C4_4  and  N1_5 
REMARK    4  A    between atoms: N1_5  and  C5_7 
REMARK    5  A    between atoms: C9_15  and  S1_16 
REMARK    6  A    between atoms: S1_16  and  C10_17 
REMARK    7  A    between atoms: C10_17  and  C11_18 
ROOT
HETATM    1  C5  UNL     1      10.751 158.444  30.971  1.00  0.00     0.680 A 
HETATM    2  N2  UNL     1      11.565 157.980  31.933  1.00  0.00    -0.177 N 
ATOM      3  H2  UNL     1      11.357 157.080  32.367  1.00  0.00     0.185 HD
HETATM    4  C6  UNL     1      12.643 158.665  32.338  1.00  0.00     0.155 A 
HETATM    5  N3  UNL     1      13.454 158.123  33.347  1.00  0.00    -0.080 NA
HETATM    6  C7  UNL     1      12.885 159.886  31.718  1.00  0.00     0.120 A 
HETATM    7  C8  UNL     1      14.017 160.622  32.131  1.00  0.00     0.106 C 
HETATM    8  N4  UNL     1      14.937 161.223  32.486  1.00  0.00    -0.191 NA
HETATM    9  C9  UNL     1      12.068 160.375  30.737  1.00  0.00     0.110 A 
HETATM   10  N5  UNL     1      11.006 159.636  30.382  1.00  0.00    -0.184 N 
ATOM     11  H5  UNL     1      10.380 159.978  29.653  1.00  0.00     0.185 HD
ENDROOT
BRANCH   9  12
HETATM   12  S1  UNL     1      12.381 161.937  29.946  1.00  0.00    -0.109 SA
BRANCH  12  13
HETATM   13  C10 UNL     1      12.400 163.202  31.252  1.00  0.00     0.093 C 
BRANCH  13  14
HETATM   14  C11 UNL     1      11.063 163.902  31.354  1.00  0.00     0.001 C 
HETATM   15  C12 UNL     1      10.117 163.111  30.439  1.00  0.00     0.018 C 
HETATM   16  C13 UNL     1       8.734 163.688  30.497  1.00  0.00    -0.013 C 
HETATM   17  C14 UNL     1       8.797 165.108  30.010  1.00  0.00     0.009 C 
HETATM   18  C18 UNL     1       8.248 163.606  31.935  1.00  0.00     0.012 C 
HETATM   19  C15 UNL     1       9.732 165.900  30.892  1.00  0.00    -0.013 C 
HETATM   20  C16 UNL     1       9.184 165.859  32.290  1.00  0.00     0.012 C 
HETATM   21  C23 UNL     1      11.132 165.328  30.918  1.00  0.00     0.018 C 
HETATM   22  C17 UNL     1       9.141 164.441  32.789  1.00  0.00     0.022 C 
HETATM   23  C19 UNL     1      10.539 163.810  32.773  1.00  0.00     0.073 C 
HETATM   24  C20 UNL     1      11.425 164.532  33.726  1.00  0.00     0.041 C 
HETATM   25  O1  UNL     1      10.382 162.505  33.182  1.00  0.00    -0.379 OA
HETATM   26  C21 UNL     1      11.625 163.548  34.845  1.00  0.00     0.029 C 
HETATM   27  C22 UNL     1      11.225 162.254  34.224  1.00  0.00     0.169 C 
ENDBRANCH  13  14
ENDBRANCH  12  13
ENDBRANCH   9  12
BRANCH   1  28
HETATM   28  N1  UNL     1       9.706 157.768  30.587  1.00  0.00    -0.226 N 
ATOM     29  H1  UNL     1       9.639 156.765  30.759  1.00  0.00     0.177 HD
BRANCH  28  30
HETATM   30  C4  UNL     1       8.642 158.480  29.910  1.00  0.00     0.138 C 
BRANCH  30  31
HETATM   31  C3  UNL     1       7.408 158.528  30.800  1.00  0.00     0.020 C 
BRANCH  31  32
HETATM   32  C2  UNL     1       7.204 159.911  31.371  1.00  0.00    -0.003 C 
HETATM   33  C1  UNL     1       7.972 160.135  32.631  1.00  0.00     0.005 C 
ENDBRANCH  31  32
ENDBRANCH  30  31
ENDBRANCH  28  30
ENDBRANCH   1  28
TORSDOF 7
ENDMDL
MODEL 5
REMARK VINA RESULT: -8.638676573      1.809      4.684
REMARK  7 active torsions:
REMARK  status: ('A' for Active; 'I' for Inactive)
REMARK    1  A    between atoms: C2_2  and  C3_3 
REMARK    2  A    between atoms: C3_3  and  C4_4 
REMARK    3  A    between atoms: C4_4  and  N1_5 
REMARK    4  A    between atoms: N1_5  and  C5_7 
REMARK    5  A    between atoms: C9_15  and  S1_16 
REMARK    6  A    between atoms: S1_16  and  C10_17 
REMARK    7  A    between atoms: C10_17  and  C11_18 
ROOT
HETATM    1  C5  UNL     1      12.021 158.637  32.755  1.00  0.00     0.680 A 
HETATM    2  N2  UNL     1      13.285 158.517  33.190  1.00  0.00    -0.177 N 
ATOM      3  H2  UNL     1      13.846 157.727  32.872  1.00  0.00     0.185 HD
HETATM    4  C6  UNL     1      13.831 159.407  34.030  1.00  0.00     0.155 A 
HETATM    5  N3  UNL     1      15.159 159.224  34.446  1.00  0.00    -0.080 NA
HETATM    6  C7  UNL     1      13.028 160.467  34.437  1.00  0.00     0.120 A 
HETATM    7  C8  UNL     1      13.586 161.416  35.322  1.00  0.00     0.106 C 
HETATM    8  N4  UNL     1      14.046 162.177  36.057  1.00  0.00    -0.191 NA
HETATM    9  C9  UNL     1      11.738 160.606  34.005  1.00  0.00     0.110 A 
HETATM   10  N5  UNL     1      11.257 159.677  33.165  1.00  0.00    -0.184 N 
ATOM     11  H5  UNL     1      10.298 159.757  32.828  1.00  0.00     0.185 HD
ENDROOT
BRANCH   9  12
HETATM   12  S1  UNL     1      10.714 161.963  34.527  1.00  0.00    -0.109 SA
BRANCH  12  13
HETATM   13  C10 UNL     1      10.974 163.315  33.339  1.00  0.00     0.093 C 
BRANCH  13  14
HETATM   14  C11 UNL     1      10.074 163.162  32.132  1.00  0.00     0.001 C 
HETATM   15  C12 UNL     1       8.853 162.375  32.631  1.00  0.00     0.018 C 
HETATM   16  C13 UNL     1       7.857 162.204  31.522  1.00  0.00    -0.013 C 
HETATM   17  C14 UNL     1       8.514 161.422  30.419  1.00  0.00     0.009 C 
HETATM   18  C18 UNL     1       7.427 163.585  31.056  1.00  0.00     0.012 C 
HETATM   19  C15 UNL     1       9.725 162.175  29.923  1.00  0.00    -0.013 C 
HETATM   20  C16 UNL     1       9.255 163.503  29.403  1.00  0.00     0.012 C 
HETATM   21  C23 UNL     1      10.740 162.428  31.015  1.00  0.00     0.018 C 
HETATM   22  C17 UNL     1       8.618 164.297  30.510  1.00  0.00     0.022 C 
HETATM   23  C19 UNL     1       9.605 164.523  31.662  1.00  0.00     0.073 C 
HETATM   24  C20 UNL     1      10.743 165.356  31.190  1.00  0.00     0.041 C 
HETATM   25  O1  UNL     1       8.911 165.196  32.642  1.00  0.00    -0.379 OA
HETATM   26  C21 UNL     1      10.531 166.676  31.878  1.00  0.00     0.029 C 
HETATM   27  C22 UNL     1       9.593 166.328  32.982  1.00  0.00     0.169 C 
ENDBRANCH  13  14
ENDBRANCH  12  13
ENDBRANCH   9  12
BRANCH   1  28
HETATM   28  N1  UNL     1      11.502 157.765  31.939  1.00  0.00    -0.226 N 
ATOM     29  H1  UNL     1      11.712 156.772  32.031  1.00  0.00     0.177 HD
BRANCH  28  30
HETATM   30  C4  UNL     1      10.619 158.245  30.896  1.00  0.00     0.138 C 
BRANCH  30  31
HETATM   31  C3  UNL     1      11.441 158.845  29.763  1.00  0.00     0.020 C 
BRANCH  31  32
HETATM   32  C2  UNL     1      10.715 158.725  28.444  1.00  0.00    -0.003 C 
HETATM   33  C1  UNL     1      10.997 157.435  27.746  1.00  0.00     0.005 C 
ENDBRANCH  31  32
ENDBRANCH  30  31
ENDBRANCH  28  30
ENDBRANCH   1  28
TORSDOF 7
ENDMDL
