MODEL 1
REMARK VINA RESULT: -7.519629588      0.000      0.000
REMARK  12 active torsions:
REMARK  status: ('A' for Active; 'I' for Inactive)
REMARK    1  A    between atoms: C2_3  and  C3_4 
REMARK    2  A    between atoms: C3_4  and  O1_5 
REMARK    3  A    between atoms: C3_4  and  C4_7 
REMARK    4  A    between atoms: C4_7  and  N2_8 
REMARK    5  A    between atoms: C4_7  and  C5_12 
REMARK    6  A    between atoms: C5_12  and  N3_13 
REMARK    7  A    between atoms: C5_12  and  O2_17 
REMARK    8  A    between atoms: C6_23  and  N6_24 
REMARK       I    between atoms: N6_24  and  C7_26 
REMARK    9  A    between atoms: C7_26  and  C8_28 
REMARK   10  A    between atoms: C8_28  and  N7_29 
REMARK   11  A    between atoms: C8_28  and  C9_33 
REMARK   12  A    between atoms: C12_36  and  C13_37 
ROOT
HETATM    1  C1  UNL     1     -21.456   5.928   9.323  1.00  0.00     0.177 C 
HETATM    2  N1  UNL     1     -21.232   5.057  10.490  1.00  0.00    -0.167 N 
HETATM    3  C2  UNL     1     -20.021   4.614  10.852  1.00  0.00     0.169 A 
HETATM    4  N4  UNL     1     -20.268   3.816  11.951  1.00  0.00    -0.269 N 
ATOM      5  H4  UNL     1     -19.560   3.311  12.485  1.00  0.00     0.189 HD
HETATM    6  N5  UNL     1     -21.557   3.807  12.203  1.00  0.00    -0.130 N 
ATOM      7  H5  UNL     1     -22.004   3.294  12.963  1.00  0.00     0.205 HD
HETATM    8  C6  UNL     1     -22.200   4.578  11.308  1.00  0.00     0.703 A 
ENDROOT
BRANCH   8   9
HETATM    9  N6  UNL     1     -23.444   4.850  11.181  1.00  0.00    -0.156 N 
HETATM   10  C7  UNL     1     -24.437   4.220  12.027  1.00  0.00     0.272 C 
HETATM   11  O3  UNL     1     -25.084   3.253  11.613  1.00  0.00    -0.270 OA
ATOM     12  H6  UNL     1     -23.741   5.521  10.473  1.00  0.00     0.187 HD
BRANCH  10  13
HETATM   13  C8  UNL     1     -24.599   4.806  13.356  1.00  0.00     0.325 C 
BRANCH  13  14
HETATM   14  N7  UNL     1     -25.456   6.048  13.209  1.00  0.00    -0.061 N 
ATOM     15  H73 UNL     1     -26.390   5.845  12.856  1.00  0.00     0.275 HD
ATOM     16  H72 UNL     1     -25.735   6.446  14.106  1.00  0.00     0.275 HD
ATOM     17  H71 UNL     1     -24.945   6.709  12.624  1.00  0.00     0.275 HD
ENDBRANCH  13  14
BRANCH  13  18
HETATM   18  C9  UNL     1     -25.332   3.985  14.338  1.00  0.00     0.049 A 
HETATM   19  C10 UNL     1     -26.564   4.257  14.867  1.00  0.00     0.028 A 
HETATM   20  C11 UNL     1     -27.151   3.429  15.816  1.00  0.00     0.019 A 
HETATM   21  C12 UNL     1     -26.535   2.293  16.283  1.00  0.00     0.063 A 
HETATM   22  C14 UNL     1     -25.271   2.047  15.717  1.00  0.00     0.104 A 
HETATM   23  N8  UNL     1     -24.721   2.845  14.803  1.00  0.00    -0.366 N 
ATOM     24  H8  UNL     1     -23.803   2.599  14.432  1.00  0.00     0.165 HD
BRANCH  21  25
HETATM   25  C13 UNL     1     -27.106   1.439  17.353  1.00  0.00     0.418 C 
HETATM   26  F1  UNL     1     -26.480   0.251  17.572  1.00  0.00    -0.166 F 
HETATM   27  F2  UNL     1     -28.494   1.293  17.085  1.00  0.00    -0.166 F 
HETATM   28  F3  UNL     1     -27.079   2.181  18.530  1.00  0.00    -0.166 F 
ENDBRANCH  21  25
ENDBRANCH  13  18
ENDBRANCH  10  13
ENDBRANCH   8   9
BRANCH   3  29
HETATM   29  C3  UNL     1     -18.678   4.903  10.436  1.00  0.00     0.124 C 
BRANCH  29  30
HETATM   30  O1  UNL     1     -18.040   3.963   9.796  1.00  0.00    -0.359 OA
ATOM     31  H1  UNL     1     -17.405   4.238   9.145  1.00  0.00     0.217 HD
ENDBRANCH  29  30
BRANCH  29  32
HETATM   32  C4  UNL     1     -17.922   6.125  10.646  1.00  0.00     0.298 C 
BRANCH  32  33
HETATM   33  N2  UNL     1     -17.161   6.507   9.460  1.00  0.00    -0.065 N 
ATOM     34  H23 UNL     1     -17.705   6.367   8.609  1.00  0.00     0.275 HD
ATOM     35  H22 UNL     1     -17.039   7.519   9.409  1.00  0.00     0.275 HD
ATOM     36  H21 UNL     1     -16.264   6.023   9.411  1.00  0.00     0.275 HD
ENDBRANCH  32  33
BRANCH  32  37
HETATM   37  C5  UNL     1     -16.779   5.775  11.661  1.00  0.00     0.353 C 
BRANCH  37  38
HETATM   38  N3  UNL     1     -15.604   5.589  10.890  1.00  0.00    -0.051 N 
ATOM     39  H33 UNL     1     -15.168   4.678  11.032  1.00  0.00     0.277 HD
ATOM     40  H32 UNL     1     -15.787   5.487   9.892  1.00  0.00     0.277 HD
ATOM     41  H31 UNL     1     -14.989   6.372  11.111  1.00  0.00     0.277 HD
ENDBRANCH  37  38
BRANCH  37  42
HETATM   42  O2  UNL     1     -17.176   4.676  12.372  1.00  0.00    -0.368 OA
ATOM     43  H2  UNL     1     -16.527   3.996  12.237  1.00  0.00     0.212 HD
ENDBRANCH  37  42
ENDBRANCH  32  37
ENDBRANCH  29  32
ENDBRANCH   3  29
TORSDOF 12
ENDMDL
MODEL 2
REMARK VINA RESULT: -7.224428870      0.967      1.007
REMARK  12 active torsions:
REMARK  status: ('A' for Active; 'I' for Inactive)
REMARK    1  A    between atoms: C2_3  and  C3_4 
REMARK    2  A    between atoms: C3_4  and  O1_5 
REMARK    3  A    between atoms: C3_4  and  C4_7 
REMARK    4  A    between atoms: C4_7  and  N2_8 
REMARK    5  A    between atoms: C4_7  and  C5_12 
REMARK    6  A    between atoms: C5_12  and  N3_13 
REMARK    7  A    between atoms: C5_12  and  O2_17 
REMARK    8  A    between atoms: C6_23  and  N6_24 
REMARK       I    between atoms: N6_24  and  C7_26 
REMARK    9  A    between atoms: C7_26  and  C8_28 
REMARK   10  A    between atoms: C8_28  and  N7_29 
REMARK   11  A    between atoms: C8_28  and  C9_33 
REMARK   12  A    between atoms: C12_36  and  C13_37 
ROOT
HETATM    1  C1  UNL     1     -21.326   6.036   9.628  1.00  0.00     0.177 C 
HETATM    2  N1  UNL     1     -21.263   5.022  10.695  1.00  0.00    -0.167 N 
HETATM    3  C2  UNL     1     -20.125   4.423  11.069  1.00  0.00     0.169 A 
HETATM    4  N4  UNL     1     -20.518   3.535  12.051  1.00  0.00    -0.269 N 
ATOM      5  H4  UNL     1     -19.898   2.906  12.560  1.00  0.00     0.189 HD
HETATM    6  N5  UNL     1     -21.817   3.627  12.226  1.00  0.00    -0.130 N 
ATOM      7  H5  UNL     1     -22.359   3.078  12.894  1.00  0.00     0.205 HD
HETATM    8  C6  UNL     1     -22.324   4.553  11.394  1.00  0.00     0.703 A 
ENDROOT
BRANCH   8   9
HETATM    9  N6  UNL     1     -23.526   4.960  11.231  1.00  0.00    -0.156 N 
HETATM   10  C7  UNL     1     -24.613   4.412  12.015  1.00  0.00     0.272 C 
HETATM   11  O3  UNL     1     -25.341   3.533  11.541  1.00  0.00    -0.270 OA
ATOM     12  H6  UNL     1     -23.721   5.682  10.537  1.00  0.00     0.187 HD
BRANCH  10  13
HETATM   13  C8  UNL     1     -24.768   4.969  13.358  1.00  0.00     0.325 C 
BRANCH  13  14
HETATM   14  N7  UNL     1     -25.664   6.187  13.250  1.00  0.00    -0.061 N 
ATOM     15  H73 UNL     1     -25.141   7.062  13.217  1.00  0.00     0.275 HD
ATOM     16  H72 UNL     1     -26.117   6.266  12.340  1.00  0.00     0.275 HD
ATOM     17  H71 UNL     1     -26.329   6.150  14.022  1.00  0.00     0.275 HD
ENDBRANCH  13  14
BRANCH  13  18
HETATM   18  C9  UNL     1     -25.458   4.107  14.336  1.00  0.00     0.049 A 
HETATM   19  C10 UNL     1     -26.648   4.374  14.956  1.00  0.00     0.028 A 
HETATM   20  C11 UNL     1     -27.194   3.505  15.893  1.00  0.00     0.019 A 
HETATM   21  C12 UNL     1     -26.577   2.333  16.257  1.00  0.00     0.063 A 
HETATM   22  C14 UNL     1     -25.356   2.095  15.600  1.00  0.00     0.104 A 
HETATM   23  N8  UNL     1     -24.845   2.931  14.699  1.00  0.00    -0.366 N 
ATOM     24  H8  UNL     1     -23.958   2.689  14.258  1.00  0.00     0.165 HD
BRANCH  21  25
HETATM   25  C13 UNL     1     -27.100   1.431  17.312  1.00  0.00     0.418 C 
HETATM   26  F1  UNL     1     -26.429   0.261  17.489  1.00  0.00    -0.166 F 
HETATM   27  F2  UNL     1     -28.486   1.243  17.061  1.00  0.00    -0.166 F 
HETATM   28  F3  UNL     1     -27.081   2.142  18.509  1.00  0.00    -0.166 F 
ENDBRANCH  21  25
ENDBRANCH  13  18
ENDBRANCH  10  13
ENDBRANCH   8   9
BRANCH   3  29
HETATM   29  C3  UNL     1     -18.736   4.622  10.766  1.00  0.00     0.124 C 
BRANCH  29  30
HETATM   30  O1  UNL     1     -18.236   3.923   9.786  1.00  0.00    -0.359 OA
ATOM     31  H1  UNL     1     -17.292   3.819   9.766  1.00  0.00     0.217 HD
ENDBRANCH  29  30
BRANCH  29  32
HETATM   32  C4  UNL     1     -17.796   5.510  11.428  1.00  0.00     0.298 C 
BRANCH  32  33
HETATM   33  N2  UNL     1     -18.458   6.382  12.394  1.00  0.00    -0.065 N 
ATOM     34  H23 UNL     1     -19.319   5.961  12.744  1.00  0.00     0.275 HD
ATOM     35  H22 UNL     1     -17.935   6.428  13.270  1.00  0.00     0.275 HD
ATOM     36  H21 UNL     1     -18.628   7.313  12.014  1.00  0.00     0.275 HD
ENDBRANCH  32  33
BRANCH  32  37
HETATM   37  C5  UNL     1     -17.315   6.538  10.347  1.00  0.00     0.353 C 
BRANCH  37  38
HETATM   38  N3  UNL     1     -16.008   6.139   9.971  1.00  0.00    -0.051 N 
ATOM     39  H33 UNL     1     -15.455   6.895   9.567  1.00  0.00     0.277 HD
ATOM     40  H32 UNL     1     -15.398   5.949  10.766  1.00  0.00     0.277 HD
ATOM     41  H31 UNL     1     -16.120   5.341   9.347  1.00  0.00     0.277 HD
ENDBRANCH  37  38
BRANCH  37  42
HETATM   42  O2  UNL     1     -17.393   7.788  10.898  1.00  0.00    -0.368 OA
ATOM     43  H2  UNL     1     -18.215   8.175  10.620  1.00  0.00     0.212 HD
ENDBRANCH  37  42
ENDBRANCH  32  37
ENDBRANCH  29  32
ENDBRANCH   3  29
TORSDOF 12
ENDMDL
MODEL 3
REMARK VINA RESULT: -7.051494397      1.035      1.062
REMARK  12 active torsions:
REMARK  status: ('A' for Active; 'I' for Inactive)
REMARK    1  A    between atoms: C2_3  and  C3_4 
REMARK    2  A    between atoms: C3_4  and  O1_5 
REMARK    3  A    between atoms: C3_4  and  C4_7 
REMARK    4  A    between atoms: C4_7  and  N2_8 
REMARK    5  A    between atoms: C4_7  and  C5_12 
REMARK    6  A    between atoms: C5_12  and  N3_13 
REMARK    7  A    between atoms: C5_12  and  O2_17 
REMARK    8  A    between atoms: C6_23  and  N6_24 
REMARK       I    between atoms: N6_24  and  C7_26 
REMARK    9  A    between atoms: C7_26  and  C8_28 
REMARK   10  A    between atoms: C8_28  and  N7_29 
REMARK   11  A    between atoms: C8_28  and  C9_33 
REMARK   12  A    between atoms: C12_36  and  C13_37 
ROOT
HETATM    1  C1  UNL     1     -21.669   7.227  10.610  1.00  0.00     0.177 C 
HETATM    2  N1  UNL     1     -21.284   5.902  11.127  1.00  0.00    -0.167 N 
HETATM    3  C2  UNL     1     -20.011   5.540  11.334  1.00  0.00     0.169 A 
HETATM    4  N4  UNL     1     -20.101   4.234  11.776  1.00  0.00    -0.269 N 
ATOM      5  H4  UNL     1     -19.310   3.642  12.030  1.00  0.00     0.189 HD
HETATM    6  N5  UNL     1     -21.363   3.874  11.819  1.00  0.00    -0.130 N 
ATOM      7  H5  UNL     1     -21.702   2.957  12.111  1.00  0.00     0.205 HD
HETATM    8  C6  UNL     1     -22.141   4.896  11.420  1.00  0.00     0.703 A 
ENDROOT
BRANCH   8   9
HETATM    9  N6  UNL     1     -23.413   4.982  11.309  1.00  0.00    -0.156 N 
HETATM   10  C7  UNL     1     -24.292   4.233  12.182  1.00  0.00     0.272 C 
HETATM   11  O3  UNL     1     -24.798   3.174  11.797  1.00  0.00    -0.270 OA
ATOM     12  H6  UNL     1     -23.814   5.589  10.594  1.00  0.00     0.187 HD
BRANCH  10  13
HETATM   13  C8  UNL     1     -24.519   4.816  13.503  1.00  0.00     0.325 C 
BRANCH  13  14
HETATM   14  N7  UNL     1     -25.389   6.044  13.320  1.00  0.00    -0.061 N 
ATOM     15  H73 UNL     1     -25.741   6.142  12.368  1.00  0.00     0.275 HD
ATOM     16  H72 UNL     1     -26.292   5.964  13.788  1.00  0.00     0.275 HD
ATOM     17  H71 UNL     1     -24.851   6.853  13.630  1.00  0.00     0.275 HD
ENDBRANCH  13  14
BRANCH  13  18
HETATM   18  C9  UNL     1     -25.280   3.982  14.453  1.00  0.00     0.049 A 
HETATM   19  C10 UNL     1     -26.549   4.219  14.907  1.00  0.00     0.028 A 
HETATM   20  C11 UNL     1     -27.161   3.383  15.833  1.00  0.00     0.019 A 
HETATM   21  C12 UNL     1     -26.535   2.276  16.352  1.00  0.00     0.063 A 
HETATM   22  C14 UNL     1     -25.232   2.067  15.863  1.00  0.00     0.104 A 
HETATM   23  N8  UNL     1     -24.658   2.871  14.971  1.00  0.00    -0.366 N 
ATOM     24  H8  UNL     1     -23.712   2.653  14.656  1.00  0.00     0.165 HD
BRANCH  21  25
HETATM   25  C13 UNL     1     -27.138   1.417  17.401  1.00  0.00     0.418 C 
HETATM   26  F1  UNL     1     -26.513   0.232  17.639  1.00  0.00    -0.166 F 
HETATM   27  F2  UNL     1     -28.515   1.263  17.084  1.00  0.00    -0.166 F 
HETATM   28  F3  UNL     1     -27.156   2.157  18.579  1.00  0.00    -0.166 F 
ENDBRANCH  21  25
ENDBRANCH  13  18
ENDBRANCH  10  13
ENDBRANCH   8   9
BRANCH   3  29
HETATM   29  C3  UNL     1     -18.752   6.228  11.316  1.00  0.00     0.124 C 
BRANCH  29  30
HETATM   30  O1  UNL     1     -18.111   6.261  10.182  1.00  0.00    -0.359 OA
ATOM     31  H1  UNL     1     -17.208   6.557  10.204  1.00  0.00     0.217 HD
ENDBRANCH  29  30
BRANCH  29  32
HETATM   32  C4  UNL     1     -18.085   6.898  12.418  1.00  0.00     0.298 C 
BRANCH  32  33
HETATM   33  N2  UNL     1     -17.561   8.204  12.028  1.00  0.00    -0.065 N 
ATOM     34  H23 UNL     1     -18.241   8.725  11.473  1.00  0.00     0.275 HD
ATOM     35  H22 UNL     1     -17.493   8.831  12.830  1.00  0.00     0.275 HD
ATOM     36  H21 UNL     1     -16.668   8.126  11.541  1.00  0.00     0.275 HD
ENDBRANCH  32  33
BRANCH  32  37
HETATM   37  C5  UNL     1     -16.768   6.096  12.699  1.00  0.00     0.353 C 
BRANCH  37  38
HETATM   38  N3  UNL     1     -15.743   6.742  11.963  1.00  0.00    -0.051 N 
ATOM     39  H33 UNL     1     -16.052   7.081  11.052  1.00  0.00     0.277 HD
ATOM     40  H32 UNL     1     -15.474   7.646  12.350  1.00  0.00     0.277 HD
ATOM     41  H31 UNL     1     -14.969   6.080  11.907  1.00  0.00     0.277 HD
ENDBRANCH  37  38
BRANCH  37  42
HETATM   42  O2  UNL     1     -16.990   4.793  12.345  1.00  0.00    -0.368 OA
ATOM     43  H2  UNL     1     -16.203   4.301  12.547  1.00  0.00     0.212 HD
ENDBRANCH  37  42
ENDBRANCH  32  37
ENDBRANCH  29  32
ENDBRANCH   3  29
TORSDOF 12
ENDMDL
MODEL 4
REMARK VINA RESULT: -6.918982864      1.060      1.794
REMARK  12 active torsions:
REMARK  status: ('A' for Active; 'I' for Inactive)
REMARK    1  A    between atoms: C2_3  and  C3_4 
REMARK    2  A    between atoms: C3_4  and  O1_5 
REMARK    3  A    between atoms: C3_4  and  C4_7 
REMARK    4  A    between atoms: C4_7  and  N2_8 
REMARK    5  A    between atoms: C4_7  and  C5_12 
REMARK    6  A    between atoms: C5_12  and  N3_13 
REMARK    7  A    between atoms: C5_12  and  O2_17 
REMARK    8  A    between atoms: C6_23  and  N6_24 
REMARK       I    between atoms: N6_24  and  C7_26 
REMARK    9  A    between atoms: C7_26  and  C8_28 
REMARK   10  A    between atoms: C8_28  and  N7_29 
REMARK   11  A    between atoms: C8_28  and  C9_33 
REMARK   12  A    between atoms: C12_36  and  C13_37 
ROOT
HETATM    1  C1  UNL     1     -21.416   6.390   9.998  1.00  0.00     0.177 C 
HETATM    2  N1  UNL     1     -21.322   5.211  10.875  1.00  0.00    -0.167 N 
HETATM    3  C2  UNL     1     -20.159   4.622  11.187  1.00  0.00     0.169 A 
HETATM    4  N4  UNL     1     -20.526   3.555  11.983  1.00  0.00    -0.269 N 
ATOM      5  H4  UNL     1     -19.882   2.883  12.401  1.00  0.00     0.189 HD
HETATM    6  N5  UNL     1     -21.832   3.539  12.118  1.00  0.00    -0.130 N 
ATOM      7  H5  UNL     1     -22.358   2.852  12.657  1.00  0.00     0.205 HD
HETATM    8  C6  UNL     1     -22.371   4.566  11.437  1.00  0.00     0.703 A 
ENDROOT
BRANCH   8   9
HETATM    9  N6  UNL     1     -23.591   4.925  11.297  1.00  0.00    -0.156 N 
HETATM   10  C7  UNL     1     -24.639   4.348  12.113  1.00  0.00     0.272 C 
HETATM   11  O3  UNL     1     -25.344   3.436  11.669  1.00  0.00    -0.270 OA
ATOM     12  H6  UNL     1     -23.830   5.630  10.599  1.00  0.00     0.187 HD
BRANCH  10  13
HETATM   13  C8  UNL     1     -24.784   4.917  13.452  1.00  0.00     0.325 C 
BRANCH  13  14
HETATM   14  N7  UNL     1     -25.657   6.150  13.335  1.00  0.00    -0.061 N 
ATOM     15  H73 UNL     1     -26.478   6.114  13.940  1.00  0.00     0.275 HD
ATOM     16  H72 UNL     1     -25.227   6.981  13.741  1.00  0.00     0.275 HD
ATOM     17  H71 UNL     1     -25.895   6.268  12.350  1.00  0.00     0.275 HD
ENDBRANCH  13  14
BRANCH  13  18
HETATM   18  C9  UNL     1     -25.491   4.076  14.436  1.00  0.00     0.049 A 
HETATM   19  C10 UNL     1     -26.709   4.334  15.001  1.00  0.00     0.028 A 
HETATM   20  C11 UNL     1     -27.270   3.488  15.949  1.00  0.00     0.019 A 
HETATM   21  C12 UNL     1     -26.640   2.346  16.381  1.00  0.00     0.063 A 
HETATM   22  C14 UNL     1     -25.389   2.115  15.779  1.00  0.00     0.104 A 
HETATM   23  N8  UNL     1     -24.864   2.930  14.867  1.00  0.00    -0.366 N 
ATOM     24  H8  UNL     1     -23.955   2.694  14.469  1.00  0.00     0.165 HD
BRANCH  21  25
HETATM   25  C13 UNL     1     -27.181   1.471  17.450  1.00  0.00     0.418 C 
HETATM   26  F1  UNL     1     -28.461   1.042  17.283  1.00  0.00    -0.166 F 
HETATM   27  F2  UNL     1     -26.976   2.139  18.688  1.00  0.00    -0.166 F 
HETATM   28  F3  UNL     1     -26.346   0.362  17.537  1.00  0.00    -0.166 F 
ENDBRANCH  21  25
ENDBRANCH  13  18
ENDBRANCH  10  13
ENDBRANCH   8   9
BRANCH   3  29
HETATM   29  C3  UNL     1     -18.777   4.950  10.980  1.00  0.00     0.124 C 
BRANCH  29  30
HETATM   30  O1  UNL     1     -18.152   5.531  11.965  1.00  0.00    -0.359 OA
ATOM     31  H1  UNL     1     -18.191   6.480  12.002  1.00  0.00     0.217 HD
ENDBRANCH  29  30
BRANCH  29  32
HETATM   32  C4  UNL     1     -17.974   4.721   9.792  1.00  0.00     0.298 C 
BRANCH  32  33
HETATM   33  N2  UNL     1     -17.619   5.971   9.125  1.00  0.00    -0.065 N 
ATOM     34  H23 UNL     1     -18.416   6.605   9.077  1.00  0.00     0.275 HD
ATOM     35  H22 UNL     1     -16.997   6.536   9.704  1.00  0.00     0.275 HD
ATOM     36  H21 UNL     1     -17.218   5.808   8.201  1.00  0.00     0.275 HD
ENDBRANCH  32  33
BRANCH  32  37
HETATM   37  C5  UNL     1     -18.917   4.051   8.735  1.00  0.00     0.353 C 
BRANCH  37  38
HETATM   38  N3  UNL     1     -18.232   2.907   8.258  1.00  0.00    -0.051 N 
ATOM     39  H33 UNL     1     -18.012   2.232   8.990  1.00  0.00     0.277 HD
ATOM     40  H32 UNL     1     -18.817   2.291   7.691  1.00  0.00     0.277 HD
ATOM     41  H31 UNL     1     -17.409   3.250   7.763  1.00  0.00     0.277 HD
ENDBRANCH  37  38
BRANCH  37  42
HETATM   42  O2  UNL     1     -19.201   4.987   7.778  1.00  0.00    -0.368 OA
ATOM     43  H2  UNL     1     -19.345   5.816   8.219  1.00  0.00     0.212 HD
ENDBRANCH  37  42
ENDBRANCH  32  37
ENDBRANCH  29  32
ENDBRANCH   3  29
TORSDOF 12
ENDMDL
MODEL 5
REMARK VINA RESULT: -6.819864056      3.987      6.490
REMARK  12 active torsions:
REMARK  status: ('A' for Active; 'I' for Inactive)
REMARK    1  A    between atoms: C2_3  and  C3_4 
REMARK    2  A    between atoms: C3_4  and  O1_5 
REMARK    3  A    between atoms: C3_4  and  C4_7 
REMARK    4  A    between atoms: C4_7  and  N2_8 
REMARK    5  A    between atoms: C4_7  and  C5_12 
REMARK    6  A    between atoms: C5_12  and  N3_13 
REMARK    7  A    between atoms: C5_12  and  O2_17 
REMARK    8  A    between atoms: C6_23  and  N6_24 
REMARK       I    between atoms: N6_24  and  C7_26 
REMARK    9  A    between atoms: C7_26  and  C8_28 
REMARK   10  A    between atoms: C8_28  and  N7_29 
REMARK   11  A    between atoms: C8_28  and  C9_33 
REMARK   12  A    between atoms: C12_36  and  C13_37 
ROOT
HETATM    1  C1  UNL     1     -24.636   6.920   9.153  1.00  0.00     0.177 C 
HETATM    2  N1  UNL     1     -25.414   7.158  10.382  1.00  0.00    -0.167 N 
HETATM    3  C2  UNL     1     -26.525   7.905  10.411  1.00  0.00     0.169 A 
HETATM    4  N4  UNL     1     -26.902   7.895  11.740  1.00  0.00    -0.269 N 
ATOM      5  H4  UNL     1     -27.718   8.372  12.125  1.00  0.00     0.189 HD
HETATM    6  N5  UNL     1     -26.048   7.175  12.430  1.00  0.00    -0.130 N 
ATOM      7  H5  UNL     1     -26.099   7.008  13.435  1.00  0.00     0.205 HD
HETATM    8  C6  UNL     1     -25.097   6.691  11.613  1.00  0.00     0.703 A 
ENDROOT
BRANCH   8   9
HETATM    9  N6  UNL     1     -24.082   5.951  11.860  1.00  0.00    -0.156 N 
HETATM   10  C7  UNL     1     -24.058   5.075  13.012  1.00  0.00     0.272 C 
HETATM   11  O3  UNL     1     -23.471   5.420  14.044  1.00  0.00    -0.270 OA
ATOM     12  H6  UNL     1     -23.277   5.979  11.233  1.00  0.00     0.187 HD
BRANCH  10  13
HETATM   13  C8  UNL     1     -24.758   3.802  12.854  1.00  0.00     0.325 C 
BRANCH  13  14
HETATM   14  N7  UNL     1     -23.721   2.745  12.529  1.00  0.00    -0.061 N 
ATOM     15  H73 UNL     1     -22.827   2.911  12.992  1.00  0.00     0.275 HD
ATOM     16  H72 UNL     1     -23.927   1.842  12.955  1.00  0.00     0.275 HD
ATOM     17  H71 UNL     1     -23.638   2.695  11.513  1.00  0.00     0.275 HD
ENDBRANCH  13  14
BRANCH  13  18
HETATM   18  C9  UNL     1     -25.427   3.281  14.061  1.00  0.00     0.049 A 
HETATM   19  C10 UNL     1     -26.463   3.869  14.734  1.00  0.00     0.028 A 
HETATM   20  C11 UNL     1     -26.998   3.306  15.886  1.00  0.00     0.019 A 
HETATM   21  C12 UNL     1     -26.523   2.134  16.422  1.00  0.00     0.063 A 
HETATM   22  C14 UNL     1     -25.458   1.560  15.703  1.00  0.00     0.104 A 
HETATM   23  N8  UNL     1     -24.957   2.105  14.597  1.00  0.00    -0.366 N 
ATOM     24  H8  UNL     1     -24.189   1.628  14.124  1.00  0.00     0.165 HD
BRANCH  21  25
HETATM   25  C13 UNL     1     -27.025   1.558  17.694  1.00  0.00     0.418 C 
HETATM   26  F1  UNL     1     -26.960   2.367  18.785  1.00  0.00    -0.166 F 
HETATM   27  F2  UNL     1     -26.365   0.314  17.886  1.00  0.00    -0.166 F 
HETATM   28  F3  UNL     1     -28.352   1.194  17.486  1.00  0.00    -0.166 F 
ENDBRANCH  21  25
ENDBRANCH  13  18
ENDBRANCH  10  13
ENDBRANCH   8   9
BRANCH   3  29
HETATM   29  C3  UNL     1     -27.356   8.513   9.412  1.00  0.00     0.124 C 
BRANCH  29  30
HETATM   30  O1  UNL     1     -28.523   7.973   9.201  1.00  0.00    -0.359 OA
ATOM     31  H1  UNL     1     -28.573   7.025   9.238  1.00  0.00     0.217 HD
ENDBRANCH  29  30
BRANCH  29  32
HETATM   32  C4  UNL     1     -27.056   9.669   8.584  1.00  0.00     0.298 C 
BRANCH  32  33
HETATM   33  N2  UNL     1     -28.017  10.749   8.785  1.00  0.00    -0.065 N 
ATOM     34  H23 UNL     1     -28.604  10.881   7.962  1.00  0.00     0.275 HD
ATOM     35  H22 UNL     1     -28.739  10.483   9.456  1.00  0.00     0.275 HD
ATOM     36  H21 UNL     1     -27.560  11.619   9.058  1.00  0.00     0.275 HD
ENDBRANCH  32  33
BRANCH  32  37
HETATM   37  C5  UNL     1     -27.353   9.249   7.103  1.00  0.00     0.353 C 
BRANCH  37  38
HETATM   38  N3  UNL     1     -28.723   9.528   6.876  1.00  0.00    -0.051 N 
ATOM     39  H33 UNL     1     -29.346   8.789   7.202  1.00  0.00     0.277 HD
ATOM     40  H32 UNL     1     -29.089  10.272   7.471  1.00  0.00     0.277 HD
ATOM     41  H31 UNL     1     -28.815   9.726   5.880  1.00  0.00     0.277 HD
ENDBRANCH  37  38
BRANCH  37  42
HETATM   42  O2  UNL     1     -27.009   7.931   6.968  1.00  0.00    -0.368 OA
ATOM     43  H2  UNL     1     -26.376   7.870   6.262  1.00  0.00     0.212 HD
ENDBRANCH  37  42
ENDBRANCH  32  37
ENDBRANCH  29  32
ENDBRANCH   3  29
TORSDOF 12
ENDMDL
