MODEL 1
REMARK VINA RESULT: -8.162491363      0.000      0.000
REMARK  10 active torsions:
REMARK  status: ('A' for Active; 'I' for Inactive)
REMARK    1  A    between atoms: C2_2  and  C3_3 
REMARK    2  A    between atoms: C3_3  and  C4_4 
REMARK    3  A    between atoms: C4_4  and  C5_5 
REMARK    4  A    between atoms: C5_5  and  O1_6 
REMARK    5  A    between atoms: O1_6  and  C6_7 
REMARK    6  A    between atoms: N1_10  and  C9_11 
REMARK    7  A    between atoms: N2_13  and  C10_14 
REMARK    8  A    between atoms: C10_14  and  C11_15 
REMARK       I    between atoms: C11_15  and  N3_17 
REMARK    9  A    between atoms: N3_17  and  C12_19 
REMARK   10  A    between atoms: C21_30  and  O4_31 
ROOT
HETATM    1  C9  UNL     1      21.580 -17.804  36.443  1.00  0.00     0.141 A 
HETATM    2  S1  UNL     1      22.386 -18.028  34.965  1.00  0.00     0.013 SA
HETATM    3  N2  UNL     1      21.516 -16.642  34.612  1.00  0.00    -0.285 N 
HETATM    4  C21 UNL     1      21.015 -16.695  35.857  1.00  0.00     0.185 A 
ENDROOT
BRANCH   3   5
HETATM    5  C10 UNL     1      21.408 -15.795  33.414  1.00  0.00     0.242 C 
BRANCH   5   6
HETATM    6  C11 UNL     1      22.418 -14.689  33.638  1.00  0.00     0.241 C 
HETATM    7  O2  UNL     1      23.490 -14.997  34.189  1.00  0.00    -0.271 OA
HETATM    8  N3  UNL     1      22.030 -13.413  33.191  1.00  0.00    -0.326 N 
ATOM      9  H3  UNL     1      21.107 -13.345  32.762  1.00  0.00     0.169 HD
BRANCH   8  10
HETATM   10  C12 UNL     1      22.781 -12.209  33.271  1.00  0.00     0.035 A 
HETATM   11  C13 UNL     1      23.038 -11.625  34.521  1.00  0.00     0.032 A 
HETATM   12  C14 UNL     1      23.749 -10.456  34.615  1.00  0.00     0.039 A 
HETATM   13  C15 UNL     1      24.247  -9.786  33.528  1.00  0.00     0.077 A 
HETATM   14  C16 UNL     1      24.005 -10.341  32.295  1.00  0.00     0.011 A 
HETATM   15  O3  UNL     1      24.967  -8.599  33.636  1.00  0.00    -0.350 OA
HETATM   16  C17 UNL     1      23.286 -11.526  32.186  1.00  0.00     0.042 A 
HETATM   17  C18 UNL     1      24.528  -9.641  31.102  1.00  0.00     0.208 C 
HETATM   18  F1  UNL     1      25.866  -9.864  30.898  1.00  0.00    -0.244 F 
HETATM   19  C19 UNL     1      24.269  -8.150  31.362  1.00  0.00     0.069 C 
HETATM   20  C20 UNL     1      24.985  -7.646  32.572  1.00  0.00     0.178 C 
ENDBRANCH   8  10
ENDBRANCH   5   6
ENDBRANCH   3   5
BRANCH   4  21
HETATM   21  O4  UNL     1      20.094 -15.792  36.440  1.00  0.00    -0.344 OA
ATOM     22  H4  UNL     1      19.503 -15.201  35.989  1.00  0.00     0.219 HD
ENDBRANCH   4  21
BRANCH   1  23
HETATM   23  N1  UNL     1      21.518 -18.470  37.713  1.00  0.00    -0.367 N 
HETATM   24  C8  UNL     1      21.371 -19.890  37.733  1.00  0.00     0.165 C 
HETATM   25  C4  UNL     1      22.243 -20.605  38.731  1.00  0.00     0.162 C 
HETATM   26  N4  UNL     1      22.980 -19.677  39.558  1.00  0.00    -0.061 N 
HETATM   27  C23 UNL     1      22.177 -18.577  40.026  1.00  0.00     0.253 C 
ATOM     28  H42 UNL     1      23.426 -20.160  40.337  1.00  0.00     0.278 HD
ATOM     29  H41 UNL     1      23.812 -19.340  39.073  1.00  0.00     0.278 HD
HETATM   30  C22 UNL     1      21.598 -17.738  38.948  1.00  0.00     0.151 C 
BRANCH  25  31
HETATM   31  C3  UNL     1      23.253 -21.446  37.992  1.00  0.00     0.042 C 
BRANCH  31  32
HETATM   32  C2  UNL     1      24.432 -20.684  37.497  1.00  0.00    -0.002 C 
HETATM   33  C1  UNL     1      24.392 -20.720  35.962  1.00  0.00     0.005 C 
ENDBRANCH  31  32
ENDBRANCH  25  31
BRANCH  25  34
HETATM   34  C5  UNL     1      21.381 -21.503  39.602  1.00  0.00     0.208 C 
BRANCH  34  35
HETATM   35  O1  UNL     1      20.042 -21.132  39.550  1.00  0.00    -0.389 OA
BRANCH  35  36
HETATM   36  C6  UNL     1      19.441 -21.430  40.764  1.00  0.00     0.163 C 
HETATM   37  C7  UNL     1      20.293 -22.430  41.494  1.00  0.00     0.033 C 
ENDBRANCH  35  36
ENDBRANCH  34  35
ENDBRANCH  25  34
ENDBRANCH   1  23
TORSDOF 10
ENDMDL
MODEL 2
REMARK VINA RESULT: -7.836529246      3.379     11.378
REMARK  10 active torsions:
REMARK  status: ('A' for Active; 'I' for Inactive)
REMARK    1  A    between atoms: C2_2  and  C3_3 
REMARK    2  A    between atoms: C3_3  and  C4_4 
REMARK    3  A    between atoms: C4_4  and  C5_5 
REMARK    4  A    between atoms: C5_5  and  O1_6 
REMARK    5  A    between atoms: O1_6  and  C6_7 
REMARK    6  A    between atoms: N1_10  and  C9_11 
REMARK    7  A    between atoms: N2_13  and  C10_14 
REMARK    8  A    between atoms: C10_14  and  C11_15 
REMARK       I    between atoms: C11_15  and  N3_17 
REMARK    9  A    between atoms: N3_17  and  C12_19 
REMARK   10  A    between atoms: C21_30  and  O4_31 
ROOT
HETATM    1  C9  UNL     1      23.827 -12.881  32.588  1.00  0.00     0.141 A 
HETATM    2  S1  UNL     1      22.635 -13.695  31.695  1.00  0.00     0.013 SA
HETATM    3  N2  UNL     1      23.401 -15.000  32.411  1.00  0.00    -0.285 N 
HETATM    4  C21 UNL     1      24.229 -14.129  33.007  1.00  0.00     0.185 A 
ENDROOT
BRANCH   3   5
HETATM    5  C10 UNL     1      23.186 -16.455  32.350  1.00  0.00     0.242 C 
BRANCH   5   6
HETATM    6  C11 UNL     1      22.693 -16.825  33.734  1.00  0.00     0.241 C 
HETATM    7  O2  UNL     1      22.677 -15.927  34.594  1.00  0.00    -0.271 OA
HETATM    8  N3  UNL     1      22.302 -18.166  33.899  1.00  0.00    -0.326 N 
ATOM      9  H3  UNL     1      22.387 -18.768  33.080  1.00  0.00     0.169 HD
BRANCH   8  10
HETATM   10  C12 UNL     1      21.801 -18.775  35.082  1.00  0.00     0.035 A 
HETATM   11  C13 UNL     1      20.416 -18.869  35.289  1.00  0.00     0.032 A 
HETATM   12  C14 UNL     1      19.917 -19.440  36.432  1.00  0.00     0.039 A 
HETATM   13  C15 UNL     1      20.707 -19.948  37.430  1.00  0.00     0.077 A 
HETATM   14  C16 UNL     1      22.066 -19.865  37.245  1.00  0.00     0.011 A 
HETATM   15  O3  UNL     1      20.188 -20.526  38.586  1.00  0.00    -0.350 OA
HETATM   16  C17 UNL     1      22.585 -19.288  36.091  1.00  0.00     0.042 A 
HETATM   17  C18 UNL     1      22.946 -20.403  38.305  1.00  0.00     0.208 C 
HETATM   18  F1  UNL     1      23.062 -21.768  38.260  1.00  0.00    -0.244 F 
HETATM   19  C19 UNL     1      22.300 -19.966  39.628  1.00  0.00     0.069 C 
HETATM   20  C20 UNL     1      20.927 -20.526  39.809  1.00  0.00     0.178 C 
ENDBRANCH   8  10
ENDBRANCH   5   6
ENDBRANCH   3   5
BRANCH   4  21
HETATM   21  O4  UNL     1      25.295 -14.437  33.887  1.00  0.00    -0.344 OA
ATOM     22  H4  UNL     1      25.990 -15.070  33.749  1.00  0.00     0.219 HD
ENDBRANCH   4  21
BRANCH   1  23
HETATM   23  N1  UNL     1      24.230 -11.520  32.803  1.00  0.00    -0.367 N 
HETATM   24  C8  UNL     1      25.102 -10.909  31.851  1.00  0.00     0.165 C 
HETATM   25  C4  UNL     1      24.735  -9.499  31.468  1.00  0.00     0.162 C 
HETATM   26  N4  UNL     1      23.620  -9.007  32.242  1.00  0.00    -0.061 N 
HETATM   27  C23 UNL     1      23.724  -9.322  33.644  1.00  0.00     0.253 C 
ATOM     28  H42 UNL     1      23.494  -8.005  32.103  1.00  0.00     0.278 HD
ATOM     29  H41 UNL     1      22.736  -9.341  31.859  1.00  0.00     0.278 HD
HETATM   30  C22 UNL     1      23.775 -10.774  33.945  1.00  0.00     0.151 C 
BRANCH  25  31
HETATM   31  C3  UNL     1      24.321  -9.474  30.018  1.00  0.00     0.042 C 
BRANCH  31  32
HETATM   32  C2  UNL     1      22.847  -9.516  29.808  1.00  0.00    -0.002 C 
HETATM   33  C1  UNL     1      22.521 -10.843  29.107  1.00  0.00     0.005 C 
ENDBRANCH  31  32
ENDBRANCH  25  31
BRANCH  25  34
HETATM   34  C5  UNL     1      25.940  -8.595  31.661  1.00  0.00     0.208 C 
BRANCH  34  35
HETATM   35  O1  UNL     1      27.129  -9.259  31.376  1.00  0.00    -0.389 OA
BRANCH  35  36
HETATM   36  C6  UNL     1      28.139  -8.325  31.199  1.00  0.00     0.163 C 
HETATM   37  C7  UNL     1      28.959  -8.720  30.003  1.00  0.00     0.033 C 
ENDBRANCH  35  36
ENDBRANCH  34  35
ENDBRANCH  25  34
ENDBRANCH   1  23
TORSDOF 10
ENDMDL
MODEL 3
REMARK VINA RESULT: -7.823378753      1.073      1.360
REMARK  10 active torsions:
REMARK  status: ('A' for Active; 'I' for Inactive)
REMARK    1  A    between atoms: C2_2  and  C3_3 
REMARK    2  A    between atoms: C3_3  and  C4_4 
REMARK    3  A    between atoms: C4_4  and  C5_5 
REMARK    4  A    between atoms: C5_5  and  O1_6 
REMARK    5  A    between atoms: O1_6  and  C6_7 
REMARK    6  A    between atoms: N1_10  and  C9_11 
REMARK    7  A    between atoms: N2_13  and  C10_14 
REMARK    8  A    between atoms: C10_14  and  C11_15 
REMARK       I    between atoms: C11_15  and  N3_17 
REMARK    9  A    between atoms: N3_17  and  C12_19 
REMARK   10  A    between atoms: C21_30  and  O4_31 
ROOT
HETATM    1  C9  UNL     1      21.639 -17.639  36.407  1.00  0.00     0.141 A 
HETATM    2  S1  UNL     1      22.438 -17.736  34.912  1.00  0.00     0.013 SA
HETATM    3  N2  UNL     1      21.409 -16.451  34.608  1.00  0.00    -0.285 N 
HETATM    4  C21 UNL     1      20.941 -16.589  35.858  1.00  0.00     0.185 A 
ENDROOT
BRANCH   3   5
HETATM    5  C10 UNL     1      21.184 -15.594  33.433  1.00  0.00     0.242 C 
BRANCH   5   6
HETATM    6  C11 UNL     1      22.302 -14.573  33.485  1.00  0.00     0.241 C 
HETATM    7  O2  UNL     1      23.045 -14.591  34.483  1.00  0.00    -0.271 OA
HETATM    8  N3  UNL     1      22.380 -13.702  32.384  1.00  0.00    -0.326 N 
ATOM      9  H3  UNL     1      21.680 -13.831  31.653  1.00  0.00     0.169 HD
BRANCH   8  10
HETATM   10  C12 UNL     1      23.327 -12.662  32.177  1.00  0.00     0.035 A 
HETATM   11  C13 UNL     1      24.628 -12.973  31.753  1.00  0.00     0.032 A 
HETATM   12  C14 UNL     1      25.558 -11.983  31.563  1.00  0.00     0.039 A 
HETATM   13  C15 UNL     1      25.296 -10.653  31.766  1.00  0.00     0.077 A 
HETATM   14  C16 UNL     1      24.028 -10.328  32.181  1.00  0.00     0.011 A 
HETATM   15  O3  UNL     1      26.249  -9.656  31.569  1.00  0.00    -0.350 OA
HETATM   16  C17 UNL     1      23.076 -11.323  32.378  1.00  0.00     0.042 A 
HETATM   17  C18 UNL     1      23.715  -8.901  32.410  1.00  0.00     0.208 C 
HETATM   18  F1  UNL     1      23.469  -8.216  31.248  1.00  0.00    -0.244 F 
HETATM   19  C19 UNL     1      24.950  -8.325  33.118  1.00  0.00     0.069 C 
HETATM   20  C20 UNL     1      26.186  -8.421  32.285  1.00  0.00     0.178 C 
ENDBRANCH   8  10
ENDBRANCH   5   6
ENDBRANCH   3   5
BRANCH   4  21
HETATM   21  O4  UNL     1      19.934 -15.809  36.477  1.00  0.00    -0.344 OA
ATOM     22  H4  UNL     1      19.971 -14.884  36.690  1.00  0.00     0.219 HD
ENDBRANCH   4  21
BRANCH   1  23
HETATM   23  N1  UNL     1      21.675 -18.336  37.662  1.00  0.00    -0.367 N 
HETATM   24  C8  UNL     1      21.518 -19.756  37.659  1.00  0.00     0.165 C 
HETATM   25  C4  UNL     1      22.463 -20.501  38.563  1.00  0.00     0.162 C 
HETATM   26  N4  UNL     1      23.274 -19.600  39.348  1.00  0.00    -0.061 N 
HETATM   27  C23 UNL     1      22.522 -18.507  39.908  1.00  0.00     0.253 C 
ATOM     28  H42 UNL     1      23.778 -20.105  40.076  1.00  0.00     0.278 HD
ATOM     29  H41 UNL     1      24.066 -19.256  38.805  1.00  0.00     0.278 HD
HETATM   30  C22 UNL     1      21.863 -17.636  38.904  1.00  0.00     0.151 C 
BRANCH  25  31
HETATM   31  C3  UNL     1      23.401 -21.331  37.722  1.00  0.00     0.042 C 
BRANCH  31  32
HETATM   32  C2  UNL     1      24.551 -20.567  37.163  1.00  0.00    -0.002 C 
HETATM   33  C1  UNL     1      24.457 -20.651  35.633  1.00  0.00     0.005 C 
ENDBRANCH  31  32
ENDBRANCH  25  31
BRANCH  25  34
HETATM   34  C5  UNL     1      21.668 -21.416  39.480  1.00  0.00     0.208 C 
BRANCH  34  35
HETATM   35  O1  UNL     1      20.318 -21.081  39.488  1.00  0.00    -0.389 OA
BRANCH  35  36
HETATM   36  C6  UNL     1      19.754 -21.503  40.683  1.00  0.00     0.163 C 
HETATM   37  C7  UNL     1      20.731 -22.401  41.390  1.00  0.00     0.033 C 
ENDBRANCH  35  36
ENDBRANCH  34  35
ENDBRANCH  25  34
ENDBRANCH   1  23
TORSDOF 10
ENDMDL
MODEL 4
REMARK VINA RESULT: -7.742407154      4.987     11.325
REMARK  10 active torsions:
REMARK  status: ('A' for Active; 'I' for Inactive)
REMARK    1  A    between atoms: C2_2  and  C3_3 
REMARK    2  A    between atoms: C3_3  and  C4_4 
REMARK    3  A    between atoms: C4_4  and  C5_5 
REMARK    4  A    between atoms: C5_5  and  O1_6 
REMARK    5  A    between atoms: O1_6  and  C6_7 
REMARK    6  A    between atoms: N1_10  and  C9_11 
REMARK    7  A    between atoms: N2_13  and  C10_14 
REMARK    8  A    between atoms: C10_14  and  C11_15 
REMARK       I    between atoms: C11_15  and  N3_17 
REMARK    9  A    between atoms: N3_17  and  C12_19 
REMARK   10  A    between atoms: C21_30  and  O4_31 
ROOT
HETATM    1  C9  UNL     1      24.044 -12.245  32.581  1.00  0.00     0.141 A 
HETATM    2  S1  UNL     1      24.464 -13.407  33.746  1.00  0.00     0.013 SA
HETATM    3  N2  UNL     1      23.034 -14.068  33.182  1.00  0.00    -0.285 N 
HETATM    4  C21 UNL     1      22.937 -13.026  32.342  1.00  0.00     0.185 A 
ENDROOT
BRANCH   3   5
HETATM    5  C10 UNL     1      22.279 -15.284  33.525  1.00  0.00     0.242 C 
BRANCH   5   6
HETATM    6  C11 UNL     1      23.024 -16.404  32.829  1.00  0.00     0.241 C 
HETATM    7  O2  UNL     1      23.458 -16.178  31.685  1.00  0.00    -0.271 OA
HETATM    8  N3  UNL     1      23.147 -17.598  33.563  1.00  0.00    -0.326 N 
ATOM      9  H3  UNL     1      22.724 -17.605  34.491  1.00  0.00     0.169 HD
BRANCH   8  10
HETATM   10  C12 UNL     1      23.796 -18.795  33.154  1.00  0.00     0.035 A 
HETATM   11  C13 UNL     1      24.505 -19.563  34.091  1.00  0.00     0.032 A 
HETATM   12  C14 UNL     1      25.149 -20.712  33.710  1.00  0.00     0.039 A 
HETATM   13  C15 UNL     1      25.152 -21.185  32.423  1.00  0.00     0.077 A 
HETATM   14  C16 UNL     1      24.464 -20.447  31.491  1.00  0.00     0.011 A 
HETATM   15  O3  UNL     1      25.810 -22.354  32.048  1.00  0.00    -0.350 OA
HETATM   16  C17 UNL     1      23.807 -19.279  31.865  1.00  0.00     0.042 A 
HETATM   17  C18 UNL     1      24.449 -20.930  30.094  1.00  0.00     0.208 C 
HETATM   18  F1  UNL     1      23.553 -21.948  29.892  1.00  0.00    -0.244 F 
HETATM   19  C19 UNL     1      25.880 -21.415  29.819  1.00  0.00     0.069 C 
HETATM   20  C20 UNL     1      26.287 -22.538  30.714  1.00  0.00     0.178 C 
ENDBRANCH   8  10
ENDBRANCH   5   6
ENDBRANCH   3   5
BRANCH   4  21
HETATM   21  O4  UNL     1      21.903 -12.785  31.405  1.00  0.00    -0.344 OA
ATOM     22  H4  UNL     1      21.168 -12.190  31.498  1.00  0.00     0.219 HD
ENDBRANCH   4  21
BRANCH   1  23
HETATM   23  N1  UNL     1      24.592 -11.016  32.081  1.00  0.00    -0.367 N 
HETATM   24  C8  UNL     1      25.877 -11.046  31.459  1.00  0.00     0.165 C 
HETATM   25  C4  UNL     1      25.989 -10.235  30.194  1.00  0.00     0.162 C 
HETATM   26  N4  UNL     1      24.781  -9.490  29.929  1.00  0.00    -0.061 N 
HETATM   27  C23 UNL     1      24.246  -8.846  31.100  1.00  0.00     0.253 C 
ATOM     28  H42 UNL     1      24.927  -8.816  29.178  1.00  0.00     0.278 HD
ATOM     29  H41 UNL     1      24.078 -10.082  29.487  1.00  0.00     0.278 HD
HETATM   30  C22 UNL     1      23.878  -9.774  32.198  1.00  0.00     0.151 C 
BRANCH  25  31
HETATM   31  C3  UNL     1      26.207 -11.167  29.029  1.00  0.00     0.042 C 
BRANCH  31  32
HETATM   32  C2  UNL     1      26.421 -12.588  29.420  1.00  0.00    -0.002 C 
HETATM   33  C1  UNL     1      27.662 -13.089  28.668  1.00  0.00     0.005 C 
ENDBRANCH  31  32
ENDBRANCH  25  31
BRANCH  25  34
HETATM   34  C5  UNL     1      27.170  -9.286  30.307  1.00  0.00     0.208 C 
BRANCH  34  35
HETATM   35  O1  UNL     1      28.140  -9.563  29.349  1.00  0.00    -0.389 OA
BRANCH  35  36
HETATM   36  C6  UNL     1      29.395  -9.432  29.925  1.00  0.00     0.163 C 
HETATM   37  C7  UNL     1      29.705 -10.682  30.701  1.00  0.00     0.033 C 
ENDBRANCH  35  36
ENDBRANCH  34  35
ENDBRANCH  25  34
ENDBRANCH   1  23
TORSDOF 10
ENDMDL
MODEL 5
REMARK VINA RESULT: -7.681915085      3.341      5.376
REMARK  10 active torsions:
REMARK  status: ('A' for Active; 'I' for Inactive)
REMARK    1  A    between atoms: C2_2  and  C3_3 
REMARK    2  A    between atoms: C3_3  and  C4_4 
REMARK    3  A    between atoms: C4_4  and  C5_5 
REMARK    4  A    between atoms: C5_5  and  O1_6 
REMARK    5  A    between atoms: O1_6  and  C6_7 
REMARK    6  A    between atoms: N1_10  and  C9_11 
REMARK    7  A    between atoms: N2_13  and  C10_14 
REMARK    8  A    between atoms: C10_14  and  C11_15 
REMARK       I    between atoms: C11_15  and  N3_17 
REMARK    9  A    between atoms: N3_17  and  C12_19 
REMARK   10  A    between atoms: C21_30  and  O4_31 
ROOT
HETATM    1  C9  UNL     1      22.651 -15.367  32.823  1.00  0.00     0.141 A 
HETATM    2  S1  UNL     1      23.074 -15.126  31.196  1.00  0.00     0.013 SA
HETATM    3  N2  UNL     1      22.768 -13.545  31.652  1.00  0.00    -0.285 N 
HETATM    4  C21 UNL     1      22.480 -14.003  32.880  1.00  0.00     0.185 A 
ENDROOT
BRANCH   3   5
HETATM    5  C10 UNL     1      22.819 -12.260  30.936  1.00  0.00     0.242 C 
BRANCH   5   6
HETATM    6  C11 UNL     1      24.156 -11.662  31.321  1.00  0.00     0.241 C 
HETATM    7  O2  UNL     1      24.174 -10.873  32.283  1.00  0.00    -0.271 OA
HETATM    8  N3  UNL     1      25.251 -12.070  30.538  1.00  0.00    -0.326 N 
ATOM      9  H3  UNL     1      25.049 -12.725  29.783  1.00  0.00     0.169 HD
BRANCH   8  10
HETATM   10  C12 UNL     1      26.607 -11.670  30.683  1.00  0.00     0.035 A 
HETATM   11  C13 UNL     1      27.640 -12.570  30.379  1.00  0.00     0.032 A 
HETATM   12  C14 UNL     1      28.954 -12.204  30.527  1.00  0.00     0.039 A 
HETATM   13  C15 UNL     1      29.348 -10.969  30.971  1.00  0.00     0.077 A 
HETATM   14  C16 UNL     1      28.352 -10.074  31.274  1.00  0.00     0.011 A 
HETATM   15  O3  UNL     1      30.685 -10.610  31.118  1.00  0.00    -0.350 OA
HETATM   16  C17 UNL     1      27.016 -10.432  31.128  1.00  0.00     0.042 A 
HETATM   17  C18 UNL     1      28.745  -8.732  31.757  1.00  0.00     0.208 C 
HETATM   18  F1  UNL     1      29.137  -7.895  30.744  1.00  0.00    -0.244 F 
HETATM   19  C19 UNL     1      29.909  -8.977  32.728  1.00  0.00     0.069 C 
HETATM   20  C20 UNL     1      31.085  -9.616  32.064  1.00  0.00     0.178 C 
ENDBRANCH   8  10
ENDBRANCH   5   6
ENDBRANCH   3   5
BRANCH   4  21
HETATM   21  O4  UNL     1      22.082 -13.234  34.000  1.00  0.00    -0.344 OA
ATOM     22  H4  UNL     1      22.014 -12.288  34.055  1.00  0.00     0.219 HD
ENDBRANCH   4  21
BRANCH   1  23
HETATM   23  N1  UNL     1      22.527 -16.481  33.720  1.00  0.00    -0.367 N 
HETATM   24  C8  UNL     1      21.879 -16.276  34.976  1.00  0.00     0.165 C 
HETATM   25  C4  UNL     1      20.915 -17.362  35.377  1.00  0.00     0.162 C 
HETATM   26  N4  UNL     1      20.931 -18.463  34.443  1.00  0.00    -0.061 N 
HETATM   27  C23 UNL     1      22.261 -18.850  34.049  1.00  0.00     0.253 C 
ATOM     28  H42 UNL     1      20.414 -19.261  34.812  1.00  0.00     0.278 HD
ATOM     29  H41 UNL     1      20.356 -18.256  33.626  1.00  0.00     0.278 HD
HETATM   30  C22 UNL     1      23.039 -17.780  33.378  1.00  0.00     0.151 C 
BRANCH  25  31
HETATM   31  C3  UNL     1      19.515 -16.801  35.386  1.00  0.00     0.042 C 
BRANCH  31  32
HETATM   32  C2  UNL     1      18.454 -17.815  35.134  1.00  0.00    -0.002 C 
HETATM   33  C1  UNL     1      17.356 -17.133  34.304  1.00  0.00     0.005 C 
ENDBRANCH  31  32
ENDBRANCH  25  31
BRANCH  25  34
HETATM   34  C5  UNL     1      21.266 -17.858  36.770  1.00  0.00     0.208 C 
BRANCH  34  35
HETATM   35  O1  UNL     1      22.442 -17.279  37.236  1.00  0.00    -0.389 OA
BRANCH  35  36
HETATM   36  C6  UNL     1      22.356 -17.124  38.612  1.00  0.00     0.163 C 
HETATM   37  C7  UNL     1      21.141 -16.298  38.932  1.00  0.00     0.033 C 
ENDBRANCH  35  36
ENDBRANCH  34  35
ENDBRANCH  25  34
ENDBRANCH   1  23
TORSDOF 10
ENDMDL
