MODEL 1
REMARK VINA RESULT: -8.191980461      0.000      0.000
REMARK  13 active torsions:
REMARK  status: ('A' for Active; 'I' for Inactive)
REMARK    1  A    between atoms: C4_4  and  N1_5 
REMARK    2  A    between atoms: C7_8  and  N2_9 
REMARK    3  A    between atoms: C7_8  and  C8_13 
REMARK    4  A    between atoms: C8_13  and  N3_14 
REMARK       I    between atoms: N3_14  and  C9_16 
REMARK    5  A    between atoms: C9_16  and  C10_18 
REMARK    6  A    between atoms: C10_18  and  N4_19 
REMARK    7  A    between atoms: N4_19  and  C11_22 
REMARK    8  A    between atoms: C11_22  and  C12_23 
REMARK    9  A    between atoms: C12_23  and  N5_24 
REMARK   10  A    between atoms: N5_24  and  C13_27 
REMARK   11  A    between atoms: C13_27  and  C14_28 
REMARK   12  A    between atoms: C14_28  and  O2_29 
REMARK   13  A    between atoms: C17_33  and  C18_34 
ROOT
HETATM    1  N1  UNL     1      49.004  20.413  39.343  1.00  0.00    -0.380 N 
HETATM    2  C5  UNL     1      48.830  21.628  38.560  1.00  0.00     0.126 C 
HETATM    3  C6  UNL     1      47.553  21.655  37.839  1.00  0.00     0.064 C 
HETATM    4  C7  UNL     1      46.415  20.794  38.387  1.00  0.00     0.158 C 
HETATM    5  C15 UNL     1      46.566  20.559  39.816  1.00  0.00     0.064 C 
HETATM    6  C16 UNL     1      47.938  20.190  40.300  1.00  0.00     0.126 C 
ENDROOT
BRANCH   4   7
HETATM    7  N2  UNL     1      46.345  19.550  37.584  1.00  0.00    -0.066 N 
ATOM      8  H23 UNL     1      45.821  18.810  38.051  1.00  0.00     0.275 HD
ATOM      9  H22 UNL     1      45.747  19.645  36.763  1.00  0.00     0.275 HD
ATOM     10  H21 UNL     1      47.296  19.269  37.346  1.00  0.00     0.275 HD
ENDBRANCH   4   7
BRANCH   4  11
HETATM   11  C8  UNL     1      45.135  21.510  38.032  1.00  0.00     0.102 C 
BRANCH  11  12
HETATM   12  N3  UNL     1      45.036  22.131  36.792  1.00  0.00    -0.337 N 
HETATM   13  C9  UNL     1      44.285  21.932  35.616  1.00  0.00     0.247 C 
HETATM   14  O1  UNL     1      43.448  21.061  35.406  1.00  0.00    -0.271 OA
ATOM     15  H3  UNL     1      45.663  22.932  36.713  1.00  0.00     0.168 HD
BRANCH  13  16
HETATM   16  C10 UNL     1      44.526  22.894  34.469  1.00  0.00     0.335 C 
BRANCH  16  17
HETATM   17  N4  UNL     1      45.660  23.715  34.689  1.00  0.00    -0.065 N 
ATOM     18  H42 UNL     1      45.501  24.470  35.357  1.00  0.00     0.277 HD
ATOM     19  H41 UNL     1      46.409  23.257  35.208  1.00  0.00     0.277 HD
BRANCH  17  20
HETATM   20  C11 UNL     1      46.061  24.180  33.345  1.00  0.00     0.260 C 
BRANCH  20  21
HETATM   21  C12 UNL     1      45.251  25.361  32.967  1.00  0.00     0.259 C 
BRANCH  21  22
HETATM   22  N5  UNL     1      45.004  25.555  31.582  1.00  0.00    -0.072 N 
ATOM     23  H52 UNL     1      45.871  25.752  31.082  1.00  0.00     0.277 HD
ATOM     24  H51 UNL     1      44.747  24.677  31.133  1.00  0.00     0.277 HD
BRANCH  22  25
HETATM   25  C13 UNL     1      44.007  26.584  31.316  1.00  0.00     0.258 C 
BRANCH  25  26
HETATM   26  C14 UNL     1      43.517  26.557  29.895  1.00  0.00     0.191 C 
BRANCH  26  27
HETATM   27  O2  UNL     1      42.110  26.580  29.974  1.00  0.00    -0.399 OA
ATOM     28  H2  UNL     1      41.838  25.670  30.013  1.00  0.00     0.209 HD
ENDBRANCH  26  27
ENDBRANCH  25  26
ENDBRANCH  22  25
ENDBRANCH  21  22
ENDBRANCH  20  21
ENDBRANCH  17  20
ENDBRANCH  16  17
ENDBRANCH  13  16
ENDBRANCH  11  12
ENDBRANCH   4  11
BRANCH   1  29
HETATM   29  C4  UNL     1      50.044  19.460  39.180  1.00  0.00     0.044 A 
HETATM   30  C3  UNL     1      49.803  18.437  38.265  1.00  0.00     0.054 A 
HETATM   31  C2  UNL     1      50.785  17.542  37.987  1.00  0.00     0.007 A 
HETATM   32  C1  UNL     1      50.575  16.429  37.002  1.00  0.00     0.068 C 
HETATM   33  N6  UNL     1      51.941  17.669  38.602  1.00  0.00    -0.363 N 
HETATM   34  C26 UNL     1      52.205  18.683  39.526  1.00  0.00     0.018 A 
ATOM     35  H6  UNL     1      52.679  16.997  38.394  1.00  0.00     0.165 HD
HETATM   36  C17 UNL     1      51.262  19.616  39.846  1.00  0.00     0.019 A 
HETATM   37  C27 UNL     1      53.489  18.599  40.208  1.00  0.00     0.069 C 
BRANCH  36  38
HETATM   38  C18 UNL     1      51.449  20.589  40.975  1.00  0.00    -0.048 C 
HETATM   39  C19 UNL     1      52.504  21.576  40.839  1.00  0.00    -0.019 C 
HETATM   40  C20 UNL     1      53.631  21.916  41.651  1.00  0.00     0.027 C 
HETATM   41  C21 UNL     1      53.480  22.703  42.911  1.00  0.00     0.004 C 
HETATM   42  C22 UNL     1      52.096  23.017  43.372  1.00  0.00     0.000 C 
HETATM   43  C23 UNL     1      51.286  21.857  43.835  1.00  0.00     0.000 C 
HETATM   44  C24 UNL     1      51.879  20.521  43.514  1.00  0.00     0.005 C 
HETATM   45  C25 UNL     1      51.302  19.877  42.305  1.00  0.00     0.039 C 
ENDBRANCH  36  38
ENDBRANCH   1  29
TORSDOF 13
ENDMDL
MODEL 2
REMARK VINA RESULT: -8.154464793      2.839      4.748
REMARK  13 active torsions:
REMARK  status: ('A' for Active; 'I' for Inactive)
REMARK    1  A    between atoms: C4_4  and  N1_5 
REMARK    2  A    between atoms: C7_8  and  N2_9 
REMARK    3  A    between atoms: C7_8  and  C8_13 
REMARK    4  A    between atoms: C8_13  and  N3_14 
REMARK       I    between atoms: N3_14  and  C9_16 
REMARK    5  A    between atoms: C9_16  and  C10_18 
REMARK    6  A    between atoms: C10_18  and  N4_19 
REMARK    7  A    between atoms: N4_19  and  C11_22 
REMARK    8  A    between atoms: C11_22  and  C12_23 
REMARK    9  A    between atoms: C12_23  and  N5_24 
REMARK   10  A    between atoms: N5_24  and  C13_27 
REMARK   11  A    between atoms: C13_27  and  C14_28 
REMARK   12  A    between atoms: C14_28  and  O2_29 
REMARK   13  A    between atoms: C17_33  and  C18_34 
ROOT
HETATM    1  N1  UNL     1      46.986  19.106  39.369  1.00  0.00    -0.380 N 
HETATM    2  C5  UNL     1      46.100  19.974  40.130  1.00  0.00     0.126 C 
HETATM    3  C6  UNL     1      45.575  21.084  39.327  1.00  0.00     0.064 C 
HETATM    4  C7  UNL     1      45.534  20.901  37.810  1.00  0.00     0.158 C 
HETATM    5  C15 UNL     1      45.456  19.492  37.447  1.00  0.00     0.064 C 
HETATM    6  C16 UNL     1      46.366  18.552  38.182  1.00  0.00     0.126 C 
ENDROOT
BRANCH   4   7
HETATM    7  N2  UNL     1      46.701  21.602  37.225  1.00  0.00    -0.066 N 
ATOM      8  H23 UNL     1      46.501  22.001  36.308  1.00  0.00     0.275 HD
ATOM      9  H22 UNL     1      46.921  22.472  37.709  1.00  0.00     0.275 HD
ATOM     10  H21 UNL     1      47.489  20.954  37.208  1.00  0.00     0.275 HD
ENDBRANCH   4   7
BRANCH   4  11
HETATM   11  C8  UNL     1      44.359  21.710  37.318  1.00  0.00     0.102 C 
BRANCH  11  12
HETATM   12  N3  UNL     1      44.460  22.365  36.096  1.00  0.00    -0.337 N 
HETATM   13  C9  UNL     1      44.536  21.979  34.742  1.00  0.00     0.247 C 
HETATM   14  O1  UNL     1      44.523  20.839  34.292  1.00  0.00    -0.271 OA
ATOM     15  H3  UNL     1      44.486  23.379  36.206  1.00  0.00     0.168 HD
BRANCH  13  16
HETATM   16  C10 UNL     1      44.646  23.086  33.712  1.00  0.00     0.335 C 
BRANCH  16  17
HETATM   17  N4  UNL     1      45.018  24.324  34.294  1.00  0.00    -0.065 N 
ATOM     18  H42 UNL     1      44.258  25.003  34.341  1.00  0.00     0.277 HD
ATOM     19  H41 UNL     1      45.191  24.274  35.298  1.00  0.00     0.277 HD
BRANCH  17  20
HETATM   20  C11 UNL     1      46.182  24.781  33.508  1.00  0.00     0.260 C 
BRANCH  20  21
HETATM   21  C12 UNL     1      45.798  25.957  32.693  1.00  0.00     0.259 C 
BRANCH  21  22
HETATM   22  N5  UNL     1      45.094  25.701  31.486  1.00  0.00    -0.072 N 
ATOM     23  H52 UNL     1      45.725  25.727  30.685  1.00  0.00     0.277 HD
ATOM     24  H51 UNL     1      44.800  24.725  31.437  1.00  0.00     0.277 HD
BRANCH  22  25
HETATM   25  C13 UNL     1      43.960  26.593  31.283  1.00  0.00     0.258 C 
BRANCH  25  26
HETATM   26  C14 UNL     1      43.447  26.560  29.870  1.00  0.00     0.191 C 
BRANCH  26  27
HETATM   27  O2  UNL     1      42.042  26.595  29.971  1.00  0.00    -0.399 OA
ATOM     28  H2  UNL     1      41.748  25.711  29.784  1.00  0.00     0.209 HD
ENDBRANCH  26  27
ENDBRANCH  25  26
ENDBRANCH  22  25
ENDBRANCH  21  22
ENDBRANCH  20  21
ENDBRANCH  17  20
ENDBRANCH  16  17
ENDBRANCH  13  16
ENDBRANCH  11  12
ENDBRANCH   4  11
BRANCH   1  29
HETATM   29  C4  UNL     1      48.351  18.849  39.662  1.00  0.00     0.044 A 
HETATM   30  C3  UNL     1      49.245  19.881  39.381  1.00  0.00     0.054 A 
HETATM   31  C2  UNL     1      50.553  19.745  39.719  1.00  0.00     0.007 A 
HETATM   32  C1  UNL     1      51.550  20.833  39.444  1.00  0.00     0.068 C 
HETATM   33  N6  UNL     1      50.937  18.630  40.301  1.00  0.00    -0.363 N 
HETATM   34  C26 UNL     1      50.061  17.580  40.589  1.00  0.00     0.018 A 
ATOM     35  H6  UNL     1      51.919  18.526  40.555  1.00  0.00     0.165 HD
HETATM   36  C17 UNL     1      48.734  17.655  40.279  1.00  0.00     0.019 A 
HETATM   37  C27 UNL     1      50.676  16.369  41.116  1.00  0.00     0.069 C 
BRANCH  36  38
HETATM   38  C18 UNL     1      47.816  16.472  40.393  1.00  0.00    -0.048 C 
HETATM   39  C19 UNL     1      47.413  16.066  41.727  1.00  0.00    -0.019 C 
HETATM   40  C20 UNL     1      47.508  14.830  42.439  1.00  0.00     0.027 C 
HETATM   41  C21 UNL     1      46.592  13.686  42.149  1.00  0.00     0.004 C 
HETATM   42  C22 UNL     1      45.653  13.824  40.997  1.00  0.00     0.000 C 
HETATM   43  C23 UNL     1      46.280  13.846  39.647  1.00  0.00     0.000 C 
HETATM   44  C24 UNL     1      47.768  14.005  39.658  1.00  0.00     0.005 C 
HETATM   45  C25 UNL     1      48.232  15.395  39.413  1.00  0.00     0.039 C 
ENDBRANCH  36  38
ENDBRANCH   1  29
TORSDOF 13
ENDMDL
MODEL 3
REMARK VINA RESULT: -7.796694599      2.493      4.730
REMARK  13 active torsions:
REMARK  status: ('A' for Active; 'I' for Inactive)
REMARK    1  A    between atoms: C4_4  and  N1_5 
REMARK    2  A    between atoms: C7_8  and  N2_9 
REMARK    3  A    between atoms: C7_8  and  C8_13 
REMARK    4  A    between atoms: C8_13  and  N3_14 
REMARK       I    between atoms: N3_14  and  C9_16 
REMARK    5  A    between atoms: C9_16  and  C10_18 
REMARK    6  A    between atoms: C10_18  and  N4_19 
REMARK    7  A    between atoms: N4_19  and  C11_22 
REMARK    8  A    between atoms: C11_22  and  C12_23 
REMARK    9  A    between atoms: C12_23  and  N5_24 
REMARK   10  A    between atoms: N5_24  and  C13_27 
REMARK   11  A    between atoms: C13_27  and  C14_28 
REMARK   12  A    between atoms: C14_28  and  O2_29 
REMARK   13  A    between atoms: C17_33  and  C18_34 
ROOT
HETATM    1  N1  UNL     1      47.964  18.925  40.133  1.00  0.00    -0.380 N 
HETATM    2  C5  UNL     1      46.631  19.156  40.669  1.00  0.00     0.126 C 
HETATM    3  C6  UNL     1      46.045  20.415  40.196  1.00  0.00     0.064 C 
HETATM    4  C7  UNL     1      46.574  20.990  38.882  1.00  0.00     0.158 C 
HETATM    5  C15 UNL     1      47.122  19.947  38.027  1.00  0.00     0.064 C 
HETATM    6  C16 UNL     1      48.009  18.929  38.684  1.00  0.00     0.126 C 
ENDROOT
BRANCH   4   7
HETATM    7  N2  UNL     1      47.542  22.066  39.203  1.00  0.00    -0.066 N 
ATOM      8  H23 UNL     1      47.429  22.426  40.150  1.00  0.00     0.275 HD
ATOM      9  H22 UNL     1      48.497  21.720  39.299  1.00  0.00     0.275 HD
ATOM     10  H21 UNL     1      47.458  22.794  38.493  1.00  0.00     0.275 HD
ENDBRANCH   4   7
BRANCH   4  11
HETATM   11  C8  UNL     1      45.422  21.734  38.253  1.00  0.00     0.102 C 
BRANCH  11  12
HETATM   12  N3  UNL     1      45.503  22.085  36.910  1.00  0.00    -0.337 N 
HETATM   13  C9  UNL     1      44.649  22.012  35.791  1.00  0.00     0.247 C 
HETATM   14  O1  UNL     1      43.505  21.575  35.756  1.00  0.00    -0.271 OA
ATOM     15  H3  UNL     1      46.405  22.497  36.676  1.00  0.00     0.168 HD
BRANCH  13  16
HETATM   16  C10 UNL     1      45.190  22.531  34.473  1.00  0.00     0.335 C 
BRANCH  16  17
HETATM   17  N4  UNL     1      44.991  23.926  34.324  1.00  0.00    -0.065 N 
ATOM     18  H42 UNL     1      44.043  24.181  34.047  1.00  0.00     0.277 HD
ATOM     19  H41 UNL     1      44.996  24.441  35.205  1.00  0.00     0.277 HD
BRANCH  17  20
HETATM   20  C11 UNL     1      46.031  24.362  33.370  1.00  0.00     0.260 C 
BRANCH  20  21
HETATM   21  C12 UNL     1      45.627  25.644  32.749  1.00  0.00     0.259 C 
BRANCH  21  22
HETATM   22  N5  UNL     1      45.026  25.576  31.464  1.00  0.00    -0.072 N 
ATOM     23  H52 UNL     1      45.735  25.601  30.730  1.00  0.00     0.277 HD
ATOM     24  H51 UNL     1      44.639  24.648  31.293  1.00  0.00     0.277 HD
BRANCH  22  25
HETATM   25  C13 UNL     1      44.018  26.606  31.246  1.00  0.00     0.258 C 
BRANCH  25  26
HETATM   26  C14 UNL     1      43.470  26.588  29.846  1.00  0.00     0.191 C 
BRANCH  26  27
HETATM   27  O2  UNL     1      42.068  26.560  29.984  1.00  0.00    -0.399 OA
ATOM     28  H2  UNL     1      41.770  25.831  29.452  1.00  0.00     0.209 HD
ENDBRANCH  26  27
ENDBRANCH  25  26
ENDBRANCH  22  25
ENDBRANCH  21  22
ENDBRANCH  20  21
ENDBRANCH  17  20
ENDBRANCH  16  17
ENDBRANCH  13  16
ENDBRANCH  11  12
ENDBRANCH   4  11
BRANCH   1  29
HETATM   29  C4  UNL     1      49.154  18.784  40.895  1.00  0.00     0.044 A 
HETATM   30  C3  UNL     1      49.843  19.960  41.185  1.00  0.00     0.054 A 
HETATM   31  C2  UNL     1      50.938  19.915  41.986  1.00  0.00     0.007 A 
HETATM   32  C1  UNL     1      51.706  21.157  42.333  1.00  0.00     0.068 C 
HETATM   33  N6  UNL     1      51.318  18.750  42.462  1.00  0.00    -0.363 N 
HETATM   34  C26 UNL     1      50.647  17.557  42.182  1.00  0.00     0.018 A 
ATOM     35  H6  UNL     1      52.141  18.715  43.063  1.00  0.00     0.165 HD
HETATM   36  C17 UNL     1      49.539  17.534  41.388  1.00  0.00     0.019 A 
HETATM   37  C27 UNL     1      51.278  16.343  42.683  1.00  0.00     0.069 C 
BRANCH  36  38
HETATM   38  C18 UNL     1      48.920  16.250  40.911  1.00  0.00    -0.048 C 
HETATM   39  C19 UNL     1      49.237  15.817  39.563  1.00  0.00    -0.019 C 
HETATM   40  C20 UNL     1      48.429  15.491  38.429  1.00  0.00     0.027 C 
HETATM   41  C21 UNL     1      47.688  14.197  38.340  1.00  0.00     0.004 C 
HETATM   42  C22 UNL     1      47.709  13.302  39.534  1.00  0.00     0.000 C 
HETATM   43  C23 UNL     1      46.979  13.799  40.732  1.00  0.00     0.000 C 
HETATM   44  C24 UNL     1      46.567  15.235  40.655  1.00  0.00     0.005 C 
HETATM   45  C25 UNL     1      47.479  16.167  41.369  1.00  0.00     0.039 C 
ENDBRANCH  36  38
ENDBRANCH   1  29
TORSDOF 13
ENDMDL
MODEL 4
REMARK VINA RESULT: -7.763087155      2.215      4.460
REMARK  13 active torsions:
REMARK  status: ('A' for Active; 'I' for Inactive)
REMARK    1  A    between atoms: C4_4  and  N1_5 
REMARK    2  A    between atoms: C7_8  and  N2_9 
REMARK    3  A    between atoms: C7_8  and  C8_13 
REMARK    4  A    between atoms: C8_13  and  N3_14 
REMARK       I    between atoms: N3_14  and  C9_16 
REMARK    5  A    between atoms: C9_16  and  C10_18 
REMARK    6  A    between atoms: C10_18  and  N4_19 
REMARK    7  A    between atoms: N4_19  and  C11_22 
REMARK    8  A    between atoms: C11_22  and  C12_23 
REMARK    9  A    between atoms: C12_23  and  N5_24 
REMARK   10  A    between atoms: N5_24  and  C13_27 
REMARK   11  A    between atoms: C13_27  and  C14_28 
REMARK   12  A    between atoms: C14_28  and  O2_29 
REMARK   13  A    between atoms: C17_33  and  C18_34 
ROOT
HETATM    1  N1  UNL     1      48.694  19.998  38.590  1.00  0.00    -0.380 N 
HETATM    2  C5  UNL     1      47.709  19.061  38.070  1.00  0.00     0.126 C 
HETATM    3  C6  UNL     1      46.333  19.543  38.237  1.00  0.00     0.064 C 
HETATM    4  C7  UNL     1      46.125  21.052  38.372  1.00  0.00     0.158 C 
HETATM    5  C15 UNL     1      47.203  21.796  37.737  1.00  0.00     0.064 C 
HETATM    6  C16 UNL     1      48.602  21.316  37.997  1.00  0.00     0.126 C 
ENDROOT
BRANCH   4   7
HETATM    7  N2  UNL     1      45.948  21.370  39.809  1.00  0.00    -0.066 N 
ATOM      8  H23 UNL     1      45.369  20.685  40.294  1.00  0.00     0.275 HD
ATOM      9  H22 UNL     1      46.803  21.236  40.349  1.00  0.00     0.275 HD
ATOM     10  H21 UNL     1      45.581  22.319  39.884  1.00  0.00     0.275 HD
ENDBRANCH   4   7
BRANCH   4  11
HETATM   11  C8  UNL     1      44.768  21.345  37.781  1.00  0.00     0.102 C 
BRANCH  11  12
HETATM   12  N3  UNL     1      44.694  22.061  36.591  1.00  0.00    -0.337 N 
HETATM   13  C9  UNL     1      44.556  21.745  35.225  1.00  0.00     0.247 C 
HETATM   14  O1  UNL     1      44.453  20.630  34.727  1.00  0.00    -0.271 OA
ATOM     15  H3  UNL     1      44.756  23.068  36.746  1.00  0.00     0.168 HD
BRANCH  13  16
HETATM   16  C10 UNL     1      44.530  22.902  34.245  1.00  0.00     0.335 C 
BRANCH  16  17
HETATM   17  N4  UNL     1      45.486  23.898  34.568  1.00  0.00    -0.065 N 
ATOM     18  H42 UNL     1      45.093  24.707  35.050  1.00  0.00     0.277 HD
ATOM     19  H41 UNL     1      46.134  23.626  35.307  1.00  0.00     0.277 HD
BRANCH  17  20
HETATM   20  C11 UNL     1      46.143  24.226  33.286  1.00  0.00     0.260 C 
BRANCH  20  21
HETATM   21  C12 UNL     1      45.603  25.503  32.765  1.00  0.00     0.259 C 
BRANCH  21  22
HETATM   22  N5  UNL     1      45.003  25.471  31.478  1.00  0.00    -0.072 N 
ATOM     23  H52 UNL     1      45.714  25.461  30.746  1.00  0.00     0.277 HD
ATOM     24  H51 UNL     1      44.569  24.565  31.303  1.00  0.00     0.277 HD
BRANCH  22  25
HETATM   25  C13 UNL     1      44.051  26.552  31.262  1.00  0.00     0.258 C 
BRANCH  25  26
HETATM   26  C14 UNL     1      43.492  26.556  29.866  1.00  0.00     0.191 C 
BRANCH  26  27
HETATM   27  O2  UNL     1      42.091  26.592  30.014  1.00  0.00    -0.399 OA
ATOM     28  H2  UNL     1      41.816  25.685  30.088  1.00  0.00     0.209 HD
ENDBRANCH  26  27
ENDBRANCH  25  26
ENDBRANCH  22  25
ENDBRANCH  21  22
ENDBRANCH  20  21
ENDBRANCH  17  20
ENDBRANCH  16  17
ENDBRANCH  13  16
ENDBRANCH  11  12
ENDBRANCH   4  11
BRANCH   1  29
HETATM   29  C4  UNL     1      49.626  19.733  39.628  1.00  0.00     0.044 A 
HETATM   30  C3  UNL     1      50.593  20.711  39.852  1.00  0.00     0.054 A 
HETATM   31  C2  UNL     1      51.461  20.572  40.887  1.00  0.00     0.007 A 
HETATM   32  C1  UNL     1      52.513  21.604  41.171  1.00  0.00     0.068 C 
HETATM   33  N6  UNL     1      51.361  19.504  41.648  1.00  0.00    -0.363 N 
HETATM   34  C26 UNL     1      50.404  18.508  41.442  1.00  0.00     0.018 A 
ATOM     35  H6  UNL     1      52.013  19.398  42.425  1.00  0.00     0.165 HD
HETATM   36  C17 UNL     1      49.500  18.590  40.422  1.00  0.00     0.019 A 
HETATM   37  C27 UNL     1      50.518  17.334  42.296  1.00  0.00     0.069 C 
BRANCH  36  38
HETATM   38  C18 UNL     1      48.597  17.446  40.058  1.00  0.00    -0.048 C 
HETATM   39  C19 UNL     1      47.577  17.068  41.019  1.00  0.00    -0.019 C 
HETATM   40  C20 UNL     1      47.262  15.835  41.671  1.00  0.00     0.027 C 
HETATM   41  C21 UNL     1      46.560  14.728  40.955  1.00  0.00     0.004 C 
HETATM   42  C22 UNL     1      46.311  14.894  39.492  1.00  0.00     0.000 C 
HETATM   43  C23 UNL     1      47.519  14.879  38.622  1.00  0.00     0.000 C 
HETATM   44  C24 UNL     1      48.816  14.977  39.362  1.00  0.00     0.005 C 
HETATM   45  C25 UNL     1      49.396  16.344  39.392  1.00  0.00     0.039 C 
ENDBRANCH  36  38
ENDBRANCH   1  29
TORSDOF 13
ENDMDL
MODEL 5
REMARK VINA RESULT: -7.747607710      2.033      2.773
REMARK  13 active torsions:
REMARK  status: ('A' for Active; 'I' for Inactive)
REMARK    1  A    between atoms: C4_4  and  N1_5 
REMARK    2  A    between atoms: C7_8  and  N2_9 
REMARK    3  A    between atoms: C7_8  and  C8_13 
REMARK    4  A    between atoms: C8_13  and  N3_14 
REMARK       I    between atoms: N3_14  and  C9_16 
REMARK    5  A    between atoms: C9_16  and  C10_18 
REMARK    6  A    between atoms: C10_18  and  N4_19 
REMARK    7  A    between atoms: N4_19  and  C11_22 
REMARK    8  A    between atoms: C11_22  and  C12_23 
REMARK    9  A    between atoms: C12_23  and  N5_24 
REMARK   10  A    between atoms: N5_24  and  C13_27 
REMARK   11  A    between atoms: C13_27  and  C14_28 
REMARK   12  A    between atoms: C14_28  and  O2_29 
REMARK   13  A    between atoms: C17_33  and  C18_34 
ROOT
HETATM    1  N1  UNL     1      47.806  18.727  39.651  1.00  0.00    -0.380 N 
HETATM    2  C5  UNL     1      48.103  19.613  38.535  1.00  0.00     0.126 C 
HETATM    3  C6  UNL     1      46.892  20.167  37.920  1.00  0.00     0.064 C 
HETATM    4  C7  UNL     1      45.629  20.231  38.780  1.00  0.00     0.158 C 
HETATM    5  C15 UNL     1      45.954  20.294  40.198  1.00  0.00     0.064 C 
HETATM    6  C16 UNL     1      47.018  19.358  40.691  1.00  0.00     0.126 C 
ENDROOT
BRANCH   4   7
HETATM    7  N2  UNL     1      44.763  19.083  38.419  1.00  0.00    -0.066 N 
ATOM      8  H23 UNL     1      45.203  18.184  38.610  1.00  0.00     0.275 HD
ATOM      9  H22 UNL     1      43.963  18.982  39.044  1.00  0.00     0.275 HD
ATOM     10  H21 UNL     1      44.486  19.186  37.443  1.00  0.00     0.275 HD
ENDBRANCH   4   7
BRANCH   4  11
HETATM   11  C8  UNL     1      44.846  21.425  38.293  1.00  0.00     0.102 C 
BRANCH  11  12
HETATM   12  N3  UNL     1      45.039  21.867  36.989  1.00  0.00    -0.337 N 
HETATM   13  C9  UNL     1      44.385  21.692  35.752  1.00  0.00     0.247 C 
HETATM   14  O1  UNL     1      43.375  21.034  35.532  1.00  0.00    -0.271 OA
ATOM     15  H3  UNL     1      45.858  22.469  36.906  1.00  0.00     0.168 HD
BRANCH  13  16
HETATM   16  C10 UNL     1      44.984  22.391  34.547  1.00  0.00     0.335 C 
BRANCH  16  17
HETATM   17  N4  UNL     1      44.805  23.796  34.600  1.00  0.00    -0.065 N 
ATOM     18  H42 UNL     1      43.833  24.093  34.512  1.00  0.00     0.277 HD
ATOM     19  H41 UNL     1      44.966  24.200  35.523  1.00  0.00     0.277 HD
BRANCH  17  20
HETATM   20  C11 UNL     1      45.693  24.334  33.549  1.00  0.00     0.260 C 
BRANCH  20  21
HETATM   21  C12 UNL     1      45.157  25.626  33.062  1.00  0.00     0.259 C 
BRANCH  21  22
HETATM   22  N5  UNL     1      45.020  25.776  31.656  1.00  0.00    -0.072 N 
ATOM     23  H52 UNL     1      45.907  26.049  31.232  1.00  0.00     0.277 HD
ATOM     24  H51 UNL     1      44.890  24.870  31.205  1.00  0.00     0.277 HD
BRANCH  22  25
HETATM   25  C13 UNL     1      43.958  26.699  31.278  1.00  0.00     0.258 C 
BRANCH  25  26
HETATM   26  C14 UNL     1      43.447  26.450  29.885  1.00  0.00     0.191 C 
BRANCH  26  27
HETATM   27  O2  UNL     1      42.053  26.643  29.948  1.00  0.00    -0.399 OA
ATOM     28  H2  UNL     1      41.785  26.317  30.800  1.00  0.00     0.209 HD
ENDBRANCH  26  27
ENDBRANCH  25  26
ENDBRANCH  22  25
ENDBRANCH  21  22
ENDBRANCH  20  21
ENDBRANCH  17  20
ENDBRANCH  16  17
ENDBRANCH  13  16
ENDBRANCH  11  12
ENDBRANCH   4  11
BRANCH   1  29
HETATM   29  C4  UNL     1      48.155  17.353  39.737  1.00  0.00     0.044 A 
HETATM   30  C3  UNL     1      47.107  16.443  39.609  1.00  0.00     0.054 A 
HETATM   31  C2  UNL     1      47.373  15.112  39.588  1.00  0.00     0.007 A 
HETATM   32  C1  UNL     1      46.278  14.096  39.443  1.00  0.00     0.068 C 
HETATM   33  N6  UNL     1      48.625  14.723  39.697  1.00  0.00    -0.363 N 
HETATM   34  C26 UNL     1      49.692  15.615  39.831  1.00  0.00     0.018 A 
ATOM     35  H6  UNL     1      48.827  13.723  39.682  1.00  0.00     0.165 HD
HETATM   36  C17 UNL     1      49.492  16.964  39.855  1.00  0.00     0.019 A 
HETATM   37  C27 UNL     1      50.995  15.011  40.070  1.00  0.00     0.069 C 
BRANCH  36  38
HETATM   38  C18 UNL     1      50.589  17.931  40.197  1.00  0.00    -0.048 C 
HETATM   39  C19 UNL     1      50.431  18.722  41.403  1.00  0.00    -0.019 C 
HETATM   40  C20 UNL     1      50.440  20.129  41.654  1.00  0.00     0.027 C 
HETATM   41  C21 UNL     1      51.712  20.912  41.678  1.00  0.00     0.004 C 
HETATM   42  C22 UNL     1      52.971  20.205  41.300  1.00  0.00     0.000 C 
HETATM   43  C23 UNL     1      53.083  19.798  39.873  1.00  0.00     0.000 C 
HETATM   44  C24 UNL     1      51.811  19.912  39.093  1.00  0.00     0.005 C 
HETATM   45  C25 UNL     1      51.075  18.629  38.943  1.00  0.00     0.039 C 
ENDBRANCH  36  38
ENDBRANCH   1  29
TORSDOF 13
ENDMDL
