MODEL 1
REMARK VINA RESULT: -5.342897409      0.000      0.000
REMARK  2 active torsions:
REMARK  status: ('A' for Active; 'I' for Inactive)
REMARK    1  A    between atoms: C2_2  and  N1_3 
REMARK    2  A    between atoms: C2_2  and  C3_7 
ROOT
HETATM    1  C3  UNL     1      -7.503  -3.641  16.120  1.00  0.00     0.017 C 
HETATM    2  C4  UNL     1      -7.551  -4.995  15.425  1.00  0.00     0.008 C 
HETATM    3  C5  UNL     1      -6.301  -5.111  14.596  1.00  0.00     0.020 C 
HETATM    4  C6  UNL     1      -6.027  -3.900  13.762  1.00  0.00     0.113 C 
HETATM    5  N2  UNL     1      -5.719  -2.724  14.485  1.00  0.00    -0.421 N 
ATOM      6  H2  UNL     1      -5.861  -1.794  14.090  1.00  0.00     0.153 HD
HETATM    7  C7  UNL     1      -5.199  -2.914  15.796  1.00  0.00     0.114 C 
HETATM    8  C8  UNL     1      -6.151  -3.529  16.771  1.00  0.00     0.025 C 
ENDROOT
BRANCH   1   9
HETATM    9  C2  UNL     1      -8.637  -3.489  17.104  1.00  0.00     0.183 C 
HETATM   10  C1  UNL     1      -9.514  -4.702  17.188  1.00  0.00     0.040 C 
BRANCH   9  11
HETATM   11  N1  UNL     1      -8.051  -3.160  18.390  1.00  0.00    -0.075 N 
ATOM     12  H13 UNL     1      -8.563  -2.408  18.850  1.00  0.00     0.274 HD
ATOM     13  H12 UNL     1      -8.210  -3.902  19.072  1.00  0.00     0.274 HD
ATOM     14  H11 UNL     1      -7.059  -2.937  18.307  1.00  0.00     0.274 HD
ENDBRANCH   9  11
ENDBRANCH   1   9
TORSDOF 2
ENDMDL
MODEL 2
REMARK VINA RESULT: -5.047619041      1.140      1.936
REMARK  2 active torsions:
REMARK  status: ('A' for Active; 'I' for Inactive)
REMARK    1  A    between atoms: C2_2  and  N1_3 
REMARK    2  A    between atoms: C2_2  and  C3_7 
ROOT
HETATM    1  C3  UNL     1      -7.159  -3.746  16.263  1.00  0.00     0.017 C 
HETATM    2  C4  UNL     1      -6.778  -2.494  15.487  1.00  0.00     0.008 C 
HETATM    3  C5  UNL     1      -5.657  -2.872  14.558  1.00  0.00     0.020 C 
HETATM    4  C6  UNL     1      -4.565  -3.646  15.228  1.00  0.00     0.113 C 
HETATM    5  N2  UNL     1      -4.931  -4.932  15.691  1.00  0.00    -0.421 N 
ATOM      6  H2  UNL     1      -4.427  -5.398  16.445  1.00  0.00     0.153 HD
HETATM    7  C7  UNL     1      -6.044  -5.537  15.042  1.00  0.00     0.114 C 
HETATM    8  C8  UNL     1      -7.352  -4.847  15.255  1.00  0.00     0.025 C 
ENDROOT
BRANCH   1   9
HETATM    9  C2  UNL     1      -8.384  -3.512  17.113  1.00  0.00     0.183 C 
HETATM   10  C1  UNL     1      -9.335  -4.671  17.112  1.00  0.00     0.040 C 
BRANCH   9  11
HETATM   11  N1  UNL     1      -7.925  -3.197  18.453  1.00  0.00    -0.075 N 
ATOM     12  H13 UNL     1      -8.706  -3.101  19.101  1.00  0.00     0.274 HD
ATOM     13  H12 UNL     1      -7.457  -3.995  18.884  1.00  0.00     0.274 HD
ATOM     14  H11 UNL     1      -7.330  -2.368  18.463  1.00  0.00     0.274 HD
ENDBRANCH   9  11
ENDBRANCH   1   9
TORSDOF 2
ENDMDL
MODEL 3
REMARK VINA RESULT: -4.313241273      2.082      3.712
REMARK  2 active torsions:
REMARK  status: ('A' for Active; 'I' for Inactive)
REMARK    1  A    between atoms: C2_2  and  N1_3 
REMARK    2  A    between atoms: C2_2  and  C3_7 
ROOT
HETATM    1  C3  UNL     1      -5.775  -2.995  14.874  1.00  0.00     0.017 C 
HETATM    2  C4  UNL     1      -7.026  -2.790  15.717  1.00  0.00     0.008 C 
HETATM    3  C5  UNL     1      -7.445  -4.142  16.223  1.00  0.00     0.020 C 
HETATM    4  C6  UNL     1      -7.478  -5.192  15.156  1.00  0.00     0.113 C 
HETATM    5  N2  UNL     1      -6.222  -5.529  14.601  1.00  0.00    -0.421 N 
ATOM      6  H2  UNL     1      -6.135  -5.935  13.669  1.00  0.00     0.153 HD
HETATM    7  C7  UNL     1      -5.086  -5.269  15.418  1.00  0.00     0.114 C 
HETATM    8  C8  UNL     1      -4.823  -3.823  15.693  1.00  0.00     0.025 C 
ENDROOT
BRANCH   1   9
HETATM    9  C2  UNL     1      -5.179  -1.675  14.447  1.00  0.00     0.183 C 
HETATM   10  C1  UNL     1      -5.077  -0.682  15.565  1.00  0.00     0.040 C 
BRANCH   9  11
HETATM   11  N1  UNL     1      -3.883  -1.958  13.859  1.00  0.00    -0.075 N 
ATOM     12  H13 UNL     1      -3.739  -1.426  13.002  1.00  0.00     0.274 HD
ATOM     13  H12 UNL     1      -3.127  -1.565  14.420  1.00  0.00     0.274 HD
ATOM     14  H11 UNL     1      -3.749  -2.957  13.702  1.00  0.00     0.274 HD
ENDBRANCH   9  11
ENDBRANCH   1   9
TORSDOF 2
ENDMDL
MODEL 4
REMARK VINA RESULT: -4.308790603      1.718      3.748
REMARK  2 active torsions:
REMARK  status: ('A' for Active; 'I' for Inactive)
REMARK    1  A    between atoms: C2_2  and  N1_3 
REMARK    2  A    between atoms: C2_2  and  C3_7 
ROOT
HETATM    1  C3  UNL     1      -5.694  -4.607  14.981  1.00  0.00     0.017 C 
HETATM    2  C4  UNL     1      -7.032  -5.236  15.341  1.00  0.00     0.008 C 
HETATM    3  C5  UNL     1      -7.888  -4.150  15.933  1.00  0.00     0.020 C 
HETATM    4  C6  UNL     1      -7.184  -3.342  16.977  1.00  0.00     0.113 C 
HETATM    5  N2  UNL     1      -6.102  -2.560  16.511  1.00  0.00    -0.421 N 
ATOM      6  H2  UNL     1      -5.346  -2.262  17.127  1.00  0.00     0.153 HD
HETATM    7  C7  UNL     1      -6.130  -2.213  15.130  1.00  0.00     0.114 C 
HETATM    8  C8  UNL     1      -5.992  -3.364  14.187  1.00  0.00     0.025 C 
ENDROOT
BRANCH   1   9
HETATM    9  C2  UNL     1      -4.815  -5.579  14.233  1.00  0.00     0.183 C 
HETATM   10  C1  UNL     1      -4.622  -6.879  14.954  1.00  0.00     0.040 C 
BRANCH   9  11
HETATM   11  N1  UNL     1      -5.407  -5.775  12.922  1.00  0.00    -0.075 N 
ATOM     12  H13 UNL     1      -5.980  -4.977  12.650  1.00  0.00     0.274 HD
ATOM     13  H12 UNL     1      -4.703  -5.725  12.185  1.00  0.00     0.274 HD
ATOM     14  H11 UNL     1      -5.935  -6.646  12.873  1.00  0.00     0.274 HD
ENDBRANCH   9  11
ENDBRANCH   1   9
TORSDOF 2
ENDMDL
MODEL 5
REMARK VINA RESULT: -4.262983167      1.647      2.339
REMARK  2 active torsions:
REMARK  status: ('A' for Active; 'I' for Inactive)
REMARK    1  A    between atoms: C2_2  and  N1_3 
REMARK    2  A    between atoms: C2_2  and  C3_7 
ROOT
HETATM    1  C3  UNL     1      -6.510  -4.341  15.703  1.00  0.00     0.017 C 
HETATM    2  C4  UNL     1      -5.242  -4.134  16.520  1.00  0.00     0.008 C 
HETATM    3  C5  UNL     1      -4.095  -4.651  15.696  1.00  0.00     0.020 C 
HETATM    4  C6  UNL     1      -4.345  -6.007  15.113  1.00  0.00     0.113 C 
HETATM    5  N2  UNL     1      -5.375  -6.069  14.146  1.00  0.00    -0.421 N 
ATOM      6  H2  UNL     1      -5.875  -6.936  13.945  1.00  0.00     0.153 HD
HETATM    7  C7  UNL     1      -5.674  -4.852  13.471  1.00  0.00     0.114 C 
HETATM    8  C8  UNL     1      -6.248  -3.775  14.334  1.00  0.00     0.025 C 
ENDROOT
BRANCH   1   9
HETATM    9  C2  UNL     1      -7.704  -3.710  16.376  1.00  0.00     0.183 C 
HETATM   10  C1  UNL     1      -8.803  -4.687  16.668  1.00  0.00     0.040 C 
BRANCH   9  11
HETATM   11  N1  UNL     1      -7.226  -3.063  17.584  1.00  0.00    -0.075 N 
ATOM     12  H13 UNL     1      -6.520  -2.358  17.373  1.00  0.00     0.274 HD
ATOM     13  H12 UNL     1      -7.940  -2.458  17.988  1.00  0.00     0.274 HD
ATOM     14  H11 UNL     1      -6.883  -3.741  18.265  1.00  0.00     0.274 HD
ENDBRANCH   9  11
ENDBRANCH   1   9
TORSDOF 2
ENDMDL
