MODEL 1
REMARK VINA RESULT: -6.802657823      0.000      0.000
REMARK  4 active torsions:
REMARK  status: ('A' for Active; 'I' for Inactive)
REMARK    1  A    between atoms: C3_4  and  C4_5 
REMARK    2  A    between atoms: N2_7  and  S1_8 
REMARK    3  A    between atoms: S1_8  and  N3_11 
REMARK    4  A    between atoms: C10_18  and  N5_19 
ROOT
HETATM    1  N1  UNL     1       3.950 -44.961  29.390  1.00  0.00    -0.192 NA
HETATM    2  C1  UNL     1       4.990 -45.393  29.589  1.00  0.00     0.087 C 
HETATM    3  C2  UNL     1       6.324 -45.964  29.865  1.00  0.00     0.094 C 
HETATM    4  C3  UNL     1       7.119 -45.251  30.601  1.00  0.00     0.029 C 
ENDROOT
BRANCH   4   5
HETATM    5  C4  UNL     1       8.453 -45.634  30.979  1.00  0.00     0.050 A 
HETATM    6  C5  UNL     1       9.505 -44.831  30.523  1.00  0.00     0.146 A 
HETATM    7  N2  UNL     1      10.788 -45.085  30.810  1.00  0.00    -0.069 N 
HETATM    8  C10 UNL     1      11.070 -46.153  31.562  1.00  0.00     0.695 A 
HETATM    9  N6  UNL     1      10.126 -46.961  32.031  1.00  0.00    -0.155 N 
HETATM   10  C11 UNL     1       8.823 -46.701  31.739  1.00  0.00     0.271 A 
ATOM     11  H6  UNL     1      10.375 -47.768  32.603  1.00  0.00     0.187 HD
HETATM   12  O3  UNL     1       7.963 -47.480  32.195  1.00  0.00    -0.267 OA
BRANCH   7  13
HETATM   13  S1  UNL     1      12.018 -44.074  30.227  1.00  0.00     0.323 S 
HETATM   14  O1  UNL     1      13.128 -44.889  29.604  1.00  0.00    -0.187 OA
HETATM   15  O2  UNL     1      12.617 -43.311  31.359  1.00  0.00    -0.187 OA
BRANCH  13  16
HETATM   16  N3  UNL     1      11.352 -42.990  29.027  1.00  0.00    -0.189 NA
HETATM   17  C6  UNL     1      11.356 -43.604  27.757  1.00  0.00     0.128 C 
HETATM   18  C7  UNL     1      11.566 -42.744  26.579  1.00  0.00     0.129 C 
HETATM   19  N4  UNL     1      12.146 -41.475  26.793  1.00  0.00    -0.419 N 
HETATM   20  C8  UNL     1      11.796 -40.812  27.999  1.00  0.00     0.129 C 
ATOM     21  H4  UNL     1      12.783 -41.055  26.117  1.00  0.00     0.153 HD
HETATM   22  C9  UNL     1      12.041 -41.758  29.147  1.00  0.00     0.128 C 
ENDBRANCH  13  16
ENDBRANCH   7  13
BRANCH   8  23
HETATM   23  N5  UNL     1      12.307 -46.379  31.825  1.00  0.00    -0.233 N 
ATOM     24  H52 UNL     1      12.670 -47.332  31.816  1.00  0.00     0.174 HD
ATOM     25  H51 UNL     1      12.895 -45.573  32.040  1.00  0.00     0.174 HD
ENDBRANCH   8  23
ENDBRANCH   4   5
TORSDOF 4
ENDMDL
MODEL 2
REMARK VINA RESULT: -6.513680997      3.570      5.751
REMARK  4 active torsions:
REMARK  status: ('A' for Active; 'I' for Inactive)
REMARK    1  A    between atoms: C3_4  and  C4_5 
REMARK    2  A    between atoms: N2_7  and  S1_8 
REMARK    3  A    between atoms: S1_8  and  N3_11 
REMARK    4  A    between atoms: C10_18  and  N5_19 
ROOT
HETATM    1  N1  UNL     1       7.605 -53.113  31.908  1.00  0.00    -0.192 NA
HETATM    2  C1  UNL     1       7.908 -52.026  31.719  1.00  0.00     0.087 C 
HETATM    3  C2  UNL     1       8.311 -50.631  31.455  1.00  0.00     0.094 C 
HETATM    4  C3  UNL     1       9.339 -50.189  32.110  1.00  0.00     0.029 C 
ENDROOT
BRANCH   4   5
HETATM    5  C4  UNL     1       9.882 -48.863  31.991  1.00  0.00     0.050 A 
HETATM    6  C5  UNL     1       9.018 -47.851  31.557  1.00  0.00     0.146 A 
HETATM    7  N2  UNL     1       9.407 -46.579  31.408  1.00  0.00    -0.069 N 
HETATM    8  C10 UNL     1      10.677 -46.268  31.687  1.00  0.00     0.695 A 
HETATM    9  N6  UNL     1      11.555 -47.173  32.105  1.00  0.00    -0.155 N 
HETATM   10  C11 UNL     1      11.157 -48.465  32.256  1.00  0.00     0.271 A 
ATOM     11  H6  UNL     1      12.516 -46.902  32.310  1.00  0.00     0.187 HD
HETATM   12  O3  UNL     1      12.007 -49.288  32.649  1.00  0.00    -0.267 OA
BRANCH   7  13
HETATM   13  S1  UNL     1       8.312 -45.399  30.877  1.00  0.00     0.323 S 
HETATM   14  O1  UNL     1       8.686 -44.905  29.499  1.00  0.00    -0.187 OA
HETATM   15  O2  UNL     1       8.361 -44.222  31.792  1.00  0.00    -0.187 OA
BRANCH  13  16
HETATM   16  N3  UNL     1       6.705 -46.084  30.830  1.00  0.00    -0.189 NA
HETATM   17  C6  UNL     1       6.245 -46.163  29.499  1.00  0.00     0.128 C 
HETATM   18  C7  UNL     1       4.802 -45.980  29.257  1.00  0.00     0.129 C 
HETATM   19  N4  UNL     1       4.047 -45.349  30.270  1.00  0.00    -0.419 N 
HETATM   20  C8  UNL     1       4.431 -45.618  31.610  1.00  0.00     0.129 C 
ATOM     21  H4  UNL     1       3.266 -44.731  30.050  1.00  0.00     0.153 HD
HETATM   22  C9  UNL     1       5.908 -45.350  31.742  1.00  0.00     0.128 C 
ENDBRANCH  13  16
ENDBRANCH   7  13
BRANCH   8  23
HETATM   23  N5  UNL     1      11.030 -45.041  31.538  1.00  0.00    -0.233 N 
ATOM     24  H52 UNL     1      10.478 -44.292  31.956  1.00  0.00     0.174 HD
ATOM     25  H51 UNL     1      11.871 -44.860  30.990  1.00  0.00     0.174 HD
ENDBRANCH   8  23
ENDBRANCH   4   5
TORSDOF 4
ENDMDL
MODEL 3
REMARK VINA RESULT: -6.475526172      1.888      2.228
REMARK  4 active torsions:
REMARK  status: ('A' for Active; 'I' for Inactive)
REMARK    1  A    between atoms: C3_4  and  C4_5 
REMARK    2  A    between atoms: N2_7  and  S1_8 
REMARK    3  A    between atoms: S1_8  and  N3_11 
REMARK    4  A    between atoms: C10_18  and  N5_19 
ROOT
HETATM    1  N1  UNL     1       4.232 -45.135  29.593  1.00  0.00    -0.192 NA
HETATM    2  C1  UNL     1       5.323 -45.169  29.934  1.00  0.00     0.087 C 
HETATM    3  C2  UNL     1       6.739 -45.214  30.350  1.00  0.00     0.094 C 
HETATM    4  C3  UNL     1       7.229 -46.383  30.621  1.00  0.00     0.029 C 
ENDROOT
BRANCH   4   5
HETATM    5  C4  UNL     1       8.582 -46.631  31.042  1.00  0.00     0.050 A 
HETATM    6  C5  UNL     1       9.503 -45.589  30.889  1.00  0.00     0.146 A 
HETATM    7  N2  UNL     1      10.789 -45.699  31.244  1.00  0.00    -0.069 N 
HETATM    8  C10 UNL     1      11.205 -46.857  31.766  1.00  0.00     0.695 A 
HETATM    9  N6  UNL     1      10.390 -47.891  31.942  1.00  0.00    -0.155 N 
HETATM   10  C11 UNL     1       9.083 -47.776  31.581  1.00  0.00     0.271 A 
ATOM     11  H6  UNL     1      10.739 -48.760  32.344  1.00  0.00     0.187 HD
HETATM   12  O3  UNL     1       8.346 -48.766  31.760  1.00  0.00    -0.267 OA
BRANCH   7  13
HETATM   13  S1  UNL     1      11.857 -44.400  31.032  1.00  0.00     0.323 S 
HETATM   14  O1  UNL     1      12.588 -44.094  32.318  1.00  0.00    -0.187 OA
HETATM   15  O2  UNL     1      11.088 -43.175  30.664  1.00  0.00    -0.187 OA
BRANCH  13  16
HETATM   16  N3  UNL     1      13.017 -44.804  29.788  1.00  0.00    -0.189 NA
HETATM   17  C6  UNL     1      14.331 -44.679  30.285  1.00  0.00     0.128 C 
HETATM   18  C7  UNL     1      15.382 -44.240  29.349  1.00  0.00     0.129 C 
HETATM   19  N4  UNL     1      14.970 -43.592  28.165  1.00  0.00    -0.419 N 
HETATM   20  C8  UNL     1      13.758 -44.045  27.581  1.00  0.00     0.129 C 
ATOM     21  H4  UNL     1      15.515 -42.836  27.751  1.00  0.00     0.153 HD
HETATM   22  C9  UNL     1      12.689 -44.037  28.642  1.00  0.00     0.128 C 
ENDBRANCH  13  16
ENDBRANCH   7  13
BRANCH   8  23
HETATM   23  N5  UNL     1      12.443 -46.942  32.100  1.00  0.00    -0.233 N 
ATOM     24  H52 UNL     1      12.760 -46.578  32.998  1.00  0.00     0.174 HD
ATOM     25  H51 UNL     1      13.079 -47.383  31.434  1.00  0.00     0.174 HD
ENDBRANCH   8  23
ENDBRANCH   4   5
TORSDOF 4
ENDMDL
MODEL 4
REMARK VINA RESULT: -6.291103259      3.215      6.815
REMARK  4 active torsions:
REMARK  status: ('A' for Active; 'I' for Inactive)
REMARK    1  A    between atoms: C3_4  and  C4_5 
REMARK    2  A    between atoms: N2_7  and  S1_8 
REMARK    3  A    between atoms: S1_8  and  N3_11 
REMARK    4  A    between atoms: C10_18  and  N5_19 
ROOT
HETATM    1  N1  UNL     1      12.470 -41.650  28.571  1.00  0.00    -0.192 NA
HETATM    2  C1  UNL     1      11.847 -42.561  28.872  1.00  0.00     0.087 C 
HETATM    3  C2  UNL     1      11.023 -43.727  29.249  1.00  0.00     0.094 C 
HETATM    4  C3  UNL     1      10.483 -43.699  30.427  1.00  0.00     0.029 C 
ENDROOT
BRANCH   4   5
HETATM    5  C4  UNL     1       9.650 -44.736  30.975  1.00  0.00     0.050 A 
HETATM    6  C5  UNL     1      10.287 -45.895  31.434  1.00  0.00     0.146 A 
HETATM    7  N2  UNL     1       9.619 -46.928  31.964  1.00  0.00    -0.069 N 
HETATM    8  C10 UNL     1       8.289 -46.843  32.055  1.00  0.00     0.695 A 
HETATM    9  N6  UNL     1       7.615 -45.776  31.640  1.00  0.00    -0.155 N 
HETATM   10  C11 UNL     1       8.295 -44.728  31.102  1.00  0.00     0.271 A 
ATOM     11  H6  UNL     1       6.599 -45.743  31.724  1.00  0.00     0.187 HD
HETATM   12  O3  UNL     1       7.631 -43.743  30.723  1.00  0.00    -0.267 OA
BRANCH   7  13
HETATM   13  S1  UNL     1      10.449 -48.305  32.503  1.00  0.00     0.323 S 
HETATM   14  O1  UNL     1      11.923 -48.196  32.190  1.00  0.00    -0.187 OA
HETATM   15  O2  UNL     1       9.937 -49.509  31.786  1.00  0.00    -0.187 OA
BRANCH  13  16
HETATM   16  N3  UNL     1      10.233 -48.469  34.230  1.00  0.00    -0.189 NA
HETATM   17  C6  UNL     1      10.707 -47.318  34.894  1.00  0.00     0.128 C 
HETATM   18  C7  UNL     1      11.307 -47.492  36.229  1.00  0.00     0.129 C 
HETATM   19  N4  UNL     1      11.741 -48.787  36.585  1.00  0.00    -0.419 N 
HETATM   20  C8  UNL     1      10.966 -49.873  36.098  1.00  0.00     0.129 C 
ATOM     21  H4  UNL     1      12.568 -48.936  37.161  1.00  0.00     0.153 HD
HETATM   22  C9  UNL     1      10.804 -49.709  34.608  1.00  0.00     0.128 C 
ENDBRANCH  13  16
ENDBRANCH   7  13
BRANCH   8  23
HETATM   23  N5  UNL     1       7.668 -47.845  32.566  1.00  0.00    -0.233 N 
ATOM     24  H52 UNL     1       6.657 -47.932  32.461  1.00  0.00     0.174 HD
ATOM     25  H51 UNL     1       8.225 -48.533  33.073  1.00  0.00     0.174 HD
ENDBRANCH   8  23
ENDBRANCH   4   5
TORSDOF 4
ENDMDL
MODEL 5
REMARK VINA RESULT: -6.101623258      2.108      2.754
REMARK  4 active torsions:
REMARK  status: ('A' for Active; 'I' for Inactive)
REMARK    1  A    between atoms: C3_4  and  C4_5 
REMARK    2  A    between atoms: N2_7  and  S1_8 
REMARK    3  A    between atoms: S1_8  and  N3_11 
REMARK    4  A    between atoms: C10_18  and  N5_19 
ROOT
HETATM    1  N1  UNL     1       5.047 -44.856  30.987  1.00  0.00    -0.192 NA
HETATM    2  C1  UNL     1       6.140 -45.001  30.686  1.00  0.00     0.087 C 
HETATM    3  C2  UNL     1       7.555 -45.207  30.314  1.00  0.00     0.094 C 
HETATM    4  C3  UNL     1       8.423 -44.430  30.882  1.00  0.00     0.029 C 
ENDROOT
BRANCH   4   5
HETATM    5  C4  UNL     1       9.843 -44.476  30.650  1.00  0.00     0.050 A 
HETATM    6  C5  UNL     1      10.305 -44.021  29.410  1.00  0.00     0.146 A 
HETATM    7  N2  UNL     1      11.603 -44.014  29.079  1.00  0.00    -0.069 N 
HETATM    8  C10 UNL     1      12.488 -44.462  29.974  1.00  0.00     0.695 A 
HETATM    9  N6  UNL     1      12.125 -44.908  31.171  1.00  0.00    -0.155 N 
HETATM   10  C11 UNL     1      10.806 -44.914  31.506  1.00  0.00     0.271 A 
ATOM     11  H6  UNL     1      12.826 -45.242  31.832  1.00  0.00     0.187 HD
HETATM   12  O3  UNL     1      10.500 -45.341  32.637  1.00  0.00    -0.267 OA
BRANCH   7  13
HETATM   13  S1  UNL     1      12.101 -43.451  27.559  1.00  0.00     0.323 S 
HETATM   14  O1  UNL     1      10.918 -43.307  26.629  1.00  0.00    -0.187 OA
HETATM   15  O2  UNL     1      13.028 -44.441  26.938  1.00  0.00    -0.187 OA
BRANCH  13  16
HETATM   16  N3  UNL     1      12.882 -41.898  27.747  1.00  0.00    -0.189 NA
HETATM   17  C6  UNL     1      11.927 -40.903  28.041  1.00  0.00     0.128 C 
HETATM   18  C7  UNL     1      12.172 -39.543  27.527  1.00  0.00     0.129 C 
HETATM   19  N4  UNL     1      13.089 -39.403  26.463  1.00  0.00    -0.419 N 
HETATM   20  C8  UNL     1      14.203 -40.283  26.465  1.00  0.00     0.129 C 
ATOM     21  H4  UNL     1      12.958 -38.706  25.730  1.00  0.00     0.153 HD
HETATM   22  C9  UNL     1      13.692 -41.694  26.602  1.00  0.00     0.128 C 
ENDBRANCH  13  16
ENDBRANCH   7  13
BRANCH   8  23
HETATM   23  N5  UNL     1      13.728 -44.446  29.636  1.00  0.00    -0.233 N 
ATOM     24  H52 UNL     1      14.067 -43.767  28.955  1.00  0.00     0.174 HD
ATOM     25  H51 UNL     1      14.341 -45.134  30.074  1.00  0.00     0.174 HD
ENDBRANCH   8  23
ENDBRANCH   4   5
TORSDOF 4
ENDMDL
