MODEL 1
REMARK VINA RESULT: -8.462198829      0.000      0.000
REMARK  15 active torsions:
REMARK  status: ('A' for Active; 'I' for Inactive)
REMARK    1  A    between atoms: N1_1  and  C1_4 
REMARK    2  A    between atoms: C2_7  and  N3_8 
REMARK    3  A    between atoms: C4_14  and  N5_15 
REMARK    4  A    between atoms: C6_17  and  N6_18 
REMARK    5  A    between atoms: C8_23  and  N7_24 
REMARK    6  A    between atoms: C9_28  and  O1_29 
REMARK    7  A    between atoms: C10_33  and  S1_34 
REMARK    8  A    between atoms: S1_34  and  C11_35 
REMARK    9  A    between atoms: C11_35  and  C12_36 
REMARK   10  A    between atoms: C12_36  and  N9_37 
REMARK   11  A    between atoms: N9_37  and  C13_38 
REMARK   12  A    between atoms: C13_38  and  O2_39 
REMARK   13  A    between atoms: C13_38  and  C14_41 
REMARK   14  A    between atoms: C14_41  and  N10_42 
REMARK   15  A    between atoms: C15_47  and  O3_48 
ROOT
HETATM    1  C1  UNL     1      -7.827 -38.999  19.244  1.00  0.00     0.678 A 
HETATM    2  N2  UNL     1      -8.506 -40.116  19.616  1.00  0.00    -0.175 N 
ATOM      3  H2  UNL     1      -8.402 -40.977  19.080  1.00  0.00     0.186 HD
HETATM    4  C2  UNL     1      -9.324 -40.087  20.706  1.00  0.00     0.144 A 
HETATM    5  C3  UNL     1      -9.403 -38.883  21.371  1.00  0.00     0.123 A 
HETATM    6  N4  UNL     1     -10.192 -38.784  22.445  1.00  0.00    -0.185 N 
ATOM      7  H4  UNL     1     -10.711 -39.612  22.740  1.00  0.00     0.184 HD
HETATM    8  C4  UNL     1     -10.341 -37.650  23.159  1.00  0.00     0.684 A 
HETATM    9  N8  UNL     1      -9.642 -36.550  22.755  1.00  0.00    -0.183 N 
ATOM     10  H8  UNL     1      -9.739 -35.682  23.282  1.00  0.00     0.185 HD
HETATM   11  C10 UNL     1      -8.835 -36.575  21.691  1.00  0.00     0.116 A 
HETATM   12  C16 UNL     1      -8.716 -37.756  20.995  1.00  0.00     0.114 A 
HETATM   13  N14 UNL     1      -7.923 -37.830  19.914  1.00  0.00    -0.187 N 
ATOM     14  H14 UNL     1      -7.398 -37.013  19.603  1.00  0.00     0.184 HD
ENDROOT
BRANCH   8  15
HETATM   15  N5  UNL     1     -11.183 -37.574  24.310  1.00  0.00    -0.187 N 
HETATM   16  C5  UNL     1     -11.861 -38.744  24.784  1.00  0.00     0.177 C 
HETATM   17  C6  UNL     1     -13.269 -38.511  25.219  1.00  0.00     0.204 C 
HETATM   18  C7  UNL     1     -13.610 -37.133  25.615  1.00  0.00     0.071 C 
HETATM   19  C8  UNL     1     -12.812 -36.022  25.044  1.00  0.00     0.234 C 
HETATM   20  C9  UNL     1     -11.332 -36.302  24.971  1.00  0.00     0.268 C 
BRANCH  17  21
HETATM   21  N6  UNL     1     -13.492 -39.367  26.397  1.00  0.00    -0.073 N 
ATOM     22  H63 UNL     1     -14.148 -40.129  26.224  1.00  0.00     0.274 HD
ATOM     23  H62 UNL     1     -12.686 -39.944  26.635  1.00  0.00     0.274 HD
ATOM     24  H61 UNL     1     -13.783 -38.749  27.155  1.00  0.00     0.274 HD
ENDBRANCH  17  21
BRANCH  19  25
HETATM   25  N7  UNL     1     -13.263 -35.762  23.668  1.00  0.00    -0.071 N 
ATOM     26  H73 UNL     1     -13.285 -36.609  23.100  1.00  0.00     0.274 HD
ATOM     27  H72 UNL     1     -14.256 -35.532  23.622  1.00  0.00     0.274 HD
ATOM     28  H71 UNL     1     -12.678 -35.034  23.256  1.00  0.00     0.274 HD
ENDBRANCH  19  25
BRANCH  20  29
HETATM   29  O1  UNL     1     -10.720 -36.282  26.229  1.00  0.00    -0.374 OA
ATOM     30  H1  UNL     1     -11.150 -36.861  26.848  1.00  0.00     0.212 HD
ENDBRANCH  20  29
ENDBRANCH   8  15
BRANCH  11  31
HETATM   31  S1  UNL     1      -7.948 -35.124  21.126  1.00  0.00    -0.107 SA
BRANCH  31  32
HETATM   32  C11 UNL     1      -6.414 -35.037  22.067  1.00  0.00     0.114 C 
BRANCH  32  33
HETATM   33  C12 UNL     1      -5.388 -36.092  21.618  1.00  0.00     0.231 C 
BRANCH  33  34
HETATM   34  N9  UNL     1      -4.325 -35.570  20.915  1.00  0.00    -0.426 NA
BRANCH  34  35
HETATM   35  C13 UNL     1      -3.270 -35.053  20.218  1.00  0.00     0.203 C 
BRANCH  35  36
HETATM   36  O2  UNL     1      -3.410 -34.217  19.229  1.00  0.00    -0.338 OA
ATOM     37  H2  UNL     1      -3.578 -34.491  18.335  1.00  0.00     0.220 HD
ENDBRANCH  35  36
BRANCH  35  38
HETATM   38  C14 UNL     1      -1.829 -35.373  20.500  1.00  0.00     0.249 C 
BRANCH  38  39
HETATM   39  N10 UNL     1      -0.946 -35.082  19.401  1.00  0.00    -0.232 N 
HETATM   40  N11 UNL     1      -0.945 -35.726  18.211  1.00  0.00    -0.003 NA
HETATM   41  N12 UNL     1      -0.027 -35.209  17.412  1.00  0.00    -0.005 NA
HETATM   42  N13 UNL     1       0.578 -34.231  18.061  1.00  0.00    -0.250 N 
HETATM   43  C15 UNL     1       0.008 -34.155  19.293  1.00  0.00     0.250 A 
ATOM     44  H13 UNL     1       1.332 -33.644  17.705  1.00  0.00     0.187 HD
BRANCH  43  45
HETATM   45  O3  UNL     1       0.420 -33.220  20.239  1.00  0.00    -0.331 OA
ATOM     46  H3  UNL     1       0.543 -32.283  20.132  1.00  0.00     0.221 HD
ENDBRANCH  43  45
ENDBRANCH  38  39
ENDBRANCH  35  38
ENDBRANCH  34  35
ENDBRANCH  33  34
ENDBRANCH  32  33
ENDBRANCH  31  32
ENDBRANCH  11  31
BRANCH   4  47
HETATM   47  N3  UNL     1      -9.964 -41.147  21.045  1.00  0.00    -0.383 N 
ATOM     48  H32 UNL     1      -9.558 -42.082  21.073  1.00  0.00     0.157 HD
ATOM     49  H31 UNL     1     -10.946 -41.078  21.312  1.00  0.00     0.157 HD
ENDBRANCH   4  47
BRANCH   1  50
HETATM   50  N1  UNL     1      -7.069 -39.091  18.207  1.00  0.00    -0.234 N 
ATOM     51  H12 UNL     1      -6.409 -39.864  18.122  1.00  0.00     0.174 HD
ATOM     52  H11 UNL     1      -7.164 -38.366  17.495  1.00  0.00     0.174 HD
ENDBRANCH   1  50
TORSDOF 15
ENDMDL
MODEL 2
REMARK VINA RESULT: -8.379764509      1.035      1.325
REMARK  15 active torsions:
REMARK  status: ('A' for Active; 'I' for Inactive)
REMARK    1  A    between atoms: N1_1  and  C1_4 
REMARK    2  A    between atoms: C2_7  and  N3_8 
REMARK    3  A    between atoms: C4_14  and  N5_15 
REMARK    4  A    between atoms: C6_17  and  N6_18 
REMARK    5  A    between atoms: C8_23  and  N7_24 
REMARK    6  A    between atoms: C9_28  and  O1_29 
REMARK    7  A    between atoms: C10_33  and  S1_34 
REMARK    8  A    between atoms: S1_34  and  C11_35 
REMARK    9  A    between atoms: C11_35  and  C12_36 
REMARK   10  A    between atoms: C12_36  and  N9_37 
REMARK   11  A    between atoms: N9_37  and  C13_38 
REMARK   12  A    between atoms: C13_38  and  O2_39 
REMARK   13  A    between atoms: C13_38  and  C14_41 
REMARK   14  A    between atoms: C14_41  and  N10_42 
REMARK   15  A    between atoms: C15_47  and  O3_48 
ROOT
HETATM    1  C1  UNL     1      -7.738 -39.082  19.282  1.00  0.00     0.678 A 
HETATM    2  N2  UNL     1      -8.454 -40.171  19.662  1.00  0.00    -0.175 N 
ATOM      3  H2  UNL     1      -8.347 -41.053  19.160  1.00  0.00     0.186 HD
HETATM    4  C2  UNL     1      -9.317 -40.088  20.715  1.00  0.00     0.144 A 
HETATM    5  C3  UNL     1      -9.397 -38.860  21.335  1.00  0.00     0.123 A 
HETATM    6  N4  UNL     1     -10.229 -38.708  22.370  1.00  0.00    -0.185 N 
ATOM      7  H4  UNL     1     -10.777 -39.515  22.670  1.00  0.00     0.184 HD
HETATM    8  C4  UNL     1     -10.383 -37.547  23.038  1.00  0.00     0.684 A 
HETATM    9  N8  UNL     1      -9.645 -36.476  22.626  1.00  0.00    -0.183 N 
ATOM     10  H8  UNL     1      -9.745 -35.588  23.119  1.00  0.00     0.185 HD
HETATM   11  C10 UNL     1      -8.794 -36.554  21.599  1.00  0.00     0.116 A 
HETATM   12  C16 UNL     1      -8.672 -37.761  20.949  1.00  0.00     0.114 A 
HETATM   13  N14 UNL     1      -7.836 -37.888  19.907  1.00  0.00    -0.187 N 
ATOM     14  H14 UNL     1      -7.281 -37.093  19.591  1.00  0.00     0.184 HD
ENDROOT
BRANCH   8  15
HETATM   15  N5  UNL     1     -11.270 -37.414  24.149  1.00  0.00    -0.187 N 
HETATM   16  C5  UNL     1     -12.581 -36.865  23.961  1.00  0.00     0.177 C 
HETATM   17  C6  UNL     1     -13.017 -35.923  25.033  1.00  0.00     0.204 C 
HETATM   18  C7  UNL     1     -12.356 -36.072  26.343  1.00  0.00     0.071 C 
HETATM   19  C8  UNL     1     -10.998 -36.665  26.377  1.00  0.00     0.234 C 
HETATM   20  C9  UNL     1     -10.814 -37.839  25.449  1.00  0.00     0.268 C 
BRANCH  17  21
HETATM   21  N6  UNL     1     -14.455 -36.165  25.246  1.00  0.00    -0.073 N 
ATOM     22  H63 UNL     1     -14.844 -35.628  26.021  1.00  0.00     0.274 HD
ATOM     23  H62 UNL     1     -15.043 -35.773  24.512  1.00  0.00     0.274 HD
ATOM     24  H61 UNL     1     -14.567 -37.173  25.358  1.00  0.00     0.274 HD
ENDBRANCH  17  21
BRANCH  19  25
HETATM   25  N7  UNL     1     -10.016 -35.646  25.973  1.00  0.00    -0.071 N 
ATOM     26  H73 UNL     1     -10.392 -34.700  26.034  1.00  0.00     0.274 HD
ATOM     27  H72 UNL     1      -9.261 -35.546  26.651  1.00  0.00     0.274 HD
ATOM     28  H71 UNL     1      -9.671 -35.866  25.038  1.00  0.00     0.274 HD
ENDBRANCH  19  25
BRANCH  20  29
HETATM   29  O1  UNL     1     -11.480 -38.986  25.895  1.00  0.00    -0.374 OA
ATOM     30  H1  UNL     1     -10.890 -39.606  26.309  1.00  0.00     0.212 HD
ENDBRANCH  20  29
ENDBRANCH   8  15
BRANCH  11  31
HETATM   31  S1  UNL     1      -7.854 -35.141  21.023  1.00  0.00    -0.107 SA
BRANCH  31  32
HETATM   32  C11 UNL     1      -6.373 -35.037  22.042  1.00  0.00     0.114 C 
BRANCH  32  33
HETATM   33  C12 UNL     1      -5.313 -36.082  21.650  1.00  0.00     0.231 C 
BRANCH  33  34
HETATM   34  N9  UNL     1      -4.259 -35.563  20.931  1.00  0.00    -0.426 NA
BRANCH  34  35
HETATM   35  C13 UNL     1      -3.214 -35.048  20.219  1.00  0.00     0.203 C 
BRANCH  35  36
HETATM   36  O2  UNL     1      -3.367 -34.218  19.227  1.00  0.00    -0.338 OA
ATOM     37  H2  UNL     1      -3.835 -34.440  18.430  1.00  0.00     0.220 HD
ENDBRANCH  35  36
BRANCH  35  38
HETATM   38  C14 UNL     1      -1.768 -35.363  20.486  1.00  0.00     0.249 C 
BRANCH  38  39
HETATM   39  N10 UNL     1      -0.900 -35.077  19.375  1.00  0.00    -0.232 N 
HETATM   40  N11 UNL     1      -0.912 -35.728  18.189  1.00  0.00    -0.003 NA
HETATM   41  N12 UNL     1      -0.004 -35.213  17.376  1.00  0.00    -0.005 NA
HETATM   42  N13 UNL     1       0.607 -34.231  18.012  1.00  0.00    -0.250 N 
HETATM   43  C15 UNL     1       0.051 -34.149  19.250  1.00  0.00     0.250 A 
ATOM     44  H13 UNL     1       1.355 -33.645  17.644  1.00  0.00     0.187 HD
BRANCH  43  45
HETATM   45  O3  UNL     1       0.473 -33.207  20.186  1.00  0.00    -0.331 OA
ATOM     46  H3  UNL     1       0.550 -32.265  20.085  1.00  0.00     0.221 HD
ENDBRANCH  43  45
ENDBRANCH  38  39
ENDBRANCH  35  38
ENDBRANCH  34  35
ENDBRANCH  33  34
ENDBRANCH  32  33
ENDBRANCH  31  32
ENDBRANCH  11  31
BRANCH   4  47
HETATM   47  N3  UNL     1      -9.992 -41.123  21.062  1.00  0.00    -0.383 N 
ATOM     48  H32 UNL     1      -9.809 -42.070  20.731  1.00  0.00     0.157 HD
ATOM     49  H31 UNL     1     -10.769 -41.020  21.716  1.00  0.00     0.157 HD
ENDBRANCH   4  47
BRANCH   1  50
HETATM   50  N1  UNL     1      -6.938 -39.224  18.281  1.00  0.00    -0.234 N 
ATOM     51  H12 UNL     1      -6.476 -40.119  18.119  1.00  0.00     0.174 HD
ATOM     52  H11 UNL     1      -6.799 -38.414  17.677  1.00  0.00     0.174 HD
ENDBRANCH   1  50
TORSDOF 15
ENDMDL
MODEL 3
REMARK VINA RESULT: -8.282752733      1.569      1.997
REMARK  15 active torsions:
REMARK  status: ('A' for Active; 'I' for Inactive)
REMARK    1  A    between atoms: N1_1  and  C1_4 
REMARK    2  A    between atoms: C2_7  and  N3_8 
REMARK    3  A    between atoms: C4_14  and  N5_15 
REMARK    4  A    between atoms: C6_17  and  N6_18 
REMARK    5  A    between atoms: C8_23  and  N7_24 
REMARK    6  A    between atoms: C9_28  and  O1_29 
REMARK    7  A    between atoms: C10_33  and  S1_34 
REMARK    8  A    between atoms: S1_34  and  C11_35 
REMARK    9  A    between atoms: C11_35  and  C12_36 
REMARK   10  A    between atoms: C12_36  and  N9_37 
REMARK   11  A    between atoms: N9_37  and  C13_38 
REMARK   12  A    between atoms: C13_38  and  O2_39 
REMARK   13  A    between atoms: C13_38  and  C14_41 
REMARK   14  A    between atoms: C14_41  and  N10_42 
REMARK   15  A    between atoms: C15_47  and  O3_48 
ROOT
HETATM    1  C1  UNL     1      -7.537 -39.129  19.268  1.00  0.00     0.678 A 
HETATM    2  N2  UNL     1      -8.418 -40.122  19.555  1.00  0.00    -0.175 N 
ATOM      3  H2  UNL     1      -8.420 -40.977  18.998  1.00  0.00     0.186 HD
HETATM    4  C2  UNL     1      -9.297 -39.979  20.586  1.00  0.00     0.144 A 
HETATM    5  C3  UNL     1      -9.222 -38.794  21.285  1.00  0.00     0.123 A 
HETATM    6  N4  UNL     1     -10.061 -38.587  22.304  1.00  0.00    -0.185 N 
ATOM      7  H4  UNL     1     -10.730 -39.321  22.535  1.00  0.00     0.184 HD
HETATM    8  C4  UNL     1     -10.070 -37.459  23.044  1.00  0.00     0.684 A 
HETATM    9  N8  UNL     1      -9.170 -36.485  22.726  1.00  0.00    -0.183 N 
ATOM     10  H8  UNL     1      -9.158 -35.624  23.274  1.00  0.00     0.185 HD
HETATM   11  C10 UNL     1      -8.302 -36.623  21.720  1.00  0.00     0.116 A 
HETATM   12  C16 UNL     1      -8.331 -37.791  20.994  1.00  0.00     0.114 A 
HETATM   13  N14 UNL     1      -7.485 -37.974  19.969  1.00  0.00    -0.187 N 
ATOM     14  H14 UNL     1      -6.810 -37.251  19.722  1.00  0.00     0.184 HD
ENDROOT
BRANCH   8  15
HETATM   15  N5  UNL     1     -10.969 -37.267  24.137  1.00  0.00    -0.187 N 
HETATM   16  C5  UNL     1     -12.289 -36.760  23.902  1.00  0.00     0.177 C 
HETATM   17  C6  UNL     1     -12.753 -35.754  24.902  1.00  0.00     0.204 C 
HETATM   18  C7  UNL     1     -12.100 -35.797  26.223  1.00  0.00     0.071 C 
HETATM   19  C8  UNL     1     -10.731 -36.358  26.309  1.00  0.00     0.234 C 
HETATM   20  C9  UNL     1     -10.515 -37.590  25.467  1.00  0.00     0.268 C 
BRANCH  17  21
HETATM   21  N6  UNL     1     -14.187 -36.011  25.121  1.00  0.00    -0.073 N 
ATOM     22  H63 UNL     1     -14.466 -36.965  24.890  1.00  0.00     0.274 HD
ATOM     23  H62 UNL     1     -14.446 -36.038  26.107  1.00  0.00     0.274 HD
ATOM     24  H61 UNL     1     -14.694 -35.303  24.590  1.00  0.00     0.274 HD
ENDBRANCH  17  21
BRANCH  19  25
HETATM   25  N7  UNL     1      -9.766 -35.350  25.840  1.00  0.00    -0.071 N 
ATOM     26  H73 UNL     1     -10.216 -34.468  25.594  1.00  0.00     0.274 HD
ATOM     27  H72 UNL     1      -9.172 -35.003  26.594  1.00  0.00     0.274 HD
ATOM     28  H71 UNL     1      -9.225 -35.738  25.067  1.00  0.00     0.274 HD
ENDBRANCH  19  25
BRANCH  20  29
HETATM   29  O1  UNL     1     -11.161 -38.716  25.988  1.00  0.00    -0.374 OA
ATOM     30  H1  UNL     1     -10.852 -38.937  26.860  1.00  0.00     0.212 HD
ENDBRANCH  20  29
ENDBRANCH   8  15
BRANCH  11  31
HETATM   31  S1  UNL     1      -7.147 -35.330  21.266  1.00  0.00    -0.107 SA
BRANCH  31  32
HETATM   32  C11 UNL     1      -5.580 -35.710  22.068  1.00  0.00     0.114 C 
BRANCH  32  33
HETATM   33  C12 UNL     1      -4.541 -36.284  21.088  1.00  0.00     0.231 C 
BRANCH  33  34
HETATM   34  N9  UNL     1      -3.745 -35.328  20.498  1.00  0.00    -0.426 NA
BRANCH  34  35
HETATM   35  C13 UNL     1      -2.955 -34.379  19.912  1.00  0.00     0.203 C 
BRANCH  35  36
HETATM   36  O2  UNL     1      -3.407 -33.499  19.066  1.00  0.00    -0.338 OA
ATOM     37  H2  UNL     1      -3.750 -32.653  19.329  1.00  0.00     0.220 HD
ENDBRANCH  35  36
BRANCH  35  38
HETATM   38  C14 UNL     1      -1.482 -34.227  20.168  1.00  0.00     0.249 C 
BRANCH  38  39
HETATM   39  N10 UNL     1      -0.756 -35.469  20.125  1.00  0.00    -0.232 N 
HETATM   40  N11 UNL     1       0.263 -35.804  20.949  1.00  0.00    -0.003 NA
HETATM   41  N12 UNL     1       0.702 -37.018  20.662  1.00  0.00    -0.005 NA
HETATM   42  N13 UNL     1      -0.016 -37.488  19.659  1.00  0.00    -0.250 N 
HETATM   43  C15 UNL     1      -0.918 -36.526  19.327  1.00  0.00     0.250 A 
ATOM     44  H13 UNL     1       0.088 -38.400  19.216  1.00  0.00     0.187 HD
BRANCH  43  45
HETATM   45  O3  UNL     1      -1.837 -36.702  18.296  1.00  0.00    -0.331 OA
ATOM     46  H3  UNL     1      -2.270 -37.502  18.017  1.00  0.00     0.221 HD
ENDBRANCH  43  45
ENDBRANCH  38  39
ENDBRANCH  35  38
ENDBRANCH  34  35
ENDBRANCH  33  34
ENDBRANCH  32  33
ENDBRANCH  31  32
ENDBRANCH  11  31
BRANCH   4  47
HETATM   47  N3  UNL     1     -10.128 -40.924  20.845  1.00  0.00    -0.383 N 
ATOM     48  H32 UNL     1     -10.177 -41.421  21.734  1.00  0.00     0.157 HD
ATOM     49  H31 UNL     1     -10.797 -41.214  20.132  1.00  0.00     0.157 HD
ENDBRANCH   4  47
BRANCH   1  50
HETATM   50  N1  UNL     1      -6.730 -39.324  18.283  1.00  0.00    -0.234 N 
ATOM     51  H12 UNL     1      -6.169 -40.175  18.242  1.00  0.00     0.174 HD
ATOM     52  H11 UNL     1      -6.688 -38.601  17.565  1.00  0.00     0.174 HD
ENDBRANCH   1  50
TORSDOF 15
ENDMDL
MODEL 4
REMARK VINA RESULT: -8.265198308      2.040      9.763
REMARK  15 active torsions:
REMARK  status: ('A' for Active; 'I' for Inactive)
REMARK    1  A    between atoms: N1_1  and  C1_4 
REMARK    2  A    between atoms: C2_7  and  N3_8 
REMARK    3  A    between atoms: C4_14  and  N5_15 
REMARK    4  A    between atoms: C6_17  and  N6_18 
REMARK    5  A    between atoms: C8_23  and  N7_24 
REMARK    6  A    between atoms: C9_28  and  O1_29 
REMARK    7  A    between atoms: C10_33  and  S1_34 
REMARK    8  A    between atoms: S1_34  and  C11_35 
REMARK    9  A    between atoms: C11_35  and  C12_36 
REMARK   10  A    between atoms: C12_36  and  N9_37 
REMARK   11  A    between atoms: N9_37  and  C13_38 
REMARK   12  A    between atoms: C13_38  and  O2_39 
REMARK   13  A    between atoms: C13_38  and  C14_41 
REMARK   14  A    between atoms: C14_41  and  N10_42 
REMARK   15  A    between atoms: C15_47  and  O3_48 
ROOT
HETATM    1  C1  UNL     1      -9.224 -38.901  20.089  1.00  0.00     0.678 A 
HETATM    2  N2  UNL     1      -8.379 -39.474  19.193  1.00  0.00    -0.175 N 
ATOM      3  H2  UNL     1      -8.724 -40.188  18.551  1.00  0.00     0.186 HD
HETATM    4  C2  UNL     1      -7.070 -39.096  19.151  1.00  0.00     0.144 A 
HETATM    5  C3  UNL     1      -6.691 -38.125  20.052  1.00  0.00     0.123 A 
HETATM    6  N4  UNL     1      -5.420 -37.713  20.068  1.00  0.00    -0.185 N 
ATOM      7  H4  UNL     1      -4.770 -38.132  19.403  1.00  0.00     0.184 HD
HETATM    8  C4  UNL     1      -4.951 -36.774  20.915  1.00  0.00     0.684 A 
HETATM    9  N8  UNL     1      -5.831 -36.222  21.799  1.00  0.00    -0.183 N 
ATOM     10  H8  UNL     1      -5.498 -35.508  22.447  1.00  0.00     0.185 HD
HETATM   11  C10 UNL     1      -7.116 -36.585  21.840  1.00  0.00     0.116 A 
HETATM   12  C16 UNL     1      -7.547 -37.547  20.956  1.00  0.00     0.114 A 
HETATM   13  N14 UNL     1      -8.827 -37.951  20.964  1.00  0.00    -0.187 N 
ATOM     14  H14 UNL     1      -9.492 -37.545  21.622  1.00  0.00     0.184 HD
ENDROOT
BRANCH   8  15
HETATM   15  N5  UNL     1      -3.590 -36.343  20.903  1.00  0.00    -0.187 N 
HETATM   16  C5  UNL     1      -3.269 -34.984  20.580  1.00  0.00     0.177 C 
HETATM   17  C6  UNL     1      -2.077 -34.822  19.698  1.00  0.00     0.204 C 
HETATM   18  C7  UNL     1      -1.103 -35.928  19.706  1.00  0.00     0.071 C 
HETATM   19  C8  UNL     1      -1.585 -37.282  20.068  1.00  0.00     0.234 C 
HETATM   20  C9  UNL     1      -2.561 -37.302  21.217  1.00  0.00     0.268 C 
BRANCH  17  21
HETATM   21  N6  UNL     1      -1.367 -33.619  20.167  1.00  0.00    -0.073 N 
ATOM     22  H63 UNL     1      -0.871 -33.761  21.047  1.00  0.00     0.274 HD
ATOM     23  H62 UNL     1      -0.554 -33.383  19.599  1.00  0.00     0.274 HD
ATOM     24  H61 UNL     1      -2.059 -32.871  20.210  1.00  0.00     0.274 HD
ENDBRANCH  17  21
BRANCH  19  25
HETATM   25  N7  UNL     1      -2.279 -37.872  18.912  1.00  0.00    -0.071 N 
ATOM     26  H73 UNL     1      -3.286 -37.936  19.056  1.00  0.00     0.274 HD
ATOM     27  H72 UNL     1      -2.287 -37.248  18.105  1.00  0.00     0.274 HD
ATOM     28  H71 UNL     1      -1.860 -38.778  18.697  1.00  0.00     0.274 HD
ENDBRANCH  19  25
BRANCH  20  29
HETATM   29  O1  UNL     1      -1.947 -37.039  22.446  1.00  0.00    -0.374 OA
ATOM     30  H1  UNL     1      -2.192 -37.669  23.114  1.00  0.00     0.212 HD
ENDBRANCH  20  29
ENDBRANCH   8  15
BRANCH  11  31
HETATM   31  S1  UNL     1      -8.268 -35.898  23.028  1.00  0.00    -0.107 SA
BRANCH  31  32
HETATM   32  C11 UNL     1      -7.907 -36.657  24.621  1.00  0.00     0.114 C 
BRANCH  32  33
HETATM   33  C12 UNL     1      -9.172 -36.877  25.469  1.00  0.00     0.231 C 
BRANCH  33  34
HETATM   34  N9  UNL     1     -10.156 -37.593  24.824  1.00  0.00    -0.426 NA
BRANCH  34  35
HETATM   35  C13 UNL     1     -11.133 -38.302  24.183  1.00  0.00     0.203 C 
BRANCH  35  36
HETATM   36  O2  UNL     1     -11.053 -38.653  22.932  1.00  0.00    -0.338 OA
ATOM     37  H2  UNL     1     -11.160 -38.042  22.212  1.00  0.00     0.220 HD
ENDBRANCH  35  36
BRANCH  35  38
HETATM   38  C14 UNL     1     -12.407 -38.767  24.831  1.00  0.00     0.249 C 
BRANCH  38  39
HETATM   39  N10 UNL     1     -13.464 -37.792  24.792  1.00  0.00    -0.232 N 
HETATM   40  N11 UNL     1     -14.644 -37.948  24.150  1.00  0.00    -0.003 NA
HETATM   41  N12 UNL     1     -15.403 -36.879  24.323  1.00  0.00    -0.005 NA
HETATM   42  N13 UNL     1     -14.737 -36.019  25.071  1.00  0.00    -0.250 N 
HETATM   43  C15 UNL     1     -13.536 -36.587  25.361  1.00  0.00     0.250 A 
ATOM     44  H13 UNL     1     -15.063 -35.102  25.375  1.00  0.00     0.187 HD
BRANCH  43  45
HETATM   45  O3  UNL     1     -12.582 -35.936  26.139  1.00  0.00    -0.331 OA
ATOM     46  H3  UNL     1     -12.486 -35.005  26.304  1.00  0.00     0.221 HD
ENDBRANCH  43  45
ENDBRANCH  38  39
ENDBRANCH  35  38
ENDBRANCH  34  35
ENDBRANCH  33  34
ENDBRANCH  32  33
ENDBRANCH  31  32
ENDBRANCH  11  31
BRANCH   4  47
HETATM   47  N3  UNL     1      -6.279 -39.648  18.303  1.00  0.00    -0.383 N 
ATOM     48  H32 UNL     1      -6.446 -40.552  17.862  1.00  0.00     0.157 HD
ATOM     49  H31 UNL     1      -5.420 -39.169  18.031  1.00  0.00     0.157 HD
ENDBRANCH   4  47
BRANCH   1  50
HETATM   50  N1  UNL     1     -10.450 -39.299  20.079  1.00  0.00    -0.234 N 
ATOM     51  H12 UNL     1     -11.147 -38.794  19.533  1.00  0.00     0.174 HD
ATOM     52  H11 UNL     1     -10.675 -40.127  20.632  1.00  0.00     0.174 HD
ENDBRANCH   1  50
TORSDOF 15
ENDMDL
MODEL 5
REMARK VINA RESULT: -8.218375280      1.973      9.626
REMARK  15 active torsions:
REMARK  status: ('A' for Active; 'I' for Inactive)
REMARK    1  A    between atoms: N1_1  and  C1_4 
REMARK    2  A    between atoms: C2_7  and  N3_8 
REMARK    3  A    between atoms: C4_14  and  N5_15 
REMARK    4  A    between atoms: C6_17  and  N6_18 
REMARK    5  A    between atoms: C8_23  and  N7_24 
REMARK    6  A    between atoms: C9_28  and  O1_29 
REMARK    7  A    between atoms: C10_33  and  S1_34 
REMARK    8  A    between atoms: S1_34  and  C11_35 
REMARK    9  A    between atoms: C11_35  and  C12_36 
REMARK   10  A    between atoms: C12_36  and  N9_37 
REMARK   11  A    between atoms: N9_37  and  C13_38 
REMARK   12  A    between atoms: C13_38  and  O2_39 
REMARK   13  A    between atoms: C13_38  and  C14_41 
REMARK   14  A    between atoms: C14_41  and  N10_42 
REMARK   15  A    between atoms: C15_47  and  O3_48 
ROOT
HETATM    1  C1  UNL     1      -8.929 -39.965  20.624  1.00  0.00     0.678 A 
HETATM    2  N2  UNL     1      -8.324 -40.291  19.453  1.00  0.00    -0.175 N 
ATOM      3  H2  UNL     1      -8.779 -40.936  18.807  1.00  0.00     0.186 HD
HETATM    4  C2  UNL     1      -7.110 -39.756  19.138  1.00  0.00     0.144 A 
HETATM    5  C3  UNL     1      -6.571 -38.893  20.067  1.00  0.00     0.123 A 
HETATM    6  N4  UNL     1      -5.379 -38.339  19.824  1.00  0.00    -0.185 N 
ATOM      7  H4  UNL     1      -4.909 -38.572  18.949  1.00  0.00     0.184 HD
HETATM    8  C4  UNL     1      -4.766 -37.488  20.672  1.00  0.00     0.684 A 
HETATM    9  N8  UNL     1      -5.406 -37.184  21.838  1.00  0.00    -0.183 N 
ATOM     10  H8  UNL     1      -4.960 -36.541  22.493  1.00  0.00     0.185 HD
HETATM   11  C10 UNL     1      -6.598 -37.701  22.147  1.00  0.00     0.116 A 
HETATM   12  C16 UNL     1      -7.183 -38.564  21.250  1.00  0.00     0.114 A 
HETATM   13  N14 UNL     1      -8.377 -39.116  21.519  1.00  0.00    -0.187 N 
ATOM     14  H14 UNL     1      -8.862 -38.896  22.389  1.00  0.00     0.184 HD
ENDROOT
BRANCH   8  15
HETATM   15  N5  UNL     1      -3.498 -36.900  20.382  1.00  0.00    -0.187 N 
HETATM   16  C5  UNL     1      -2.412 -37.717  19.926  1.00  0.00     0.177 C 
HETATM   17  C6  UNL     1      -1.088 -37.381  20.527  1.00  0.00     0.204 C 
HETATM   18  C7  UNL     1      -0.937 -36.011  21.048  1.00  0.00     0.071 C 
HETATM   19  C8  UNL     1      -2.156 -35.287  21.477  1.00  0.00     0.234 C 
HETATM   20  C9  UNL     1      -3.340 -35.478  20.564  1.00  0.00     0.268 C 
BRANCH  17  21
HETATM   21  N6  UNL     1      -0.088 -37.550  19.459  1.00  0.00    -0.073 N 
ATOM     22  H63 UNL     1      -0.066 -36.771  18.800  1.00  0.00     0.274 HD
ATOM     23  H62 UNL     1       0.873 -37.464  19.789  1.00  0.00     0.274 HD
ATOM     24  H61 UNL     1      -0.283 -38.448  19.016  1.00  0.00     0.274 HD
ENDBRANCH  17  21
BRANCH  19  25
HETATM   25  N7  UNL     1      -2.563 -35.770  22.806  1.00  0.00    -0.071 N 
ATOM     26  H73 UNL     1      -2.949 -35.027  23.388  1.00  0.00     0.274 HD
ATOM     27  H72 UNL     1      -3.390 -36.366  22.765  1.00  0.00     0.274 HD
ATOM     28  H71 UNL     1      -1.771 -36.237  23.249  1.00  0.00     0.274 HD
ENDBRANCH  19  25
BRANCH  20  29
HETATM   29  O1  UNL     1      -3.195 -34.801  19.348  1.00  0.00    -0.374 OA
ATOM     30  H1  UNL     1      -3.845 -34.116  19.237  1.00  0.00     0.212 HD
ENDBRANCH  20  29
ENDBRANCH   8  15
BRANCH  11  31
HETATM   31  S1  UNL     1      -7.425 -37.343  23.697  1.00  0.00    -0.107 SA
BRANCH  31  32
HETATM   32  C11 UNL     1      -8.459 -35.893  23.425  1.00  0.00     0.114 C 
BRANCH  32  33
HETATM   33  C12 UNL     1      -9.813 -36.247  22.787  1.00  0.00     0.231 C 
BRANCH  33  34
HETATM   34  N9  UNL     1     -10.441 -37.323  23.374  1.00  0.00    -0.426 NA
BRANCH  34  35
HETATM   35  C13 UNL     1     -11.063 -38.392  23.957  1.00  0.00     0.203 C 
BRANCH  35  36
HETATM   36  O2  UNL     1     -10.823 -39.626  23.620  1.00  0.00    -0.338 OA
ATOM     37  H2  UNL     1     -11.372 -40.355  23.888  1.00  0.00     0.220 HD
ENDBRANCH  35  36
BRANCH  35  38
HETATM   38  C14 UNL     1     -12.088 -38.283  25.051  1.00  0.00     0.249 C 
BRANCH  38  39
HETATM   39  N10 UNL     1     -13.255 -37.529  24.677  1.00  0.00    -0.232 N 
HETATM   40  N11 UNL     1     -14.451 -38.061  24.339  1.00  0.00    -0.003 NA
HETATM   41  N12 UNL     1     -15.318 -37.101  24.066  1.00  0.00    -0.005 NA
HETATM   42  N13 UNL     1     -14.707 -35.940  24.219  1.00  0.00    -0.250 N 
HETATM   43  C15 UNL     1     -13.429 -36.208  24.597  1.00  0.00     0.250 A 
ATOM     44  H13 UNL     1     -15.118 -35.017  24.080  1.00  0.00     0.187 HD
BRANCH  43  45
HETATM   45  O3  UNL     1     -12.506 -35.194  24.842  1.00  0.00    -0.331 OA
ATOM     46  H3  UNL     1     -12.202 -34.513  24.253  1.00  0.00     0.221 HD
ENDBRANCH  43  45
ENDBRANCH  38  39
ENDBRANCH  35  38
ENDBRANCH  34  35
ENDBRANCH  33  34
ENDBRANCH  32  33
ENDBRANCH  31  32
ENDBRANCH  11  31
BRANCH   4  47
HETATM   47  N3  UNL     1      -6.546 -40.075  18.030  1.00  0.00    -0.383 N 
ATOM     48  H32 UNL     1      -6.609 -40.995  17.595  1.00  0.00     0.157 HD
ATOM     49  H31 UNL     1      -5.994 -39.379  17.528  1.00  0.00     0.157 HD
ENDBRANCH   4  47
BRANCH   1  50
HETATM   50  N1  UNL     1     -10.076 -40.501  20.863  1.00  0.00    -0.234 N 
ATOM     51  H12 UNL     1     -10.231 -41.488  20.660  1.00  0.00     0.174 HD
ATOM     52  H11 UNL     1     -10.798 -39.899  21.258  1.00  0.00     0.174 HD
ENDBRANCH   1  50
TORSDOF 15
ENDMDL
