MODEL 1
REMARK VINA RESULT: -9.255806611      0.000      0.000
REMARK  11 active torsions:
REMARK  status: ('A' for Active; 'I' for Inactive)
REMARK       I    between atoms: N1_1  and  C1_5 
REMARK       I    between atoms: C1_5  and  N2_6 
REMARK       I    between atoms: C1_5  and  N3_10 
REMARK       I    between atoms: N3_10  and  C2_12 
REMARK    1  A    between atoms: C2_12  and  C3_14 
REMARK    2  A    between atoms: C5_16  and  C6_17 
REMARK    3  A    between atoms: C6_17  and  N4_18 
REMARK    4  A    between atoms: N4_18  and  C7_21 
REMARK    5  A    between atoms: C7_21  and  C8_22 
REMARK    6  A    between atoms: C8_22  and  N5_23 
REMARK    7  A    between atoms: C11_33  and  O2_34 
REMARK    8  A    between atoms: C12_36  and  C13_37 
REMARK    9  A    between atoms: C16_46  and  C17_47 
REMARK   10  A    between atoms: C17_47  and  O5_48 
REMARK   11  A    between atoms: C17_47  and  O6_50 
ROOT
HETATM    1  C6  UNL     1      -3.203 -36.810  24.105  1.00  0.00     0.289 C 
ENDROOT
BRANCH   1   2
HETATM    2  C5  UNL     1      -3.988 -36.947  22.838  1.00  0.00     0.036 A 
HETATM    3  C4  UNL     1      -3.807 -38.007  21.979  1.00  0.00     0.043 A 
HETATM    4  C3  UNL     1      -4.514 -38.170  20.792  1.00  0.00     0.036 A 
HETATM    5  C18 UNL     1      -5.440 -37.198  20.492  1.00  0.00     0.047 A 
HETATM    6  C16 UNL     1      -5.619 -36.126  21.367  1.00  0.00     0.065 A 
HETATM    7  N11 UNL     1      -4.902 -36.023  22.503  1.00  0.00    -0.357 N 
ATOM      8  H11 UNL     1      -5.057 -35.227  23.122  1.00  0.00     0.165 HD
BRANCH   4   9
HETATM    9  C2  UNL     1      -4.273 -39.320  19.923  1.00  0.00     0.254 C 
HETATM   10  N3  UNL     1      -5.341 -39.902  19.197  1.00  0.00    -0.307 N 
HETATM   11  C1  UNL     1      -5.127 -41.055  18.320  1.00  0.00     0.483 C 
ATOM     12  H3  UNL     1      -6.278 -39.511  19.288  1.00  0.00     0.166 HD
HETATM   13  N1  UNL     1      -5.557 -40.617  16.989  1.00  0.00    -0.033 N 
HETATM   14  N2  UNL     1      -5.964 -42.171  18.677  1.00  0.00    -0.033 N 
ATOM     15  H13 UNL     1      -5.548 -41.365  16.296  1.00  0.00     0.278 HD
ATOM     16  H12 UNL     1      -6.554 -40.406  16.937  1.00  0.00     0.278 HD
ATOM     17  H11 UNL     1      -4.963 -39.826  16.736  1.00  0.00     0.278 HD
ATOM     18  H23 UNL     1      -6.961 -41.960  18.625  1.00  0.00     0.278 HD
ATOM     19  H22 UNL     1      -5.956 -42.919  17.983  1.00  0.00     0.278 HD
ATOM     20  H21 UNL     1      -5.664 -42.476  19.603  1.00  0.00     0.278 HD
HETATM   21  O1  UNL     1      -3.127 -39.823  19.793  1.00  0.00    -0.268 OA
ENDBRANCH   4   9
BRANCH   6  22
HETATM   22  C17 UNL     1      -6.627 -35.100  21.006  1.00  0.00     0.305 C 
BRANCH  22  23
HETATM   23  O5  UNL     1      -6.081 -34.124  20.166  1.00  0.00    -0.366 OA
ATOM     24  H5  UNL     1      -6.494 -33.279  20.303  1.00  0.00     0.213 HD
ENDBRANCH  22  23
BRANCH  22  25
HETATM   25  O6  UNL     1      -7.119 -34.472  22.132  1.00  0.00    -0.366 OA
ATOM     26  H6  UNL     1      -6.924 -33.542  22.115  1.00  0.00     0.213 HD
ENDBRANCH  22  25
ENDBRANCH   6  22
ENDBRANCH   1   2
BRANCH   1  27
HETATM   27  N4  UNL     1      -2.151 -37.805  24.176  1.00  0.00    -0.068 N 
ATOM     28  H42 UNL     1      -2.500 -38.745  24.358  1.00  0.00     0.277 HD
ATOM     29  H41 UNL     1      -1.721 -37.999  23.271  1.00  0.00     0.277 HD
BRANCH  27  30
HETATM   30  C7  UNL     1      -1.199 -37.347  25.173  1.00  0.00     0.253 C 
BRANCH  30  31
HETATM   31  C8  UNL     1      -0.209 -36.454  24.478  1.00  0.00     0.157 C 
BRANCH  31  32
HETATM   32  N5  UNL     1       0.601 -37.163  23.534  1.00  0.00    -0.335 N 
HETATM   33  C9  UNL     1       1.571 -38.070  23.782  1.00  0.00     0.185 A 
HETATM   34  N6  UNL     1       2.107 -38.515  22.644  1.00  0.00    -0.335 N 
HETATM   35  C10 UNL     1       1.463 -37.872  21.637  1.00  0.00     0.153 A 
ATOM     36  H6  UNL     1       2.855 -39.202  22.551  1.00  0.00     0.168 HD
HETATM   37  N7  UNL     1       1.564 -37.905  20.298  1.00  0.00    -0.268 N 
HETATM   38  C15 UNL     1       0.538 -37.044  22.205  1.00  0.00     0.128 A 
HETATM   39  N8  UNL     1       0.813 -37.177  19.507  1.00  0.00    -0.231 N 
ATOM     40  H7  UNL     1       2.256 -38.526  19.878  1.00  0.00     0.190 HD
HETATM   41  N9  UNL     1      -0.104 -36.352  20.022  1.00  0.00    -0.198 N 
ATOM     42  H8  UNL     1       0.930 -37.239  18.496  1.00  0.00     0.209 HD
HETATM   43  C11 UNL     1      -0.986 -35.512  19.443  1.00  0.00     0.199 A 
HETATM   44  C14 UNL     1      -0.250 -36.277  21.340  1.00  0.00     0.163 A 
HETATM   45  C12 UNL     1      -1.685 -34.913  20.450  1.00  0.00     0.164 A 
HETATM   46  N10 UNL     1      -1.223 -35.390  21.601  1.00  0.00    -0.330 N 
ATOM     47  H10 UNL     1      -1.554 -35.127  22.530  1.00  0.00     0.168 HD
BRANCH  43  48
HETATM   48  O2  UNL     1      -1.144 -35.306  18.080  1.00  0.00    -0.343 OA
ATOM     49  H2  UNL     1      -1.967 -35.156  17.629  1.00  0.00     0.219 HD
ENDBRANCH  43  48
BRANCH  45  50
HETATM   50  C13 UNL     1      -2.752 -33.923  20.334  1.00  0.00     0.231 C 
HETATM   51  O3  UNL     1      -3.030 -33.405  19.222  1.00  0.00    -0.643 OA
HETATM   52  O4  UNL     1      -3.437 -33.584  21.498  1.00  0.00    -0.643 OA
ENDBRANCH  45  50
ENDBRANCH  31  32
ENDBRANCH  30  31
ENDBRANCH  27  30
ENDBRANCH   1  27
TORSDOF 11
ENDMDL
MODEL 2
REMARK VINA RESULT: -8.924565244      3.257      3.949
REMARK  11 active torsions:
REMARK  status: ('A' for Active; 'I' for Inactive)
REMARK       I    between atoms: N1_1  and  C1_5 
REMARK       I    between atoms: C1_5  and  N2_6 
REMARK       I    between atoms: C1_5  and  N3_10 
REMARK       I    between atoms: N3_10  and  C2_12 
REMARK    1  A    between atoms: C2_12  and  C3_14 
REMARK    2  A    between atoms: C5_16  and  C6_17 
REMARK    3  A    between atoms: C6_17  and  N4_18 
REMARK    4  A    between atoms: N4_18  and  C7_21 
REMARK    5  A    between atoms: C7_21  and  C8_22 
REMARK    6  A    between atoms: C8_22  and  N5_23 
REMARK    7  A    between atoms: C11_33  and  O2_34 
REMARK    8  A    between atoms: C12_36  and  C13_37 
REMARK    9  A    between atoms: C16_46  and  C17_47 
REMARK   10  A    between atoms: C17_47  and  O5_48 
REMARK   11  A    between atoms: C17_47  and  O6_50 
ROOT
HETATM    1  C6  UNL     1      -2.253 -36.625  24.371  1.00  0.00     0.289 C 
ENDROOT
BRANCH   1   2
HETATM    2  C5  UNL     1      -2.708 -36.574  22.946  1.00  0.00     0.036 A 
HETATM    3  C4  UNL     1      -3.450 -37.586  22.382  1.00  0.00     0.043 A 
HETATM    4  C3  UNL     1      -3.892 -37.578  21.062  1.00  0.00     0.036 A 
HETATM    5  C18 UNL     1      -3.550 -36.480  20.309  1.00  0.00     0.047 A 
HETATM    6  C16 UNL     1      -2.797 -35.457  20.886  1.00  0.00     0.065 A 
HETATM    7  N11 UNL     1      -2.398 -35.523  22.172  1.00  0.00    -0.357 N 
ATOM      8  H11 UNL     1      -1.850 -34.758  22.564  1.00  0.00     0.165 HD
BRANCH   4   9
HETATM    9  C2  UNL     1      -4.678 -38.687  20.524  1.00  0.00     0.254 C 
HETATM   10  N3  UNL     1      -4.188 -39.444  19.432  1.00  0.00    -0.307 N 
HETATM   11  C1  UNL     1      -4.955 -40.560  18.874  1.00  0.00     0.483 C 
ATOM     12  H3  UNL     1      -3.283 -39.207  19.026  1.00  0.00     0.166 HD
HETATM   13  N1  UNL     1      -4.087 -41.733  19.005  1.00  0.00    -0.033 N 
HETATM   14  N2  UNL     1      -5.210 -40.392  17.466  1.00  0.00    -0.033 N 
ATOM     15  H13 UNL     1      -4.469 -42.569  18.562  1.00  0.00     0.278 HD
ATOM     16  H12 UNL     1      -3.236 -41.670  18.446  1.00  0.00     0.278 HD
ATOM     17  H11 UNL     1      -3.907 -41.853  20.002  1.00  0.00     0.278 HD
ATOM     18  H23 UNL     1      -4.359 -40.328  16.907  1.00  0.00     0.278 HD
ATOM     19  H22 UNL     1      -5.591 -41.227  17.023  1.00  0.00     0.278 HD
ATOM     20  H21 UNL     1      -5.814 -39.575  17.375  1.00  0.00     0.278 HD
HETATM   21  O1  UNL     1      -5.798 -39.000  21.006  1.00  0.00    -0.268 OA
ENDBRANCH   4   9
BRANCH   6  22
HETATM   22  C17 UNL     1      -2.450 -34.290  20.039  1.00  0.00     0.305 C 
BRANCH  22  23
HETATM   23  O5  UNL     1      -1.784 -34.688  18.875  1.00  0.00    -0.366 OA
ATOM     24  H5  UNL     1      -2.232 -34.377  18.097  1.00  0.00     0.213 HD
ENDBRANCH  22  23
BRANCH  22  25
HETATM   25  O6  UNL     1      -1.637 -33.409  20.720  1.00  0.00    -0.366 OA
ATOM     26  H6  UNL     1      -0.829 -33.254  20.244  1.00  0.00     0.213 HD
ENDBRANCH  22  25
ENDBRANCH   6  22
ENDBRANCH   1   2
BRANCH   1  27
HETATM   27  N4  UNL     1      -0.967 -35.976  24.530  1.00  0.00    -0.068 N 
ATOM     28  H42 UNL     1      -0.780 -35.275  23.813  1.00  0.00     0.277 HD
ATOM     29  H41 UNL     1      -0.930 -35.350  25.335  1.00  0.00     0.277 HD
BRANCH  27  30
HETATM   30  C7  UNL     1       0.036 -37.025  24.578  1.00  0.00     0.253 C 
BRANCH  30  31
HETATM   31  C8  UNL     1       1.272 -36.502  23.899  1.00  0.00     0.157 C 
BRANCH  31  32
HETATM   32  N5  UNL     1       1.087 -36.309  22.493  1.00  0.00    -0.335 N 
HETATM   33  C9  UNL     1       0.668 -37.209  21.575  1.00  0.00     0.185 A 
HETATM   34  N6  UNL     1       0.620 -36.661  20.360  1.00  0.00    -0.335 N 
HETATM   35  C10 UNL     1       1.022 -35.371  20.502  1.00  0.00     0.153 A 
ATOM     36  H6  UNL     1       0.338 -37.121  19.495  1.00  0.00     0.168 HD
HETATM   37  N7  UNL     1       1.175 -34.346  19.649  1.00  0.00    -0.268 N 
HETATM   38  C15 UNL     1       1.303 -35.175  21.824  1.00  0.00     0.128 A 
HETATM   39  N8  UNL     1       1.585 -33.159  20.026  1.00  0.00    -0.231 N 
ATOM     40  H7  UNL     1       0.963 -34.498  18.663  1.00  0.00     0.190 HD
HETATM   41  N9  UNL     1       1.872 -32.923  21.310  1.00  0.00    -0.198 N 
ATOM     42  H8  UNL     1       1.684 -32.413  19.338  1.00  0.00     0.209 HD
HETATM   43  C11 UNL     1       2.303 -31.815  21.948  1.00  0.00     0.199 A 
HETATM   44  C14 UNL     1       1.739 -33.899  22.200  1.00  0.00     0.163 A 
HETATM   45  C12 UNL     1       2.431 -32.140  23.266  1.00  0.00     0.164 A 
HETATM   46  N10 UNL     1       2.084 -33.415  23.404  1.00  0.00    -0.330 N 
ATOM     47  H10 UNL     1       2.081 -33.940  24.279  1.00  0.00     0.168 HD
BRANCH  43  48
HETATM   48  O2  UNL     1       2.560 -30.584  21.362  1.00  0.00    -0.343 OA
ATOM     49  H2  UNL     1       2.367 -29.734  21.740  1.00  0.00     0.219 HD
ENDBRANCH  43  48
BRANCH  45  50
HETATM   50  C13 UNL     1       2.868 -31.279  24.362  1.00  0.00     0.231 C 
HETATM   51  O3  UNL     1       2.187 -31.184  25.415  1.00  0.00    -0.643 OA
HETATM   52  O4  UNL     1       4.059 -30.577  24.188  1.00  0.00    -0.643 OA
ENDBRANCH  45  50
ENDBRANCH  31  32
ENDBRANCH  30  31
ENDBRANCH  27  30
ENDBRANCH   1  27
TORSDOF 11
ENDMDL
MODEL 3
REMARK VINA RESULT: -8.851382588      3.358      7.208
REMARK  11 active torsions:
REMARK  status: ('A' for Active; 'I' for Inactive)
REMARK       I    between atoms: N1_1  and  C1_5 
REMARK       I    between atoms: C1_5  and  N2_6 
REMARK       I    between atoms: C1_5  and  N3_10 
REMARK       I    between atoms: N3_10  and  C2_12 
REMARK    1  A    between atoms: C2_12  and  C3_14 
REMARK    2  A    between atoms: C5_16  and  C6_17 
REMARK    3  A    between atoms: C6_17  and  N4_18 
REMARK    4  A    between atoms: N4_18  and  C7_21 
REMARK    5  A    between atoms: C7_21  and  C8_22 
REMARK    6  A    between atoms: C8_22  and  N5_23 
REMARK    7  A    between atoms: C11_33  and  O2_34 
REMARK    8  A    between atoms: C12_36  and  C13_37 
REMARK    9  A    between atoms: C16_46  and  C17_47 
REMARK   10  A    between atoms: C17_47  and  O5_48 
REMARK   11  A    between atoms: C17_47  and  O6_50 
ROOT
HETATM    1  C6  UNL     1       2.566 -36.790  23.003  1.00  0.00     0.289 C 
ENDROOT
BRANCH   1   2
HETATM    2  C5  UNL     1       2.102 -35.648  22.155  1.00  0.00     0.036 A 
HETATM    3  C4  UNL     1       2.368 -34.339  22.485  1.00  0.00     0.043 A 
HETATM    4  C3  UNL     1       1.954 -33.249  21.725  1.00  0.00     0.036 A 
HETATM    5  C18 UNL     1       1.241 -33.534  20.585  1.00  0.00     0.047 A 
HETATM    6  C16 UNL     1       0.974 -34.863  20.254  1.00  0.00     0.065 A 
HETATM    7  N11 UNL     1       1.402 -35.876  21.033  1.00  0.00    -0.357 N 
ATOM      8  H11 UNL     1       1.191 -36.837  20.763  1.00  0.00     0.165 HD
BRANCH   4   9
HETATM    9  C2  UNL     1       2.270 -31.881  22.133  1.00  0.00     0.254 C 
HETATM   10  N3  UNL     1       2.252 -31.524  23.503  1.00  0.00    -0.307 N 
HETATM   11  C1  UNL     1       2.566 -30.161  23.939  1.00  0.00     0.483 C 
ATOM     12  H3  UNL     1       2.016 -32.230  24.200  1.00  0.00     0.166 HD
HETATM   13  N1  UNL     1       3.711 -30.295  24.843  1.00  0.00    -0.033 N 
HETATM   14  N2  UNL     1       1.497 -29.580  24.711  1.00  0.00    -0.033 N 
ATOM     15  H13 UNL     1       3.972 -29.419  25.296  1.00  0.00     0.278 HD
ATOM     16  H12 UNL     1       3.496 -30.818  25.691  1.00  0.00     0.278 HD
ATOM     17  H11 UNL     1       4.468 -30.706  24.295  1.00  0.00     0.278 HD
ATOM     18  H23 UNL     1       1.282 -30.104  25.560  1.00  0.00     0.278 HD
ATOM     19  H22 UNL     1       1.758 -28.705  25.164  1.00  0.00     0.278 HD
ATOM     20  H21 UNL     1       0.700 -29.487  24.082  1.00  0.00     0.278 HD
HETATM   21  O1  UNL     1       2.564 -30.991  21.293  1.00  0.00    -0.268 OA
ENDBRANCH   4   9
BRANCH   6  22
HETATM   22  C17 UNL     1       0.202 -35.126  19.016  1.00  0.00     0.305 C 
BRANCH  22  23
HETATM   23  O5  UNL     1       0.963 -35.840  18.084  1.00  0.00    -0.366 OA
ATOM     24  H5  UNL     1       1.682 -35.317  17.752  1.00  0.00     0.213 HD
ENDBRANCH  22  23
BRANCH  22  25
HETATM   25  O6  UNL     1      -0.204 -33.947  18.427  1.00  0.00    -0.366 OA
ATOM     26  H6  UNL     1       0.542 -33.446  18.120  1.00  0.00     0.213 HD
ENDBRANCH  22  25
ENDBRANCH   6  22
ENDBRANCH   1   2
BRANCH   1  27
HETATM   27  N4  UNL     1       1.845 -38.005  22.680  1.00  0.00    -0.068 N 
ATOM     28  H42 UNL     1       1.231 -37.904  21.872  1.00  0.00     0.277 HD
ATOM     29  H41 UNL     1       2.444 -38.737  22.297  1.00  0.00     0.277 HD
BRANCH  27  30
HETATM   30  C7  UNL     1       1.142 -38.415  23.883  1.00  0.00     0.253 C 
BRANCH  30  31
HETATM   31  C8  UNL     1      -0.299 -38.016  23.725  1.00  0.00     0.157 C 
BRANCH  31  32
HETATM   32  N5  UNL     1      -1.111 -39.081  23.218  1.00  0.00    -0.335 N 
HETATM   33  C9  UNL     1      -1.025 -40.401  23.496  1.00  0.00     0.185 A 
HETATM   34  N6  UNL     1      -1.955 -41.087  22.830  1.00  0.00    -0.335 N 
HETATM   35  C10 UNL     1      -2.658 -40.181  22.104  1.00  0.00     0.153 A 
ATOM     36  H6  UNL     1      -2.108 -42.095  22.861  1.00  0.00     0.168 HD
HETATM   37  N7  UNL     1      -3.696 -40.272  21.257  1.00  0.00    -0.268 N 
HETATM   38  C15 UNL     1      -2.123 -38.950  22.358  1.00  0.00     0.128 A 
HETATM   39  N8  UNL     1      -4.222 -39.231  20.658  1.00  0.00    -0.231 N 
ATOM     40  H7  UNL     1      -4.092 -41.193  21.071  1.00  0.00     0.190 HD
HETATM   41  N9  UNL     1      -3.729 -38.008  20.878  1.00  0.00    -0.198 N 
ATOM     42  H8  UNL     1      -5.011 -39.354  20.023  1.00  0.00     0.209 HD
HETATM   43  C11 UNL     1      -4.079 -36.797  20.399  1.00  0.00     0.199 A 
HETATM   44  C14 UNL     1      -2.702 -37.856  21.706  1.00  0.00     0.163 A 
HETATM   45  C12 UNL     1      -3.233 -35.887  20.962  1.00  0.00     0.164 A 
HETATM   46  N10 UNL     1      -2.398 -36.549  21.756  1.00  0.00    -0.330 N 
ATOM     47  H10 UNL     1      -1.650 -36.134  22.312  1.00  0.00     0.168 HD
BRANCH  43  48
HETATM   48  O2  UNL     1      -5.108 -36.538  19.506  1.00  0.00    -0.343 OA
ATOM     49  H2  UNL     1      -5.023 -36.460  18.562  1.00  0.00     0.219 HD
ENDBRANCH  43  48
BRANCH  45  50
HETATM   50  C13 UNL     1      -3.207 -34.441  20.758  1.00  0.00     0.231 C 
HETATM   51  O3  UNL     1      -2.963 -33.956  19.624  1.00  0.00    -0.643 OA
HETATM   52  O4  UNL     1      -3.464 -33.636  21.866  1.00  0.00    -0.643 OA
ENDBRANCH  45  50
ENDBRANCH  31  32
ENDBRANCH  30  31
ENDBRANCH  27  30
ENDBRANCH   1  27
TORSDOF 11
ENDMDL
MODEL 4
REMARK VINA RESULT: -8.770657619      3.447      4.600
REMARK  11 active torsions:
REMARK  status: ('A' for Active; 'I' for Inactive)
REMARK       I    between atoms: N1_1  and  C1_5 
REMARK       I    between atoms: C1_5  and  N2_6 
REMARK       I    between atoms: C1_5  and  N3_10 
REMARK       I    between atoms: N3_10  and  C2_12 
REMARK    1  A    between atoms: C2_12  and  C3_14 
REMARK    2  A    between atoms: C5_16  and  C6_17 
REMARK    3  A    between atoms: C6_17  and  N4_18 
REMARK    4  A    between atoms: N4_18  and  C7_21 
REMARK    5  A    between atoms: C7_21  and  C8_22 
REMARK    6  A    between atoms: C8_22  and  N5_23 
REMARK    7  A    between atoms: C11_33  and  O2_34 
REMARK    8  A    between atoms: C12_36  and  C13_37 
REMARK    9  A    between atoms: C16_46  and  C17_47 
REMARK   10  A    between atoms: C17_47  and  O5_48 
REMARK   11  A    between atoms: C17_47  and  O6_50 
ROOT
HETATM    1  C6  UNL     1      -2.465 -36.893  23.717  1.00  0.00     0.289 C 
ENDROOT
BRANCH   1   2
HETATM    2  C5  UNL     1      -3.169 -36.147  22.628  1.00  0.00     0.036 A 
HETATM    3  C4  UNL     1      -4.528 -36.251  22.433  1.00  0.00     0.043 A 
HETATM    4  C3  UNL     1      -5.220 -35.576  21.433  1.00  0.00     0.036 A 
HETATM    5  C18 UNL     1      -4.472 -34.767  20.610  1.00  0.00     0.047 A 
HETATM    6  C16 UNL     1      -3.095 -34.666  20.811  1.00  0.00     0.065 A 
HETATM    7  N11 UNL     1      -2.481 -35.346  21.800  1.00  0.00    -0.357 N 
ATOM      8  H11 UNL     1      -1.473 -35.249  21.920  1.00  0.00     0.165 HD
BRANCH   4   9
HETATM    9  C2  UNL     1      -6.666 -35.731  21.280  1.00  0.00     0.254 C 
HETATM   10  N3  UNL     1      -7.262 -37.010  21.391  1.00  0.00    -0.307 N 
HETATM   11  C1  UNL     1      -8.707 -37.193  21.243  1.00  0.00     0.483 C 
ATOM     12  H3  UNL     1      -6.672 -37.821  21.577  1.00  0.00     0.166 HD
HETATM   13  N1  UNL     1      -9.156 -37.789  22.504  1.00  0.00    -0.033 N 
HETATM   14  N2  UNL     1      -9.030 -38.136  20.203  1.00  0.00    -0.033 N 
ATOM     15  H13 UNL     1     -10.139 -38.058  22.496  1.00  0.00     0.278 HD
ATOM     16  H12 UNL     1      -8.771 -38.719  22.670  1.00  0.00     0.278 HD
ATOM     17  H11 UNL     1      -8.927 -37.121  23.240  1.00  0.00     0.278 HD
ATOM     18  H23 UNL     1      -8.645 -39.066  20.369  1.00  0.00     0.278 HD
ATOM     19  H22 UNL     1     -10.014 -38.405  20.195  1.00  0.00     0.278 HD
ATOM     20  H21 UNL     1      -8.718 -37.721  19.325  1.00  0.00     0.278 HD
HETATM   21  O1  UNL     1      -7.416 -34.747  21.050  1.00  0.00    -0.268 OA
ENDBRANCH   4   9
BRANCH   6  22
HETATM   22  C17 UNL     1      -2.326 -33.783  19.901  1.00  0.00     0.305 C 
BRANCH  22  23
HETATM   23  O5  UNL     1      -1.654 -34.522  18.923  1.00  0.00    -0.366 OA
ATOM     24  H5  UNL     1      -1.984 -35.412  18.875  1.00  0.00     0.213 HD
ENDBRANCH  22  23
BRANCH  22  25
HETATM   25  O6  UNL     1      -1.394 -33.044  20.600  1.00  0.00    -0.366 OA
ATOM     26  H6  UNL     1      -0.833 -33.609  21.118  1.00  0.00     0.213 HD
ENDBRANCH  22  25
ENDBRANCH   6  22
ENDBRANCH   1   2
BRANCH   1  27
HETATM   27  N4  UNL     1      -1.353 -36.124  24.240  1.00  0.00    -0.068 N 
ATOM     28  H42 UNL     1      -1.134 -35.303  23.677  1.00  0.00     0.277 HD
ATOM     29  H41 UNL     1      -1.577 -35.632  25.105  1.00  0.00     0.277 HD
BRANCH  27  30
HETATM   30  C7  UNL     1      -0.232 -37.037  24.378  1.00  0.00     0.253 C 
BRANCH  30  31
HETATM   31  C8  UNL     1       0.986 -36.346  23.829  1.00  0.00     0.157 C 
BRANCH  31  32
HETATM   32  N5  UNL     1       0.927 -36.174  22.409  1.00  0.00    -0.335 N 
HETATM   33  C9  UNL     1       0.546 -37.073  21.475  1.00  0.00     0.185 A 
HETATM   34  N6  UNL     1       0.625 -36.548  20.251  1.00  0.00    -0.335 N 
HETATM   35  C10 UNL     1       1.069 -35.275  20.405  1.00  0.00     0.153 A 
ATOM     36  H6  UNL     1       0.396 -37.013  19.373  1.00  0.00     0.168 HD
HETATM   37  N7  UNL     1       1.338 -34.274  19.551  1.00  0.00    -0.268 N 
HETATM   38  C15 UNL     1       1.248 -35.063  21.742  1.00  0.00     0.128 A 
HETATM   39  N8  UNL     1       1.767 -33.098  19.941  1.00  0.00    -0.231 N 
ATOM     40  H7  UNL     1       1.202 -34.437  18.553  1.00  0.00     0.190 HD
HETATM   41  N9  UNL     1       1.956 -32.849  21.241  1.00  0.00    -0.198 N 
ATOM     42  H8  UNL     1       1.956 -32.371  19.251  1.00  0.00     0.209 HD
HETATM   43  C11 UNL     1       2.381 -31.747  21.894  1.00  0.00     0.199 A 
HETATM   44  C14 UNL     1       1.707 -33.800  22.133  1.00  0.00     0.163 A 
HETATM   45  C12 UNL     1       2.385 -32.051  23.223  1.00  0.00     0.164 A 
HETATM   46  N10 UNL     1       1.972 -33.307  23.352  1.00  0.00    -0.330 N 
ATOM     47  H10 UNL     1       1.872 -33.813  24.233  1.00  0.00     0.168 HD
BRANCH  43  48
HETATM   48  O2  UNL     1       2.740 -30.541  21.312  1.00  0.00    -0.343 OA
ATOM     49  H2  UNL     1       3.112 -30.427  20.444  1.00  0.00     0.219 HD
ENDBRANCH  43  48
BRANCH  45  50
HETATM   50  C13 UNL     1       2.766 -31.187  24.338  1.00  0.00     0.231 C 
HETATM   51  O3  UNL     1       2.112 -31.197  25.412  1.00  0.00    -0.643 OA
HETATM   52  O4  UNL     1       3.875 -30.363  24.157  1.00  0.00    -0.643 OA
ENDBRANCH  45  50
ENDBRANCH  31  32
ENDBRANCH  30  31
ENDBRANCH  27  30
ENDBRANCH   1  27
TORSDOF 11
ENDMDL
MODEL 5
REMARK VINA RESULT: -8.627204830      2.032      2.425
REMARK  11 active torsions:
REMARK  status: ('A' for Active; 'I' for Inactive)
REMARK       I    between atoms: N1_1  and  C1_5 
REMARK       I    between atoms: C1_5  and  N2_6 
REMARK       I    between atoms: C1_5  and  N3_10 
REMARK       I    between atoms: N3_10  and  C2_12 
REMARK    1  A    between atoms: C2_12  and  C3_14 
REMARK    2  A    between atoms: C5_16  and  C6_17 
REMARK    3  A    between atoms: C6_17  and  N4_18 
REMARK    4  A    between atoms: N4_18  and  C7_21 
REMARK    5  A    between atoms: C7_21  and  C8_22 
REMARK    6  A    between atoms: C8_22  and  N5_23 
REMARK    7  A    between atoms: C11_33  and  O2_34 
REMARK    8  A    between atoms: C12_36  and  C13_37 
REMARK    9  A    between atoms: C16_46  and  C17_47 
REMARK   10  A    between atoms: C17_47  and  O5_48 
REMARK   11  A    between atoms: C17_47  and  O6_50 
ROOT
HETATM    1  C6  UNL     1      -3.513 -37.617  22.777  1.00  0.00     0.289 C 
ENDROOT
BRANCH   1   2
HETATM    2  C5  UNL     1      -4.883 -37.236  22.311  1.00  0.00     0.036 A 
HETATM    3  C4  UNL     1      -5.880 -38.168  22.135  1.00  0.00     0.043 A 
HETATM    4  C3  UNL     1      -7.165 -37.856  21.703  1.00  0.00     0.036 A 
HETATM    5  C18 UNL     1      -7.419 -36.529  21.447  1.00  0.00     0.047 A 
HETATM    6  C16 UNL     1      -6.405 -35.587  21.627  1.00  0.00     0.065 A 
HETATM    7  N11 UNL     1      -5.178 -35.953  22.048  1.00  0.00    -0.357 N 
ATOM      8  H11 UNL     1      -4.459 -35.240  22.170  1.00  0.00     0.165 HD
BRANCH   4   9
HETATM    9  C2  UNL     1      -8.178 -38.897  21.536  1.00  0.00     0.254 C 
HETATM   10  N3  UNL     1      -7.921 -40.218  21.973  1.00  0.00    -0.307 N 
HETATM   11  C1  UNL     1      -8.918 -41.280  21.819  1.00  0.00     0.483 C 
ATOM     12  H3  UNL     1      -7.023 -40.436  22.404  1.00  0.00     0.166 HD
HETATM   13  N1  UNL     1      -9.182 -41.767  23.175  1.00  0.00    -0.033 N 
HETATM   14  N2  UNL     1      -8.407 -42.399  21.070  1.00  0.00    -0.033 N 
ATOM     15  H13 UNL     1      -9.796 -42.582  23.199  1.00  0.00     0.278 HD
ATOM     16  H12 UNL     1      -8.371 -42.206  23.610  1.00  0.00     0.278 HD
ATOM     17  H11 UNL     1      -9.545 -40.974  23.705  1.00  0.00     0.278 HD
ATOM     18  H23 UNL     1      -7.596 -42.838  21.505  1.00  0.00     0.278 HD
ATOM     19  H22 UNL     1      -9.021 -43.213  21.094  1.00  0.00     0.278 HD
ATOM     20  H21 UNL     1      -8.224 -42.059  20.126  1.00  0.00     0.278 HD
HETATM   21  O1  UNL     1      -9.294 -38.655  21.008  1.00  0.00    -0.268 OA
ENDBRANCH   4   9
BRANCH   6  22
HETATM   22  C17 UNL     1      -6.721 -34.167  21.339  1.00  0.00     0.305 C 
BRANCH  22  23
HETATM   23  O5  UNL     1      -6.339 -33.814  20.041  1.00  0.00    -0.366 OA
ATOM     24  H5  UNL     1      -6.917 -33.152  19.679  1.00  0.00     0.213 HD
ENDBRANCH  22  23
BRANCH  22  25
HETATM   25  O6  UNL     1      -6.074 -33.328  22.222  1.00  0.00    -0.366 OA
ATOM     26  H6  UNL     1      -6.556 -33.256  23.038  1.00  0.00     0.213 HD
ENDBRANCH  22  25
ENDBRANCH   6  22
ENDBRANCH   1   2
BRANCH   1  27
HETATM   27  N4  UNL     1      -3.066 -36.747  23.846  1.00  0.00    -0.068 N 
ATOM     28  H42 UNL     1      -2.810 -35.814  23.523  1.00  0.00     0.277 HD
ATOM     29  H41 UNL     1      -3.818 -36.465  24.475  1.00  0.00     0.277 HD
BRANCH  27  30
HETATM   30  C7  UNL     1      -1.982 -37.432  24.527  1.00  0.00     0.253 C 
BRANCH  30  31
HETATM   31  C8  UNL     1      -0.724 -36.646  24.282  1.00  0.00     0.157 C 
BRANCH  31  32
HETATM   32  N5  UNL     1       0.193 -37.332  23.422  1.00  0.00    -0.335 N 
HETATM   33  C9  UNL     1       1.070 -38.308  23.745  1.00  0.00     0.185 A 
HETATM   34  N6  UNL     1       1.759 -38.701  22.673  1.00  0.00    -0.335 N 
HETATM   35  C10 UNL     1       1.312 -37.955  21.631  1.00  0.00     0.153 A 
ATOM     36  H6  UNL     1       2.481 -39.421  22.643  1.00  0.00     0.168 HD
HETATM   37  N7  UNL     1       1.621 -37.901  20.326  1.00  0.00    -0.268 N 
HETATM   38  C15 UNL     1       0.346 -37.118  22.113  1.00  0.00     0.128 A 
HETATM   39  N8  UNL     1       1.038 -37.078  19.487  1.00  0.00    -0.231 N 
ATOM     40  H7  UNL     1       2.343 -38.528  19.971  1.00  0.00     0.190 HD
HETATM   41  N9  UNL     1       0.089 -36.241  19.917  1.00  0.00    -0.198 N 
ATOM     42  H8  UNL     1       1.310 -37.076  18.504  1.00  0.00     0.209 HD
HETATM   43  C11 UNL     1      -0.652 -35.314  19.276  1.00  0.00     0.199 A 
HETATM   44  C14 UNL     1      -0.260 -36.249  21.198  1.00  0.00     0.163 A 
HETATM   45  C12 UNL     1      -1.474 -34.749  20.206  1.00  0.00     0.164 A 
HETATM   46  N10 UNL     1      -1.222 -35.330  21.374  1.00  0.00    -0.330 N 
ATOM     47  H10 UNL     1      -1.683 -35.113  22.258  1.00  0.00     0.168 HD
BRANCH  43  48
HETATM   48  O2  UNL     1      -0.584 -35.005  17.925  1.00  0.00    -0.343 OA
ATOM     49  H2  UNL     1      -0.772 -34.160  17.535  1.00  0.00     0.219 HD
ENDBRANCH  43  48
BRANCH  45  50
HETATM   50  C13 UNL     1      -2.464 -33.694  20.004  1.00  0.00     0.231 C 
HETATM   51  O3  UNL     1      -3.627 -33.807  20.470  1.00  0.00    -0.643 OA
HETATM   52  O4  UNL     1      -2.065 -32.574  19.280  1.00  0.00    -0.643 OA
ENDBRANCH  45  50
ENDBRANCH  31  32
ENDBRANCH  30  31
ENDBRANCH  27  30
ENDBRANCH   1  27
TORSDOF 11
ENDMDL
