MODEL 1
REMARK VINA RESULT: -9.092618508      0.000      0.000
REMARK  14 active torsions:
REMARK  status: ('A' for Active; 'I' for Inactive)
REMARK    1  A    between atoms: C2_2  and  N1_3 
REMARK    2  A    between atoms: C2_2  and  C18_49 
REMARK    3  A    between atoms: N1_3  and  C3_6 
REMARK    4  A    between atoms: C3_6  and  O1_7 
REMARK    5  A    between atoms: C3_6  and  N2_9 
REMARK    6  A    between atoms: N2_9  and  C4_11 
REMARK    7  A    between atoms: C5_14  and  N4_15 
REMARK    8  A    between atoms: C8_18  and  C9_19 
REMARK    9  A    between atoms: C10_22  and  O4_23 
REMARK   10  A    between atoms: C12_28  and  N6_29 
REMARK   11  A    between atoms: N7_31  and  C13_33 
REMARK   12  A    between atoms: C14_36  and  N9_37 
REMARK   13  A    between atoms: C18_49  and  N14_50 
REMARK   14  A    between atoms: C18_49  and  O5_54 
ROOT
HETATM    1  C13 UNL     1     -10.147 -36.301  24.162  1.00  0.00     0.163 A 
HETATM    2  N8  UNL     1     -10.086 -35.314  25.076  1.00  0.00    -0.174 N 
ATOM      3  H8  UNL     1      -9.189 -34.862  25.253  1.00  0.00     0.186 HD
HETATM    4  C14 UNL     1     -11.166 -34.903  25.764  1.00  0.00     0.678 A 
HETATM    5  N10 UNL     1     -12.350 -35.495  25.535  1.00  0.00    -0.180 N 
ATOM      6  H10 UNL     1     -13.175 -35.190  26.051  1.00  0.00     0.185 HD
HETATM    7  C15 UNL     1     -12.457 -36.492  24.625  1.00  0.00     0.157 A 
HETATM    8  C16 UNL     1     -13.714 -37.135  24.367  1.00  0.00     0.120 C 
HETATM    9  N11 UNL     1     -14.724 -37.630  24.163  1.00  0.00    -0.190 NA
HETATM   10  C17 UNL     1     -11.353 -36.920  23.914  1.00  0.00     0.130 A 
HETATM   11  N12 UNL     1     -11.496 -37.964  22.971  1.00  0.00    -0.095 NA
ENDROOT
BRANCH   4  12
HETATM   12  N9  UNL     1     -11.142 -33.960  26.645  1.00  0.00    -0.234 N 
ATOM     13  H92 UNL     1     -11.363 -33.018  26.322  1.00  0.00     0.174 HD
ATOM     14  H91 UNL     1     -10.916 -34.107  27.628  1.00  0.00     0.174 HD
ENDBRANCH   4  12
BRANCH   1  15
HETATM   15  N7  UNL     1      -9.001 -36.724  23.444  1.00  0.00    -0.269 N 
HETATM   16  N6  UNL     1      -8.911 -36.505  22.196  1.00  0.00    -0.129 N 
ATOM     17  H6  UNL     1      -9.675 -36.021  21.724  1.00  0.00     0.205 HD
ATOM     18  H7  UNL     1      -8.246 -37.207  23.931  1.00  0.00     0.189 HD
BRANCH  16  19
HETATM   19  C12 UNL     1      -7.791 -36.907  21.438  1.00  0.00     0.726 A 
HETATM   20  N5  UNL     1      -6.622 -36.263  21.600  1.00  0.00    -0.020 N 
HETATM   21  C5  UNL     1      -5.490 -36.568  20.928  1.00  0.00     0.709 A 
ATOM     22  H5  UNL     1      -6.587 -35.497  22.272  1.00  0.00     0.203 HD
HETATM   23  N3  UNL     1      -5.581 -37.595  20.044  1.00  0.00    -0.021 N 
HETATM   24  C4  UNL     1      -6.720 -38.272  19.841  1.00  0.00     0.710 A 
ATOM     25  H3  UNL     1      -4.751 -37.861  19.515  1.00  0.00     0.203 HD
HETATM   26  N13 UNL     1      -7.805 -37.914  20.544  1.00  0.00    -0.020 N 
ATOM     27  H13 UNL     1      -8.676 -38.424  20.395  1.00  0.00     0.203 HD
BRANCH  21  28
HETATM   28  N4  UNL     1      -4.274 -35.864  21.128  1.00  0.00    -0.214 N 
HETATM   29  C6  UNL     1      -4.090 -35.105  22.320  1.00  0.00     0.142 C 
HETATM   30  C7  UNL     1      -2.668 -34.626  22.502  1.00  0.00     0.038 C 
HETATM   31  C8  UNL     1      -2.115 -33.986  21.267  1.00  0.00     0.118 C 
HETATM   32  C10 UNL     1      -2.448 -34.680  19.993  1.00  0.00     0.151 C 
HETATM   33  C11 UNL     1      -3.255 -35.928  20.129  1.00  0.00     0.173 C 
BRANCH  31  34
HETATM   34  C9  UNL     1      -0.619 -33.959  21.408  1.00  0.00     0.179 C 
HETATM   35  O2  UNL     1       0.089 -34.985  21.236  1.00  0.00    -0.648 OA
HETATM   36  O3  UNL     1       0.056 -32.777  21.739  1.00  0.00    -0.648 OA
ENDBRANCH  31  34
BRANCH  32  37
HETATM   37  O4  UNL     1      -3.147 -33.767  19.170  1.00  0.00    -0.393 OA
ATOM     38  H4  UNL     1      -4.049 -33.738  19.466  1.00  0.00     0.210 HD
ENDBRANCH  32  37
ENDBRANCH  21  28
BRANCH  24  39
HETATM   39  N2  UNL     1      -6.815 -39.248  19.008  1.00  0.00    -0.173 N 
ATOM     40  H2  UNL     1      -7.330 -39.097  18.141  1.00  0.00     0.182 HD
BRANCH  39  41
HETATM   41  C3  UNL     1      -6.224 -40.557  19.240  1.00  0.00     0.441 C 
BRANCH  41  42
HETATM   42  N1  UNL     1      -7.250 -41.532  18.962  1.00  0.00    -0.022 N 
ATOM     43  H12 UNL     1      -8.131 -41.072  18.734  1.00  0.00     0.283 HD
ATOM     44  H11 UNL     1      -7.526 -42.017  19.816  1.00  0.00     0.283 HD
BRANCH  42  45
HETATM   45  C2  UNL     1      -6.895 -42.469  17.945  1.00  0.00     0.242 C 
HETATM   46  C1  UNL     1      -7.617 -43.790  18.052  1.00  0.00     0.045 C 
BRANCH  45  47
HETATM   47  C18 UNL     1      -5.397 -42.657  17.815  1.00  0.00     0.346 C 
BRANCH  47  48
HETATM   48  N14 UNL     1      -4.919 -43.781  18.558  1.00  0.00    -0.051 N 
ATOM     49 3H14 UNL     1      -4.389 -43.481  19.377  1.00  0.00     0.277 HD
ATOM     50 2H14 UNL     1      -5.685 -44.265  19.027  1.00  0.00     0.277 HD
ATOM     51 1H14 UNL     1      -4.374 -44.426  17.986  1.00  0.00     0.277 HD
ENDBRANCH  47  48
BRANCH  47  52
HETATM   52  O5  UNL     1      -5.035 -42.820  16.479  1.00  0.00    -0.368 OA
ATOM     53  H5  UNL     1      -4.127 -43.091  16.408  1.00  0.00     0.212 HD
ENDBRANCH  47  52
ENDBRANCH  45  47
ENDBRANCH  42  45
ENDBRANCH  41  42
BRANCH  41  54
HETATM   54  O1  UNL     1      -5.877 -40.550  20.608  1.00  0.00    -0.354 OA
ATOM     55  H1  UNL     1      -5.004 -40.898  20.746  1.00  0.00     0.214 HD
ENDBRANCH  41  54
ENDBRANCH  39  41
ENDBRANCH  24  39
ENDBRANCH  16  19
ENDBRANCH   1  15
TORSDOF 14
ENDMDL
MODEL 2
REMARK VINA RESULT: -9.083712370      0.453      1.835
REMARK  14 active torsions:
REMARK  status: ('A' for Active; 'I' for Inactive)
REMARK    1  A    between atoms: C2_2  and  N1_3 
REMARK    2  A    between atoms: C2_2  and  C18_49 
REMARK    3  A    between atoms: N1_3  and  C3_6 
REMARK    4  A    between atoms: C3_6  and  O1_7 
REMARK    5  A    between atoms: C3_6  and  N2_9 
REMARK    6  A    between atoms: N2_9  and  C4_11 
REMARK    7  A    between atoms: C5_14  and  N4_15 
REMARK    8  A    between atoms: C8_18  and  C9_19 
REMARK    9  A    between atoms: C10_22  and  O4_23 
REMARK   10  A    between atoms: C12_28  and  N6_29 
REMARK   11  A    between atoms: N7_31  and  C13_33 
REMARK   12  A    between atoms: C14_36  and  N9_37 
REMARK   13  A    between atoms: C18_49  and  N14_50 
REMARK   14  A    between atoms: C18_49  and  O5_54 
ROOT
HETATM    1  C13 UNL     1     -10.704 -36.781  23.560  1.00  0.00     0.163 A 
HETATM    2  N8  UNL     1     -11.958 -37.213  23.328  1.00  0.00    -0.174 N 
ATOM      3  H8  UNL     1     -12.114 -37.894  22.583  1.00  0.00     0.186 HD
HETATM    4  C14 UNL     1     -13.012 -36.780  24.042  1.00  0.00     0.678 A 
HETATM    5  N10 UNL     1     -12.812 -35.885  25.023  1.00  0.00    -0.180 N 
ATOM      6  H10 UNL     1     -13.605 -35.550  25.570  1.00  0.00     0.185 HD
HETATM    7  C15 UNL     1     -11.568 -35.423  25.291  1.00  0.00     0.157 A 
HETATM    8  C16 UNL     1     -11.336 -34.466  26.335  1.00  0.00     0.120 C 
HETATM    9  N11 UNL     1     -11.164 -33.714  27.178  1.00  0.00    -0.190 NA
HETATM   10  C17 UNL     1     -10.480 -35.862  24.562  1.00  0.00     0.130 A 
HETATM   11  N12 UNL     1      -9.193 -35.361  24.865  1.00  0.00    -0.095 NA
ENDROOT
BRANCH   4  12
HETATM   12  N9  UNL     1     -14.225 -37.175  23.845  1.00  0.00    -0.234 N 
ATOM     13  H92 UNL     1     -14.361 -37.947  23.193  1.00  0.00     0.174 HD
ATOM     14  H91 UNL     1     -15.038 -36.761  24.300  1.00  0.00     0.174 HD
ENDBRANCH   4  12
BRANCH   1  15
HETATM   15  N7  UNL     1      -9.602 -37.246  22.800  1.00  0.00    -0.269 N 
HETATM   16  N6  UNL     1      -8.859 -36.424  22.180  1.00  0.00    -0.129 N 
ATOM     17  H6  UNL     1      -9.071 -35.428  22.238  1.00  0.00     0.205 HD
ATOM     18  H7  UNL     1      -9.404 -38.246  22.752  1.00  0.00     0.189 HD
BRANCH  16  19
HETATM   19  C12 UNL     1      -7.751 -36.839  21.412  1.00  0.00     0.726 A 
HETATM   20  N5  UNL     1      -6.571 -36.214  21.568  1.00  0.00    -0.020 N 
HETATM   21  C5  UNL     1      -5.449 -36.532  20.887  1.00  0.00     0.709 A 
ATOM     22  H5  UNL     1      -6.520 -35.451  22.244  1.00  0.00     0.203 HD
HETATM   23  N3  UNL     1      -5.562 -37.554  19.998  1.00  0.00    -0.021 N 
HETATM   24  C4  UNL     1      -6.713 -38.212  19.800  1.00  0.00     0.710 A 
ATOM     25  H3  UNL     1      -4.740 -37.829  19.461  1.00  0.00     0.203 HD
HETATM   26  N13 UNL     1      -7.787 -37.841  20.513  1.00  0.00    -0.020 N 
ATOM     27  H13 UNL     1      -8.667 -38.337  20.368  1.00  0.00     0.203 HD
BRANCH  21  28
HETATM   28  N4  UNL     1      -4.221 -35.848  21.081  1.00  0.00    -0.214 N 
HETATM   29  C6  UNL     1      -3.993 -35.148  22.301  1.00  0.00     0.142 C 
HETATM   30  C7  UNL     1      -2.562 -34.688  22.460  1.00  0.00     0.038 C 
HETATM   31  C8  UNL     1      -2.042 -33.995  21.240  1.00  0.00     0.118 C 
HETATM   32  C10 UNL     1      -2.420 -34.625  19.946  1.00  0.00     0.151 C 
HETATM   33  C11 UNL     1      -3.234 -35.873  20.048  1.00  0.00     0.173 C 
BRANCH  31  34
HETATM   34  C9  UNL     1      -0.542 -33.986  21.335  1.00  0.00     0.179 C 
HETATM   35  O2  UNL     1       0.150 -35.013  21.111  1.00  0.00    -0.648 OA
HETATM   36  O3  UNL     1       0.155 -32.820  21.679  1.00  0.00    -0.648 OA
ENDBRANCH  31  34
BRANCH  32  37
HETATM   37  O4  UNL     1      -3.137 -33.669  19.190  1.00  0.00    -0.393 OA
ATOM     38  H4  UNL     1      -2.534 -32.975  18.949  1.00  0.00     0.210 HD
ENDBRANCH  32  37
ENDBRANCH  21  28
BRANCH  24  39
HETATM   39  N2  UNL     1      -6.829 -39.182  18.963  1.00  0.00    -0.173 N 
ATOM     40  H2  UNL     1      -7.380 -39.030  18.119  1.00  0.00     0.182 HD
BRANCH  39  41
HETATM   41  C3  UNL     1      -6.212 -40.485  19.159  1.00  0.00     0.441 C 
BRANCH  41  42
HETATM   42  N1  UNL     1      -7.234 -41.471  18.909  1.00  0.00    -0.022 N 
ATOM     43  H12 UNL     1      -8.121 -41.021  18.683  1.00  0.00     0.283 HD
ATOM     44  H11 UNL     1      -7.498 -41.943  19.774  1.00  0.00     0.283 HD
BRANCH  42  45
HETATM   45  C2  UNL     1      -6.884 -42.423  17.904  1.00  0.00     0.242 C 
HETATM   46  C1  UNL     1      -7.613 -43.739  18.028  1.00  0.00     0.045 C 
BRANCH  45  47
HETATM   47  C18 UNL     1      -5.388 -42.621  17.778  1.00  0.00     0.346 C 
BRANCH  47  48
HETATM   48  N14 UNL     1      -4.906 -43.698  18.586  1.00  0.00    -0.051 N 
ATOM     49 3H14 UNL     1      -5.666 -44.133  19.108  1.00  0.00     0.277 HD
ATOM     50 2H14 UNL     1      -4.627 -44.493  18.011  1.00  0.00     0.277 HD
ATOM     51 1H14 UNL     1      -4.150 -43.413  19.209  1.00  0.00     0.277 HD
ENDBRANCH  47  48
BRANCH  47  52
HETATM   52  O5  UNL     1      -5.033 -42.868  16.453  1.00  0.00    -0.368 OA
ATOM     53  H5  UNL     1      -4.088 -42.860  16.350  1.00  0.00     0.212 HD
ENDBRANCH  47  52
ENDBRANCH  45  47
ENDBRANCH  42  45
ENDBRANCH  41  42
BRANCH  41  54
HETATM   54  O1  UNL     1      -5.815 -40.486  20.513  1.00  0.00    -0.354 OA
ATOM     55  H1  UNL     1      -6.068 -39.681  20.950  1.00  0.00     0.214 HD
ENDBRANCH  41  54
ENDBRANCH  39  41
ENDBRANCH  24  39
ENDBRANCH  16  19
ENDBRANCH   1  15
TORSDOF 14
ENDMDL
MODEL 3
REMARK VINA RESULT: -8.949692362      1.416      1.471
REMARK  14 active torsions:
REMARK  status: ('A' for Active; 'I' for Inactive)
REMARK    1  A    between atoms: C2_2  and  N1_3 
REMARK    2  A    between atoms: C2_2  and  C18_49 
REMARK    3  A    between atoms: N1_3  and  C3_6 
REMARK    4  A    between atoms: C3_6  and  O1_7 
REMARK    5  A    between atoms: C3_6  and  N2_9 
REMARK    6  A    between atoms: N2_9  and  C4_11 
REMARK    7  A    between atoms: C5_14  and  N4_15 
REMARK    8  A    between atoms: C8_18  and  C9_19 
REMARK    9  A    between atoms: C10_22  and  O4_23 
REMARK   10  A    between atoms: C12_28  and  N6_29 
REMARK   11  A    between atoms: N7_31  and  C13_33 
REMARK   12  A    between atoms: C14_36  and  N9_37 
REMARK   13  A    between atoms: C18_49  and  N14_50 
REMARK   14  A    between atoms: C18_49  and  O5_54 
ROOT
HETATM    1  C13 UNL     1      -9.323 -36.358  24.288  1.00  0.00     0.163 A 
HETATM    2  N8  UNL     1      -9.195 -35.536  25.346  1.00  0.00    -0.174 N 
ATOM      3  H8  UNL     1      -8.258 -35.290  25.667  1.00  0.00     0.186 HD
HETATM    4  C14 UNL     1     -10.257 -35.027  25.995  1.00  0.00     0.678 A 
HETATM    5  N10 UNL     1     -11.492 -35.347  25.577  1.00  0.00    -0.180 N 
ATOM      6  H10 UNL     1     -12.305 -34.967  26.062  1.00  0.00     0.185 HD
HETATM    7  C15 UNL     1     -11.669 -36.171  24.516  1.00  0.00     0.157 A 
HETATM    8  C16 UNL     1     -12.981 -36.524  24.056  1.00  0.00     0.120 C 
HETATM    9  N11 UNL     1     -14.032 -36.786  23.691  1.00  0.00    -0.190 NA
HETATM   10  C17 UNL     1     -10.583 -36.698  23.844  1.00  0.00     0.130 A 
HETATM   11  N12 UNL     1     -10.799 -37.556  22.741  1.00  0.00    -0.095 NA
ENDROOT
BRANCH   4  12
HETATM   12  N9  UNL     1     -10.168 -34.236  27.011  1.00  0.00    -0.234 N 
ATOM     13  H92 UNL     1     -10.848 -34.366  27.761  1.00  0.00     0.174 HD
ATOM     14  H91 UNL     1      -9.466 -33.503  27.101  1.00  0.00     0.174 HD
ENDBRANCH   4  12
BRANCH   1  15
HETATM   15  N7  UNL     1      -8.196 -36.887  23.613  1.00  0.00    -0.269 N 
HETATM   16  N6  UNL     1      -7.888 -36.468  22.453  1.00  0.00    -0.129 N 
ATOM     17  H6  UNL     1      -8.467 -35.747  22.021  1.00  0.00     0.205 HD
ATOM     18  H7  UNL     1      -7.628 -37.606  24.059  1.00  0.00     0.189 HD
BRANCH  16  19
HETATM   19  C12 UNL     1      -6.776 -36.963  21.742  1.00  0.00     0.726 A 
HETATM   20  N5  UNL     1      -5.701 -36.174  21.568  1.00  0.00    -0.020 N 
HETATM   21  C5  UNL     1      -4.585 -36.549  20.906  1.00  0.00     0.709 A 
ATOM     22  H5  UNL     1      -5.731 -35.233  21.961  1.00  0.00     0.203 HD
HETATM   23  N3  UNL     1      -4.589 -37.810  20.400  1.00  0.00    -0.021 N 
HETATM   24  C4  UNL     1      -5.631 -38.640  20.542  1.00  0.00     0.710 A 
ATOM     25  H3  UNL     1      -3.766 -38.137  19.893  1.00  0.00     0.203 HD
HETATM   26  N13 UNL     1      -6.707 -38.199  21.212  1.00  0.00    -0.020 N 
ATOM     27  H13 UNL     1      -7.505 -38.825  21.324  1.00  0.00     0.203 HD
BRANCH  21  28
HETATM   28  N4  UNL     1      -3.470 -35.686  20.745  1.00  0.00    -0.214 N 
HETATM   29  C6  UNL     1      -3.657 -34.276  20.829  1.00  0.00     0.142 C 
HETATM   30  C7  UNL     1      -2.355 -33.510  20.887  1.00  0.00     0.038 C 
HETATM   31  C8  UNL     1      -1.383 -33.947  19.835  1.00  0.00     0.118 C 
HETATM   32  C10 UNL     1      -1.306 -35.417  19.618  1.00  0.00     0.151 C 
HETATM   33  C11 UNL     1      -2.180 -36.247  20.499  1.00  0.00     0.173 C 
BRANCH  31  34
HETATM   34  C9  UNL     1      -0.023 -33.463  20.253  1.00  0.00     0.179 C 
HETATM   35  O2  UNL     1       1.009 -33.696  19.573  1.00  0.00    -0.648 OA
HETATM   36  O3  UNL     1       0.153 -32.724  21.430  1.00  0.00    -0.648 OA
ENDBRANCH  31  34
BRANCH  32  37
HETATM   37  O4  UNL     1      -1.636 -35.675  18.268  1.00  0.00    -0.393 OA
ATOM     38  H4  UNL     1      -2.197 -36.441  18.245  1.00  0.00     0.210 HD
ENDBRANCH  32  37
ENDBRANCH  21  28
BRANCH  24  39
HETATM   39  N2  UNL     1      -5.642 -39.837  20.069  1.00  0.00    -0.173 N 
ATOM     40  H2  UNL     1      -5.134 -40.562  20.574  1.00  0.00     0.182 HD
BRANCH  39  41
HETATM   41  C3  UNL     1      -6.345 -40.207  18.850  1.00  0.00     0.441 C 
BRANCH  41  42
HETATM   42  N1  UNL     1      -5.362 -40.776  17.960  1.00  0.00    -0.022 N 
ATOM     43  H12 UNL     1      -4.419 -40.562  18.283  1.00  0.00     0.283 HD
ATOM     44  H11 UNL     1      -5.355 -40.280  17.068  1.00  0.00     0.283 HD
BRANCH  42  45
HETATM   45  C2  UNL     1      -5.516 -42.180  17.754  1.00  0.00     0.242 C 
HETATM   46  C1  UNL     1      -6.890 -42.580  17.275  1.00  0.00     0.045 C 
BRANCH  45  47
HETATM   47  C18 UNL     1      -5.078 -43.002  18.949  1.00  0.00     0.346 C 
BRANCH  47  48
HETATM   48  N14 UNL     1      -4.805 -44.364  18.609  1.00  0.00    -0.051 N 
ATOM     49 3H14 UNL     1      -5.095 -44.568  17.653  1.00  0.00     0.277 HD
ATOM     50 2H14 UNL     1      -3.802 -44.525  18.514  1.00  0.00     0.277 HD
ATOM     51 1H14 UNL     1      -5.221 -45.023  19.267  1.00  0.00     0.277 HD
ENDBRANCH  47  48
BRANCH  47  52
HETATM   52  O5  UNL     1      -3.937 -42.453  19.533  1.00  0.00    -0.368 OA
ATOM     53  H5  UNL     1      -3.461 -43.111  20.025  1.00  0.00     0.212 HD
ENDBRANCH  47  52
ENDBRANCH  45  47
ENDBRANCH  42  45
ENDBRANCH  41  42
BRANCH  41  54
HETATM   54  O1  UNL     1      -6.848 -38.988  18.349  1.00  0.00    -0.354 OA
ATOM     55  H1  UNL     1      -6.428 -38.243  18.764  1.00  0.00     0.214 HD
ENDBRANCH  41  54
ENDBRANCH  39  41
ENDBRANCH  24  39
ENDBRANCH  16  19
ENDBRANCH   1  15
TORSDOF 14
ENDMDL
MODEL 4
REMARK VINA RESULT: -8.846498997      1.920      2.536
REMARK  14 active torsions:
REMARK  status: ('A' for Active; 'I' for Inactive)
REMARK    1  A    between atoms: C2_2  and  N1_3 
REMARK    2  A    between atoms: C2_2  and  C18_49 
REMARK    3  A    between atoms: N1_3  and  C3_6 
REMARK    4  A    between atoms: C3_6  and  O1_7 
REMARK    5  A    between atoms: C3_6  and  N2_9 
REMARK    6  A    between atoms: N2_9  and  C4_11 
REMARK    7  A    between atoms: C5_14  and  N4_15 
REMARK    8  A    between atoms: C8_18  and  C9_19 
REMARK    9  A    between atoms: C10_22  and  O4_23 
REMARK   10  A    between atoms: C12_28  and  N6_29 
REMARK   11  A    between atoms: N7_31  and  C13_33 
REMARK   12  A    between atoms: C14_36  and  N9_37 
REMARK   13  A    between atoms: C18_49  and  N14_50 
REMARK   14  A    between atoms: C18_49  and  O5_54 
ROOT
HETATM    1  C13 UNL     1      -9.718 -36.281  24.442  1.00  0.00     0.163 A 
HETATM    2  N8  UNL     1      -9.360 -35.403  25.398  1.00  0.00    -0.174 N 
ATOM      3  H8  UNL     1      -8.396 -35.071  25.425  1.00  0.00     0.186 HD
HETATM    4  C14 UNL     1     -10.229 -34.947  26.319  1.00  0.00     0.678 A 
HETATM    5  N10 UNL     1     -11.500 -35.381  26.287  1.00  0.00    -0.180 N 
ATOM      6  H10 UNL     1     -12.166 -35.042  26.981  1.00  0.00     0.185 HD
HETATM    7  C15 UNL     1     -11.904 -36.264  25.344  1.00  0.00     0.157 A 
HETATM    8  C16 UNL     1     -13.257 -36.738  25.296  1.00  0.00     0.120 C 
HETATM    9  N11 UNL     1     -14.342 -37.097  25.261  1.00  0.00    -0.190 NA
HETATM   10  C17 UNL     1     -11.018 -36.737  24.395  1.00  0.00     0.130 A 
HETATM   11  N12 UNL     1     -11.469 -37.659  23.422  1.00  0.00    -0.095 NA
ENDROOT
BRANCH   4  12
HETATM   12  N9  UNL     1      -9.918 -34.106  27.246  1.00  0.00    -0.234 N 
ATOM     13  H92 UNL     1      -8.957 -33.765  27.260  1.00  0.00     0.174 HD
ATOM     14  H91 UNL     1     -10.572 -33.772  27.953  1.00  0.00     0.174 HD
ENDBRANCH   4  12
BRANCH   1  15
HETATM   15  N7  UNL     1      -8.794 -36.752  23.478  1.00  0.00    -0.269 N 
HETATM   16  N6  UNL     1      -7.852 -36.002  23.072  1.00  0.00    -0.129 N 
ATOM     17  H6  UNL     1      -7.776 -35.059  23.453  1.00  0.00     0.205 HD
ATOM     18  H7  UNL     1      -8.884 -37.698  23.107  1.00  0.00     0.189 HD
BRANCH  16  19
HETATM   19  C12 UNL     1      -6.908 -36.426  22.115  1.00  0.00     0.726 A 
HETATM   20  N5  UNL     1      -5.763 -35.736  21.968  1.00  0.00    -0.020 N 
HETATM   21  C5  UNL     1      -4.794 -36.057  21.084  1.00  0.00     0.709 A 
ATOM     22  H5  UNL     1      -5.618 -34.920  22.561  1.00  0.00     0.203 HD
HETATM   23  N3  UNL     1      -5.028 -37.152  20.314  1.00  0.00    -0.021 N 
HETATM   24  C4  UNL     1      -6.150 -37.877  20.416  1.00  0.00     0.710 A 
ATOM     25  H3  UNL     1      -4.323 -37.432  19.633  1.00  0.00     0.203 HD
HETATM   26  N13 UNL     1      -7.071 -37.499  21.317  1.00  0.00    -0.020 N 
ATOM     27  H13 UNL     1      -7.928 -38.046  21.400  1.00  0.00     0.203 HD
BRANCH  21  28
HETATM   28  N4  UNL     1      -3.598 -35.303  20.959  1.00  0.00    -0.214 N 
HETATM   29  C6  UNL     1      -3.641 -33.888  21.123  1.00  0.00     0.142 C 
HETATM   30  C7  UNL     1      -2.268 -33.262  21.211  1.00  0.00     0.038 C 
HETATM   31  C8  UNL     1      -1.350 -33.734  20.127  1.00  0.00     0.118 C 
HETATM   32  C10 UNL     1      -1.423 -35.190  19.828  1.00  0.00     0.151 C 
HETATM   33  C11 UNL     1      -2.372 -35.976  20.670  1.00  0.00     0.173 C 
BRANCH  31  34
HETATM   34  C9  UNL     1       0.054 -33.414  20.557  1.00  0.00     0.179 C 
HETATM   35  O2  UNL     1       1.058 -33.804  19.909  1.00  0.00    -0.648 OA
HETATM   36  O3  UNL     1       0.304 -32.658  21.710  1.00  0.00    -0.648 OA
ENDBRANCH  31  34
BRANCH  32  37
HETATM   37  O4  UNL     1      -1.783 -35.337  18.468  1.00  0.00    -0.393 OA
ATOM     38  H4  UNL     1      -1.105 -35.846  18.039  1.00  0.00     0.210 HD
ENDBRANCH  32  37
ENDBRANCH  21  28
BRANCH  24  39
HETATM   39  N2  UNL     1      -6.380 -38.917  19.694  1.00  0.00    -0.173 N 
ATOM     40  H2  UNL     1      -6.633 -38.781  18.716  1.00  0.00     0.182 HD
BRANCH  39  41
HETATM   41  C3  UNL     1      -6.296 -40.278  20.202  1.00  0.00     0.441 C 
BRANCH  41  42
HETATM   42  N1  UNL     1      -7.651 -40.751  20.350  1.00  0.00    -0.022 N 
ATOM     43  H12 UNL     1      -7.804 -41.585  19.784  1.00  0.00     0.283 HD
ATOM     44  H11 UNL     1      -8.306 -40.113  19.896  1.00  0.00     0.283 HD
BRANCH  42  45
HETATM   45  C2  UNL     1      -8.035 -40.985  21.705  1.00  0.00     0.242 C 
HETATM   46  C1  UNL     1      -8.024 -42.442  22.099  1.00  0.00     0.045 C 
BRANCH  45  47
HETATM   47  C18 UNL     1      -9.344 -40.316  22.069  1.00  0.00     0.346 C 
BRANCH  47  48
HETATM   48  N14 UNL     1      -9.525 -40.195  23.483  1.00  0.00    -0.051 N 
ATOM     49 3H14 UNL     1      -9.787 -41.089  23.897  1.00  0.00     0.277 HD
ATOM     50 2H14 UNL     1      -8.633 -40.051  23.956  1.00  0.00     0.277 HD
ATOM     51 1H14 UNL     1     -10.194 -39.466  23.731  1.00  0.00     0.277 HD
ENDBRANCH  47  48
BRANCH  47  52
HETATM   52  O5  UNL     1      -9.423 -39.045  21.501  1.00  0.00    -0.368 OA
ATOM     53  H5  UNL     1      -9.429 -38.376  22.175  1.00  0.00     0.212 HD
ENDBRANCH  47  52
ENDBRANCH  45  47
ENDBRANCH  42  45
ENDBRANCH  41  42
BRANCH  41  54
HETATM   54  O1  UNL     1      -5.657 -40.147  21.453  1.00  0.00    -0.354 OA
ATOM     55  H1  UNL     1      -5.067 -39.401  21.466  1.00  0.00     0.214 HD
ENDBRANCH  41  54
ENDBRANCH  39  41
ENDBRANCH  24  39
ENDBRANCH  16  19
ENDBRANCH   1  15
TORSDOF 14
ENDMDL
MODEL 5
REMARK VINA RESULT: -8.832058330      2.929      7.236
REMARK  14 active torsions:
REMARK  status: ('A' for Active; 'I' for Inactive)
REMARK    1  A    between atoms: C2_2  and  N1_3 
REMARK    2  A    between atoms: C2_2  and  C18_49 
REMARK    3  A    between atoms: N1_3  and  C3_6 
REMARK    4  A    between atoms: C3_6  and  O1_7 
REMARK    5  A    between atoms: C3_6  and  N2_9 
REMARK    6  A    between atoms: N2_9  and  C4_11 
REMARK    7  A    between atoms: C5_14  and  N4_15 
REMARK    8  A    between atoms: C8_18  and  C9_19 
REMARK    9  A    between atoms: C10_22  and  O4_23 
REMARK   10  A    between atoms: C12_28  and  N6_29 
REMARK   11  A    between atoms: N7_31  and  C13_33 
REMARK   12  A    between atoms: C14_36  and  N9_37 
REMARK   13  A    between atoms: C18_49  and  N14_50 
REMARK   14  A    between atoms: C18_49  and  O5_54 
ROOT
HETATM    1  C13 UNL     1      -4.844 -41.431  19.775  1.00  0.00     0.163 A 
HETATM    2  N8  UNL     1      -4.087 -42.442  20.241  1.00  0.00    -0.174 N 
ATOM      3  H8  UNL     1      -3.511 -42.285  21.068  1.00  0.00     0.186 HD
HETATM    4  C14 UNL     1      -4.064 -43.653  19.654  1.00  0.00     0.678 A 
HETATM    5  N10 UNL     1      -4.820 -43.865  18.565  1.00  0.00    -0.180 N 
ATOM      6  H10 UNL     1      -4.809 -44.779  18.113  1.00  0.00     0.185 HD
HETATM    7  C15 UNL     1      -5.597 -42.877  18.062  1.00  0.00     0.157 A 
HETATM    8  C16 UNL     1      -6.411 -43.086  16.899  1.00  0.00     0.120 C 
HETATM    9  N11 UNL     1      -7.065 -43.271  15.980  1.00  0.00    -0.190 NA
HETATM   10  C17 UNL     1      -5.627 -41.631  18.658  1.00  0.00     0.130 A 
HETATM   11  N12 UNL     1      -6.448 -40.618  18.109  1.00  0.00    -0.095 NA
ENDROOT
BRANCH   4  12
HETATM   12  N9  UNL     1      -3.350 -44.642  20.076  1.00  0.00    -0.234 N 
ATOM     13  H92 UNL     1      -3.801 -45.556  20.113  1.00  0.00     0.174 HD
ATOM     14  H91 UNL     1      -2.377 -44.557  20.368  1.00  0.00     0.174 HD
ENDBRANCH   4  12
BRANCH   1  15
HETATM   15  N7  UNL     1      -4.861 -40.161  20.403  1.00  0.00    -0.269 N 
HETATM   16  N6  UNL     1      -4.431 -39.136  19.787  1.00  0.00    -0.129 N 
ATOM     17  H6  UNL     1      -4.074 -39.246  18.838  1.00  0.00     0.205 HD
ATOM     18  H7  UNL     1      -5.221 -40.069  21.352  1.00  0.00     0.189 HD
BRANCH  16  19
HETATM   19  C12 UNL     1      -4.428 -37.852  20.370  1.00  0.00     0.726 A 
HETATM   20  N5  UNL     1      -3.318 -37.097  20.293  1.00  0.00    -0.020 N 
HETATM   21  C5  UNL     1      -3.209 -35.856  20.814  1.00  0.00     0.709 A 
ATOM     22  H5  UNL     1      -2.508 -37.486  19.810  1.00  0.00     0.203 HD
HETATM   23  N3  UNL     1      -4.311 -35.377  21.447  1.00  0.00    -0.021 N 
HETATM   24  C4  UNL     1      -5.444 -36.084  21.555  1.00  0.00     0.710 A 
ATOM     25  H3  UNL     1      -4.275 -34.443  21.855  1.00  0.00     0.203 HD
HETATM   26  N13 UNL     1      -5.480 -37.312  21.013  1.00  0.00    -0.020 N 
ATOM     27  H13 UNL     1      -6.339 -37.857  21.091  1.00  0.00     0.203 HD
BRANCH  21  28
HETATM   28  N4  UNL     1      -2.019 -35.089  20.710  1.00  0.00    -0.214 N 
HETATM   29  C6  UNL     1      -1.788 -34.307  19.542  1.00  0.00     0.142 C 
HETATM   30  C7  UNL     1      -0.617 -33.362  19.685  1.00  0.00     0.038 C 
HETATM   31  C8  UNL     1       0.603 -34.037  20.231  1.00  0.00     0.118 C 
HETATM   32  C10 UNL     1       0.351 -34.992  21.344  1.00  0.00     0.151 C 
HETATM   33  C11 UNL     1      -1.072 -35.117  21.780  1.00  0.00     0.173 C 
BRANCH  31  34
HETATM   34  C9  UNL     1       1.522 -32.962  20.737  1.00  0.00     0.179 C 
HETATM   35  O2  UNL     1       1.170 -32.141  21.622  1.00  0.00    -0.648 OA
HETATM   36  O3  UNL     1       2.825 -32.828  20.237  1.00  0.00    -0.648 OA
ENDBRANCH  31  34
BRANCH  32  37
HETATM   37  O4  UNL     1       0.822 -36.264  20.942  1.00  0.00    -0.393 OA
ATOM     38  H4  UNL     1       0.113 -36.886  21.052  1.00  0.00     0.210 HD
ENDBRANCH  32  37
ENDBRANCH  21  28
BRANCH  24  39
HETATM   39  N2  UNL     1      -6.494 -35.638  22.150  1.00  0.00    -0.173 N 
ATOM     40  H2  UNL     1      -6.485 -35.576  23.167  1.00  0.00     0.182 HD
BRANCH  39  41
HETATM   41  C3  UNL     1      -7.694 -35.215  21.443  1.00  0.00     0.441 C 
BRANCH  41  42
HETATM   42  N1  UNL     1      -8.127 -36.339  20.649  1.00  0.00    -0.022 N 
ATOM     43  H12 UNL     1      -7.329 -36.909  20.369  1.00  0.00     0.283 HD
ATOM     44  H11 UNL     1      -8.446 -36.029  19.732  1.00  0.00     0.283 HD
BRANCH  42  45
HETATM   45  C2  UNL     1      -9.122 -37.143  21.283  1.00  0.00     0.242 C 
HETATM   46  C1  UNL     1      -9.780 -36.479  22.468  1.00  0.00     0.045 C 
BRANCH  45  47
HETATM   47  C18 UNL     1      -8.625 -38.533  21.624  1.00  0.00     0.346 C 
BRANCH  47  48
HETATM   48  N14 UNL     1      -9.686 -39.487  21.724  1.00  0.00    -0.051 N 
ATOM     49 3H14 UNL     1      -9.718 -40.087  20.901  1.00  0.00     0.277 HD
ATOM     50 2H14 UNL     1      -9.481 -40.191  22.433  1.00  0.00     0.277 HD
ATOM     51 1H14 UNL     1     -10.592 -39.049  21.894  1.00  0.00     0.277 HD
ENDBRANCH  47  48
BRANCH  47  52
HETATM   52  O5  UNL     1      -7.716 -38.980  20.667  1.00  0.00    -0.368 OA
ATOM     53  H5  UNL     1      -8.170 -39.340  19.914  1.00  0.00     0.212 HD
ENDBRANCH  47  52
ENDBRANCH  45  47
ENDBRANCH  42  45
ENDBRANCH  41  42
BRANCH  41  54
HETATM   54  O1  UNL     1      -7.265 -34.145  20.630  1.00  0.00    -0.354 OA
ATOM     55  H1  UNL     1      -6.418 -34.324  20.239  1.00  0.00     0.214 HD
ENDBRANCH  41  54
ENDBRANCH  39  41
ENDBRANCH  24  39
ENDBRANCH  16  19
ENDBRANCH   1  15
TORSDOF 14
ENDMDL
