MODEL 1
REMARK VINA RESULT: -6.172778404      0.000      0.000
REMARK  2 active torsions:
REMARK  status: ('A' for Active; 'I' for Inactive)
REMARK    1  A    between atoms: O1_2  and  C2_3 
REMARK    2  A    between atoms: C10_14  and  O3_15 
ROOT
HETATM    1  C2  UNL     1      -4.154  16.932  -6.315  1.00  0.00     0.121 C 
HETATM    2  C3  UNL     1      -3.243  17.117  -5.374  1.00  0.00     0.081 C 
HETATM    3 CL1  UNL     1      -3.575  17.544  -3.720  1.00  0.00    -0.083 Cl
HETATM    4  C4  UNL     1      -1.957  16.884  -6.029  1.00  0.00     0.110 C 
HETATM    5  C5  UNL     1      -1.239  18.160  -6.484  1.00  0.00     0.050 C 
HETATM    6  C6  UNL     1       0.103  17.928  -5.821  1.00  0.00     0.008 C 
HETATM    7  C7  UNL     1      -0.407  17.565  -4.412  1.00  0.00     0.015 C 
HETATM    8  C8  UNL     1      -0.922  16.337  -5.122  1.00  0.00     0.045 C 
HETATM    9  C9  UNL     1       0.391  16.460  -5.926  1.00  0.00     0.093 C 
HETATM   10 CL2  UNL     1       0.310  15.755  -7.527  1.00  0.00    -0.124 Cl
HETATM   11  O2  UNL     1      -2.223  16.073  -7.136  1.00  0.00    -0.338 OA
HETATM   12  C10 UNL     1      -3.435  16.574  -7.596  1.00  0.00     0.318 C 
ENDROOT
BRANCH   1  13
HETATM   13  O1  UNL     1      -5.525  17.025  -6.230  1.00  0.00    -0.354 OA
HETATM   14  C1  UNL     1      -6.362  16.564  -7.257  1.00  0.00     0.209 C 
ENDBRANCH   1  13
BRANCH  12  15
HETATM   15  O3  UNL     1      -3.346  17.679  -8.398  1.00  0.00    -0.365 OA
ATOM     16  H3  UNL     1      -3.110  17.416  -9.279  1.00  0.00     0.213 HD
ENDBRANCH  12  15
TORSDOF 2
ENDMDL
MODEL 2
REMARK VINA RESULT: -6.044321807      1.931      4.493
REMARK  2 active torsions:
REMARK  status: ('A' for Active; 'I' for Inactive)
REMARK    1  A    between atoms: O1_2  and  C2_3 
REMARK    2  A    between atoms: C10_14  and  O3_15 
ROOT
HETATM    1  C2  UNL     1      -0.436  17.999  -7.569  1.00  0.00     0.121 C 
HETATM    2  C3  UNL     1      -0.999  16.819  -7.362  1.00  0.00     0.081 C 
HETATM    3 CL1  UNL     1      -0.438  15.308  -8.016  1.00  0.00    -0.083 Cl
HETATM    4  C4  UNL     1      -2.144  17.085  -6.494  1.00  0.00     0.110 C 
HETATM    5  C5  UNL     1      -3.483  17.202  -7.231  1.00  0.00     0.050 C 
HETATM    6  C6  UNL     1      -4.284  16.195  -6.433  1.00  0.00     0.008 C 
HETATM    7  C7  UNL     1      -3.273  15.033  -6.463  1.00  0.00     0.015 C 
HETATM    8  C8  UNL     1      -2.469  15.961  -5.585  1.00  0.00     0.045 C 
HETATM    9  C9  UNL     1      -3.851  16.331  -5.003  1.00  0.00     0.093 C 
HETATM   10 CL2  UNL     1      -3.921  17.936  -4.309  1.00  0.00    -0.124 Cl
HETATM   11  O2  UNL     1      -1.864  18.283  -5.831  1.00  0.00    -0.338 OA
HETATM   12  C10 UNL     1      -1.239  19.037  -6.817  1.00  0.00     0.318 C 
ENDROOT
BRANCH   1  13
HETATM   13  O1  UNL     1       0.678  18.313  -8.315  1.00  0.00    -0.354 OA
HETATM   14  C1  UNL     1       1.976  18.100  -7.829  1.00  0.00     0.209 C 
ENDBRANCH   1  13
BRANCH  12  15
HETATM   15  O3  UNL     1      -2.078  19.684  -7.682  1.00  0.00    -0.365 OA
ATOM     16  H3  UNL     1      -1.601  20.365  -8.141  1.00  0.00     0.213 HD
ENDBRANCH  12  15
TORSDOF 2
ENDMDL
MODEL 3
REMARK VINA RESULT: -5.769609909      2.217      4.601
REMARK  2 active torsions:
REMARK  status: ('A' for Active; 'I' for Inactive)
REMARK    1  A    between atoms: O1_2  and  C2_3 
REMARK    2  A    between atoms: C10_14  and  O3_15 
ROOT
HETATM    1  C2  UNL     1       0.199  18.255  -7.984  1.00  0.00     0.121 C 
HETATM    2  C3  UNL     1      -0.359  17.198  -7.418  1.00  0.00     0.081 C 
HETATM    3 CL1  UNL     1       0.058  15.542  -7.746  1.00  0.00    -0.083 Cl
HETATM    4  C4  UNL     1      -1.357  17.736  -6.495  1.00  0.00     0.110 C 
HETATM    5  C5  UNL     1      -2.786  17.755  -7.050  1.00  0.00     0.050 C 
HETATM    6  C6  UNL     1      -3.488  17.022  -5.926  1.00  0.00     0.008 C 
HETATM    7  C7  UNL     1      -2.524  15.826  -5.805  1.00  0.00     0.015 C 
HETATM    8  C8  UNL     1      -1.575  16.887  -5.301  1.00  0.00     0.045 C 
HETATM    9  C9  UNL     1      -2.847  17.471  -4.646  1.00  0.00     0.093 C 
HETATM   10 CL2  UNL     1      -2.771  19.198  -4.369  1.00  0.00    -0.124 Cl
HETATM   11  O2  UNL     1      -0.951  19.038  -6.194  1.00  0.00    -0.338 OA
HETATM   12  C10 UNL     1      -0.457  19.492  -7.411  1.00  0.00     0.318 C 
ENDROOT
BRANCH   1  13
HETATM   13  O1  UNL     1       1.200  18.310  -8.929  1.00  0.00    -0.354 OA
HETATM   14  C1  UNL     1       2.548  18.133  -8.587  1.00  0.00     0.209 C 
ENDBRANCH   1  13
BRANCH  12  15
HETATM   15  O3  UNL     1      -1.396  19.962  -8.287  1.00  0.00    -0.365 OA
ATOM     16  H3  UNL     1      -1.727  20.798  -7.982  1.00  0.00     0.213 HD
ENDBRANCH  12  15
TORSDOF 2
ENDMDL
MODEL 4
REMARK VINA RESULT: -5.305299863      1.703      2.903
REMARK  2 active torsions:
REMARK  status: ('A' for Active; 'I' for Inactive)
REMARK    1  A    between atoms: O1_2  and  C2_3 
REMARK    2  A    between atoms: C10_14  and  O3_15 
ROOT
HETATM    1  C2  UNL     1      -3.661  15.724  -6.737  1.00  0.00     0.121 C 
HETATM    2  C3  UNL     1      -2.393  15.970  -7.025  1.00  0.00     0.081 C 
HETATM    3 CL1  UNL     1      -1.354  14.935  -7.960  1.00  0.00    -0.083 Cl
HETATM    4  C4  UNL     1      -2.098  17.257  -6.399  1.00  0.00     0.110 C 
HETATM    5  C5  UNL     1      -1.403  17.153  -5.036  1.00  0.00     0.050 C 
HETATM    6  C6  UNL     1      -0.216  18.054  -5.304  1.00  0.00     0.008 C 
HETATM    7  C7  UNL     1       0.222  17.449  -6.651  1.00  0.00     0.015 C 
HETATM    8  C8  UNL     1      -1.079  18.047  -7.127  1.00  0.00     0.045 C 
HETATM    9  C9  UNL     1      -0.713  19.188  -6.151  1.00  0.00     0.093 C 
HETATM   10 CL2  UNL     1      -2.097  20.073  -5.547  1.00  0.00    -0.124 Cl
HETATM   11  O2  UNL     1      -3.323  17.913  -6.255  1.00  0.00    -0.338 OA
HETATM   12  C10 UNL     1      -4.184  16.878  -5.911  1.00  0.00     0.318 C 
ENDROOT
BRANCH   1  13
HETATM   13  O1  UNL     1      -4.440  14.643  -7.086  1.00  0.00    -0.354 OA
HETATM   14  C1  UNL     1      -5.841  14.705  -7.065  1.00  0.00     0.209 C 
ENDBRANCH   1  13
BRANCH  12  15
HETATM   15  O3  UNL     1      -4.186  16.532  -4.587  1.00  0.00    -0.365 OA
ATOM     16  H3  UNL     1      -4.526  17.252  -4.070  1.00  0.00     0.213 HD
ENDBRANCH  12  15
TORSDOF 2
ENDMDL
MODEL 5
REMARK VINA RESULT: -5.293057193      1.991      4.289
REMARK  2 active torsions:
REMARK  status: ('A' for Active; 'I' for Inactive)
REMARK    1  A    between atoms: O1_2  and  C2_3 
REMARK    2  A    between atoms: C10_14  and  O3_15 
ROOT
HETATM    1  C2  UNL     1      -0.871  18.354  -6.181  1.00  0.00     0.121 C 
HETATM    2  C3  UNL     1      -1.122  17.072  -5.969  1.00  0.00     0.081 C 
HETATM    3 CL1  UNL     1       0.048  15.887  -5.467  1.00  0.00    -0.083 Cl
HETATM    4  C4  UNL     1      -2.548  16.907  -6.242  1.00  0.00     0.110 C 
HETATM    5  C5  UNL     1      -2.866  16.376  -7.645  1.00  0.00     0.050 C 
HETATM    6  C6  UNL     1      -3.745  15.203  -7.263  1.00  0.00     0.008 C 
HETATM    7  C7  UNL     1      -2.833  14.583  -6.188  1.00  0.00     0.015 C 
HETATM    8  C8  UNL     1      -3.185  15.842  -5.433  1.00  0.00     0.045 C 
HETATM    9  C9  UNL     1      -4.570  15.644  -6.089  1.00  0.00     0.093 C 
HETATM   10 CL2  UNL     1      -5.482  17.125  -6.280  1.00  0.00    -0.124 Cl
HETATM   11  O2  UNL     1      -3.128  18.167  -6.073  1.00  0.00    -0.338 OA
HETATM   12  C10 UNL     1      -2.164  19.019  -6.598  1.00  0.00     0.318 C 
ENDROOT
BRANCH   1  13
HETATM   13  O1  UNL     1       0.317  19.039  -6.064  1.00  0.00    -0.354 OA
HETATM   14  C1  UNL     1       1.344  18.903  -7.011  1.00  0.00     0.209 C 
ENDBRANCH   1  13
BRANCH  12  15
HETATM   15  O3  UNL     1      -2.188  19.164  -7.958  1.00  0.00    -0.365 OA
ATOM     16  H3  UNL     1      -2.508  18.365  -8.359  1.00  0.00     0.213 HD
ENDBRANCH  12  15
TORSDOF 2
ENDMDL
