MODEL 1
REMARK VINA RESULT: -6.254482032      0.000      0.000
REMARK  4 active torsions:
REMARK  status: ('A' for Active; 'I' for Inactive)
REMARK    1  A    between atoms: N1_1  and  C1_5 
REMARK    2  A    between atoms: C1_5  and  C2_6 
REMARK    3  A    between atoms: C2_6  and  C3_7 
REMARK    4  A    between atoms: C4_8  and  C5_9 
ROOT
HETATM    1  C5  UNL     1      -7.033  14.020  -7.190  1.00  0.00     0.133 A 
HETATM    2  N2  UNL     1      -7.455  15.271  -7.470  1.00  0.00    -0.250 N 
ATOM      3  H2  UNL     1      -8.385  15.502  -7.818  1.00  0.00     0.195 HD
HETATM    4  O1  UNL     1      -6.526  16.136  -7.239  1.00  0.00    -0.228 OA
HETATM    5  C6  UNL     1      -5.430  15.559  -6.796  1.00  0.00     0.169 A 
HETATM    6 BR1  UNL     1      -3.799  16.441  -6.324  1.00  0.00    -0.019 Br
HETATM    7  C7  UNL     1      -5.720  14.209  -6.754  1.00  0.00     0.114 A 
HETATM    8 CL1  UNL     1      -4.613  12.962  -6.237  1.00  0.00    -0.077 Cl
ENDROOT
BRANCH   1   9
HETATM    9  C4  UNL     1      -7.751  12.780  -7.309  1.00  0.00    -0.045 C 
HETATM   10  C3  UNL     1      -8.362  11.744  -7.428  1.00  0.00    -0.098 C 
BRANCH  10  11
HETATM   11  C2  UNL     1      -9.114  10.494  -7.587  1.00  0.00     0.121 C 
BRANCH  11  12
HETATM   12  C1  UNL     1     -10.447  10.774  -8.227  1.00  0.00     0.241 C 
BRANCH  12  13
HETATM   13  N1  UNL     1     -10.862   9.651  -9.066  1.00  0.00    -0.079 N 
ATOM     14  H13 UNL     1     -10.867   8.773  -8.548  1.00  0.00     0.274 HD
ATOM     15  H12 UNL     1     -11.854   9.698  -9.299  1.00  0.00     0.274 HD
ATOM     16  H11 UNL     1     -10.281   9.594  -9.903  1.00  0.00     0.274 HD
ENDBRANCH  12  13
ENDBRANCH  11  12
ENDBRANCH  10  11
ENDBRANCH   1   9
TORSDOF 4
ENDMDL
MODEL 2
REMARK VINA RESULT: -5.844519587      2.009      2.009
REMARK  4 active torsions:
REMARK  status: ('A' for Active; 'I' for Inactive)
REMARK    1  A    between atoms: N1_1  and  C1_5 
REMARK    2  A    between atoms: C1_5  and  C2_6 
REMARK    3  A    between atoms: C2_6  and  C3_7 
REMARK    4  A    between atoms: C4_8  and  C5_9 
ROOT
HETATM    1  C5  UNL     1      -6.103  13.254  -6.839  1.00  0.00     0.133 A 
HETATM    2  N2  UNL     1      -4.929  12.857  -6.305  1.00  0.00    -0.250 N 
ATOM      3  H2  UNL     1      -4.712  11.897  -6.039  1.00  0.00     0.195 HD
HETATM    4  O1  UNL     1      -4.118  13.852  -6.176  1.00  0.00    -0.228 OA
HETATM    5  C6  UNL     1      -4.661  14.973  -6.600  1.00  0.00     0.169 A 
HETATM    6 BR1  UNL     1      -3.835  16.699  -6.603  1.00  0.00    -0.019 Br
HETATM    7  C7  UNL     1      -5.928  14.626  -7.030  1.00  0.00     0.114 A 
HETATM    8 CL1  UNL     1      -7.099  15.736  -7.696  1.00  0.00    -0.077 Cl
ENDROOT
BRANCH   1   9
HETATM    9  C4  UNL     1      -7.266  12.465  -7.144  1.00  0.00    -0.045 C 
HETATM   10  C3  UNL     1      -8.232  11.784  -7.398  1.00  0.00    -0.098 C 
BRANCH  10  11
HETATM   11  C2  UNL     1      -9.392  10.942  -7.710  1.00  0.00     0.121 C 
BRANCH  11  12
HETATM   12  C1  UNL     1     -10.407  11.732  -8.492  1.00  0.00     0.241 C 
BRANCH  12  13
HETATM   13  N1  UNL     1     -10.875  10.970  -9.647  1.00  0.00    -0.079 N 
ATOM     14  H13 UNL     1     -10.173  10.933 -10.386  1.00  0.00     0.274 HD
ATOM     15  H12 UNL     1     -10.935   9.972  -9.444  1.00  0.00     0.274 HD
ATOM     16  H11 UNL     1     -11.763  11.339  -9.986  1.00  0.00     0.274 HD
ENDBRANCH  12  13
ENDBRANCH  11  12
ENDBRANCH  10  11
ENDBRANCH   1   9
TORSDOF 4
ENDMDL
MODEL 3
REMARK VINA RESULT: -5.506203589      3.586      6.902
REMARK  4 active torsions:
REMARK  status: ('A' for Active; 'I' for Inactive)
REMARK    1  A    between atoms: N1_1  and  C1_5 
REMARK    2  A    between atoms: C1_5  and  C2_6 
REMARK    3  A    between atoms: C2_6  and  C3_7 
REMARK    4  A    between atoms: C4_8  and  C5_9 
ROOT
HETATM    1  C5  UNL     1      -5.377  15.743  -6.856  1.00  0.00     0.133 A 
HETATM    2  N2  UNL     1      -6.545  16.188  -7.363  1.00  0.00    -0.250 N 
ATOM      3  H2  UNL     1      -6.745  17.164  -7.583  1.00  0.00     0.195 HD
HETATM    4  O1  UNL     1      -7.377  15.217  -7.533  1.00  0.00    -0.228 OA
HETATM    5  C6  UNL     1      -6.855  14.067  -7.166  1.00  0.00     0.169 A 
HETATM    6 BR1  UNL     1      -7.716  12.360  -7.238  1.00  0.00    -0.019 Br
HETATM    7  C7  UNL     1      -5.579  14.368  -6.729  1.00  0.00     0.114 A 
HETATM    8 CL1  UNL     1      -4.428  13.204  -6.121  1.00  0.00    -0.077 Cl
ENDROOT
BRANCH   1   9
HETATM    9  C4  UNL     1      -4.197  16.493  -6.521  1.00  0.00    -0.045 C 
HETATM   10  C3  UNL     1      -3.217  17.141  -6.233  1.00  0.00    -0.098 C 
BRANCH  10  11
HETATM   11  C2  UNL     1      -2.039  17.943  -5.886  1.00  0.00     0.121 C 
BRANCH  11  12
HETATM   12  C1  UNL     1      -1.699  17.756  -4.431  1.00  0.00     0.241 C 
BRANCH  12  13
HETATM   13  N1  UNL     1      -0.314  17.316  -4.279  1.00  0.00    -0.079 N 
ATOM     14  H13 UNL     1       0.137  17.166  -5.181  1.00  0.00     0.274 HD
ATOM     15  H12 UNL     1       0.285  18.064  -3.930  1.00  0.00     0.274 HD
ATOM     16  H11 UNL     1      -0.264  16.486  -3.688  1.00  0.00     0.274 HD
ENDBRANCH  12  13
ENDBRANCH  11  12
ENDBRANCH  10  11
ENDBRANCH   1   9
TORSDOF 4
ENDMDL
MODEL 4
REMARK VINA RESULT: -5.371133701      3.178      4.057
REMARK  4 active torsions:
REMARK  status: ('A' for Active; 'I' for Inactive)
REMARK    1  A    between atoms: N1_1  and  C1_5 
REMARK    2  A    between atoms: C1_5  and  C2_6 
REMARK    3  A    between atoms: C2_6  and  C3_7 
REMARK    4  A    between atoms: C4_8  and  C5_9 
ROOT
HETATM    1  C5  UNL     1      -3.721  15.944  -5.985  1.00  0.00     0.133 A 
HETATM    2  N2  UNL     1      -4.036  16.895  -5.081  1.00  0.00    -0.250 N 
ATOM      3  H2  UNL     1      -4.928  16.952  -4.589  1.00  0.00     0.195 HD
HETATM    4  O1  UNL     1      -3.060  17.724  -4.920  1.00  0.00    -0.228 OA
HETATM    5  C6  UNL     1      -2.034  17.410  -5.680  1.00  0.00     0.169 A 
HETATM    6 BR1  UNL     1      -0.370  18.351  -5.778  1.00  0.00    -0.019 Br
HETATM    7  C7  UNL     1      -2.423  16.280  -6.373  1.00  0.00     0.114 A 
HETATM    8 CL1  UNL     1      -1.438  15.428  -7.536  1.00  0.00    -0.077 Cl
ENDROOT
BRANCH   1   9
HETATM    9  C4  UNL     1      -4.522  14.843  -6.449  1.00  0.00    -0.045 C 
HETATM   10  C3  UNL     1      -5.180  13.914  -6.854  1.00  0.00    -0.098 C 
BRANCH  10  11
HETATM   11  C2  UNL     1      -5.969  12.787  -7.363  1.00  0.00     0.121 C 
BRANCH  11  12
HETATM   12  C1  UNL     1      -7.390  12.891  -6.878  1.00  0.00     0.241 C 
BRANCH  12  13
HETATM   13  N1  UNL     1      -8.144  11.690  -7.230  1.00  0.00    -0.079 N 
ATOM     14  H13 UNL     1      -7.915  11.360  -8.168  1.00  0.00     0.274 HD
ATOM     15  H12 UNL     1      -7.831  10.877  -6.701  1.00  0.00     0.274 HD
ATOM     16  H11 UNL     1      -9.145  11.849  -7.120  1.00  0.00     0.274 HD
ENDBRANCH  12  13
ENDBRANCH  11  12
ENDBRANCH  10  11
ENDBRANCH   1   9
TORSDOF 4
ENDMDL
MODEL 5
REMARK VINA RESULT: -5.315749838      4.995      5.744
REMARK  4 active torsions:
REMARK  status: ('A' for Active; 'I' for Inactive)
REMARK    1  A    between atoms: N1_1  and  C1_5 
REMARK    2  A    between atoms: C1_5  and  C2_6 
REMARK    3  A    between atoms: C2_6  and  C3_7 
REMARK    4  A    between atoms: C4_8  and  C5_9 
ROOT
HETATM    1  C5  UNL     1      -3.525  16.939  -5.800  1.00  0.00     0.133 A 
HETATM    2  N2  UNL     1      -3.200  17.642  -4.695  1.00  0.00    -0.250 N 
ATOM      3  H2  UNL     1      -3.859  18.198  -4.150  1.00  0.00     0.195 HD
HETATM    4  O1  UNL     1      -1.946  17.518  -4.418  1.00  0.00    -0.228 OA
HETATM    5  C6  UNL     1      -1.336  16.742  -5.288  1.00  0.00     0.169 A 
HETATM    6 BR1  UNL     1       0.520  16.274  -5.280  1.00  0.00    -0.019 Br
HETATM    7  C7  UNL     1      -2.315  16.356  -6.183  1.00  0.00     0.114 A 
HETATM    8 CL1  UNL     1      -2.060  15.312  -7.559  1.00  0.00    -0.077 Cl
ENDROOT
BRANCH   1   9
HETATM    9  C4  UNL     1      -4.805  16.811  -6.441  1.00  0.00    -0.045 C 
HETATM   10  C3  UNL     1      -5.872  16.699  -6.998  1.00  0.00    -0.098 C 
BRANCH  10  11
HETATM   11  C2  UNL     1      -7.158  16.568  -7.693  1.00  0.00     0.121 C 
BRANCH  11  12
HETATM   12  C1  UNL     1      -7.643  17.921  -8.140  1.00  0.00     0.241 C 
BRANCH  12  13
HETATM   13  N1  UNL     1      -8.731  18.387  -7.284  1.00  0.00    -0.079 N 
ATOM     14  H13 UNL     1      -8.384  18.781  -6.410  1.00  0.00     0.274 HD
ATOM     15  H12 UNL     1      -9.179  19.222  -7.661  1.00  0.00     0.274 HD
ATOM     16  H11 UNL     1      -9.405  17.639  -7.121  1.00  0.00     0.274 HD
ENDBRANCH  12  13
ENDBRANCH  11  12
ENDBRANCH  10  11
ENDBRANCH   1   9
TORSDOF 4
ENDMDL
