MODEL 1
REMARK VINA RESULT: -8.341130793      0.000      0.000
REMARK  5 active torsions:
REMARK  status: ('A' for Active; 'I' for Inactive)
REMARK    1  A    between atoms: C3_3  and  N1_4 
REMARK       I    between atoms: N1_4  and  C4_6 
REMARK    2  A    between atoms: C4_6  and  C5_8 
REMARK    3  A    between atoms: C9_14  and  N2_15 
REMARK    4  A    between atoms: N2_15  and  S1_17 
REMARK    5  A    between atoms: S1_17  and  C10_20 
ROOT
HETATM    1  C1  UNL     1      32.291  30.256  28.088  1.00  0.00     0.040 C 
HETATM    2  C2  UNL     1      33.199  30.012  27.165  1.00  0.00     0.023 C 
HETATM    3  C3  UNL     1      34.638  29.749  27.139  1.00  0.00     0.156 C 
HETATM    4  C7  UNL     1      34.540  30.254  25.724  1.00  0.00     0.115 C 
HETATM    5  C8  UNL     1      35.033  29.310  24.654  1.00  0.00     0.055 C 
HETATM    6  C9  UNL     1      33.845  29.171  23.691  1.00  0.00     0.113 C 
HETATM    7  C16 UNL     1      32.648  29.710  24.390  1.00  0.00     0.149 C 
HETATM    8  N3  UNL     1      33.119  29.908  25.750  1.00  0.00    -0.374 N 
ENDROOT
BRANCH   6   9
HETATM    9  N2  UNL     1      34.199  29.748  22.469  1.00  0.00    -0.309 N 
ATOM     10  H2  UNL     1      34.972  30.409  22.396  1.00  0.00     0.172 HD
BRANCH   9  11
HETATM   11  S1  UNL     1      33.283  29.300  21.104  1.00  0.00     0.259 S 
HETATM   12  O2  UNL     1      32.022  28.571  21.472  1.00  0.00    -0.201 OA
HETATM   13  O3  UNL     1      34.048  28.439  20.147  1.00  0.00    -0.201 OA
BRANCH  11  14
HETATM   14  C10 UNL     1      32.775  30.767  20.293  1.00  0.00     0.079 A 
HETATM   15  C11 UNL     1      31.902  30.681  19.234  1.00  0.00     0.025 A 
HETATM   16  C12 UNL     1      31.457  31.788  18.548  1.00  0.00     0.002 A 
HETATM   17  C13 UNL     1      31.902  33.036  18.932  1.00  0.00     0.000 A 
HETATM   18  C14 UNL     1      32.779  33.129  19.995  1.00  0.00     0.002 A 
HETATM   19  C15 UNL     1      33.217  32.013  20.675  1.00  0.00     0.025 A 
ENDBRANCH  11  14
ENDBRANCH   9  11
ENDBRANCH   6   9
BRANCH   3  20
HETATM   20  N1  UNL     1      35.048  28.387  27.305  1.00  0.00    -0.344 N 
HETATM   21  C4  UNL     1      36.276  28.024  27.930  1.00  0.00     0.260 C 
HETATM   22  O1  UNL     1      37.051  28.910  28.362  1.00  0.00    -0.267 OA
ATOM     23  H1  UNL     1      34.436  27.646  26.962  1.00  0.00     0.163 HD
BRANCH  21  24
HETATM   24  C5  UNL     1      36.654  26.637  28.077  1.00  0.00     0.085 C 
HETATM   25 BR1  UNL     1      38.191  26.142  29.086  1.00  0.00    -0.045 Br
HETATM   26  C6  UNL     1      35.940  25.683  27.515  1.00  0.00     0.080 C 
HETATM   27 BR2  UNL     1      36.429  23.843  27.702  1.00  0.00    -0.062 Br
ENDBRANCH  21  24
ENDBRANCH   3  20
TORSDOF 5
ENDMDL
MODEL 2
REMARK VINA RESULT: -7.873729484      0.728      1.444
REMARK  5 active torsions:
REMARK  status: ('A' for Active; 'I' for Inactive)
REMARK    1  A    between atoms: C3_3  and  N1_4 
REMARK       I    between atoms: N1_4  and  C4_6 
REMARK    2  A    between atoms: C4_6  and  C5_8 
REMARK    3  A    between atoms: C9_14  and  N2_15 
REMARK    4  A    between atoms: N2_15  and  S1_17 
REMARK    5  A    between atoms: S1_17  and  C10_20 
ROOT
HETATM    1  C1  UNL     1      32.450  30.143  27.892  1.00  0.00     0.040 C 
HETATM    2  C2  UNL     1      33.384  29.877  27.001  1.00  0.00     0.023 C 
HETATM    3  C3  UNL     1      34.826  29.627  27.022  1.00  0.00     0.156 C 
HETATM    4  C7  UNL     1      34.761  30.082  25.588  1.00  0.00     0.115 C 
HETATM    5  C8  UNL     1      35.290  29.107  24.564  1.00  0.00     0.055 C 
HETATM    6  C9  UNL     1      34.129  28.923  23.576  1.00  0.00     0.113 C 
HETATM    7  C16 UNL     1      32.909  29.475  24.225  1.00  0.00     0.149 C 
HETATM    8  N3  UNL     1      33.342  29.723  25.589  1.00  0.00    -0.374 N 
ENDROOT
BRANCH   6   9
HETATM    9  N2  UNL     1      34.509  29.462  22.344  1.00  0.00    -0.309 N 
ATOM     10  H2  UNL     1      35.443  29.844  22.196  1.00  0.00     0.172 HD
BRANCH   9  11
HETATM   11  S1  UNL     1      33.345  29.454  21.101  1.00  0.00     0.259 S 
HETATM   12  O2  UNL     1      32.028  28.886  21.548  1.00  0.00    -0.201 OA
HETATM   13  O3  UNL     1      33.789  28.688  19.893  1.00  0.00    -0.201 OA
BRANCH  11  14
HETATM   14  C10 UNL     1      33.028  31.117  20.652  1.00  0.00     0.079 A 
HETATM   15  C11 UNL     1      33.532  32.131  21.433  1.00  0.00     0.025 A 
HETATM   16  C12 UNL     1      33.325  33.462  21.145  1.00  0.00     0.002 A 
HETATM   17  C13 UNL     1      32.583  33.797  20.032  1.00  0.00     0.000 A 
HETATM   18  C14 UNL     1      32.074  32.783  19.244  1.00  0.00     0.002 A 
HETATM   19  C15 UNL     1      32.289  31.455  19.541  1.00  0.00     0.025 A 
ENDBRANCH  11  14
ENDBRANCH   9  11
ENDBRANCH   6   9
BRANCH   3  20
HETATM   20  N1  UNL     1      35.244  28.275  27.245  1.00  0.00    -0.344 N 
HETATM   21  C4  UNL     1      36.418  27.945  27.981  1.00  0.00     0.260 C 
HETATM   22  O1  UNL     1      37.136  28.852  28.465  1.00  0.00    -0.267 OA
ATOM     23  H1  UNL     1      34.677  27.518  26.862  1.00  0.00     0.163 HD
BRANCH  21  24
HETATM   24  C5  UNL     1      36.805  26.567  28.183  1.00  0.00     0.085 C 
HETATM   25 BR1  UNL     1      35.681  25.141  27.608  1.00  0.00    -0.045 Br
HETATM   26  C6  UNL     1      37.945  26.269  28.770  1.00  0.00     0.080 C 
HETATM   27 BR2  UNL     1      38.468  24.448  29.043  1.00  0.00    -0.062 Br
ENDBRANCH  21  24
ENDBRANCH   3  20
TORSDOF 5
ENDMDL
MODEL 3
REMARK VINA RESULT: -7.869620244      5.602      7.806
REMARK  5 active torsions:
REMARK  status: ('A' for Active; 'I' for Inactive)
REMARK    1  A    between atoms: C3_3  and  N1_4 
REMARK       I    between atoms: N1_4  and  C4_6 
REMARK    2  A    between atoms: C4_6  and  C5_8 
REMARK    3  A    between atoms: C9_14  and  N2_15 
REMARK    4  A    between atoms: N2_15  and  S1_17 
REMARK    5  A    between atoms: S1_17  and  C10_20 
ROOT
HETATM    1  C1  UNL     1      32.487  29.979  27.173  1.00  0.00     0.040 C 
HETATM    2  C2  UNL     1      33.495  29.952  26.325  1.00  0.00     0.023 C 
HETATM    3  C3  UNL     1      33.745  29.397  24.994  1.00  0.00     0.156 C 
HETATM    4  C7  UNL     1      35.188  29.459  25.417  1.00  0.00     0.115 C 
HETATM    5  C8  UNL     1      36.104  30.254  24.518  1.00  0.00     0.055 C 
HETATM    6  C9  UNL     1      36.762  31.280  25.451  1.00  0.00     0.113 C 
HETATM    7  C16 UNL     1      35.975  31.291  26.714  1.00  0.00     0.149 C 
HETATM    8  N3  UNL     1      34.810  30.488  26.386  1.00  0.00    -0.374 N 
ENDROOT
BRANCH   6   9
HETATM    9  N2  UNL     1      38.125  30.986  25.538  1.00  0.00    -0.309 N 
ATOM     10  H2  UNL     1      38.508  30.463  26.325  1.00  0.00     0.172 HD
BRANCH   9  11
HETATM   11  S1  UNL     1      39.120  31.539  24.271  1.00  0.00     0.259 S 
HETATM   12  O2  UNL     1      38.403  32.480  23.344  1.00  0.00    -0.201 OA
HETATM   13  O3  UNL     1      39.687  30.425  23.447  1.00  0.00    -0.201 OA
BRANCH  11  14
HETATM   14  C10 UNL     1      40.428  32.464  24.981  1.00  0.00     0.079 A 
HETATM   15  C11 UNL     1      40.403  33.837  24.897  1.00  0.00     0.025 A 
HETATM   16  C12 UNL     1      41.393  34.630  25.430  1.00  0.00     0.002 A 
HETATM   17  C13 UNL     1      42.456  34.032  26.075  1.00  0.00     0.000 A 
HETATM   18  C14 UNL     1      42.486  32.653  26.162  1.00  0.00     0.002 A 
HETATM   19  C15 UNL     1      41.489  31.869  25.626  1.00  0.00     0.025 A 
ENDBRANCH  11  14
ENDBRANCH   9  11
ENDBRANCH   6   9
BRANCH   3  20
HETATM   20  N1  UNL     1      33.371  30.209  23.875  1.00  0.00    -0.344 N 
HETATM   21  C4  UNL     1      33.432  29.741  22.531  1.00  0.00     0.260 C 
HETATM   22  O1  UNL     1      33.823  28.576  22.285  1.00  0.00    -0.267 OA
ATOM     23  H1  UNL     1      33.049  31.162  24.047  1.00  0.00     0.163 HD
BRANCH  21  24
HETATM   24  C5  UNL     1      33.047  30.594  21.429  1.00  0.00     0.085 C 
HETATM   25 BR1  UNL     1      32.048  29.904  19.961  1.00  0.00    -0.045 Br
HETATM   26  C6  UNL     1      33.378  31.868  21.418  1.00  0.00     0.080 C 
HETATM   27 BR2  UNL     1      32.874  33.007  19.965  1.00  0.00    -0.062 Br
ENDBRANCH  21  24
ENDBRANCH   3  20
TORSDOF 5
ENDMDL
MODEL 4
REMARK VINA RESULT: -7.819489522      5.759      8.015
REMARK  5 active torsions:
REMARK  status: ('A' for Active; 'I' for Inactive)
REMARK    1  A    between atoms: C3_3  and  N1_4 
REMARK       I    between atoms: N1_4  and  C4_6 
REMARK    2  A    between atoms: C4_6  and  C5_8 
REMARK    3  A    between atoms: C9_14  and  N2_15 
REMARK    4  A    between atoms: N2_15  and  S1_17 
REMARK    5  A    between atoms: S1_17  and  C10_20 
ROOT
HETATM    1  C1  UNL     1      32.606  29.762  26.475  1.00  0.00     0.040 C 
HETATM    2  C2  UNL     1      33.671  29.829  25.702  1.00  0.00     0.023 C 
HETATM    3  C3  UNL     1      34.027  29.398  24.350  1.00  0.00     0.156 C 
HETATM    4  C7  UNL     1      35.435  29.448  24.879  1.00  0.00     0.115 C 
HETATM    5  C8  UNL     1      36.392  30.336  24.119  1.00  0.00     0.055 C 
HETATM    6  C9  UNL     1      36.958  31.287  25.183  1.00  0.00     0.113 C 
HETATM    7  C16 UNL     1      36.085  31.172  26.382  1.00  0.00     0.149 C 
HETATM    8  N3  UNL     1      34.965  30.380  25.904  1.00  0.00    -0.374 N 
ENDROOT
BRANCH   6   9
HETATM    9  N2  UNL     1      38.318  31.012  25.342  1.00  0.00    -0.309 N 
ATOM     10  H2  UNL     1      38.663  30.468  26.133  1.00  0.00     0.172 HD
BRANCH   9  11
HETATM   11  S1  UNL     1      39.377  31.623  24.156  1.00  0.00     0.259 S 
HETATM   12  O2  UNL     1      38.683  32.523  23.173  1.00  0.00    -0.201 OA
HETATM   13  O3  UNL     1      40.069  30.545  23.382  1.00  0.00    -0.201 OA
BRANCH  11  14
HETATM   14  C10 UNL     1      40.570  32.619  24.965  1.00  0.00     0.079 A 
HETATM   15  C11 UNL     1      40.496  33.987  24.842  1.00  0.00     0.025 A 
HETATM   16  C12 UNL     1      41.397  34.835  25.448  1.00  0.00     0.002 A 
HETATM   17  C13 UNL     1      42.414  34.298  26.208  1.00  0.00     0.000 A 
HETATM   18  C14 UNL     1      42.493  32.924  26.335  1.00  0.00     0.002 A 
HETATM   19  C15 UNL     1      41.586  32.085  25.724  1.00  0.00     0.025 A 
ENDBRANCH  11  14
ENDBRANCH   9  11
ENDBRANCH   6   9
BRANCH   3  20
HETATM   20  N1  UNL     1      33.712  30.299  23.281  1.00  0.00    -0.344 N 
HETATM   21  C4  UNL     1      33.011  29.888  22.111  1.00  0.00     0.260 C 
HETATM   22  O1  UNL     1      32.640  28.698  21.982  1.00  0.00    -0.267 OA
ATOM     23  H1  UNL     1      34.002  31.274  23.362  1.00  0.00     0.163 HD
BRANCH  21  24
HETATM   24  C5  UNL     1      32.714  30.830  21.055  1.00  0.00     0.085 C 
HETATM   25 BR1  UNL     1      33.432  32.594  21.086  1.00  0.00    -0.045 Br
HETATM   26  C6  UNL     1      31.939  30.487  20.047  1.00  0.00     0.080 C 
HETATM   27 BR2  UNL     1      31.538  31.724  18.644  1.00  0.00    -0.062 Br
ENDBRANCH  21  24
ENDBRANCH   3  20
TORSDOF 5
ENDMDL
MODEL 5
REMARK VINA RESULT: -7.517919039      3.702      4.415
REMARK  5 active torsions:
REMARK  status: ('A' for Active; 'I' for Inactive)
REMARK    1  A    between atoms: C3_3  and  N1_4 
REMARK       I    between atoms: N1_4  and  C4_6 
REMARK    2  A    between atoms: C4_6  and  C5_8 
REMARK    3  A    between atoms: C9_14  and  N2_15 
REMARK    4  A    between atoms: N2_15  and  S1_17 
REMARK    5  A    between atoms: S1_17  and  C10_20 
ROOT
HETATM    1  C1  UNL     1      36.877  28.926  27.439  1.00  0.00     0.040 C 
HETATM    2  C2  UNL     1      36.584  29.620  26.358  1.00  0.00     0.023 C 
HETATM    3  C3  UNL     1      37.115  30.807  25.686  1.00  0.00     0.156 C 
HETATM    4  C7  UNL     1      35.727  30.902  25.111  1.00  0.00     0.115 C 
HETATM    5  C8  UNL     1      35.639  30.918  23.604  1.00  0.00     0.055 C 
HETATM    6  C9  UNL     1      34.686  29.763  23.264  1.00  0.00     0.113 C 
HETATM    7  C16 UNL     1      34.554  28.930  24.489  1.00  0.00     0.149 C 
HETATM    8  N3  UNL     1      35.573  29.471  25.371  1.00  0.00    -0.374 N 
ENDROOT
BRANCH   6   9
HETATM    9  N2  UNL     1      33.520  30.302  22.715  1.00  0.00    -0.309 N 
ATOM     10  H2  UNL     1      33.055  31.106  23.137  1.00  0.00     0.172 HD
BRANCH   9  11
HETATM   11  S1  UNL     1      32.907  29.558  21.311  1.00  0.00     0.259 S 
HETATM   12  O2  UNL     1      31.680  28.735  21.584  1.00  0.00    -0.201 OA
HETATM   13  O3  UNL     1      33.910  28.676  20.634  1.00  0.00    -0.201 OA
BRANCH  11  14
HETATM   14  C10 UNL     1      32.405  30.824  20.209  1.00  0.00     0.079 A 
HETATM   15  C11 UNL     1      32.912  32.092  20.368  1.00  0.00     0.025 A 
HETATM   16  C12 UNL     1      32.565  33.138  19.542  1.00  0.00     0.002 A 
HETATM   17  C13 UNL     1      31.675  32.911  18.514  1.00  0.00     0.000 A 
HETATM   18  C14 UNL     1      31.162  31.639  18.349  1.00  0.00     0.002 A 
HETATM   19  C15 UNL     1      31.517  30.600  19.181  1.00  0.00     0.025 A 
ENDBRANCH  11  14
ENDBRANCH   9  11
ENDBRANCH   6   9
BRANCH   3  20
HETATM   20  N1  UNL     1      38.181  30.597  24.753  1.00  0.00    -0.344 N 
HETATM   21  C4  UNL     1      39.021  31.654  24.296  1.00  0.00     0.260 C 
HETATM   22  O1  UNL     1      38.845  32.824  24.709  1.00  0.00    -0.267 OA
ATOM     23  H1  UNL     1      38.346  29.654  24.401  1.00  0.00     0.163 HD
BRANCH  21  24
HETATM   24  C5  UNL     1      40.086  31.400  23.352  1.00  0.00     0.085 C 
HETATM   25 BR1  UNL     1      41.091  32.833  22.602  1.00  0.00    -0.045 Br
HETATM   26  C6  UNL     1      40.384  30.169  22.990  1.00  0.00     0.080 C 
HETATM   27 BR2  UNL     1      41.791  29.820  21.741  1.00  0.00    -0.062 Br
ENDBRANCH  21  24
ENDBRANCH   3  20
TORSDOF 5
ENDMDL
