MODEL 1
REMARK VINA RESULT: -8.018007953      0.000      0.000
REMARK  4 active torsions:
REMARK  status: ('A' for Active; 'I' for Inactive)
REMARK    1  A    between atoms: C1_2  and  C2_4 
REMARK    2  A    between atoms: C8_10  and  N2_11 
REMARK       I    between atoms: N2_11  and  C9_13 
REMARK    3  A    between atoms: C9_13  and  C10_15 
REMARK    4  A    between atoms: N3_20  and  C14_21 
ROOT
HETATM    1  N2  UNL     1      35.753  29.507  23.156  1.00  0.00    -0.353 N 
ATOM      2  H2  UNL     1      35.601  28.553  23.484  1.00  0.00     0.163 HD
HETATM    3  C9  UNL     1      36.724  30.308  23.764  1.00  0.00     0.240 C 
HETATM    4  O2  UNL     1      36.927  31.482  23.356  1.00  0.00    -0.271 OA
ENDROOT
BRANCH   1   5
HETATM    5  C8  UNL     1      34.969  30.031  22.070  1.00  0.00     0.107 C 
HETATM    6  C6  UNL     1      33.831  30.909  22.665  1.00  0.00     0.011 C 
HETATM    7  C5  UNL     1      32.892  30.007  23.393  1.00  0.00     0.011 C 
HETATM    8  C7  UNL     1      33.235  31.644  21.518  1.00  0.00     0.025 C 
HETATM    9  C4  UNL     1      32.210  29.114  22.377  1.00  0.00    -0.011 C 
HETATM   10  C3  UNL     1      31.597  29.879  21.252  1.00  0.00     0.023 C 
HETATM   11  C20 UNL     1      33.279  28.210  21.818  1.00  0.00     0.027 C 
HETATM   12  C2  UNL     1      32.674  30.635  20.524  1.00  0.00     0.041 C 
HETATM   13  C21 UNL     1      33.721  29.722  19.992  1.00  0.00     0.042 C 
HETATM   14  C19 UNL     1      34.383  29.025  21.168  1.00  0.00     0.040 C 
HETATM   15 BR1  UNL     1      35.707  27.809  20.472  1.00  0.00    -0.083 Br
BRANCH  12  16
HETATM   16  C1  UNL     1      32.144  31.467  19.415  1.00  0.00     0.239 C 
HETATM   17  N1  UNL     1      31.331  30.963  18.385  1.00  0.00    -0.061 NA
HETATM   18  O1  UNL     1      32.473  32.704  19.445  1.00  0.00    -0.276 OA
ENDBRANCH  12  16
ENDBRANCH   1   5
BRANCH   3  19
HETATM   19  C10 UNL     1      37.533  29.787  24.915  1.00  0.00     0.174 C 
HETATM   20  C11 UNL     1      38.710  29.052  24.323  1.00  0.00     0.073 C 
HETATM   21  C12 UNL     1      38.383  27.581  24.541  1.00  0.00     0.190 C 
HETATM   22  F1  UNL     1      37.847  27.003  23.427  1.00  0.00    -0.248 F 
HETATM   23  C13 UNL     1      37.449  27.596  25.729  1.00  0.00     0.155 C 
HETATM   24  N3  UNL     1      36.827  28.867  25.724  1.00  0.00    -0.393 N 
BRANCH  24  25
HETATM   25  C14 UNL     1      36.146  29.287  26.867  1.00  0.00     0.080 C 
HETATM   26  C15 UNL     1      35.737  30.743  26.855  1.00  0.00     0.025 C 
HETATM   27  C16 UNL     1      34.237  30.777  26.814  1.00  0.00     0.002 C 
HETATM   28  C17 UNL     1      33.738  29.366  26.660  1.00  0.00     0.002 C 
HETATM   29  C18 UNL     1      34.869  28.532  27.164  1.00  0.00     0.025 C 
ENDBRANCH  24  25
ENDBRANCH   3  19
TORSDOF 4
ENDMDL
MODEL 2
REMARK VINA RESULT: -7.931808143      2.592      6.895
REMARK  4 active torsions:
REMARK  status: ('A' for Active; 'I' for Inactive)
REMARK    1  A    between atoms: C1_2  and  C2_4 
REMARK    2  A    between atoms: C8_10  and  N2_11 
REMARK       I    between atoms: N2_11  and  C9_13 
REMARK    3  A    between atoms: C9_13  and  C10_15 
REMARK    4  A    between atoms: N3_20  and  C14_21 
ROOT
HETATM    1  N2  UNL     1      33.702  30.204  23.927  1.00  0.00    -0.353 N 
ATOM      2  H2  UNL     1      33.336  31.102  24.243  1.00  0.00     0.163 HD
HETATM    3  C9  UNL     1      33.298  29.678  22.697  1.00  0.00     0.240 C 
HETATM    4  O2  UNL     1      33.757  28.577  22.295  1.00  0.00    -0.271 OA
ENDROOT
BRANCH   1   5
HETATM    5  C8  UNL     1      34.634  29.477  24.747  1.00  0.00     0.107 C 
HETATM    6  C6  UNL     1      34.023  29.331  26.172  1.00  0.00     0.011 C 
HETATM    7  C5  UNL     1      33.976  30.689  26.788  1.00  0.00     0.011 C 
HETATM    8  C7  UNL     1      34.876  28.346  26.886  1.00  0.00     0.025 C 
HETATM    9  C4  UNL     1      35.398  31.157  27.015  1.00  0.00    -0.011 C 
HETATM   10  C3  UNL     1      36.224  30.161  27.758  1.00  0.00     0.023 C 
HETATM   11  C20 UNL     1      36.004  31.360  25.649  1.00  0.00     0.027 C 
HETATM   12  C2  UNL     1      36.299  28.888  26.962  1.00  0.00     0.041 C 
HETATM   13  C21 UNL     1      36.889  29.116  25.615  1.00  0.00     0.042 C 
HETATM   14  C19 UNL     1      35.978  30.066  24.855  1.00  0.00     0.040 C 
HETATM   15 BR1  UNL     1      36.770  30.397  23.128  1.00  0.00    -0.083 Br
BRANCH  12  16
HETATM   16  C1  UNL     1      37.063  27.820  27.653  1.00  0.00     0.239 C 
HETATM   17  N1  UNL     1      37.113  26.487  27.207  1.00  0.00    -0.061 NA
HETATM   18  O1  UNL     1      37.695  28.183  28.705  1.00  0.00    -0.276 OA
ENDBRANCH  12  16
ENDBRANCH   1   5
BRANCH   3  19
HETATM   19  C10 UNL     1      32.308  30.411  21.841  1.00  0.00     0.174 C 
HETATM   20  C11 UNL     1      31.743  29.406  20.869  1.00  0.00     0.073 C 
HETATM   21  C12 UNL     1      32.394  29.761  19.539  1.00  0.00     0.190 C 
HETATM   22  F1  UNL     1      33.471  28.968  19.267  1.00  0.00    -0.248 F 
HETATM   23  C13 UNL     1      32.736  31.225  19.691  1.00  0.00     0.155 C 
HETATM   24  N3  UNL     1      32.888  31.452  21.079  1.00  0.00    -0.393 N 
BRANCH  24  25
HETATM   25  C14 UNL     1      32.904  32.766  21.548  1.00  0.00     0.080 C 
HETATM   26  C15 UNL     1      34.136  33.133  22.345  1.00  0.00     0.025 C 
HETATM   27  C16 UNL     1      34.885  34.161  21.548  1.00  0.00     0.002 C 
HETATM   28  C17 UNL     1      34.199  34.317  20.219  1.00  0.00     0.002 C 
HETATM   29  C18 UNL     1      32.811  33.829  20.476  1.00  0.00     0.025 C 
ENDBRANCH  24  25
ENDBRANCH   3  19
TORSDOF 4
ENDMDL
MODEL 3
REMARK VINA RESULT: -7.711345825      1.143      1.254
REMARK  4 active torsions:
REMARK  status: ('A' for Active; 'I' for Inactive)
REMARK    1  A    between atoms: C1_2  and  C2_4 
REMARK    2  A    between atoms: C8_10  and  N2_11 
REMARK       I    between atoms: N2_11  and  C9_13 
REMARK    3  A    between atoms: C9_13  and  C10_15 
REMARK    4  A    between atoms: N3_20  and  C14_21 
ROOT
HETATM    1  N2  UNL     1      35.550  30.187  22.808  1.00  0.00    -0.353 N 
ATOM      2  H2  UNL     1      35.741  29.225  23.087  1.00  0.00     0.163 HD
HETATM    3  C9  UNL     1      36.128  31.247  23.512  1.00  0.00     0.240 C 
HETATM    4  O2  UNL     1      35.909  32.437  23.164  1.00  0.00    -0.271 OA
ENDROOT
BRANCH   1   5
HETATM    5  C8  UNL     1      34.686  30.456  21.689  1.00  0.00     0.107 C 
HETATM    6  C6  UNL     1      33.487  31.312  22.190  1.00  0.00     0.011 C 
HETATM    7  C5  UNL     1      32.662  30.457  23.093  1.00  0.00     0.011 C 
HETATM    8  C7  UNL     1      32.788  31.796  20.971  1.00  0.00     0.025 C 
HETATM    9  C4  UNL     1      32.040  29.354  22.262  1.00  0.00    -0.011 C 
HETATM   10  C3  UNL     1      31.322  29.869  21.060  1.00  0.00     0.023 C 
HETATM   11  C20 UNL     1      33.173  28.472  21.803  1.00  0.00     0.027 C 
HETATM   12  C2  UNL     1      32.297  30.593  20.174  1.00  0.00     0.041 C 
HETATM   13  C21 UNL     1      33.411  29.706  19.745  1.00  0.00     0.042 C 
HETATM   14  C19 UNL     1      34.173  29.270  20.984  1.00  0.00     0.040 C 
HETATM   15 BR1  UNL     1      35.587  28.083  20.428  1.00  0.00    -0.083 Br
BRANCH  12  16
HETATM   16  C1  UNL     1      31.656  31.185  18.974  1.00  0.00     0.239 C 
HETATM   17  N1  UNL     1      31.727  32.551  18.648  1.00  0.00    -0.061 NA
HETATM   18  O1  UNL     1      31.017  30.366  18.226  1.00  0.00    -0.276 OA
ENDBRANCH  12  16
ENDBRANCH   1   5
BRANCH   3  19
HETATM   19  C10 UNL     1      37.011  30.985  24.696  1.00  0.00     0.174 C 
HETATM   20  C11 UNL     1      38.434  31.154  24.225  1.00  0.00     0.073 C 
HETATM   21  C12 UNL     1      38.975  29.733  24.144  1.00  0.00     0.190 C 
HETATM   22  F1  UNL     1      38.931  29.239  22.873  1.00  0.00    -0.248 F 
HETATM   23  C13 UNL     1      38.116  28.970  25.125  1.00  0.00     0.155 C 
HETATM   24  N3  UNL     1      36.890  29.672  25.205  1.00  0.00    -0.393 N 
BRANCH  24  25
HETATM   25  C14 UNL     1      36.016  29.382  26.253  1.00  0.00     0.080 C 
HETATM   26  C15 UNL     1      35.327  30.590  26.848  1.00  0.00     0.025 C 
HETATM   27  C16 UNL     1      33.865  30.458  26.536  1.00  0.00     0.002 C 
HETATM   28  C17 UNL     1      33.679  29.263  25.643  1.00  0.00     0.002 C 
HETATM   29  C18 UNL     1      34.892  28.432  25.906  1.00  0.00     0.025 C 
ENDBRANCH  24  25
ENDBRANCH   3  19
TORSDOF 4
ENDMDL
MODEL 4
REMARK VINA RESULT: -7.386977522      2.710      6.861
REMARK  4 active torsions:
REMARK  status: ('A' for Active; 'I' for Inactive)
REMARK    1  A    between atoms: C1_2  and  C2_4 
REMARK    2  A    between atoms: C8_10  and  N2_11 
REMARK       I    between atoms: N2_11  and  C9_13 
REMARK    3  A    between atoms: C9_13  and  C10_15 
REMARK    4  A    between atoms: N3_20  and  C14_21 
ROOT
HETATM    1  N2  UNL     1      34.160  30.961  22.877  1.00  0.00    -0.353 N 
ATOM      2  H2  UNL     1      33.646  31.606  23.477  1.00  0.00     0.163 HD
HETATM    3  C9  UNL     1      33.682  30.665  21.597  1.00  0.00     0.240 C 
HETATM    4  O2  UNL     1      34.319  29.880  20.846  1.00  0.00    -0.271 OA
ENDROOT
BRANCH   1   5
HETATM    5  C8  UNL     1      35.377  30.354  23.346  1.00  0.00     0.107 C 
HETATM    6  C6  UNL     1      35.038  28.938  23.897  1.00  0.00     0.011 C 
HETATM    7  C5  UNL     1      34.216  29.113  25.131  1.00  0.00     0.011 C 
HETATM    8  C7  UNL     1      36.341  28.253  24.102  1.00  0.00     0.025 C 
HETATM    9  C4  UNL     1      35.087  29.752  26.193  1.00  0.00    -0.011 C 
HETATM   10  C3  UNL     1      36.376  29.028  26.397  1.00  0.00     0.023 C 
HETATM   11  C20 UNL     1      35.390  31.149  25.714  1.00  0.00     0.027 C 
HETATM   12  C2  UNL     1      37.160  29.044  25.115  1.00  0.00     0.041 C 
HETATM   13  C21 UNL     1      37.437  30.432  24.657  1.00  0.00     0.042 C 
HETATM   14  C19 UNL     1      36.108  31.111  24.375  1.00  0.00     0.040 C 
HETATM   15 BR1  UNL     1      36.468  32.925  23.829  1.00  0.00    -0.083 Br
BRANCH  12  16
HETATM   16  C1  UNL     1      38.440  28.300  25.213  1.00  0.00     0.239 C 
HETATM   17  N1  UNL     1      38.537  26.901  25.103  1.00  0.00    -0.061 NA
HETATM   18  O1  UNL     1      39.484  29.016  25.406  1.00  0.00    -0.276 OA
ENDBRANCH  12  16
ENDBRANCH   1   5
BRANCH   3  19
HETATM   19  C10 UNL     1      32.402  31.269  21.102  1.00  0.00     0.174 C 
HETATM   20  C11 UNL     1      31.483  30.122  20.757  1.00  0.00     0.073 C 
HETATM   21  C12 UNL     1      31.471  30.094  19.234  1.00  0.00     0.190 C 
HETATM   22  F1  UNL     1      32.331  29.162  18.731  1.00  0.00    -0.248 F 
HETATM   23  C13 UNL     1      31.818  31.514  18.851  1.00  0.00     0.155 C 
HETATM   24  N3  UNL     1      32.564  32.043  19.929  1.00  0.00    -0.393 N 
BRANCH  24  25
HETATM   25  C14 UNL     1      32.762  33.422  19.999  1.00  0.00     0.080 C 
HETATM   26  C15 UNL     1      32.347  34.052  21.310  1.00  0.00     0.025 C 
HETATM   27  C16 UNL     1      33.597  34.556  21.969  1.00  0.00     0.002 C 
HETATM   28  C17 UNL     1      34.775  34.118  21.143  1.00  0.00     0.002 C 
HETATM   29  C18 UNL     1      34.189  33.876  19.791  1.00  0.00     0.025 C 
ENDBRANCH  24  25
ENDBRANCH   3  19
TORSDOF 4
ENDMDL
MODEL 5
REMARK VINA RESULT: -7.293610049      3.673      5.086
REMARK  4 active torsions:
REMARK  status: ('A' for Active; 'I' for Inactive)
REMARK    1  A    between atoms: C1_2  and  C2_4 
REMARK    2  A    between atoms: C8_10  and  N2_11 
REMARK       I    between atoms: N2_11  and  C9_13 
REMARK    3  A    between atoms: C9_13  and  C10_15 
REMARK    4  A    between atoms: N3_20  and  C14_21 
ROOT
HETATM    1  N2  UNL     1      35.381  28.039  26.743  1.00  0.00    -0.353 N 
ATOM      2  H2  UNL     1      35.402  28.625  27.578  1.00  0.00     0.163 HD
HETATM    3  C9  UNL     1      35.882  26.735  26.791  1.00  0.00     0.240 C 
HETATM    4  O2  UNL     1      35.846  26.002  25.769  1.00  0.00    -0.271 OA
ENDROOT
BRANCH   1   5
HETATM    5  C8  UNL     1      34.834  28.552  25.515  1.00  0.00     0.107 C 
HETATM    6  C6  UNL     1      35.979  28.629  24.463  1.00  0.00     0.011 C 
HETATM    7  C5  UNL     1      36.936  29.684  24.908  1.00  0.00     0.011 C 
HETATM    8  C7  UNL     1      35.320  28.888  23.156  1.00  0.00     0.025 C 
HETATM    9  C4  UNL     1      36.235  31.024  24.826  1.00  0.00    -0.011 C 
HETATM   10  C3  UNL     1      35.606  31.269  23.495  1.00  0.00     0.023 C 
HETATM   11  C20 UNL     1      35.150  31.004  25.873  1.00  0.00     0.027 C 
HETATM   12  C2  UNL     1      34.570  30.212  23.235  1.00  0.00     0.041 C 
HETATM   13  C21 UNL     1      33.518  30.204  24.287  1.00  0.00     0.042 C 
HETATM   14  C19 UNL     1      34.178  29.866  25.613  1.00  0.00     0.040 C 
HETATM   15 BR1  UNL     1      32.820  29.904  26.981  1.00  0.00    -0.083 Br
BRANCH  12  16
HETATM   16  C1  UNL     1      33.927  30.350  21.905  1.00  0.00     0.239 C 
HETATM   17  N1  UNL     1      33.927  29.334  20.933  1.00  0.00    -0.061 NA
HETATM   18  O1  UNL     1      33.353  31.472  21.680  1.00  0.00    -0.276 OA
ENDBRANCH  12  16
ENDBRANCH   1   5
BRANCH   3  19
HETATM   19  C10 UNL     1      36.479  26.194  28.056  1.00  0.00     0.174 C 
HETATM   20  C11 UNL     1      37.710  27.017  28.346  1.00  0.00     0.073 C 
HETATM   21  C12 UNL     1      38.870  26.094  27.999  1.00  0.00     0.190 C 
HETATM   22  F1  UNL     1      39.366  26.339  26.751  1.00  0.00    -0.248 F 
HETATM   23  C13 UNL     1      38.284  24.710  28.160  1.00  0.00     0.155 C 
HETATM   24  N3  UNL     1      36.891  24.846  27.949  1.00  0.00    -0.393 N 
BRANCH  24  25
HETATM   25  C14 UNL     1      36.049  23.801  28.331  1.00  0.00     0.080 C 
HETATM   26  C15 UNL     1      36.759  22.609  28.934  1.00  0.00     0.025 C 
HETATM   27  C16 UNL     1      36.337  22.529  30.372  1.00  0.00     0.002 C 
HETATM   28  C17 UNL     1      35.494  23.734  30.684  1.00  0.00     0.002 C 
HETATM   29  C18 UNL     1      34.991  24.171  29.347  1.00  0.00     0.025 C 
ENDBRANCH  24  25
ENDBRANCH   3  19
TORSDOF 4
ENDMDL
