MODEL 1
REMARK VINA RESULT: -7.540306409      0.000      0.000
REMARK  11 active torsions:
REMARK  status: ('A' for Active; 'I' for Inactive)
REMARK    1  A    between atoms: C2_2  and  C3_3 
REMARK    2  A    between atoms: C3_3  and  C4_4 
REMARK    3  A    between atoms: C4_4  and  C5_5 
REMARK    4  A    between atoms: C5_5  and  C6_6 
REMARK    5  A    between atoms: C7_7  and  C8_8 
REMARK    6  A    between atoms: C9_9  and  C10_10 
REMARK    7  A    between atoms: C11_11  and  C12_12 
REMARK    8  A    between atoms: C17_17  and  C18_18 
REMARK    9  A    between atoms: C19_19  and  C20_20 
REMARK   10  A    between atoms: C20_20  and  O2_22 
REMARK   11  A    between atoms: C22_24  and  S1_25 
ROOT
HETATM    1  C12 UNL     1      24.257  24.851   8.540  1.00  0.00     0.074 C 
HETATM    2  C13 UNL     1      24.345  26.141   8.445  1.00  0.00    -0.028 C 
HETATM    3  C14 UNL     1      23.705  26.837   7.285  1.00  0.00     0.041 C 
HETATM    4  C15 UNL     1      24.486  28.030   6.862  1.00  0.00     0.009 C 
HETATM    5  C16 UNL     1      25.864  28.133   7.488  1.00  0.00     0.040 C 
HETATM    6  C17 UNL     1      25.819  27.949   8.956  1.00  0.00    -0.036 C 
HETATM    7  C22 UNL     1      25.047  26.937   9.433  1.00  0.00     0.072 C 
ENDROOT
BRANCH   1   8
HETATM    8  C11 UNL     1      23.550  24.092   7.551  1.00  0.00    -0.064 C 
HETATM    9  C10 UNL     1      22.973  23.441   6.722  1.00  0.00    -0.010 C 
BRANCH   9  10
HETATM   10  C9  UNL     1      22.313  22.659   5.750  1.00  0.00    -0.010 C 
HETATM   11  C8  UNL     1      21.733  22.002   4.922  1.00  0.00    -0.065 C 
BRANCH  11  12
HETATM   12  C7  UNL     1      21.034  21.236   3.927  1.00  0.00     0.061 C 
HETATM   13  C6  UNL     1      21.670  20.340   3.200  1.00  0.00    -0.018 C 
BRANCH  13  14
HETATM   14  C5  UNL     1      23.133  20.117   3.412  1.00  0.00     0.028 C 
BRANCH  14  15
HETATM   15  C4  UNL     1      23.528  18.940   2.584  1.00  0.00     0.004 C 
BRANCH  15  16
HETATM   16  C3  UNL     1      22.465  17.853   2.587  1.00  0.00    -0.000 C 
BRANCH  16  17
HETATM   17  C2  UNL     1      23.126  16.501   2.285  1.00  0.00    -0.005 C 
HETATM   18  C1  UNL     1      22.408  15.409   3.073  1.00  0.00     0.005 C 
ENDBRANCH  16  17
ENDBRANCH  15  16
ENDBRANCH  14  15
ENDBRANCH  13  14
ENDBRANCH  11  12
ENDBRANCH   9  10
ENDBRANCH   1   8
BRANCH   7  19
HETATM   19  S1  UNL     1      24.908  26.665  11.118  1.00  0.00     0.172 S 
HETATM   20  C23 UNL     1      24.633  28.197  12.018  1.00  0.00     0.167 C 
HETATM   21  O3  UNL     1      23.619  25.875  11.384  1.00  0.00    -0.223 OA
HETATM   22  O4  UNL     1      25.987  25.875  11.743  1.00  0.00    -0.223 OA
ENDBRANCH   7  19
BRANCH   6  23
HETATM   23  C18 UNL     1      26.543  28.831   9.822  1.00  0.00     0.014 C 
HETATM   24  C19 UNL     1      27.813  28.702  10.080  1.00  0.00     0.082 C 
BRANCH  24  25
HETATM   25  C20 UNL     1      28.529  29.629  10.976  1.00  0.00     0.282 C 
HETATM   26  O1  UNL     1      28.125  30.791  11.217  1.00  0.00    -0.260 OA
BRANCH  25  27
HETATM   27  O2  UNL     1      29.699  29.207  11.581  1.00  0.00    -0.323 OA
HETATM   28  C21 UNL     1      30.219  29.905  12.693  1.00  0.00     0.213 C 
ENDBRANCH  25  27
ENDBRANCH  24  25
ENDBRANCH   6  23
TORSDOF 11
ENDMDL
MODEL 2
REMARK VINA RESULT: -7.002501379      7.055      9.171
REMARK  11 active torsions:
REMARK  status: ('A' for Active; 'I' for Inactive)
REMARK    1  A    between atoms: C2_2  and  C3_3 
REMARK    2  A    between atoms: C3_3  and  C4_4 
REMARK    3  A    between atoms: C4_4  and  C5_5 
REMARK    4  A    between atoms: C5_5  and  C6_6 
REMARK    5  A    between atoms: C7_7  and  C8_8 
REMARK    6  A    between atoms: C9_9  and  C10_10 
REMARK    7  A    between atoms: C11_11  and  C12_12 
REMARK    8  A    between atoms: C17_17  and  C18_18 
REMARK    9  A    between atoms: C19_19  and  C20_20 
REMARK   10  A    between atoms: C20_20  and  O2_22 
REMARK   11  A    between atoms: C22_24  and  S1_25 
ROOT
HETATM    1  C12 UNL     1      22.724  29.978   4.827  1.00  0.00     0.074 C 
HETATM    2  C13 UNL     1      22.634  29.828   3.542  1.00  0.00    -0.028 C 
HETATM    3  C14 UNL     1      22.595  28.448   2.965  1.00  0.00     0.041 C 
HETATM    4  C15 UNL     1      23.272  28.386   1.643  1.00  0.00     0.009 C 
HETATM    5  C16 UNL     1      24.076  29.623   1.290  1.00  0.00     0.040 C 
HETATM    6  C17 UNL     1      23.298  30.865   1.496  1.00  0.00    -0.036 C 
HETATM    7  C22 UNL     1      22.570  30.961   2.639  1.00  0.00     0.072 C 
ENDROOT
BRANCH   1   8
HETATM    8  C11 UNL     1      22.779  28.838   5.693  1.00  0.00    -0.064 C 
HETATM    9  C10 UNL     1      22.829  27.869   6.403  1.00  0.00    -0.010 C 
BRANCH   9  10
HETATM   10  C9  UNL     1      22.893  26.717   7.216  1.00  0.00    -0.010 C 
HETATM   11  C8  UNL     1      22.943  25.723   7.896  1.00  0.00    -0.065 C 
BRANCH  11  12
HETATM   12  C7  UNL     1      23.013  24.528   8.690  1.00  0.00     0.061 C 
HETATM   13  C6  UNL     1      22.853  23.343   8.136  1.00  0.00    -0.018 C 
BRANCH  13  14
HETATM   14  C5  UNL     1      22.594  23.241   6.668  1.00  0.00     0.028 C 
BRANCH  14  15
HETATM   15  C4  UNL     1      23.705  22.439   6.076  1.00  0.00     0.004 C 
BRANCH  15  16
HETATM   16  C3  UNL     1      23.255  21.644   4.860  1.00  0.00    -0.000 C 
BRANCH  16  17
HETATM   17  C2  UNL     1      21.778  21.948   4.577  1.00  0.00    -0.005 C 
HETATM   18  C1  UNL     1      21.231  20.902   3.611  1.00  0.00     0.005 C 
ENDBRANCH  16  17
ENDBRANCH  15  16
ENDBRANCH  14  15
ENDBRANCH  13  14
ENDBRANCH  11  12
ENDBRANCH   9  10
ENDBRANCH   1   8
BRANCH   7  19
HETATM   19  S1  UNL     1      21.613  32.347   2.952  1.00  0.00     0.172 S 
HETATM   20  C23 UNL     1      22.570  33.862   2.806  1.00  0.00     0.167 C 
HETATM   21  O3  UNL     1      20.572  32.489   1.833  1.00  0.00    -0.223 OA
HETATM   22  O4  UNL     1      20.838  32.334   4.209  1.00  0.00    -0.223 OA
ENDBRANCH   7  19
BRANCH   6  23
HETATM   23  C18 UNL     1      23.301  31.898   0.504  1.00  0.00     0.014 C 
HETATM   24  C19 UNL     1      23.691  31.713  -0.725  1.00  0.00     0.082 C 
BRANCH  24  25
HETATM   25  C20 UNL     1      23.681  32.799  -1.722  1.00  0.00     0.282 C 
HETATM   26  O1  UNL     1      24.699  33.476  -2.002  1.00  0.00    -0.260 OA
BRANCH  25  27
HETATM   27  O2  UNL     1      22.502  33.091  -2.385  1.00  0.00    -0.323 OA
HETATM   28  C21 UNL     1      22.525  33.499  -3.736  1.00  0.00     0.213 C 
ENDBRANCH  25  27
ENDBRANCH  24  25
ENDBRANCH   6  23
TORSDOF 11
ENDMDL
MODEL 3
REMARK VINA RESULT: -6.954797944      6.363      9.672
REMARK  11 active torsions:
REMARK  status: ('A' for Active; 'I' for Inactive)
REMARK    1  A    between atoms: C2_2  and  C3_3 
REMARK    2  A    between atoms: C3_3  and  C4_4 
REMARK    3  A    between atoms: C4_4  and  C5_5 
REMARK    4  A    between atoms: C5_5  and  C6_6 
REMARK    5  A    between atoms: C7_7  and  C8_8 
REMARK    6  A    between atoms: C9_9  and  C10_10 
REMARK    7  A    between atoms: C11_11  and  C12_12 
REMARK    8  A    between atoms: C17_17  and  C18_18 
REMARK    9  A    between atoms: C19_19  and  C20_20 
REMARK   10  A    between atoms: C20_20  and  O2_22 
REMARK   11  A    between atoms: C22_24  and  S1_25 
ROOT
HETATM    1  C12 UNL     1      23.098  28.912   3.734  1.00  0.00     0.074 C 
HETATM    2  C13 UNL     1      23.724  29.259   4.815  1.00  0.00    -0.028 C 
HETATM    3  C14 UNL     1      24.605  30.469   4.798  1.00  0.00     0.041 C 
HETATM    4  C15 UNL     1      25.781  30.305   5.693  1.00  0.00     0.009 C 
HETATM    5  C16 UNL     1      25.987  28.892   6.207  1.00  0.00     0.040 C 
HETATM    6  C17 UNL     1      24.740  28.318   6.760  1.00  0.00    -0.036 C 
HETATM    7  C22 UNL     1      23.599  28.507   6.049  1.00  0.00     0.072 C 
ENDROOT
BRANCH   1   8
HETATM    8  C11 UNL     1      23.238  29.679   2.531  1.00  0.00    -0.064 C 
HETATM    9  C10 UNL     1      23.376  30.326   1.528  1.00  0.00    -0.010 C 
BRANCH   9  10
HETATM   10  C9  UNL     1      23.562  31.089   0.355  1.00  0.00    -0.010 C 
HETATM   11  C8  UNL     1      23.707  31.753  -0.641  1.00  0.00    -0.065 C 
BRANCH  11  12
HETATM   12  C7  UNL     1      23.878  32.562  -1.816  1.00  0.00     0.061 C 
HETATM   13  C6  UNL     1      24.851  33.448  -1.884  1.00  0.00    -0.018 C 
BRANCH  13  14
HETATM   14  C5  UNL     1      25.784  33.615  -0.729  1.00  0.00     0.028 C 
BRANCH  14  15
HETATM   15  C4  UNL     1      27.175  33.499  -1.261  1.00  0.00     0.004 C 
BRANCH  15  16
HETATM   16  C3  UNL     1      27.245  33.783  -2.752  1.00  0.00    -0.000 C 
BRANCH  16  17
HETATM   17  C2  UNL     1      28.530  33.168  -3.322  1.00  0.00    -0.005 C 
HETATM   18  C1  UNL     1      29.375  32.626  -2.173  1.00  0.00     0.005 C 
ENDBRANCH  16  17
ENDBRANCH  15  16
ENDBRANCH  14  15
ENDBRANCH  13  14
ENDBRANCH  11  12
ENDBRANCH   9  10
ENDBRANCH   1   8
BRANCH   7  19
HETATM   19  S1  UNL     1      22.102  27.907   6.624  1.00  0.00     0.172 S 
HETATM   20  C23 UNL     1      22.194  26.154   7.017  1.00  0.00     0.167 C 
HETATM   21  O3  UNL     1      21.804  28.548   7.987  1.00  0.00    -0.223 OA
HETATM   22  O4  UNL     1      20.918  28.196   5.789  1.00  0.00    -0.223 OA
ENDBRANCH   7  19
BRANCH   6  23
HETATM   23  C18 UNL     1      24.754  27.620   8.011  1.00  0.00     0.014 C 
HETATM   24  C19 UNL     1      25.827  27.093   8.528  1.00  0.00     0.082 C 
BRANCH  24  25
HETATM   25  C20 UNL     1      25.807  26.382   9.819  1.00  0.00     0.282 C 
HETATM   26  O1  UNL     1      26.851  26.045  10.427  1.00  0.00    -0.260 OA
BRANCH  25  27
HETATM   27  O2  UNL     1      24.589  26.067  10.393  1.00  0.00    -0.323 OA
HETATM   28  C21 UNL     1      24.381  26.259  11.777  1.00  0.00     0.213 C 
ENDBRANCH  25  27
ENDBRANCH  24  25
ENDBRANCH   6  23
TORSDOF 11
ENDMDL
MODEL 4
REMARK VINA RESULT: -6.953380070      7.106     10.342
REMARK  11 active torsions:
REMARK  status: ('A' for Active; 'I' for Inactive)
REMARK    1  A    between atoms: C2_2  and  C3_3 
REMARK    2  A    between atoms: C3_3  and  C4_4 
REMARK    3  A    between atoms: C4_4  and  C5_5 
REMARK    4  A    between atoms: C5_5  and  C6_6 
REMARK    5  A    between atoms: C7_7  and  C8_8 
REMARK    6  A    between atoms: C9_9  and  C10_10 
REMARK    7  A    between atoms: C11_11  and  C12_12 
REMARK    8  A    between atoms: C17_17  and  C18_18 
REMARK    9  A    between atoms: C19_19  and  C20_20 
REMARK   10  A    between atoms: C20_20  and  O2_22 
REMARK   11  A    between atoms: C22_24  and  S1_25 
ROOT
HETATM    1  C12 UNL     1      24.387  30.679   4.430  1.00  0.00     0.074 C 
HETATM    2  C13 UNL     1      23.732  30.308   3.375  1.00  0.00    -0.028 C 
HETATM    3  C14 UNL     1      23.306  28.880   3.240  1.00  0.00     0.041 C 
HETATM    4  C15 UNL     1      23.330  28.430   1.823  1.00  0.00     0.009 C 
HETATM    5  C16 UNL     1      24.022  29.389   0.872  1.00  0.00     0.040 C 
HETATM    6  C17 UNL     1      23.541  30.779   1.042  1.00  0.00    -0.036 C 
HETATM    7  C22 UNL     1      23.398  31.237   2.313  1.00  0.00     0.072 C 
ENDROOT
BRANCH   1   8
HETATM    8  C11 UNL     1      24.698  29.739   5.466  1.00  0.00    -0.064 C 
HETATM    9  C10 UNL     1      24.965  28.966   6.347  1.00  0.00    -0.010 C 
BRANCH   9  10
HETATM   10  C9  UNL     1      25.284  28.078   7.396  1.00  0.00    -0.010 C 
HETATM   11  C8  UNL     1      25.539  27.320   8.299  1.00  0.00    -0.065 C 
BRANCH  11  12
HETATM   12  C7  UNL     1      25.823  26.408   9.371  1.00  0.00     0.061 C 
HETATM   13  C6  UNL     1      24.846  25.807  10.019  1.00  0.00    -0.018 C 
BRANCH  13  14
HETATM   14  C5  UNL     1      23.427  26.078   9.636  1.00  0.00     0.028 C 
BRANCH  14  15
HETATM   15  C4  UNL     1      22.973  24.940   8.782  1.00  0.00     0.004 C 
BRANCH  15  16
HETATM   16  C3  UNL     1      22.462  25.405   7.428  1.00  0.00    -0.000 C 
BRANCH  16  17
HETATM   17  C2  UNL     1      21.911  26.831   7.560  1.00  0.00    -0.005 C 
HETATM   18  C1  UNL     1      21.549  27.354   6.173  1.00  0.00     0.005 C 
ENDBRANCH  16  17
ENDBRANCH  15  16
ENDBRANCH  14  15
ENDBRANCH  13  14
ENDBRANCH  11  12
ENDBRANCH   9  10
ENDBRANCH   1   8
BRANCH   7  19
HETATM   19  S1  UNL     1      22.818  32.820   2.610  1.00  0.00     0.172 S 
HETATM   20  C23 UNL     1      21.212  33.095   1.851  1.00  0.00     0.167 C 
HETATM   21  O3  UNL     1      22.517  32.962   4.109  1.00  0.00    -0.223 OA
HETATM   22  O4  UNL     1      23.745  33.926   2.292  1.00  0.00    -0.223 OA
ENDBRANCH   7  19
BRANCH   6  23
HETATM   23  C18 UNL     1      23.217  31.581  -0.100  1.00  0.00     0.014 C 
HETATM   24  C19 UNL     1      24.107  32.223  -0.803  1.00  0.00     0.082 C 
BRANCH  24  25
HETATM   25  C20 UNL     1      23.740  33.039  -1.974  1.00  0.00     0.282 C 
HETATM   26  O1  UNL     1      23.867  34.286  -2.002  1.00  0.00    -0.260 OA
BRANCH  25  27
HETATM   27  O2  UNL     1      23.231  32.411  -3.097  1.00  0.00    -0.323 OA
HETATM   28  C21 UNL     1      22.699  33.173  -4.161  1.00  0.00     0.213 C 
ENDBRANCH  25  27
ENDBRANCH  24  25
ENDBRANCH   6  23
TORSDOF 11
ENDMDL
MODEL 5
REMARK VINA RESULT: -6.940995615      2.128      2.540
REMARK  11 active torsions:
REMARK  status: ('A' for Active; 'I' for Inactive)
REMARK    1  A    between atoms: C2_2  and  C3_3 
REMARK    2  A    between atoms: C3_3  and  C4_4 
REMARK    3  A    between atoms: C4_4  and  C5_5 
REMARK    4  A    between atoms: C5_5  and  C6_6 
REMARK    5  A    between atoms: C7_7  and  C8_8 
REMARK    6  A    between atoms: C9_9  and  C10_10 
REMARK    7  A    between atoms: C11_11  and  C12_12 
REMARK    8  A    between atoms: C17_17  and  C18_18 
REMARK    9  A    between atoms: C19_19  and  C20_20 
REMARK   10  A    between atoms: C20_20  and  O2_22 
REMARK   11  A    between atoms: C22_24  and  S1_25 
ROOT
HETATM    1  C12 UNL     1      23.991  25.285   8.408  1.00  0.00     0.074 C 
HETATM    2  C13 UNL     1      23.437  26.418   8.712  1.00  0.00    -0.028 C 
HETATM    3  C14 UNL     1      22.127  26.785   8.090  1.00  0.00     0.041 C 
HETATM    4  C15 UNL     1      22.020  28.250   7.858  1.00  0.00     0.009 C 
HETATM    5  C16 UNL     1      23.321  29.010   8.036  1.00  0.00     0.040 C 
HETATM    6  C17 UNL     1      23.996  28.662   9.307  1.00  0.00    -0.036 C 
HETATM    7  C22 UNL     1      24.050  27.346   9.641  1.00  0.00     0.072 C 
ENDROOT
BRANCH   1   8
HETATM    8  C11 UNL     1      23.356  24.385   7.490  1.00  0.00    -0.064 C 
HETATM    9  C10 UNL     1      22.821  23.648   6.707  1.00  0.00    -0.010 C 
BRANCH   9  10
HETATM   10  C9  UNL     1      22.188  22.800   5.772  1.00  0.00    -0.010 C 
HETATM   11  C8  UNL     1      21.653  22.061   4.983  1.00  0.00    -0.065 C 
BRANCH  11  12
HETATM   12  C7  UNL     1      21.007  21.170   4.061  1.00  0.00     0.061 C 
HETATM   13  C6  UNL     1      21.714  20.331   3.330  1.00  0.00    -0.018 C 
BRANCH  13  14
HETATM   14  C5  UNL     1      23.202  20.307   3.462  1.00  0.00     0.028 C 
BRANCH  14  15
HETATM   15  C4  UNL     1      23.682  19.035   2.845  1.00  0.00     0.004 C 
BRANCH  15  16
HETATM   16  C3  UNL     1      22.536  18.162   2.363  1.00  0.00    -0.000 C 
BRANCH  16  17
HETATM   17  C2  UNL     1      23.090  16.800   1.923  1.00  0.00    -0.005 C 
HETATM   18  C1  UNL     1      22.856  15.784   3.037  1.00  0.00     0.005 C 
ENDBRANCH  16  17
ENDBRANCH  15  16
ENDBRANCH  14  15
ENDBRANCH  13  14
ENDBRANCH  11  12
ENDBRANCH   9  10
ENDBRANCH   1   8
BRANCH   7  19
HETATM   19  S1  UNL     1      24.783  26.848  11.107  1.00  0.00     0.172 S 
HETATM   20  C23 UNL     1      26.470  26.283  10.849  1.00  0.00     0.167 C 
HETATM   21  O3  UNL     1      24.967  28.077  12.009  1.00  0.00    -0.223 OA
HETATM   22  O4  UNL     1      24.023  25.877  11.920  1.00  0.00    -0.223 OA
ENDBRANCH   7  19
BRANCH   6  23
HETATM   23  C18 UNL     1      24.535  29.687  10.149  1.00  0.00     0.014 C 
HETATM   24  C19 UNL     1      23.914  30.801  10.411  1.00  0.00     0.082 C 
BRANCH  24  25
HETATM   25  C20 UNL     1      24.498  31.837  11.284  1.00  0.00     0.282 C 
HETATM   26  O1  UNL     1      24.710  33.011  10.898  1.00  0.00    -0.260 OA
BRANCH  25  27
HETATM   27  O2  UNL     1      24.829  31.509  12.586  1.00  0.00    -0.323 OA
HETATM   28  C21 UNL     1      23.818  31.226  13.530  1.00  0.00     0.213 C 
ENDBRANCH  25  27
ENDBRANCH  24  25
ENDBRANCH   6  23
TORSDOF 11
ENDMDL
