MODEL 1
REMARK VINA RESULT: -7.372378243      0.000      0.000
REMARK  7 active torsions:
REMARK  status: ('A' for Active; 'I' for Inactive)
REMARK    1  A    between atoms: C2_2  and  C3_3 
REMARK    2  A    between atoms: C3_3  and  N1_4 
REMARK       I    between atoms: N1_4  and  C4_5 
REMARK    3  A    between atoms: N1_4  and  C11_13 
REMARK    4  A    between atoms: C4_5  and  C5_7 
REMARK    5  A    between atoms: C7_9  and  C8_10 
REMARK    6  A    between atoms: C15_19  and  O4_20 
REMARK    7  A    between atoms: O4_20  and  C16_21 
ROOT
HETATM    1  C11 UNL     1      23.895  27.955   8.502  1.00  0.00     0.236 C 
HETATM    2  O2  UNL     1      24.647  28.951   9.059  1.00  0.00    -0.346 OA
HETATM    3  C12 UNL     1      25.329  28.360  10.147  1.00  0.00     0.134 C 
HETATM    4  C13 UNL     1      26.807  28.448  10.039  1.00  0.00     0.056 C 
HETATM    5  C14 UNL     1      24.771  29.079  11.348  1.00  0.00     0.217 C 
HETATM    6  O3  UNL     1      25.550  29.639  12.135  1.00  0.00    -0.287 OA
HETATM    7  C15 UNL     1      23.324  29.035  11.462  1.00  0.00     0.115 C 
HETATM    8  C20 UNL     1      22.702  28.156  10.670  1.00  0.00     0.024 C 
HETATM    9  C21 UNL     1      23.369  27.256   9.722  1.00  0.00     0.071 C 
HETATM   10  C22 UNL     1      24.792  26.946  10.296  1.00  0.00     0.002 C 
HETATM   11  C23 UNL     1      25.457  25.915   9.485  1.00  0.00     0.019 C 
HETATM   12  C24 UNL     1      24.688  26.525  11.728  1.00  0.00     0.019 C 
ENDROOT
BRANCH   1  13
HETATM   13  N1  UNL     1      23.064  28.210   7.415  1.00  0.00    -0.317 N 
HETATM   14  C4  UNL     1      23.296  29.055   6.293  1.00  0.00     0.251 C 
HETATM   15  O1  UNL     1      24.416  29.602   6.262  1.00  0.00    -0.268 OA
BRANCH  13  16
HETATM   16  C3  UNL     1      21.742  27.542   7.420  1.00  0.00     0.155 C 
BRANCH  16  17
HETATM   17  C2  UNL     1      21.720  26.326   6.601  1.00  0.00    -0.017 C 
HETATM   18  C1  UNL     1      22.142  25.127   7.048  1.00  0.00     0.008 C 
ENDBRANCH  16  17
ENDBRANCH  13  16
BRANCH  14  19
HETATM   19  C5  UNL     1      22.360  29.332   5.212  1.00  0.00     0.003 C 
HETATM   20  C6  UNL     1      21.957  30.802   5.295  1.00  0.00     0.054 C 
HETATM   21  C7  UNL     1      22.482  28.808   3.870  1.00  0.00    -0.011 C 
BRANCH  21  22
HETATM   22  C8  UNL     1      23.562  29.008   2.921  1.00  0.00     0.001 C 
HETATM   23  C9  UNL     1      23.178  30.355   2.177  1.00  0.00     0.013 C 
HETATM   24  C10 UNL     1      23.600  28.044   1.763  1.00  0.00     0.013 C 
ENDBRANCH  21  22
ENDBRANCH  14  19
ENDBRANCH   1  13
BRANCH   7  25
HETATM   25  O4  UNL     1      22.625  29.825  12.316  1.00  0.00    -0.338 OA
BRANCH  25  26
HETATM   26  C16 UNL     1      22.305  31.151  12.337  1.00  0.00     0.057 C 
HETATM   27  C17 UNL     1      23.191  32.036  13.205  1.00  0.00     0.045 C 
HETATM   28  C18 UNL     1      20.914  31.255  13.001  1.00  0.00     0.045 C 
HETATM   29  C19 UNL     1      22.155  31.848  11.015  1.00  0.00     0.045 C 
ENDBRANCH  25  26
ENDBRANCH   7  25
TORSDOF 7
ENDMDL
MODEL 2
REMARK VINA RESULT: -7.356560211      1.792      2.892
REMARK  7 active torsions:
REMARK  status: ('A' for Active; 'I' for Inactive)
REMARK    1  A    between atoms: C2_2  and  C3_3 
REMARK    2  A    between atoms: C3_3  and  N1_4 
REMARK       I    between atoms: N1_4  and  C4_5 
REMARK    3  A    between atoms: N1_4  and  C11_13 
REMARK    4  A    between atoms: C4_5  and  C5_7 
REMARK    5  A    between atoms: C7_9  and  C8_10 
REMARK    6  A    between atoms: C15_19  and  O4_20 
REMARK    7  A    between atoms: O4_20  and  C16_21 
ROOT
HETATM    1  C11 UNL     1      24.386  27.642   7.667  1.00  0.00     0.236 C 
HETATM    2  O2  UNL     1      25.161  27.849   8.773  1.00  0.00    -0.346 OA
HETATM    3  C12 UNL     1      24.915  26.755   9.632  1.00  0.00     0.134 C 
HETATM    4  C13 UNL     1      26.131  25.968   9.956  1.00  0.00     0.056 C 
HETATM    5  C14 UNL     1      24.270  27.388  10.839  1.00  0.00     0.217 C 
HETATM    6  O3  UNL     1      24.763  27.193  11.960  1.00  0.00    -0.287 OA
HETATM    7  C15 UNL     1      23.095  28.189  10.546  1.00  0.00     0.115 C 
HETATM    8  C20 UNL     1      22.579  28.045   9.322  1.00  0.00     0.024 C 
HETATM    9  C21 UNL     1      23.107  27.152   8.284  1.00  0.00     0.071 C 
HETATM   10  C22 UNL     1      23.788  25.944   9.011  1.00  0.00     0.002 C 
HETATM   11  C23 UNL     1      24.193  24.922   8.034  1.00  0.00     0.019 C 
HETATM   12  C24 UNL     1      22.863  25.375  10.039  1.00  0.00     0.019 C 
ENDROOT
BRANCH   1  13
HETATM   13  N1  UNL     1      24.366  28.565   6.626  1.00  0.00    -0.317 N 
HETATM   14  C4  UNL     1      23.366  28.770   5.634  1.00  0.00     0.251 C 
HETATM   15  O1  UNL     1      22.351  28.055   5.747  1.00  0.00    -0.268 OA
BRANCH  13  16
HETATM   16  C3  UNL     1      25.551  29.445   6.498  1.00  0.00     0.155 C 
BRANCH  16  17
HETATM   17  C2  UNL     1      26.698  28.764   5.891  1.00  0.00    -0.017 C 
HETATM   18  C1  UNL     1      27.937  29.293   5.853  1.00  0.00     0.008 C 
ENDBRANCH  16  17
ENDBRANCH  13  16
BRANCH  14  19
HETATM   19  C5  UNL     1      23.429  29.715   4.527  1.00  0.00     0.003 C 
HETATM   20  C6  UNL     1      23.396  28.922   3.222  1.00  0.00     0.054 C 
HETATM   21  C7  UNL     1      22.729  30.980   4.489  1.00  0.00    -0.011 C 
BRANCH  21  22
HETATM   22  C8  UNL     1      21.299  31.219   4.550  1.00  0.00     0.001 C 
HETATM   23  C9  UNL     1      21.002  32.106   3.268  1.00  0.00     0.013 C 
HETATM   24  C10 UNL     1      20.838  32.143   5.647  1.00  0.00     0.013 C 
ENDBRANCH  21  22
ENDBRANCH  14  19
ENDBRANCH   1  13
BRANCH   7  25
HETATM   25  O4  UNL     1      22.535  29.036  11.448  1.00  0.00    -0.338 OA
BRANCH  25  26
HETATM   26  C16 UNL     1      22.702  30.357  11.741  1.00  0.00     0.057 C 
HETATM   27  C17 UNL     1      24.138  30.809  11.977  1.00  0.00     0.045 C 
HETATM   28  C18 UNL     1      22.012  30.594  13.103  1.00  0.00     0.045 C 
HETATM   29  C19 UNL     1      22.077  31.357  10.812  1.00  0.00     0.045 C 
ENDBRANCH  25  26
ENDBRANCH   7  25
TORSDOF 7
ENDMDL
MODEL 3
REMARK VINA RESULT: -7.258455971      1.500      2.188
REMARK  7 active torsions:
REMARK  status: ('A' for Active; 'I' for Inactive)
REMARK    1  A    between atoms: C2_2  and  C3_3 
REMARK    2  A    between atoms: C3_3  and  N1_4 
REMARK       I    between atoms: N1_4  and  C4_5 
REMARK    3  A    between atoms: N1_4  and  C11_13 
REMARK    4  A    between atoms: C4_5  and  C5_7 
REMARK    5  A    between atoms: C7_9  and  C8_10 
REMARK    6  A    between atoms: C15_19  and  O4_20 
REMARK    7  A    between atoms: O4_20  and  C16_21 
ROOT
HETATM    1  C11 UNL     1      23.424  27.629   7.515  1.00  0.00     0.236 C 
HETATM    2  O2  UNL     1      24.398  28.150   8.319  1.00  0.00    -0.346 OA
HETATM    3  C12 UNL     1      24.603  27.202   9.347  1.00  0.00     0.134 C 
HETATM    4  C13 UNL     1      25.993  26.686   9.412  1.00  0.00     0.056 C 
HETATM    5  C14 UNL     1      24.173  27.932  10.594  1.00  0.00     0.217 C 
HETATM    6  O3  UNL     1      24.964  28.020  11.546  1.00  0.00    -0.287 OA
HETATM    7  C15 UNL     1      22.827  28.473  10.545  1.00  0.00     0.115 C 
HETATM    8  C20 UNL     1      22.056  28.034   9.546  1.00  0.00     0.024 C 
HETATM    9  C21 UNL     1      22.469  27.063   8.526  1.00  0.00     0.071 C 
HETATM   10  C22 UNL     1      23.540  26.127   9.180  1.00  0.00     0.002 C 
HETATM   11  C23 UNL     1      23.878  25.023   8.269  1.00  0.00     0.019 C 
HETATM   12  C24 UNL     1      23.040  25.613  10.493  1.00  0.00     0.019 C 
ENDROOT
BRANCH   1  13
HETATM   13  N1  UNL     1      22.956  28.336   6.411  1.00  0.00    -0.317 N 
HETATM   14  C4  UNL     1      21.875  28.020   5.542  1.00  0.00     0.251 C 
HETATM   15  O1  UNL     1      21.234  26.994   5.842  1.00  0.00    -0.268 OA
BRANCH  13  16
HETATM   16  C3  UNL     1      23.686  29.577   6.061  1.00  0.00     0.155 C 
BRANCH  16  17
HETATM   17  C2  UNL     1      25.019  29.312   5.510  1.00  0.00    -0.017 C 
HETATM   18  C1  UNL     1      26.018  30.215   5.526  1.00  0.00     0.008 C 
ENDBRANCH  16  17
ENDBRANCH  13  16
BRANCH  14  19
HETATM   19  C5  UNL     1      21.468  28.770   4.361  1.00  0.00     0.003 C 
HETATM   20  C6  UNL     1      21.232  30.220   4.777  1.00  0.00     0.054 C 
HETATM   21  C7  UNL     1      22.044  28.600   3.045  1.00  0.00    -0.011 C 
BRANCH  21  22
HETATM   22  C8  UNL     1      23.422  28.791   2.633  1.00  0.00     0.001 C 
HETATM   23  C9  UNL     1      23.417  30.204   1.913  1.00  0.00     0.013 C 
HETATM   24  C10 UNL     1      23.898  27.903   1.513  1.00  0.00     0.013 C 
ENDBRANCH  21  22
ENDBRANCH  14  19
ENDBRANCH   1  13
BRANCH   7  25
HETATM   25  O4  UNL     1      22.357  29.369  11.451  1.00  0.00    -0.338 OA
BRANCH  25  26
HETATM   26  C16 UNL     1      22.582  30.694  11.680  1.00  0.00     0.057 C 
HETATM   27  C17 UNL     1      23.431  31.024  12.902  1.00  0.00     0.045 C 
HETATM   28  C18 UNL     1      21.208  31.322  12.005  1.00  0.00     0.045 C 
HETATM   29  C19 UNL     1      23.121  31.512  10.542  1.00  0.00     0.045 C 
ENDBRANCH  25  26
ENDBRANCH   7  25
TORSDOF 7
ENDMDL
MODEL 4
REMARK VINA RESULT: -7.040564096      2.219      3.708
REMARK  7 active torsions:
REMARK  status: ('A' for Active; 'I' for Inactive)
REMARK    1  A    between atoms: C2_2  and  C3_3 
REMARK    2  A    between atoms: C3_3  and  N1_4 
REMARK       I    between atoms: N1_4  and  C4_5 
REMARK    3  A    between atoms: N1_4  and  C11_13 
REMARK    4  A    between atoms: C4_5  and  C5_7 
REMARK    5  A    between atoms: C7_9  and  C8_10 
REMARK    6  A    between atoms: C15_19  and  O4_20 
REMARK    7  A    between atoms: O4_20  and  C16_21 
ROOT
HETATM    1  C11 UNL     1      23.898  27.933   8.161  1.00  0.00     0.236 C 
HETATM    2  O2  UNL     1      25.163  27.439   8.019  1.00  0.00    -0.346 OA
HETATM    3  C12 UNL     1      25.708  27.383   9.321  1.00  0.00     0.134 C 
HETATM    4  C13 UNL     1      26.121  26.019   9.735  1.00  0.00     0.056 C 
HETATM    5  C14 UNL     1      26.849  28.367   9.271  1.00  0.00     0.217 C 
HETATM    6  O3  UNL     1      27.988  27.990   9.590  1.00  0.00    -0.287 OA
HETATM    7  C15 UNL     1      26.479  29.703   8.840  1.00  0.00     0.115 C 
HETATM    8  C20 UNL     1      25.168  29.965   8.810  1.00  0.00     0.024 C 
HETATM    9  C21 UNL     1      24.110  29.017   9.178  1.00  0.00     0.071 C 
HETATM   10  C22 UNL     1      24.706  28.047  10.253  1.00  0.00     0.002 C 
HETATM   11  C23 UNL     1      23.654  27.175  10.794  1.00  0.00     0.019 C 
HETATM   12  C24 UNL     1      25.373  28.831  11.339  1.00  0.00     0.019 C 
ENDROOT
BRANCH   1  13
HETATM   13  N1  UNL     1      23.086  28.148   7.051  1.00  0.00    -0.317 N 
HETATM   14  C4  UNL     1      23.381  28.858   5.854  1.00  0.00     0.251 C 
HETATM   15  O1  UNL     1      24.541  29.305   5.773  1.00  0.00    -0.268 OA
BRANCH  13  16
HETATM   16  C3  UNL     1      21.713  27.594   7.117  1.00  0.00     0.155 C 
BRANCH  16  17
HETATM   17  C2  UNL     1      21.628  26.230   6.586  1.00  0.00    -0.017 C 
HETATM   18  C1  UNL     1      22.233  25.174   7.162  1.00  0.00     0.008 C 
ENDBRANCH  16  17
ENDBRANCH  13  16
BRANCH  14  19
HETATM   19  C5  UNL     1      22.465  29.103   4.747  1.00  0.00     0.003 C 
HETATM   20  C6  UNL     1      22.036  30.568   4.800  1.00  0.00     0.054 C 
HETATM   21  C7  UNL     1      22.627  28.563   3.416  1.00  0.00    -0.011 C 
BRANCH  21  22
HETATM   22  C8  UNL     1      23.726  28.767   2.489  1.00  0.00     0.001 C 
HETATM   23  C9  UNL     1      23.346  30.107   1.731  1.00  0.00     0.013 C 
HETATM   24  C10 UNL     1      23.796  27.798   1.337  1.00  0.00     0.013 C 
ENDBRANCH  21  22
ENDBRANCH  14  19
ENDBRANCH   1  13
BRANCH   7  25
HETATM   25  O4  UNL     1      27.390  30.646   8.488  1.00  0.00    -0.338 OA
BRANCH  25  26
HETATM   26  C16 UNL     1      27.838  31.135   7.296  1.00  0.00     0.057 C 
HETATM   27  C17 UNL     1      28.212  30.095   6.248  1.00  0.00     0.045 C 
HETATM   28  C18 UNL     1      29.171  31.858   7.593  1.00  0.00     0.045 C 
HETATM   29  C19 UNL     1      26.987  32.162   6.606  1.00  0.00     0.045 C 
ENDBRANCH  25  26
ENDBRANCH   7  25
TORSDOF 7
ENDMDL
MODEL 5
REMARK VINA RESULT: -6.970297644      1.598      2.655
REMARK  7 active torsions:
REMARK  status: ('A' for Active; 'I' for Inactive)
REMARK    1  A    between atoms: C2_2  and  C3_3 
REMARK    2  A    between atoms: C3_3  and  N1_4 
REMARK       I    between atoms: N1_4  and  C4_5 
REMARK    3  A    between atoms: N1_4  and  C11_13 
REMARK    4  A    between atoms: C4_5  and  C5_7 
REMARK    5  A    between atoms: C7_9  and  C8_10 
REMARK    6  A    between atoms: C15_19  and  O4_20 
REMARK    7  A    between atoms: O4_20  and  C16_21 
ROOT
HETATM    1  C11 UNL     1      22.615  28.462   7.292  1.00  0.00     0.236 C 
HETATM    2  O2  UNL     1      23.828  28.648   7.894  1.00  0.00    -0.346 OA
HETATM    3  C12 UNL     1      24.075  27.475   8.642  1.00  0.00     0.134 C 
HETATM    4  C13 UNL     1      25.318  26.768   8.247  1.00  0.00     0.056 C 
HETATM    5  C14 UNL     1      24.088  27.962  10.069  1.00  0.00     0.217 C 
HETATM    6  O3  UNL     1      25.076  27.723  10.781  1.00  0.00    -0.287 OA
HETATM    7  C15 UNL     1      22.895  28.684  10.474  1.00  0.00     0.115 C 
HETATM    8  C20 UNL     1      21.848  28.592   9.649  1.00  0.00     0.024 C 
HETATM    9  C21 UNL     1      21.824  27.825   8.398  1.00  0.00     0.071 C 
HETATM   10  C22 UNL     1      22.816  26.625   8.568  1.00  0.00     0.002 C 
HETATM   11  C23 UNL     1      22.720  25.715   7.417  1.00  0.00     0.019 C 
HETATM   12  C24 UNL     1      22.538  25.906   9.851  1.00  0.00     0.019 C 
ENDROOT
BRANCH   1  13
HETATM   13  N1  UNL     1      22.053  29.456   6.496  1.00  0.00    -0.317 N 
HETATM   14  C4  UNL     1      22.189  30.868   6.603  1.00  0.00     0.251 C 
HETATM   15  O1  UNL     1      22.956  31.261   7.503  1.00  0.00    -0.268 OA
BRANCH  13  16
HETATM   16  C3  UNL     1      21.165  29.003   5.400  1.00  0.00     0.155 C 
BRANCH  16  17
HETATM   17  C2  UNL     1      21.872  28.207   4.392  1.00  0.00    -0.017 C 
HETATM   18  C1  UNL     1      22.658  28.748   3.441  1.00  0.00     0.008 C 
ENDBRANCH  16  17
ENDBRANCH  13  16
BRANCH  14  19
HETATM   19  C5  UNL     1      21.523  31.865   5.774  1.00  0.00     0.003 C 
HETATM   20  C6  UNL     1      21.104  33.027   6.672  1.00  0.00     0.054 C 
HETATM   21  C7  UNL     1      21.953  32.244   4.447  1.00  0.00    -0.011 C 
BRANCH  21  22
HETATM   22  C8  UNL     1      23.221  32.824   4.042  1.00  0.00     0.001 C 
HETATM   23  C9  UNL     1      23.087  32.983   2.469  1.00  0.00     0.013 C 
HETATM   24  C10 UNL     1      24.415  31.910   4.135  1.00  0.00     0.013 C 
ENDBRANCH  21  22
ENDBRANCH  14  19
ENDBRANCH   1  13
BRANCH   7  25
HETATM   25  O4  UNL     1      22.825  29.412  11.618  1.00  0.00    -0.338 OA
BRANCH  25  26
HETATM   26  C16 UNL     1      22.654  30.737  11.891  1.00  0.00     0.057 C 
HETATM   27  C17 UNL     1      23.370  31.706  10.958  1.00  0.00     0.045 C 
HETATM   28  C18 UNL     1      23.315  30.990  13.264  1.00  0.00     0.045 C 
HETATM   29  C19 UNL     1      21.247  31.238  12.042  1.00  0.00     0.045 C 
ENDBRANCH  25  26
ENDBRANCH   7  25
TORSDOF 7
ENDMDL
