MODEL 1
REMARK VINA RESULT: -7.917626608      0.000      0.000
REMARK  7 active torsions:
REMARK  status: ('A' for Active; 'I' for Inactive)
REMARK    1  A    between atoms: N1_4  and  C4_5 
REMARK    2  A    between atoms: C4_5  and  C6_7 
REMARK    3  A    between atoms: C7_8  and  C8_9 
REMARK    4  A    between atoms: N2_18  and  C17_19 
REMARK    5  A    between atoms: C17_19  and  C18_20 
REMARK    6  A    between atoms: C20_24  and  N4_25 
REMARK    7  A    between atoms: C23_28  and  O1_29 
ROOT
HETATM    1  C1  UNL     1      12.925   9.630  77.450  1.00  0.00     0.034 C 
HETATM    2  C2  UNL     1      11.972   9.644  76.286  1.00  0.00     0.098 C 
HETATM    3  C3  UNL     1      10.560   9.732  76.853  1.00  0.00     0.147 C 
HETATM    4  N1  UNL     1       9.607   9.491  75.840  1.00  0.00    -0.385 N 
HETATM    5  C15 UNL     1      10.051   9.695  74.522  1.00  0.00     0.078 C 
HETATM    6  C16 UNL     1      11.100  10.779  74.371  1.00  0.00     0.167 C 
HETATM    7  N2  UNL     1      12.155  10.641  75.346  1.00  0.00    -0.379 N 
ENDROOT
BRANCH   7   8
HETATM    8  C17 UNL     1      13.245  11.479  75.255  1.00  0.00     0.100 C 
BRANCH   8   9
HETATM    9  C18 UNL     1      14.329  10.983  74.378  1.00  0.00     0.011 A 
HETATM   10  C19 UNL     1      14.654   9.636  74.295  1.00  0.00     0.120 A 
HETATM   11  N3  UNL     1      15.622   9.229  73.476  1.00  0.00    -0.201 N 
HETATM   12  C20 UNL     1      16.334  10.081  72.690  1.00  0.00     0.679 A 
ATOM     13  H3  UNL     1      15.839   8.233  73.438  1.00  0.00     0.183 HD
HETATM   14  N5  UNL     1      15.999  11.368  72.791  1.00  0.00    -0.201 N 
HETATM   15  C25 UNL     1      15.046  11.853  73.585  1.00  0.00     0.120 A 
ATOM     16  H5  UNL     1      16.514  12.034  72.214  1.00  0.00     0.183 HD
BRANCH  12  17
HETATM   17  N4  UNL     1      17.345   9.579  71.847  1.00  0.00    -0.215 N 
HETATM   18  C21 UNL     1      18.000  10.289  70.782  1.00  0.00     0.144 C 
HETATM   19  C22 UNL     1      19.458   9.854  70.976  1.00  0.00     0.054 C 
HETATM   20  C23 UNL     1      19.374   8.493  71.624  1.00  0.00     0.138 C 
HETATM   21  C24 UNL     1      17.907   8.255  71.898  1.00  0.00     0.173 C 
BRANCH  20  22
HETATM   22  O1  UNL     1      19.864   7.529  70.751  1.00  0.00    -0.394 OA
ATOM     23  H1  UNL     1      20.488   7.927  70.155  1.00  0.00     0.210 HD
ENDBRANCH  20  22
ENDBRANCH  12  17
ENDBRANCH   8   9
ENDBRANCH   7   8
BRANCH   4  24
HETATM   24  C4  UNL     1       8.795   8.337  75.979  1.00  0.00     0.084 C 
HETATM   25  C5  UNL     1       9.131   7.251  74.972  1.00  0.00     0.033 C 
BRANCH  24  26
HETATM   26  C6  UNL     1       8.778   7.844  77.377  1.00  0.00     0.022 A 
HETATM   27  C7  UNL     1       8.648   6.346  77.655  1.00  0.00     0.008 A 
HETATM   28  C12 UNL     1       7.567   7.230  78.012  1.00  0.00    -0.037 A 
HETATM   29  C13 UNL     1       6.279   7.082  77.185  1.00  0.00     0.015 C 
HETATM   30  C14 UNL     1       7.269   7.732  79.395  1.00  0.00     0.015 C 
BRANCH  27  31
HETATM   31  C8  UNL     1       9.637   5.687  78.530  1.00  0.00    -0.047 C 
HETATM   32  C9  UNL     1      10.679   6.504  79.175  1.00  0.00     0.015 C 
HETATM   33  C10 UNL     1      10.373   4.638  77.680  1.00  0.00     0.015 C 
HETATM   34  C11 UNL     1       8.935   4.875  79.624  1.00  0.00     0.015 C 
ENDBRANCH  27  31
ENDBRANCH  24  26
ENDBRANCH   4  24
TORSDOF 7
ENDMDL
MODEL 2
REMARK VINA RESULT: -7.841340838      0.563      1.290
REMARK  7 active torsions:
REMARK  status: ('A' for Active; 'I' for Inactive)
REMARK    1  A    between atoms: N1_4  and  C4_5 
REMARK    2  A    between atoms: C4_5  and  C6_7 
REMARK    3  A    between atoms: C7_8  and  C8_9 
REMARK    4  A    between atoms: N2_18  and  C17_19 
REMARK    5  A    between atoms: C17_19  and  C18_20 
REMARK    6  A    between atoms: C20_24  and  N4_25 
REMARK    7  A    between atoms: C23_28  and  O1_29 
ROOT
HETATM    1  C1  UNL     1      11.574  11.447  73.577  1.00  0.00     0.034 C 
HETATM    2  C2  UNL     1      11.490  10.861  74.960  1.00  0.00     0.098 C 
HETATM    3  C3  UNL     1      11.104   9.394  74.811  1.00  0.00     0.147 C 
HETATM    4  N1  UNL     1      10.756   8.846  76.064  1.00  0.00    -0.385 N 
HETATM    5  C15 UNL     1      11.259   9.524  77.188  1.00  0.00     0.078 C 
HETATM    6  C16 UNL     1      12.600  10.196  76.970  1.00  0.00     0.167 C 
HETATM    7  N2  UNL     1      12.621  10.963  75.748  1.00  0.00    -0.379 N 
ENDROOT
BRANCH   7   8
HETATM    8  C17 UNL     1      13.731  11.733  75.476  1.00  0.00     0.100 C 
BRANCH   8   9
HETATM    9  C18 UNL     1      14.686  11.119  74.528  1.00  0.00     0.011 A 
HETATM   10  C19 UNL     1      14.861   9.745  74.441  1.00  0.00     0.120 A 
HETATM   11  N3  UNL     1      15.715   9.232  73.559  1.00  0.00    -0.201 N 
HETATM   12  C20 UNL     1      16.449   9.998  72.707  1.00  0.00     0.679 A 
ATOM     13  H3  UNL     1      15.824   8.218  73.520  1.00  0.00     0.183 HD
HETATM   14  N5  UNL     1      16.259  11.314  72.812  1.00  0.00    -0.201 N 
HETATM   15  C25 UNL     1      15.426  11.902  73.668  1.00  0.00     0.120 A 
ATOM     16  H5  UNL     1      16.795  11.918  72.188  1.00  0.00     0.183 HD
BRANCH  12  17
HETATM   17  N4  UNL     1      17.335   9.386  71.798  1.00  0.00    -0.215 N 
HETATM   18  C21 UNL     1      17.787   9.931  70.547  1.00  0.00     0.144 C 
HETATM   19  C22 UNL     1      19.273   9.552  70.568  1.00  0.00     0.054 C 
HETATM   20  C23 UNL     1      19.344   8.306  71.418  1.00  0.00     0.138 C 
HETATM   21  C24 UNL     1      17.949   8.093  71.956  1.00  0.00     0.173 C 
BRANCH  20  22
HETATM   22  O1  UNL     1      19.728   7.226  70.633  1.00  0.00    -0.394 OA
ATOM     23  H1  UNL     1      18.987   6.924  70.122  1.00  0.00     0.210 HD
ENDBRANCH  20  22
ENDBRANCH  12  17
ENDBRANCH   8   9
ENDBRANCH   7   8
BRANCH   4  24
HETATM   24  C4  UNL     1       9.415   8.415  76.231  1.00  0.00     0.084 C 
HETATM   25  C5  UNL     1       8.937   7.516  75.104  1.00  0.00     0.033 C 
BRANCH  24  26
HETATM   26  C6  UNL     1       9.192   7.829  77.574  1.00  0.00     0.022 A 
HETATM   27  C7  UNL     1       8.901   6.334  77.714  1.00  0.00     0.008 A 
HETATM   28  C12 UNL     1       7.866   7.290  78.020  1.00  0.00    -0.037 A 
HETATM   29  C13 UNL     1       6.676   7.324  77.047  1.00  0.00     0.015 C 
HETATM   30  C14 UNL     1       7.452   7.719  79.398  1.00  0.00     0.015 C 
BRANCH  27  31
HETATM   31  C8  UNL     1       9.719   5.524  78.637  1.00  0.00    -0.047 C 
HETATM   32  C9  UNL     1      10.753   6.188  79.448  1.00  0.00     0.015 C 
HETATM   33  C10 UNL     1      10.446   4.463  77.792  1.00  0.00     0.015 C 
HETATM   34  C11 UNL     1       8.827   4.717  79.585  1.00  0.00     0.015 C 
ENDBRANCH  27  31
ENDBRANCH  24  26
ENDBRANCH   4  24
TORSDOF 7
ENDMDL
MODEL 3
REMARK VINA RESULT: -7.720927677      0.686      1.024
REMARK  7 active torsions:
REMARK  status: ('A' for Active; 'I' for Inactive)
REMARK    1  A    between atoms: N1_4  and  C4_5 
REMARK    2  A    between atoms: C4_5  and  C6_7 
REMARK    3  A    between atoms: C7_8  and  C8_9 
REMARK    4  A    between atoms: N2_18  and  C17_19 
REMARK    5  A    between atoms: C17_19  and  C18_20 
REMARK    6  A    between atoms: C20_24  and  N4_25 
REMARK    7  A    between atoms: C23_28  and  O1_29 
ROOT
HETATM    1  C1  UNL     1      12.915   9.664  77.497  1.00  0.00     0.034 C 
HETATM    2  C2  UNL     1      11.977   9.676  76.320  1.00  0.00     0.098 C 
HETATM    3  C3  UNL     1      10.557   9.739  76.869  1.00  0.00     0.147 C 
HETATM    4  N1  UNL     1       9.621   9.495  75.842  1.00  0.00    -0.385 N 
HETATM    5  C15 UNL     1      10.080   9.717  74.532  1.00  0.00     0.078 C 
HETATM    6  C16 UNL     1      11.115  10.816  74.405  1.00  0.00     0.167 C 
HETATM    7  N2  UNL     1      12.159  10.683  75.391  1.00  0.00    -0.379 N 
ENDROOT
BRANCH   7   8
HETATM    8  C17 UNL     1      13.239  11.536  75.323  1.00  0.00     0.100 C 
BRANCH   8   9
HETATM    9  C18 UNL     1      14.311  11.097  74.402  1.00  0.00     0.011 A 
HETATM   10  C19 UNL     1      14.598   9.756  74.189  1.00  0.00     0.120 A 
HETATM   11  N3  UNL     1      15.556   9.402  73.335  1.00  0.00    -0.201 N 
HETATM   12  C20 UNL     1      16.293  10.306  72.634  1.00  0.00     0.679 A 
ATOM     13  H3  UNL     1      15.745   8.409  73.200  1.00  0.00     0.183 HD
HETATM   14  N5  UNL     1      15.994  11.586  72.858  1.00  0.00    -0.201 N 
HETATM   15  C25 UNL     1      15.054  12.019  73.695  1.00  0.00     0.120 A 
ATOM     16  H5  UNL     1      16.529  12.290  72.348  1.00  0.00     0.183 HD
BRANCH  12  17
HETATM   17  N4  UNL     1      17.292   9.859  71.746  1.00  0.00    -0.215 N 
HETATM   18  C21 UNL     1      17.930   8.571  71.758  1.00  0.00     0.144 C 
HETATM   19  C22 UNL     1      17.986   8.244  70.260  1.00  0.00     0.054 C 
HETATM   20  C23 UNL     1      18.028   9.588  69.572  1.00  0.00     0.138 C 
HETATM   21  C24 UNL     1      17.862  10.618  70.664  1.00  0.00     0.173 C 
BRANCH  20  22
HETATM   22  O1  UNL     1      19.254   9.750  68.938  1.00  0.00    -0.394 OA
ATOM     23  H1  UNL     1      19.339  10.645  68.631  1.00  0.00     0.210 HD
ENDBRANCH  20  22
ENDBRANCH  12  17
ENDBRANCH   8   9
ENDBRANCH   7   8
BRANCH   4  24
HETATM   24  C4  UNL     1       8.822   8.329  75.959  1.00  0.00     0.084 C 
HETATM   25  C5  UNL     1       9.184   7.259  74.945  1.00  0.00     0.033 C 
BRANCH  24  26
HETATM   26  C6  UNL     1       8.797   7.821  77.352  1.00  0.00     0.022 A 
HETATM   27  C7  UNL     1       8.646   6.322  77.614  1.00  0.00     0.008 A 
HETATM   28  C12 UNL     1       7.577   7.217  77.979  1.00  0.00    -0.037 A 
HETATM   29  C13 UNL     1       6.288   7.097  77.150  1.00  0.00     0.015 C 
HETATM   30  C14 UNL     1       7.284   7.708  79.367  1.00  0.00     0.015 C 
BRANCH  27  31
HETATM   31  C8  UNL     1       9.624   5.640  78.482  1.00  0.00    -0.047 C 
HETATM   32  C9  UNL     1      10.655   6.439  79.165  1.00  0.00     0.015 C 
HETATM   33  C10 UNL     1      10.375   4.618  77.611  1.00  0.00     0.015 C 
HETATM   34  C11 UNL     1       8.910   4.794  79.542  1.00  0.00     0.015 C 
ENDBRANCH  27  31
ENDBRANCH  24  26
ENDBRANCH   4  24
TORSDOF 7
ENDMDL
MODEL 4
REMARK VINA RESULT: -7.552002603      3.873      9.364
REMARK  7 active torsions:
REMARK  status: ('A' for Active; 'I' for Inactive)
REMARK    1  A    between atoms: N1_4  and  C4_5 
REMARK    2  A    between atoms: C4_5  and  C6_7 
REMARK    3  A    between atoms: C7_8  and  C8_9 
REMARK    4  A    between atoms: N2_18  and  C17_19 
REMARK    5  A    between atoms: C17_19  and  C18_20 
REMARK    6  A    between atoms: C20_24  and  N4_25 
REMARK    7  A    between atoms: C23_28  and  O1_29 
ROOT
HETATM    1  C1  UNL     1       8.043   8.564  73.698  1.00  0.00     0.034 C 
HETATM    2  C2  UNL     1       9.354   8.772  74.407  1.00  0.00     0.098 C 
HETATM    3  C3  UNL     1       9.636  10.270  74.413  1.00  0.00     0.147 C 
HETATM    4  N1  UNL     1      10.962  10.519  74.828  1.00  0.00    -0.385 N 
HETATM    5  C15 UNL     1      11.571   9.495  75.575  1.00  0.00     0.078 C 
HETATM    6  C16 UNL     1      10.617   8.689  76.434  1.00  0.00     0.167 C 
HETATM    7  N2  UNL     1       9.449   8.278  75.694  1.00  0.00    -0.379 N 
ENDROOT
BRANCH   7   8
HETATM    8  C17 UNL     1       8.549   7.432  76.306  1.00  0.00     0.100 C 
BRANCH   8   9
HETATM    9  C18 UNL     1       9.075   6.739  77.502  1.00  0.00     0.011 A 
HETATM   10  C19 UNL     1       8.573   6.977  78.774  1.00  0.00     0.120 A 
HETATM   11  N3  UNL     1       9.059   6.316  79.822  1.00  0.00    -0.201 N 
HETATM   12  C20 UNL     1      10.049   5.389  79.719  1.00  0.00     0.679 A 
ATOM     13  H3  UNL     1       8.670   6.513  80.745  1.00  0.00     0.183 HD
HETATM   14  N5  UNL     1      10.511   5.181  78.484  1.00  0.00    -0.201 N 
HETATM   15  C25 UNL     1      10.079   5.801  77.389  1.00  0.00     0.120 A 
ATOM     16  H5  UNL     1      11.255   4.491  78.371  1.00  0.00     0.183 HD
BRANCH  12  17
HETATM   17  N4  UNL     1      10.516   4.727  80.872  1.00  0.00    -0.215 N 
HETATM   18  C21 UNL     1       9.819   3.712  81.614  1.00  0.00     0.144 C 
HETATM   19  C22 UNL     1      10.952   2.723  81.916  1.00  0.00     0.054 C 
HETATM   20  C23 UNL     1      12.206   3.564  81.936  1.00  0.00     0.138 C 
HETATM   21  C24 UNL     1      11.780   4.953  81.522  1.00  0.00     0.173 C 
BRANCH  20  22
HETATM   22  O1  UNL     1      12.733   3.584  83.222  1.00  0.00    -0.394 OA
ATOM     23  H1  UNL     1      13.657   3.801  83.184  1.00  0.00     0.210 HD
ENDBRANCH  20  22
ENDBRANCH  12  17
ENDBRANCH   8   9
ENDBRANCH   7   8
BRANCH   4  24
HETATM   24  C4  UNL     1      11.836  11.108  73.881  1.00  0.00     0.084 C 
HETATM   25  C5  UNL     1      11.122  12.036  72.913  1.00  0.00     0.033 C 
BRANCH  24  26
HETATM   26  C6  UNL     1      13.005  11.745  74.535  1.00  0.00     0.022 A 
HETATM   27  C7  UNL     1      14.139  12.315  73.682  1.00  0.00     0.008 A 
HETATM   28  C12 UNL     1      14.382  11.154  74.501  1.00  0.00    -0.037 A 
HETATM   29  C13 UNL     1      14.615   9.837  73.743  1.00  0.00     0.015 C 
HETATM   30  C14 UNL     1      15.090  11.151  75.824  1.00  0.00     0.015 C 
BRANCH  27  31
HETATM   31  C8  UNL     1      14.570  13.710  73.896  1.00  0.00    -0.047 C 
HETATM   32  C9  UNL     1      14.106  14.426  75.097  1.00  0.00     0.015 C 
HETATM   33  C10 UNL     1      14.084  14.530  72.688  1.00  0.00     0.015 C 
HETATM   34  C11 UNL     1      16.097  13.818  73.848  1.00  0.00     0.015 C 
ENDBRANCH  27  31
ENDBRANCH  24  26
ENDBRANCH   4  24
TORSDOF 7
ENDMDL
MODEL 5
REMARK VINA RESULT: -7.271511914      3.243      9.645
REMARK  7 active torsions:
REMARK  status: ('A' for Active; 'I' for Inactive)
REMARK    1  A    between atoms: N1_4  and  C4_5 
REMARK    2  A    between atoms: C4_5  and  C6_7 
REMARK    3  A    between atoms: C7_8  and  C8_9 
REMARK    4  A    between atoms: N2_18  and  C17_19 
REMARK    5  A    between atoms: C17_19  and  C18_20 
REMARK    6  A    between atoms: C20_24  and  N4_25 
REMARK    7  A    between atoms: C23_28  and  O1_29 
ROOT
HETATM    1  C1  UNL     1      14.975  11.441  75.699  1.00  0.00     0.034 C 
HETATM    2  C2  UNL     1      14.097  11.801  74.532  1.00  0.00     0.098 C 
HETATM    3  C3  UNL     1      14.326  10.754  73.448  1.00  0.00     0.147 C 
HETATM    4  N1  UNL     1      13.737  11.165  72.234  1.00  0.00    -0.385 N 
HETATM    5  C15 UNL     1      12.713  12.122  72.345  1.00  0.00     0.078 C 
HETATM    6  C16 UNL     1      11.899  12.029  73.620  1.00  0.00     0.167 C 
HETATM    7  N2  UNL     1      12.743  11.916  74.785  1.00  0.00    -0.379 N 
ENDROOT
BRANCH   7   8
HETATM    8  C17 UNL     1      12.151  11.948  76.029  1.00  0.00     0.100 C 
BRANCH   8   9
HETATM    9  C18 UNL     1      11.436  10.707  76.401  1.00  0.00     0.011 A 
HETATM   10  C19 UNL     1      10.109  10.489  76.061  1.00  0.00     0.120 A 
HETATM   11  N3  UNL     1       9.508   9.349  76.395  1.00  0.00    -0.201 N 
HETATM   12  C20 UNL     1      10.139   8.351  77.071  1.00  0.00     0.679 A 
ATOM     13  H3  UNL     1       8.531   9.219  76.133  1.00  0.00     0.183 HD
HETATM   14  N5  UNL     1      11.414   8.588  77.383  1.00  0.00    -0.201 N 
HETATM   15  C25 UNL     1      12.083   9.700  77.086  1.00  0.00     0.120 A 
ATOM     16  H5  UNL     1      11.917   7.859  77.890  1.00  0.00     0.183 HD
BRANCH  12  17
HETATM   17  N4  UNL     1       9.441   7.170  77.392  1.00  0.00    -0.215 N 
HETATM   18  C21 UNL     1      10.009   5.957  77.914  1.00  0.00     0.144 C 
HETATM   19  C22 UNL     1       8.971   5.564  78.972  1.00  0.00     0.054 C 
HETATM   20  C23 UNL     1       7.672   6.154  78.479  1.00  0.00     0.138 C 
HETATM   21  C24 UNL     1       8.023   6.962  77.252  1.00  0.00     0.173 C 
BRANCH  20  22
HETATM   22  O1  UNL     1       6.791   5.131  78.147  1.00  0.00    -0.394 OA
ATOM     23  H1  UNL     1       7.089   4.699  77.355  1.00  0.00     0.210 HD
ENDBRANCH  20  22
ENDBRANCH  12  17
ENDBRANCH   8   9
ENDBRANCH   7   8
BRANCH   4  24
HETATM   24  C4  UNL     1      14.608  11.411  71.143  1.00  0.00     0.084 C 
HETATM   25  C5  UNL     1      14.613  12.864  70.703  1.00  0.00     0.033 C 
BRANCH  24  26
HETATM   26  C6  UNL     1      15.969  10.880  71.399  1.00  0.00     0.022 A 
HETATM   27  C7  UNL     1      17.033  10.946  70.302  1.00  0.00     0.008 A 
HETATM   28  C12 UNL     1      16.515   9.665  70.713  1.00  0.00    -0.037 A 
HETATM   29  C13 UNL     1      15.644   8.931  69.680  1.00  0.00     0.015 C 
HETATM   30  C14 UNL     1      17.208   8.694  71.624  1.00  0.00     0.015 C 
BRANCH  27  31
HETATM   31  C8  UNL     1      18.340  11.559  70.602  1.00  0.00    -0.047 C 
HETATM   32  C9  UNL     1      18.631  11.986  71.981  1.00  0.00     0.015 C 
HETATM   33  C10 UNL     1      18.470  12.814  69.722  1.00  0.00     0.015 C 
HETATM   34  C11 UNL     1      19.483  10.647  70.144  1.00  0.00     0.015 C 
ENDBRANCH  27  31
ENDBRANCH  24  26
ENDBRANCH   4  24
TORSDOF 7
ENDMDL
