MODEL 1
REMARK VINA RESULT: -7.427030079      0.000      0.000
REMARK  12 active torsions:
REMARK  status: ('A' for Active; 'I' for Inactive)
REMARK    1  A    between atoms: S1_2  and  S2_3 
REMARK    2  A    between atoms: S2_3  and  C2_4 
REMARK    3  A    between atoms: C2_4  and  C3_5 
REMARK    4  A    between atoms: C3_5  and  C4_6 
REMARK    5  A    between atoms: C3_5  and  N5_38 
REMARK       I    between atoms: C4_6  and  N1_8 
REMARK    6  A    between atoms: N1_8  and  C5_10 
REMARK    7  A    between atoms: C5_10  and  C6_11 
REMARK    8  A    between atoms: C6_11  and  C7_12 
REMARK    9  A    between atoms: C7_12  and  N2_13 
REMARK   10  A    between atoms: N2_13  and  C10_16 
REMARK   11  A    between atoms: C22_34  and  C23_35 
REMARK   12  A    between atoms: C23_35  and  O3_36 
ROOT
HETATM    1  C10 UNL     1     120.507  56.196  17.233  1.00  0.00     0.203 C 
HETATM    2  C11 UNL     1     120.306  57.709  16.971  1.00  0.00     0.043 C 
HETATM    3  C12 UNL     1     120.597  58.454  18.255  1.00  0.00     0.042 C 
HETATM    4  C13 UNL     1     119.701  59.615  18.514  1.00  0.00     0.015 C 
HETATM    5  C14 UNL     1     119.779  60.766  17.599  1.00  0.00     0.027 C 
HETATM    6  C15 UNL     1     118.266  59.060  18.380  1.00  0.00     0.027 C 
HETATM    7  S3  UNL     1     119.866  60.023  20.282  1.00  0.00    -0.085 SA
HETATM    8  C16 UNL     1     121.435  59.240  20.771  1.00  0.00     0.137 C 
HETATM    9  N3  UNL     1     121.676  58.920  21.989  1.00  0.00    -0.380 N 
ATOM     10  H31 UNL     1     122.555  58.481  22.263  1.00  0.00     0.158 HD
ATOM     11  H32 UNL     1     120.962  59.114  22.691  1.00  0.00     0.158 HD
HETATM   12  N4  UNL     1     122.427  58.972  19.795  1.00  0.00    -0.345 N 
HETATM   13  C17 UNL     1     123.866  59.007  19.775  1.00  0.00     0.126 C 
HETATM   14  C18 UNL     1     124.138  59.650  18.425  1.00  0.00     0.023 C 
HETATM   15  C19 UNL     1     122.800  59.614  17.668  1.00  0.00     0.041 C 
HETATM   16  C20 UNL     1     122.043  58.578  18.441  1.00  0.00     0.100 C 
HETATM   17  C21 UNL     1     122.628  57.260  18.036  1.00  0.00     0.163 C 
HETATM   18  O2  UNL     1     123.794  57.123  17.703  1.00  0.00    -0.295 OA
HETATM   19  C22 UNL     1     121.696  56.064  18.052  1.00  0.00     0.113 C 
ENDROOT
BRANCH   1  20
HETATM   20  N2  UNL     1     120.352  55.509  15.990  1.00  0.00    -0.070 N 
HETATM   21  C8  UNL     1     121.429  55.881  15.084  1.00  0.00     0.272 C 
HETATM   22  C9  UNL     1     119.060  55.545  15.406  1.00  0.00     0.272 C 
BRANCH  20  23
HETATM   23  C7  UNL     1     120.635  54.091  16.305  1.00  0.00     0.238 C 
BRANCH  23  24
HETATM   24  C6  UNL     1     119.643  53.164  15.622  1.00  0.00     0.048 C 
BRANCH  24  25
HETATM   25  C5  UNL     1     120.331  52.336  14.561  1.00  0.00     0.124 C 
BRANCH  25  26
HETATM   26  N1  UNL     1     121.743  52.416  14.695  1.00  0.00    -0.359 N 
HETATM   27  C4  UNL     1     122.660  52.141  13.662  1.00  0.00     0.240 C 
HETATM   28  O1  UNL     1     122.333  51.786  12.504  1.00  0.00    -0.271 OA
ATOM     29  H1  UNL     1     122.119  52.692  15.602  1.00  0.00     0.162 HD
BRANCH  27  30
HETATM   30  C3  UNL     1     124.148  52.264  13.908  1.00  0.00     0.181 C 
BRANCH  30  31
HETATM   31  C2  UNL     1     124.562  51.084  14.700  1.00  0.00     0.120 C 
BRANCH  31  32
HETATM   32  S2  UNL     1     125.117  49.665  13.768  1.00  0.00    -0.096 SA
BRANCH  32  33
HETATM   33  S1  UNL     1     123.807  48.027  14.131  1.00  0.00    -0.102 SA
HETATM   34  C1  UNL     1     122.127  48.395  13.551  1.00  0.00     0.102 C 
ENDBRANCH  32  33
ENDBRANCH  31  32
ENDBRANCH  30  31
BRANCH  30  35
HETATM   35  N5  UNL     1     124.482  53.497  14.523  1.00  0.00    -0.408 N 
HETATM   36  C24 UNL     1     124.996  54.516  13.667  1.00  0.00     0.143 C 
HETATM   37  C25 UNL     1     125.212  53.393  15.758  1.00  0.00     0.143 C 
ENDBRANCH  30  35
ENDBRANCH  27  30
ENDBRANCH  25  26
ENDBRANCH  24  25
ENDBRANCH  23  24
ENDBRANCH  20  23
ENDBRANCH   1  20
BRANCH  19  38
HETATM   38  C23 UNL     1     122.559  54.860  17.993  1.00  0.00     0.178 C 
BRANCH  38  39
HETATM   39  O3  UNL     1     123.274  54.840  19.236  1.00  0.00    -0.400 OA
ATOM     40  H3  UNL     1     124.172  54.629  19.010  1.00  0.00     0.209 HD
ENDBRANCH  38  39
ENDBRANCH  19  38
TORSDOF 12
ENDMDL
MODEL 2
REMARK VINA RESULT: -7.407429144      2.187      3.832
REMARK  12 active torsions:
REMARK  status: ('A' for Active; 'I' for Inactive)
REMARK    1  A    between atoms: S1_2  and  S2_3 
REMARK    2  A    between atoms: S2_3  and  C2_4 
REMARK    3  A    between atoms: C2_4  and  C3_5 
REMARK    4  A    between atoms: C3_5  and  C4_6 
REMARK    5  A    between atoms: C3_5  and  N5_38 
REMARK       I    between atoms: C4_6  and  N1_8 
REMARK    6  A    between atoms: N1_8  and  C5_10 
REMARK    7  A    between atoms: C5_10  and  C6_11 
REMARK    8  A    between atoms: C6_11  and  C7_12 
REMARK    9  A    between atoms: C7_12  and  N2_13 
REMARK   10  A    between atoms: N2_13  and  C10_16 
REMARK   11  A    between atoms: C22_34  and  C23_35 
REMARK   12  A    between atoms: C23_35  and  O3_36 
ROOT
HETATM    1  C10 UNL     1     123.618  57.566  18.296  1.00  0.00     0.203 C 
HETATM    2  C11 UNL     1     122.376  58.418  17.937  1.00  0.00     0.043 C 
HETATM    3  C12 UNL     1     121.753  58.913  19.222  1.00  0.00     0.042 C 
HETATM    4  C13 UNL     1     120.263  58.935  19.220  1.00  0.00     0.015 C 
HETATM    5  C14 UNL     1     119.588  59.870  18.305  1.00  0.00     0.027 C 
HETATM    6  C15 UNL     1     119.835  57.519  18.777  1.00  0.00     0.027 C 
HETATM    7  S3  UNL     1     119.736  59.044  20.961  1.00  0.00    -0.085 SA
HETATM    8  C16 UNL     1     121.214  59.654  21.832  1.00  0.00     0.137 C 
HETATM    9  N3  UNL     1     121.391  59.442  23.085  1.00  0.00    -0.380 N 
ATOM     10  H31 UNL     1     122.219  59.784  23.572  1.00  0.00     0.158 HD
ATOM     11  H32 UNL     1     120.680  58.917  23.593  1.00  0.00     0.158 HD
HETATM   12  N4  UNL     1     122.202  60.384  21.126  1.00  0.00    -0.345 N 
HETATM   13  C17 UNL     1     123.060  61.496  21.441  1.00  0.00     0.126 C 
HETATM   14  C18 UNL     1     122.972  62.321  20.168  1.00  0.00     0.023 C 
HETATM   15  C19 UNL     1     122.313  61.406  19.121  1.00  0.00     0.041 C 
HETATM   16  C20 UNL     1     122.510  60.054  19.736  1.00  0.00     0.100 C 
HETATM   17  C21 UNL     1     123.956  59.719  19.530  1.00  0.00     0.163 C 
HETATM   18  O2  UNL     1     124.835  60.564  19.483  1.00  0.00    -0.295 OA
HETATM   19  C22 UNL     1     124.302  58.251  19.374  1.00  0.00     0.113 C 
ENDROOT
BRANCH   1  20
HETATM   20  N2  UNL     1     124.273  57.204  17.079  1.00  0.00    -0.070 N 
HETATM   21  C8  UNL     1     124.493  55.767  17.048  1.00  0.00     0.272 C 
HETATM   22  C9  UNL     1     125.407  57.977  16.719  1.00  0.00     0.272 C 
BRANCH  20  23
HETATM   23  C7  UNL     1     123.259  57.424  16.024  1.00  0.00     0.238 C 
BRANCH  23  24
HETATM   24  C6  UNL     1     123.062  56.177  15.177  1.00  0.00     0.048 C 
BRANCH  24  25
HETATM   25  C5  UNL     1     121.611  56.028  14.780  1.00  0.00     0.124 C 
BRANCH  25  26
HETATM   26  N1  UNL     1     121.378  54.761  14.181  1.00  0.00    -0.359 N 
HETATM   27  C4  UNL     1     121.180  53.564  14.898  1.00  0.00     0.240 C 
HETATM   28  O1  UNL     1     121.192  53.481  16.149  1.00  0.00    -0.271 OA
ATOM     29  H1  UNL     1     121.354  54.715  13.163  1.00  0.00     0.162 HD
BRANCH  27  30
HETATM   30  C3  UNL     1     120.932  52.265  14.161  1.00  0.00     0.181 C 
BRANCH  30  31
HETATM   31  C2  UNL     1     122.016  52.111  13.166  1.00  0.00     0.120 C 
BRANCH  31  32
HETATM   32  S2  UNL     1     123.483  51.258  13.725  1.00  0.00    -0.096 SA
BRANCH  32  33
HETATM   33  S1  UNL     1     124.734  52.624  14.774  1.00  0.00    -0.102 SA
HETATM   34  C1  UNL     1     125.335  53.935  13.671  1.00  0.00     0.102 C 
ENDBRANCH  32  33
ENDBRANCH  31  32
ENDBRANCH  30  31
BRANCH  30  35
HETATM   35  N5  UNL     1     119.635  52.221  13.589  1.00  0.00    -0.408 N 
HETATM   36  C24 UNL     1     118.540  52.416  14.482  1.00  0.00     0.143 C 
HETATM   37  C25 UNL     1     119.407  51.147  12.660  1.00  0.00     0.143 C 
ENDBRANCH  30  35
ENDBRANCH  27  30
ENDBRANCH  25  26
ENDBRANCH  24  25
ENDBRANCH  23  24
ENDBRANCH  20  23
ENDBRANCH   1  20
BRANCH  19  38
HETATM   38  C23 UNL     1     125.769  58.145  19.565  1.00  0.00     0.178 C 
BRANCH  38  39
HETATM   39  O3  UNL     1     126.012  58.572  20.912  1.00  0.00    -0.400 OA
ATOM     40  H3  UNL     1     126.457  59.409  20.838  1.00  0.00     0.209 HD
ENDBRANCH  38  39
ENDBRANCH  19  38
TORSDOF 12
ENDMDL
MODEL 3
REMARK VINA RESULT: -7.404622002      2.518      3.847
REMARK  12 active torsions:
REMARK  status: ('A' for Active; 'I' for Inactive)
REMARK    1  A    between atoms: S1_2  and  S2_3 
REMARK    2  A    between atoms: S2_3  and  C2_4 
REMARK    3  A    between atoms: C2_4  and  C3_5 
REMARK    4  A    between atoms: C3_5  and  C4_6 
REMARK    5  A    between atoms: C3_5  and  N5_38 
REMARK       I    between atoms: C4_6  and  N1_8 
REMARK    6  A    between atoms: N1_8  and  C5_10 
REMARK    7  A    between atoms: C5_10  and  C6_11 
REMARK    8  A    between atoms: C6_11  and  C7_12 
REMARK    9  A    between atoms: C7_12  and  N2_13 
REMARK   10  A    between atoms: N2_13  and  C10_16 
REMARK   11  A    between atoms: C22_34  and  C23_35 
REMARK   12  A    between atoms: C23_35  and  O3_36 
ROOT
HETATM    1  C10 UNL     1     123.616  57.609  18.272  1.00  0.00     0.203 C 
HETATM    2  C11 UNL     1     122.361  58.446  17.927  1.00  0.00     0.043 C 
HETATM    3  C12 UNL     1     121.747  58.934  19.220  1.00  0.00     0.042 C 
HETATM    4  C13 UNL     1     120.257  58.939  19.235  1.00  0.00     0.015 C 
HETATM    5  C14 UNL     1     119.561  59.866  18.327  1.00  0.00     0.027 C 
HETATM    6  C15 UNL     1     119.840  57.518  18.796  1.00  0.00     0.027 C 
HETATM    7  S3  UNL     1     119.748  59.042  20.981  1.00  0.00    -0.085 SA
HETATM    8  C16 UNL     1     121.229  59.669  21.836  1.00  0.00     0.137 C 
HETATM    9  N3  UNL     1     121.423  59.459  23.086  1.00  0.00    -0.380 N 
ATOM     10  H31 UNL     1     122.252  59.810  23.565  1.00  0.00     0.158 HD
ATOM     11  H32 UNL     1     120.723  58.926  23.602  1.00  0.00     0.158 HD
HETATM   12  N4  UNL     1     122.200  60.410  21.118  1.00  0.00    -0.345 N 
HETATM   13  C17 UNL     1     123.049  61.532  21.424  1.00  0.00     0.126 C 
HETATM   14  C18 UNL     1     122.937  62.356  20.152  1.00  0.00     0.023 C 
HETATM   15  C19 UNL     1     122.278  61.433  19.113  1.00  0.00     0.041 C 
HETATM   16  C20 UNL     1     122.496  60.084  19.725  1.00  0.00     0.100 C 
HETATM   17  C21 UNL     1     123.944  59.766  19.503  1.00  0.00     0.163 C 
HETATM   18  O2  UNL     1     124.812  60.621  19.446  1.00  0.00    -0.295 OA
HETATM   19  C22 UNL     1     124.305  58.301  19.343  1.00  0.00     0.113 C 
ENDROOT
BRANCH   1  20
HETATM   20  N2  UNL     1     124.262  57.255  17.048  1.00  0.00    -0.070 N 
HETATM   21  C8  UNL     1     125.563  57.903  16.973  1.00  0.00     0.272 C 
HETATM   22  C9  UNL     1     123.484  57.370  15.868  1.00  0.00     0.272 C 
BRANCH  20  23
HETATM   23  C7  UNL     1     124.595  55.821  17.197  1.00  0.00     0.238 C 
BRANCH  23  24
HETATM   24  C6  UNL     1     125.763  55.428  16.307  1.00  0.00     0.048 C 
BRANCH  24  25
HETATM   25  C5  UNL     1     125.505  54.091  15.650  1.00  0.00     0.124 C 
BRANCH  25  26
HETATM   26  N1  UNL     1     124.117  53.792  15.642  1.00  0.00    -0.359 N 
HETATM   27  C4  UNL     1     123.439  53.174  14.572  1.00  0.00     0.240 C 
HETATM   28  O1  UNL     1     123.986  52.824  13.499  1.00  0.00    -0.271 OA
ATOM     29  H1  UNL     1     123.572  54.041  16.468  1.00  0.00     0.162 HD
BRANCH  27  30
HETATM   30  C3  UNL     1     121.955  52.892  14.669  1.00  0.00     0.181 C 
BRANCH  30  31
HETATM   31  C2  UNL     1     121.451  52.719  13.288  1.00  0.00     0.120 C 
BRANCH  31  32
HETATM   32  S2  UNL     1     120.166  51.499  13.066  1.00  0.00    -0.096 SA
BRANCH  32  33
HETATM   33  S1  UNL     1     118.264  52.428  13.291  1.00  0.00    -0.102 SA
HETATM   34  C1  UNL     1     116.922  51.257  12.944  1.00  0.00     0.102 C 
ENDBRANCH  32  33
ENDBRANCH  31  32
ENDBRANCH  30  31
BRANCH  30  35
HETATM   35  N5  UNL     1     121.271  53.900  15.394  1.00  0.00    -0.408 N 
HETATM   36  C24 UNL     1     120.313  53.454  16.352  1.00  0.00     0.143 C 
HETATM   37  C25 UNL     1     120.795  55.008  14.611  1.00  0.00     0.143 C 
ENDBRANCH  30  35
ENDBRANCH  27  30
ENDBRANCH  25  26
ENDBRANCH  24  25
ENDBRANCH  23  24
ENDBRANCH  20  23
ENDBRANCH   1  20
BRANCH  19  38
HETATM   38  C23 UNL     1     125.775  58.213  19.517  1.00  0.00     0.178 C 
BRANCH  38  39
HETATM   39  O3  UNL     1     126.022  58.579  20.881  1.00  0.00    -0.400 OA
ATOM     40  H3  UNL     1     126.251  59.501  20.860  1.00  0.00     0.209 HD
ENDBRANCH  38  39
ENDBRANCH  19  38
TORSDOF 12
ENDMDL
MODEL 4
REMARK VINA RESULT: -7.385606314      2.336      4.172
REMARK  12 active torsions:
REMARK  status: ('A' for Active; 'I' for Inactive)
REMARK    1  A    between atoms: S1_2  and  S2_3 
REMARK    2  A    between atoms: S2_3  and  C2_4 
REMARK    3  A    between atoms: C2_4  and  C3_5 
REMARK    4  A    between atoms: C3_5  and  C4_6 
REMARK    5  A    between atoms: C3_5  and  N5_38 
REMARK       I    between atoms: C4_6  and  N1_8 
REMARK    6  A    between atoms: N1_8  and  C5_10 
REMARK    7  A    between atoms: C5_10  and  C6_11 
REMARK    8  A    between atoms: C6_11  and  C7_12 
REMARK    9  A    between atoms: C7_12  and  N2_13 
REMARK   10  A    between atoms: N2_13  and  C10_16 
REMARK   11  A    between atoms: C22_34  and  C23_35 
REMARK   12  A    between atoms: C23_35  and  O3_36 
ROOT
HETATM    1  C10 UNL     1     123.426  57.793  17.226  1.00  0.00     0.203 C 
HETATM    2  C11 UNL     1     124.192  57.887  18.568  1.00  0.00     0.043 C 
HETATM    3  C12 UNL     1     124.225  59.337  18.995  1.00  0.00     0.042 C 
HETATM    4  C13 UNL     1     125.503  59.768  19.629  1.00  0.00     0.015 C 
HETATM    5  C14 UNL     1     125.863  59.175  20.927  1.00  0.00     0.027 C 
HETATM    6  C15 UNL     1     126.612  59.340  18.642  1.00  0.00     0.027 C 
HETATM    7  S3  UNL     1     125.528  61.589  19.579  1.00  0.00    -0.085 SA
HETATM    8  C16 UNL     1     123.784  62.047  19.329  1.00  0.00     0.137 C 
HETATM    9  N3  UNL     1     123.452  63.171  18.806  1.00  0.00    -0.380 N 
ATOM     10  H31 UNL     1     122.475  63.427  18.666  1.00  0.00     0.158 HD
ATOM     11  H32 UNL     1     124.194  63.813  18.527  1.00  0.00     0.158 HD
HETATM   12  N4  UNL     1     122.754  61.154  19.717  1.00  0.00    -0.345 N 
HETATM   13  C17 UNL     1     121.439  61.307  20.284  1.00  0.00     0.126 C 
HETATM   14  C18 UNL     1     121.421  60.194  21.318  1.00  0.00     0.023 C 
HETATM   15  C19 UNL     1     122.634  59.304  20.997  1.00  0.00     0.041 C 
HETATM   16  C20 UNL     1     122.941  59.711  19.588  1.00  0.00     0.100 C 
HETATM   17  C21 UNL     1     121.888  59.067  18.739  1.00  0.00     0.163 C 
HETATM   18  O2  UNL     1     120.757  58.845  19.136  1.00  0.00    -0.295 OA
HETATM   19  C22 UNL     1     122.288  58.685  17.326  1.00  0.00     0.113 C 
ENDROOT
BRANCH   1  20
HETATM   20  N2  UNL     1     123.291  56.411  16.890  1.00  0.00    -0.070 N 
HETATM   21  C8  UNL     1     123.348  56.249  15.445  1.00  0.00     0.272 C 
HETATM   22  C9  UNL     1     122.226  55.712  17.514  1.00  0.00     0.272 C 
BRANCH  20  23
HETATM   23  C7  UNL     1     124.544  55.783  17.362  1.00  0.00     0.238 C 
BRANCH  23  24
HETATM   24  C6  UNL     1     125.567  55.678  16.242  1.00  0.00     0.048 C 
BRANCH  24  25
HETATM   25  C5  UNL     1     126.190  54.301  16.218  1.00  0.00     0.124 C 
BRANCH  25  26
HETATM   26  N1  UNL     1     125.223  53.315  15.888  1.00  0.00    -0.359 N 
HETATM   27  C4  UNL     1     124.788  53.029  14.579  1.00  0.00     0.240 C 
HETATM   28  O1  UNL     1     125.203  53.619  13.553  1.00  0.00    -0.271 OA
ATOM     29  H1  UNL     1     124.814  52.777  16.652  1.00  0.00     0.162 HD
BRANCH  27  30
HETATM   30  C3  UNL     1     123.756  51.949  14.335  1.00  0.00     0.181 C 
BRANCH  30  31
HETATM   31  C2  UNL     1     124.360  50.963  13.411  1.00  0.00     0.120 C 
BRANCH  31  32
HETATM   32  S2  UNL     1     124.732  49.360  14.104  1.00  0.00    -0.096 SA
BRANCH  32  33
HETATM   33  S1  UNL     1     123.067  48.065  13.816  1.00  0.00    -0.102 SA
HETATM   34  C1  UNL     1     122.881  46.922  15.214  1.00  0.00     0.102 C 
ENDBRANCH  32  33
ENDBRANCH  31  32
ENDBRANCH  30  31
BRANCH  30  35
HETATM   35  N5  UNL     1     122.532  52.486  13.860  1.00  0.00    -0.408 N 
HETATM   36  C24 UNL     1     121.648  53.018  14.845  1.00  0.00     0.143 C 
HETATM   37  C25 UNL     1     121.849  51.689  12.877  1.00  0.00     0.143 C 
ENDBRANCH  30  35
ENDBRANCH  27  30
ENDBRANCH  25  26
ENDBRANCH  24  25
ENDBRANCH  23  24
ENDBRANCH  20  23
ENDBRANCH   1  20
BRANCH  19  38
HETATM   38  C23 UNL     1     121.027  58.434  16.588  1.00  0.00     0.178 C 
BRANCH  38  39
HETATM   39  O3  UNL     1     120.537  59.729  16.215  1.00  0.00    -0.400 OA
ATOM     40  H3  UNL     1     120.715  59.810  15.285  1.00  0.00     0.209 HD
ENDBRANCH  38  39
ENDBRANCH  19  38
TORSDOF 12
ENDMDL
MODEL 5
REMARK VINA RESULT: -7.346825330      3.397      8.745
REMARK  12 active torsions:
REMARK  status: ('A' for Active; 'I' for Inactive)
REMARK    1  A    between atoms: S1_2  and  S2_3 
REMARK    2  A    between atoms: S2_3  and  C2_4 
REMARK    3  A    between atoms: C2_4  and  C3_5 
REMARK    4  A    between atoms: C3_5  and  C4_6 
REMARK    5  A    between atoms: C3_5  and  N5_38 
REMARK       I    between atoms: C4_6  and  N1_8 
REMARK    6  A    between atoms: N1_8  and  C5_10 
REMARK    7  A    between atoms: C5_10  and  C6_11 
REMARK    8  A    between atoms: C6_11  and  C7_12 
REMARK    9  A    between atoms: C7_12  and  N2_13 
REMARK   10  A    between atoms: N2_13  and  C10_16 
REMARK   11  A    between atoms: C22_34  and  C23_35 
REMARK   12  A    between atoms: C23_35  and  O3_36 
ROOT
HETATM    1  C10 UNL     1     120.790  58.397  18.060  1.00  0.00     0.203 C 
HETATM    2  C11 UNL     1     120.413  56.898  17.968  1.00  0.00     0.043 C 
HETATM    3  C12 UNL     1     121.125  56.303  16.773  1.00  0.00     0.042 C 
HETATM    4  C13 UNL     1     120.325  55.305  16.010  1.00  0.00     0.015 C 
HETATM    5  C14 UNL     1     119.980  54.040  16.680  1.00  0.00     0.027 C 
HETATM    6  C15 UNL     1     118.984  56.005  15.702  1.00  0.00     0.027 C 
HETATM    7  S3  UNL     1     121.125  55.122  14.383  1.00  0.00    -0.085 SA
HETATM    8  C16 UNL     1     122.807  55.770  14.643  1.00  0.00     0.137 C 
HETATM    9  N3  UNL     1     123.512  56.221  13.671  1.00  0.00    -0.380 N 
ATOM     10  H31 UNL     1     124.454  56.583  13.817  1.00  0.00     0.158 HD
ATOM     11  H32 UNL     1     123.108  56.211  12.734  1.00  0.00     0.158 HD
HETATM   12  N4  UNL     1     123.368  55.783  15.945  1.00  0.00    -0.345 N 
HETATM   13  C17 UNL     1     124.686  55.573  16.483  1.00  0.00     0.126 C 
HETATM   14  C18 UNL     1     124.385  54.726  17.708  1.00  0.00     0.023 C 
HETATM   15  C19 UNL     1     122.864  54.819  17.918  1.00  0.00     0.041 C 
HETATM   16  C20 UNL     1     122.522  56.033  17.110  1.00  0.00     0.100 C 
HETATM   17  C21 UNL     1     122.988  57.205  17.920  1.00  0.00     0.163 C 
HETATM   18  O2  UNL     1     123.946  57.154  18.674  1.00  0.00    -0.295 OA
HETATM   19  C22 UNL     1     122.206  58.495  17.768  1.00  0.00     0.113 C 
ENDROOT
BRANCH   1  20
HETATM   20  N2  UNL     1     120.216  58.924  19.258  1.00  0.00    -0.070 N 
HETATM   21  C8  UNL     1     119.314  57.943  19.843  1.00  0.00     0.272 C 
HETATM   22  C9  UNL     1     119.679  60.234  19.176  1.00  0.00     0.272 C 
BRANCH  20  23
HETATM   23  C7  UNL     1     121.338  58.985  20.220  1.00  0.00     0.238 C 
BRANCH  23  24
HETATM   24  C6  UNL     1     120.906  59.613  21.535  1.00  0.00     0.048 C 
BRANCH  24  25
HETATM   25  C5  UNL     1     121.578  60.953  21.730  1.00  0.00     0.124 C 
BRANCH  25  26
HETATM   26  N1  UNL     1     122.988  60.803  21.813  1.00  0.00    -0.359 N 
HETATM   27  C4  UNL     1     123.919  61.606  21.125  1.00  0.00     0.240 C 
HETATM   28  O1  UNL     1     123.606  62.543  20.352  1.00  0.00    -0.271 OA
ATOM     29  H1  UNL     1     123.352  60.062  22.413  1.00  0.00     0.162 HD
BRANCH  27  30
HETATM   30  C3  UNL     1     125.404  61.367  21.290  1.00  0.00     0.181 C 
BRANCH  30  31
HETATM   31  C2  UNL     1     126.041  62.687  21.502  1.00  0.00     0.120 C 
BRANCH  31  32
HETATM   32  S2  UNL     1     126.348  63.148  23.200  1.00  0.00    -0.096 SA
BRANCH  32  33
HETATM   33  S1  UNL     1     124.557  63.917  24.055  1.00  0.00    -0.102 SA
HETATM   34  C1  UNL     1     123.601  62.600  24.859  1.00  0.00     0.102 C 
ENDBRANCH  32  33
ENDBRANCH  31  32
ENDBRANCH  30  31
BRANCH  30  35
HETATM   35  N5  UNL     1     125.949  60.652  20.193  1.00  0.00    -0.408 N 
HETATM   36  C24 UNL     1     126.245  59.274  20.418  1.00  0.00     0.143 C 
HETATM   37  C25 UNL     1     126.991  61.330  19.471  1.00  0.00     0.143 C 
ENDBRANCH  30  35
ENDBRANCH  27  30
ENDBRANCH  25  26
ENDBRANCH  24  25
ENDBRANCH  23  24
ENDBRANCH  20  23
ENDBRANCH   1  20
BRANCH  19  38
HETATM   38  C23 UNL     1     123.054  59.568  18.343  1.00  0.00     0.178 C 
BRANCH  38  39
HETATM   39  O3  UNL     1     124.243  59.587  17.542  1.00  0.00    -0.400 OA
ATOM     40  H3  UNL     1     124.070  58.999  16.816  1.00  0.00     0.209 HD
ENDBRANCH  38  39
ENDBRANCH  19  38
TORSDOF 12
ENDMDL
