MODEL 1
REMARK VINA RESULT: -8.332938703      0.000      0.000
REMARK  14 active torsions:
REMARK  status: ('A' for Active; 'I' for Inactive)
REMARK    1  A    between atoms: C2_2  and  C3_3 
REMARK    2  A    between atoms: C3_3  and  N1_4 
REMARK    3  A    between atoms: N1_4  and  C4_6 
REMARK    4  A    between atoms: C5_9  and  C6_10 
REMARK    5  A    between atoms: C6_10  and  O1_11 
REMARK    6  A    between atoms: C8_13  and  C9_14 
REMARK    7  A    between atoms: C9_14  and  N3_15 
REMARK    8  A    between atoms: N3_15  and  C10_16 
REMARK    9  A    between atoms: N3_15  and  C12_22 
REMARK   10  A    between atoms: C10_16  and  C11_17 
REMARK   11  A    between atoms: C11_17  and  N4_18 
REMARK   12  A    between atoms: C19_29  and  N5_30 
REMARK   13  A    between atoms: C22_33  and  N6_34 
REMARK       I    between atoms: N6_34  and  C23_36 
REMARK       I    between atoms: C23_36  and  N7_38 
REMARK   14  A    between atoms: N7_38  and  C24_39 
REMARK       I    between atoms: N7_38  and  C26_41 
ROOT
HETATM    1  C4  UNL     1     123.247  52.693  14.703  1.00  0.00     0.683 A 
HETATM    2  N2  UNL     1     122.032  52.377  15.086  1.00  0.00    -0.192 N 
ATOM      3  H2  UNL     1     121.677  51.462  14.806  1.00  0.00     0.184 HD
HETATM    4  C5  UNL     1     121.222  53.152  15.812  1.00  0.00     0.065 A 
HETATM    5  C8  UNL     1     121.683  54.452  16.229  1.00  0.00     0.049 A 
HETATM    6  C19 UNL     1     122.921  54.742  15.828  1.00  0.00     0.132 A 
HETATM    7  N8  UNL     1     123.707  53.900  15.078  1.00  0.00    -0.176 N 
ATOM      8  H8  UNL     1     124.645  54.193  14.805  1.00  0.00     0.186 HD
ENDROOT
BRANCH   6   9
HETATM    9  N5  UNL     1     123.661  55.890  16.248  1.00  0.00    -0.366 N 
HETATM   10  C20 UNL     1     124.520  55.677  17.429  1.00  0.00     0.126 C 
HETATM   11  C21 UNL     1     124.123  56.667  18.500  1.00  0.00     0.045 C 
HETATM   12  C22 UNL     1     124.437  58.022  17.936  1.00  0.00     0.089 C 
HETATM   13  C27 UNL     1     123.588  58.308  16.746  1.00  0.00     0.045 C 
HETATM   14  C28 UNL     1     123.608  57.203  15.707  1.00  0.00     0.126 C 
BRANCH  12  15
HETATM   15  N6  UNL     1     124.170  59.044  18.944  1.00  0.00    -0.338 N 
HETATM   16  C23 UNL     1     125.179  60.074  19.127  1.00  0.00     0.327 C 
HETATM   17  O2  UNL     1     126.197  59.988  18.467  1.00  0.00    -0.247 OA
HETATM   18  N7  UNL     1     124.945  61.127  20.061  1.00  0.00    -0.244 N 
HETATM   19  C26 UNL     1     125.893  61.985  20.397  1.00  0.00     0.294 C 
HETATM   20  O3  UNL     1     125.662  62.907  21.355  1.00  0.00    -0.629 OA
HETATM   21  O4  UNL     1     127.217  62.150  19.938  1.00  0.00    -0.629 OA
ATOM     22  H6  UNL     1     123.312  59.036  19.496  1.00  0.00     0.164 HD
BRANCH  18  23
HETATM   23  C24 UNL     1     123.635  61.198  20.739  1.00  0.00     0.135 C 
HETATM   24  C25 UNL     1     122.697  62.000  19.869  1.00  0.00     0.027 C 
ENDBRANCH  18  23
ENDBRANCH  12  15
ENDBRANCH   6   9
BRANCH   5  25
HETATM   25  C9  UNL     1     120.851  55.177  17.135  1.00  0.00     0.107 C 
BRANCH  25  26
HETATM   26  N3  UNL     1     119.799  56.022  16.779  1.00  0.00    -0.363 N 
BRANCH  26  27
HETATM   27  C10 UNL     1     119.554  56.412  15.488  1.00  0.00     0.091 C 
BRANCH  27  28
HETATM   28  C11 UNL     1     118.603  55.563  14.657  1.00  0.00     0.274 C 
BRANCH  28  29
HETATM   29  N4  UNL     1     117.561  55.099  15.594  1.00  0.00    -0.075 N 
ATOM     30  H43 UNL     1     117.886  54.387  16.247  1.00  0.00     0.274 HD
ATOM     31  H42 UNL     1     117.301  55.795  16.293  1.00  0.00     0.274 HD
ATOM     32  H41 UNL     1     116.782  54.794  15.010  1.00  0.00     0.274 HD
ENDBRANCH  28  29
ENDBRANCH  27  28
ENDBRANCH  26  27
BRANCH  26  33
HETATM   33  C12 UNL     1     119.705  57.130  17.736  1.00  0.00     0.088 C 
HETATM   34  C13 UNL     1     118.345  57.336  18.297  1.00  0.00     0.026 C 
HETATM   35  C14 UNL     1     118.361  58.202  19.532  1.00  0.00     0.002 C 
HETATM   36  C15 UNL     1     119.631  58.199  20.307  1.00  0.00     0.000 C 
HETATM   37  C16 UNL     1     120.755  58.954  19.641  1.00  0.00     0.000 C 
HETATM   38  C17 UNL     1     120.394  59.464  18.288  1.00  0.00     0.002 C 
HETATM   39  C18 UNL     1     120.276  58.396  17.221  1.00  0.00     0.026 C 
ENDBRANCH  26  33
ENDBRANCH  25  26
ENDBRANCH   5  25
BRANCH   4  40
HETATM   40  C6  UNL     1     119.887  52.738  16.205  1.00  0.00     0.225 C 
BRANCH  40  41
HETATM   41  O1  UNL     1     119.355  51.625  15.597  1.00  0.00    -0.390 OA
HETATM   42  C7  UNL     1     118.612  51.831  14.478  1.00  0.00     0.201 C 
ENDBRANCH  40  41
ENDBRANCH   4  40
BRANCH   1  43
HETATM   43  N1  UNL     1     124.033  51.909  14.055  1.00  0.00    -0.205 N 
ATOM     44  H1  UNL     1     123.928  51.999  13.044  1.00  0.00     0.183 HD
BRANCH  43  45
HETATM   45  C3  UNL     1     124.988  50.973  14.402  1.00  0.00     0.078 C 
BRANCH  45  46
HETATM   46  C2  UNL     1     124.858  49.557  13.957  1.00  0.00     0.040 C 
HETATM   47  C1  UNL     1     126.130  49.003  13.354  1.00  0.00     0.010 C 
ENDBRANCH  45  46
ENDBRANCH  43  45
ENDBRANCH   1  43
TORSDOF 14
ENDMDL
MODEL 2
REMARK VINA RESULT: -8.033549632      2.243      8.177
REMARK  14 active torsions:
REMARK  status: ('A' for Active; 'I' for Inactive)
REMARK    1  A    between atoms: C2_2  and  C3_3 
REMARK    2  A    between atoms: C3_3  and  N1_4 
REMARK    3  A    between atoms: N1_4  and  C4_6 
REMARK    4  A    between atoms: C5_9  and  C6_10 
REMARK    5  A    between atoms: C6_10  and  O1_11 
REMARK    6  A    between atoms: C8_13  and  C9_14 
REMARK    7  A    between atoms: C9_14  and  N3_15 
REMARK    8  A    between atoms: N3_15  and  C10_16 
REMARK    9  A    between atoms: N3_15  and  C12_22 
REMARK   10  A    between atoms: C10_16  and  C11_17 
REMARK   11  A    between atoms: C11_17  and  N4_18 
REMARK   12  A    between atoms: C19_29  and  N5_30 
REMARK   13  A    between atoms: C22_33  and  N6_34 
REMARK       I    between atoms: N6_34  and  C23_36 
REMARK       I    between atoms: C23_36  and  N7_38 
REMARK   14  A    between atoms: N7_38  and  C24_39 
REMARK       I    between atoms: N7_38  and  C26_41 
ROOT
HETATM    1  C4  UNL     1     125.253  55.641  16.530  1.00  0.00     0.683 A 
HETATM    2  N2  UNL     1     125.305  56.892  16.920  1.00  0.00    -0.192 N 
ATOM      3  H2  UNL     1     126.224  57.277  17.136  1.00  0.00     0.184 HD
HETATM    4  C5  UNL     1     124.254  57.705  17.056  1.00  0.00     0.065 A 
HETATM    5  C8  UNL     1     122.935  57.204  16.761  1.00  0.00     0.049 A 
HETATM    6  C19 UNL     1     122.917  55.931  16.364  1.00  0.00     0.132 A 
HETATM    7  N8  UNL     1     124.036  55.143  16.246  1.00  0.00    -0.176 N 
ATOM      8  H8  UNL     1     123.943  54.175  15.939  1.00  0.00     0.186 HD
ENDROOT
BRANCH   6   9
HETATM    9  N5  UNL     1     121.763  55.256  15.860  1.00  0.00    -0.366 N 
HETATM   10  C20 UNL     1     120.972  54.535  16.879  1.00  0.00     0.126 C 
HETATM   11  C21 UNL     1     120.877  53.081  16.476  1.00  0.00     0.045 C 
HETATM   12  C22 UNL     1     120.104  53.065  15.190  1.00  0.00     0.089 C 
HETATM   13  C27 UNL     1     120.858  53.765  14.112  1.00  0.00     0.045 C 
HETATM   14  C28 UNL     1     121.341  55.146  14.509  1.00  0.00     0.126 C 
BRANCH  12  15
HETATM   15  N6  UNL     1     119.882  51.684  14.771  1.00  0.00    -0.338 N 
HETATM   16  C23 UNL     1     118.853  51.452  13.772  1.00  0.00     0.327 C 
HETATM   17  O2  UNL     1     118.213  52.414  13.389  1.00  0.00    -0.247 OA
HETATM   18  N7  UNL     1     118.631  50.129  13.288  1.00  0.00    -0.244 N 
HETATM   19  C26 UNL     1     117.599  49.832  12.517  1.00  0.00     0.294 C 
HETATM   20  O3  UNL     1     117.369  48.551  12.159  1.00  0.00    -0.629 OA
HETATM   21  O4  UNL     1     116.588  50.635  11.949  1.00  0.00    -0.629 OA
ATOM     22  H6  UNL     1     120.426  50.915  15.163  1.00  0.00     0.164 HD
BRANCH  18  23
HETATM   23  C24 UNL     1     119.529  49.047  13.740  1.00  0.00     0.135 C 
HETATM   24  C25 UNL     1     120.723  49.008  12.816  1.00  0.00     0.027 C 
ENDBRANCH  18  23
ENDBRANCH  12  15
ENDBRANCH   6   9
BRANCH   5  25
HETATM   25  C9  UNL     1     121.864  58.148  16.764  1.00  0.00     0.107 C 
BRANCH  25  26
HETATM   26  N3  UNL     1     120.755  58.121  17.610  1.00  0.00    -0.363 N 
BRANCH  26  27
HETATM   27  C10 UNL     1     119.466  58.035  17.154  1.00  0.00     0.091 C 
BRANCH  27  28
HETATM   28  C11 UNL     1     118.524  57.067  17.857  1.00  0.00     0.274 C 
BRANCH  28  29
HETATM   29  N4  UNL     1     117.436  57.899  18.407  1.00  0.00    -0.075 N 
ATOM     30  H43 UNL     1     117.278  57.758  19.404  1.00  0.00     0.274 HD
ATOM     31  H42 UNL     1     117.667  58.891  18.460  1.00  0.00     0.274 HD
ATOM     32  H41 UNL     1     116.619  57.699  17.830  1.00  0.00     0.274 HD
ENDBRANCH  28  29
ENDBRANCH  27  28
ENDBRANCH  26  27
BRANCH  26  33
HETATM   33  C12 UNL     1     120.917  59.117  18.676  1.00  0.00     0.088 C 
HETATM   34  C13 UNL     1     120.660  58.595  20.042  1.00  0.00     0.026 C 
HETATM   35  C14 UNL     1     121.197  59.509  21.114  1.00  0.00     0.002 C 
HETATM   36  C15 UNL     1     122.341  60.372  20.713  1.00  0.00     0.000 C 
HETATM   37  C16 UNL     1     121.957  61.508  19.798  1.00  0.00     0.000 C 
HETATM   38  C17 UNL     1     120.522  61.473  19.395  1.00  0.00     0.002 C 
HETATM   39  C18 UNL     1     120.165  60.368  18.423  1.00  0.00     0.026 C 
ENDBRANCH  26  33
ENDBRANCH  25  26
ENDBRANCH   5  25
BRANCH   4  40
HETATM   40  C6  UNL     1     124.382  59.086  17.489  1.00  0.00     0.225 C 
BRANCH  40  41
HETATM   41  O1  UNL     1     124.799  59.316  18.780  1.00  0.00    -0.390 OA
HETATM   42  C7  UNL     1     126.091  59.699  18.950  1.00  0.00     0.201 C 
ENDBRANCH  40  41
ENDBRANCH   4  40
BRANCH   1  43
HETATM   43  N1  UNL     1     126.283  54.892  16.348  1.00  0.00    -0.205 N 
ATOM     44  H1  UNL     1     127.144  55.327  16.678  1.00  0.00     0.183 HD
BRANCH  43  45
HETATM   45  C3  UNL     1     126.498  53.637  15.811  1.00  0.00     0.078 C 
BRANCH  45  46
HETATM   46  C2  UNL     1     125.754  53.193  14.599  1.00  0.00     0.040 C 
HETATM   47  C1  UNL     1     124.884  51.981  14.846  1.00  0.00     0.010 C 
ENDBRANCH  45  46
ENDBRANCH  43  45
ENDBRANCH   1  43
TORSDOF 14
ENDMDL
MODEL 3
REMARK VINA RESULT: -7.562657334      1.123      1.393
REMARK  14 active torsions:
REMARK  status: ('A' for Active; 'I' for Inactive)
REMARK    1  A    between atoms: C2_2  and  C3_3 
REMARK    2  A    between atoms: C3_3  and  N1_4 
REMARK    3  A    between atoms: N1_4  and  C4_6 
REMARK    4  A    between atoms: C5_9  and  C6_10 
REMARK    5  A    between atoms: C6_10  and  O1_11 
REMARK    6  A    between atoms: C8_13  and  C9_14 
REMARK    7  A    between atoms: C9_14  and  N3_15 
REMARK    8  A    between atoms: N3_15  and  C10_16 
REMARK    9  A    between atoms: N3_15  and  C12_22 
REMARK   10  A    between atoms: C10_16  and  C11_17 
REMARK   11  A    between atoms: C11_17  and  N4_18 
REMARK   12  A    between atoms: C19_29  and  N5_30 
REMARK   13  A    between atoms: C22_33  and  N6_34 
REMARK       I    between atoms: N6_34  and  C23_36 
REMARK       I    between atoms: C23_36  and  N7_38 
REMARK   14  A    between atoms: N7_38  and  C24_39 
REMARK       I    between atoms: N7_38  and  C26_41 
ROOT
HETATM    1  C4  UNL     1     122.895  52.274  14.981  1.00  0.00     0.683 A 
HETATM    2  N2  UNL     1     121.585  52.337  15.025  1.00  0.00    -0.192 N 
ATOM      3  H2  UNL     1     121.066  51.575  14.590  1.00  0.00     0.184 HD
HETATM    4  C5  UNL     1     120.875  53.316  15.591  1.00  0.00     0.065 A 
HETATM    5  C8  UNL     1     121.568  54.414  16.218  1.00  0.00     0.049 A 
HETATM    6  C19 UNL     1     122.897  54.319  16.160  1.00  0.00     0.132 A 
HETATM    7  N8  UNL     1     123.571  53.284  15.559  1.00  0.00    -0.176 N 
ATOM      8  H8  UNL     1     124.591  53.281  15.551  1.00  0.00     0.186 HD
ENDROOT
BRANCH   6   9
HETATM    9  N5  UNL     1     123.802  55.188  16.844  1.00  0.00    -0.366 N 
HETATM   10  C20 UNL     1     123.860  54.995  18.306  1.00  0.00     0.126 C 
HETATM   11  C21 UNL     1     123.522  56.305  18.980  1.00  0.00     0.045 C 
HETATM   12  C22 UNL     1     124.617  57.255  18.592  1.00  0.00     0.089 C 
HETATM   13  C27 UNL     1     124.602  57.507  17.124  1.00  0.00     0.045 C 
HETATM   14  C28 UNL     1     124.581  56.239  16.292  1.00  0.00     0.126 C 
BRANCH  12  15
HETATM   15  N6  UNL     1     124.421  58.531  19.277  1.00  0.00    -0.338 N 
HETATM   16  C23 UNL     1     125.484  59.514  19.161  1.00  0.00     0.327 C 
HETATM   17  O2  UNL     1     126.484  59.193  18.546  1.00  0.00    -0.247 OA
HETATM   18  N7  UNL     1     125.323  60.797  19.766  1.00  0.00    -0.244 N 
HETATM   19  C26 UNL     1     126.319  61.661  19.845  1.00  0.00     0.294 C 
HETATM   20  O3  UNL     1     126.154  62.825  20.510  1.00  0.00    -0.629 OA
HETATM   21  O4  UNL     1     127.641  61.621  19.352  1.00  0.00    -0.629 OA
ATOM     22  H6  UNL     1     123.575  58.723  19.813  1.00  0.00     0.164 HD
BRANCH  18  23
HETATM   23  C24 UNL     1     124.031  61.123  20.403  1.00  0.00     0.135 C 
HETATM   24  C25 UNL     1     123.234  61.975  19.443  1.00  0.00     0.027 C 
ENDBRANCH  18  23
ENDBRANCH  12  15
ENDBRANCH   6   9
BRANCH   5  25
HETATM   25  C9  UNL     1     120.777  55.351  16.948  1.00  0.00     0.107 C 
BRANCH  25  26
HETATM   26  N3  UNL     1     120.415  56.628  16.514  1.00  0.00    -0.363 N 
BRANCH  26  27
HETATM   27  C10 UNL     1     121.099  57.311  15.544  1.00  0.00     0.091 C 
BRANCH  27  28
HETATM   28  C11 UNL     1     121.384  56.592  14.232  1.00  0.00     0.274 C 
BRANCH  28  29
HETATM   29  N4  UNL     1     122.662  57.145  13.744  1.00  0.00    -0.075 N 
ATOM     30  H43 UNL     1     123.421  56.465  13.725  1.00  0.00     0.274 HD
ATOM     31  H42 UNL     1     122.662  57.356  12.746  1.00  0.00     0.274 HD
ATOM     32  H41 UNL     1     122.854  57.956  14.333  1.00  0.00     0.274 HD
ENDBRANCH  28  29
ENDBRANCH  27  28
ENDBRANCH  26  27
BRANCH  26  33
HETATM   33  C12 UNL     1     120.072  57.467  17.668  1.00  0.00     0.088 C 
HETATM   34  C13 UNL     1     118.625  57.481  18.002  1.00  0.00     0.026 C 
HETATM   35  C14 UNL     1     118.362  58.022  19.385  1.00  0.00     0.002 C 
HETATM   36  C15 UNL     1     119.479  57.876  20.358  1.00  0.00     0.000 C 
HETATM   37  C16 UNL     1     120.635  58.811  20.104  1.00  0.00     0.000 C 
HETATM   38  C17 UNL     1     120.470  59.620  18.863  1.00  0.00     0.002 C 
HETATM   39  C18 UNL     1     120.620  58.840  17.575  1.00  0.00     0.026 C 
ENDBRANCH  26  33
ENDBRANCH  25  26
ENDBRANCH   5  25
BRANCH   4  40
HETATM   40  C6  UNL     1     119.423  53.323  15.607  1.00  0.00     0.225 C 
BRANCH  40  41
HETATM   41  O1  UNL     1     118.772  53.811  14.498  1.00  0.00    -0.390 OA
HETATM   42  C7  UNL     1     118.027  52.928  13.783  1.00  0.00     0.201 C 
ENDBRANCH  40  41
ENDBRANCH   4  40
BRANCH   1  43
HETATM   43  N1  UNL     1     123.561  51.293  14.483  1.00  0.00    -0.205 N 
ATOM     44  H1  UNL     1     123.029  50.422  14.482  1.00  0.00     0.183 HD
BRANCH  43  45
HETATM   45  C3  UNL     1     124.826  51.138  13.949  1.00  0.00     0.078 C 
BRANCH  45  46
HETATM   46  C2  UNL     1     125.385  49.778  13.708  1.00  0.00     0.040 C 
HETATM   47  C1  UNL     1     124.463  48.667  14.162  1.00  0.00     0.010 C 
ENDBRANCH  45  46
ENDBRANCH  43  45
ENDBRANCH   1  43
TORSDOF 14
ENDMDL
MODEL 4
REMARK VINA RESULT: -7.478477870      2.604     10.169
REMARK  14 active torsions:
REMARK  status: ('A' for Active; 'I' for Inactive)
REMARK    1  A    between atoms: C2_2  and  C3_3 
REMARK    2  A    between atoms: C3_3  and  N1_4 
REMARK    3  A    between atoms: N1_4  and  C4_6 
REMARK    4  A    between atoms: C5_9  and  C6_10 
REMARK    5  A    between atoms: C6_10  and  O1_11 
REMARK    6  A    between atoms: C8_13  and  C9_14 
REMARK    7  A    between atoms: C9_14  and  N3_15 
REMARK    8  A    between atoms: N3_15  and  C10_16 
REMARK    9  A    between atoms: N3_15  and  C12_22 
REMARK   10  A    between atoms: C10_16  and  C11_17 
REMARK   11  A    between atoms: C11_17  and  N4_18 
REMARK   12  A    between atoms: C19_29  and  N5_30 
REMARK   13  A    between atoms: C22_33  and  N6_34 
REMARK       I    between atoms: N6_34  and  C23_36 
REMARK       I    between atoms: C23_36  and  N7_38 
REMARK   14  A    between atoms: N7_38  and  C24_39 
REMARK       I    between atoms: N7_38  and  C26_41 
ROOT
HETATM    1  C4  UNL     1     119.942  57.032  18.150  1.00  0.00     0.683 A 
HETATM    2  N2  UNL     1     121.188  57.061  18.559  1.00  0.00    -0.192 N 
ATOM      3  H2  UNL     1     121.418  57.712  19.310  1.00  0.00     0.184 HD
HETATM    4  C5  UNL     1     122.181  56.311  18.075  1.00  0.00     0.065 A 
HETATM    5  C8  UNL     1     121.901  55.378  17.012  1.00  0.00     0.049 A 
HETATM    6  C19 UNL     1     120.626  55.369  16.622  1.00  0.00     0.132 A 
HETATM    7  N8  UNL     1     119.648  56.170  17.159  1.00  0.00    -0.176 N 
ATOM      8  H8  UNL     1     118.694  56.110  16.806  1.00  0.00     0.186 HD
ENDROOT
BRANCH   6   9
HETATM    9  N5  UNL     1     120.066  54.425  15.706  1.00  0.00    -0.366 N 
HETATM   10  C20 UNL     1     118.970  53.603  16.258  1.00  0.00     0.126 C 
HETATM   11  C21 UNL     1     119.344  52.145  16.119  1.00  0.00     0.045 C 
HETATM   12  C22 UNL     1     119.424  51.884  14.644  1.00  0.00     0.089 C 
HETATM   13  C27 UNL     1     120.526  52.674  14.027  1.00  0.00     0.045 C 
HETATM   14  C28 UNL     1     120.485  54.148  14.378  1.00  0.00     0.126 C 
BRANCH  12  15
HETATM   15  N6  UNL     1     119.691  50.467  14.412  1.00  0.00    -0.338 N 
HETATM   16  C23 UNL     1     118.905  49.804  13.386  1.00  0.00     0.327 C 
HETATM   17  O2  UNL     1     118.045  50.457  12.825  1.00  0.00    -0.247 OA
HETATM   18  N7  UNL     1     119.162  48.433  13.082  1.00  0.00    -0.244 N 
HETATM   19  C26 UNL     1     118.367  47.734  12.290  1.00  0.00     0.294 C 
HETATM   20  O3  UNL     1     118.589  46.415  12.104  1.00  0.00    -0.629 OA
HETATM   21  O4  UNL     1     117.228  48.098  11.543  1.00  0.00    -0.629 OA
ATOM     22  H6  UNL     1     120.399  49.964  14.948  1.00  0.00     0.164 HD
BRANCH  18  23
HETATM   23  C24 UNL     1     120.294  47.758  13.748  1.00  0.00     0.135 C 
HETATM   24  C25 UNL     1     121.526  47.953  12.895  1.00  0.00     0.027 C 
ENDBRANCH  18  23
ENDBRANCH  12  15
ENDBRANCH   6   9
BRANCH   5  25
HETATM   25  C9  UNL     1     122.950  54.485  16.637  1.00  0.00     0.107 C 
BRANCH  25  26
HETATM   26  N3  UNL     1     123.992  54.775  15.755  1.00  0.00    -0.363 N 
BRANCH  26  27
HETATM   27  C10 UNL     1     124.116  55.978  15.110  1.00  0.00     0.091 C 
BRANCH  27  28
HETATM   28  C11 UNL     1     122.890  56.535  14.400  1.00  0.00     0.274 C 
BRANCH  28  29
HETATM   29  N4  UNL     1     122.790  57.944  14.825  1.00  0.00    -0.075 N 
ATOM     30  H43 UNL     1     122.299  58.071  15.709  1.00  0.00     0.274 HD
ATOM     31  H42 UNL     1     123.679  58.347  15.121  1.00  0.00     0.274 HD
ATOM     32  H41 UNL     1     122.358  58.437  14.043  1.00  0.00     0.274 HD
ENDBRANCH  28  29
ENDBRANCH  27  28
ENDBRANCH  26  27
BRANCH  26  33
HETATM   33  C12 UNL     1     124.229  53.628  14.871  1.00  0.00     0.088 C 
HETATM   34  C13 UNL     1     124.832  52.452  15.547  1.00  0.00     0.026 C 
HETATM   35  C14 UNL     1     124.706  51.193  14.727  1.00  0.00     0.002 C 
HETATM   36  C15 UNL     1     123.568  51.157  13.769  1.00  0.00     0.000 C 
HETATM   37  C16 UNL     1     123.757  52.043  12.563  1.00  0.00     0.000 C 
HETATM   38  C17 UNL     1     125.003  52.858  12.627  1.00  0.00     0.002 C 
HETATM   39  C18 UNL     1     124.971  53.983  13.639  1.00  0.00     0.026 C 
ENDBRANCH  26  33
ENDBRANCH  25  26
ENDBRANCH   5  25
BRANCH   4  40
HETATM   40  C6  UNL     1     123.541  56.391  18.577  1.00  0.00     0.225 C 
BRANCH  40  41
HETATM   41  O1  UNL     1     124.032  57.635  18.900  1.00  0.00    -0.390 OA
HETATM   42  C7  UNL     1     124.751  58.280  17.945  1.00  0.00     0.201 C 
ENDBRANCH  40  41
ENDBRANCH   4  40
BRANCH   1  43
HETATM   43  N1  UNL     1     118.988  57.720  18.669  1.00  0.00    -0.205 N 
ATOM     44  H1  UNL     1     118.066  57.369  18.407  1.00  0.00     0.183 HD
BRANCH  43  45
HETATM   45  C3  UNL     1     118.914  58.822  19.500  1.00  0.00     0.078 C 
BRANCH  45  46
HETATM   46  C2  UNL     1     119.856  59.963  19.329  1.00  0.00     0.040 C 
HETATM   47  C1  UNL     1     119.704  60.667  17.999  1.00  0.00     0.010 C 
ENDBRANCH  45  46
ENDBRANCH  43  45
ENDBRANCH   1  43
TORSDOF 14
ENDMDL
MODEL 5
REMARK VINA RESULT: -7.465269105      1.628      2.325
REMARK  14 active torsions:
REMARK  status: ('A' for Active; 'I' for Inactive)
REMARK    1  A    between atoms: C2_2  and  C3_3 
REMARK    2  A    between atoms: C3_3  and  N1_4 
REMARK    3  A    between atoms: N1_4  and  C4_6 
REMARK    4  A    between atoms: C5_9  and  C6_10 
REMARK    5  A    between atoms: C6_10  and  O1_11 
REMARK    6  A    between atoms: C8_13  and  C9_14 
REMARK    7  A    between atoms: C9_14  and  N3_15 
REMARK    8  A    between atoms: N3_15  and  C10_16 
REMARK    9  A    between atoms: N3_15  and  C12_22 
REMARK   10  A    between atoms: C10_16  and  C11_17 
REMARK   11  A    between atoms: C11_17  and  N4_18 
REMARK   12  A    between atoms: C19_29  and  N5_30 
REMARK   13  A    between atoms: C22_33  and  N6_34 
REMARK       I    between atoms: N6_34  and  C23_36 
REMARK       I    between atoms: C23_36  and  N7_38 
REMARK   14  A    between atoms: N7_38  and  C24_39 
REMARK       I    between atoms: N7_38  and  C26_41 
ROOT
HETATM    1  C4  UNL     1     123.680  52.249  14.858  1.00  0.00     0.683 A 
HETATM    2  N2  UNL     1     122.661  52.057  14.054  1.00  0.00    -0.192 N 
ATOM      3  H2  UNL     1     122.666  51.209  13.487  1.00  0.00     0.184 HD
HETATM    4  C5  UNL     1     121.619  52.880  13.914  1.00  0.00     0.065 A 
HETATM    5  C8  UNL     1     121.570  54.091  14.695  1.00  0.00     0.049 A 
HETATM    6  C19 UNL     1     122.617  54.254  15.505  1.00  0.00     0.132 A 
HETATM    7  N8  UNL     1     123.664  53.370  15.602  1.00  0.00    -0.176 N 
ATOM      8  H8  UNL     1     124.433  53.564  16.243  1.00  0.00     0.186 HD
ENDROOT
BRANCH   6   9
HETATM    9  N5  UNL     1     122.724  55.281  16.493  1.00  0.00    -0.366 N 
HETATM   10  C20 UNL     1     122.772  56.656  15.955  1.00  0.00     0.126 C 
HETATM   11  C21 UNL     1     124.042  57.319  16.437  1.00  0.00     0.045 C 
HETATM   12  C22 UNL     1     123.913  57.408  17.929  1.00  0.00     0.089 C 
HETATM   13  C27 UNL     1     123.876  56.049  18.538  1.00  0.00     0.045 C 
HETATM   14  C28 UNL     1     122.858  55.125  17.898  1.00  0.00     0.126 C 
BRANCH  12  15
HETATM   15  N6  UNL     1     125.062  58.124  18.477  1.00  0.00    -0.338 N 
HETATM   16  C23 UNL     1     124.858  59.511  18.858  1.00  0.00     0.327 C 
HETATM   17  O2  UNL     1     123.762  59.997  18.649  1.00  0.00    -0.247 OA
HETATM   18  N7  UNL     1     125.932  60.242  19.447  1.00  0.00    -0.244 N 
HETATM   19  C26 UNL     1     125.861  61.546  19.649  1.00  0.00     0.294 C 
HETATM   20  O3  UNL     1     126.933  62.217  20.119  1.00  0.00    -0.629 OA
HETATM   21  O4  UNL     1     124.817  62.473  19.447  1.00  0.00    -0.629 OA
ATOM     22  H6  UNL     1     125.969  57.670  18.587  1.00  0.00     0.164 HD
BRANCH  18  23
HETATM   23  C24 UNL     1     127.191  59.532  19.751  1.00  0.00     0.135 C 
HETATM   24  C25 UNL     1     128.046  59.534  18.506  1.00  0.00     0.027 C 
ENDBRANCH  18  23
ENDBRANCH  12  15
ENDBRANCH   6   9
BRANCH   5  25
HETATM   25  C9  UNL     1     120.367  54.857  14.635  1.00  0.00     0.107 C 
BRANCH  25  26
HETATM   26  N3  UNL     1     119.286  54.749  15.510  1.00  0.00    -0.363 N 
BRANCH  26  27
HETATM   27  C10 UNL     1     118.065  54.251  15.136  1.00  0.00     0.091 C 
BRANCH  27  28
HETATM   28  C11 UNL     1     117.961  52.758  14.854  1.00  0.00     0.274 C 
BRANCH  28  29
HETATM   29  N4  UNL     1     117.198  52.642  13.597  1.00  0.00    -0.075 N 
ATOM     30  H43 UNL     1     116.427  53.306  13.524  1.00  0.00     0.274 HD
ATOM     31  H42 UNL     1     117.711  52.962  12.776  1.00  0.00     0.274 HD
ATOM     32  H41 UNL     1     116.904  51.667  13.542  1.00  0.00     0.274 HD
ENDBRANCH  28  29
ENDBRANCH  27  28
ENDBRANCH  26  27
BRANCH  26  33
HETATM   33  C12 UNL     1     119.180  55.966  16.323  1.00  0.00     0.088 C 
HETATM   34  C13 UNL     1     117.804  56.265  16.794  1.00  0.00     0.026 C 
HETATM   35  C14 UNL     1     117.790  57.273  17.916  1.00  0.00     0.002 C 
HETATM   36  C15 UNL     1     119.026  57.338  18.741  1.00  0.00     0.000 C 
HETATM   37  C16 UNL     1     120.195  57.985  18.040  1.00  0.00     0.000 C 
HETATM   38  C17 UNL     1     119.904  58.335  16.621  1.00  0.00     0.002 C 
HETATM   39  C18 UNL     1     119.804  57.149  15.686  1.00  0.00     0.026 C 
ENDBRANCH  26  33
ENDBRANCH  25  26
ENDBRANCH   5  25
BRANCH   4  40
HETATM   40  C6  UNL     1     120.520  52.606  13.005  1.00  0.00     0.225 C 
BRANCH  40  41
HETATM   41  O1  UNL     1     120.608  51.485  12.212  1.00  0.00    -0.390 OA
HETATM   42  C7  UNL     1     119.806  50.438  12.536  1.00  0.00     0.201 C 
ENDBRANCH  40  41
ENDBRANCH   4  40
BRANCH   1  43
HETATM   43  N1  UNL     1     124.645  51.415  15.022  1.00  0.00    -0.205 N 
ATOM     44  H1  UNL     1     125.105  51.525  15.926  1.00  0.00     0.183 HD
BRANCH  43  45
HETATM   45  C3  UNL     1     125.207  50.405  14.265  1.00  0.00     0.078 C 
BRANCH  45  46
HETATM   46  C2  UNL     1     124.416  49.192  13.914  1.00  0.00     0.040 C 
HETATM   47  C1  UNL     1     124.376  48.166  15.025  1.00  0.00     0.010 C 
ENDBRANCH  45  46
ENDBRANCH  43  45
ENDBRANCH   1  43
TORSDOF 14
ENDMDL
