MODEL 1
REMARK VINA RESULT: -8.526456686      0.000      0.000
REMARK  13 active torsions:
REMARK  status: ('A' for Active; 'I' for Inactive)
REMARK    1  A    between atoms: C2_2  and  N1_3 
REMARK    2  A    between atoms: C4_6  and  C5_7 
REMARK    3  A    between atoms: C4_6  and  C7_9 
REMARK    4  A    between atoms: C12_16  and  N3_17 
REMARK    5  A    between atoms: N3_17  and  C13_19 
REMARK    6  A    between atoms: C17_25  and  N5_26 
REMARK       I    between atoms: N5_26  and  C19_28 
REMARK    7  A    between atoms: C19_28  and  C20_30 
REMARK    8  A    between atoms: C20_30  and  C21_31 
REMARK    9  A    between atoms: C21_31  and  C22_32 
REMARK   10  A    between atoms: C22_32  and  C23_33 
REMARK   11  A    between atoms: C23_33  and  N6_34 
REMARK   12  A    between atoms: C23_33  and  C24_38 
REMARK   13  A    between atoms: C25_41  and  O5_42 
ROOT
HETATM    1  C13 UNL     1      70.602  53.819  14.694  1.00  0.00     0.157 A 
HETATM    2  N4  UNL     1      69.360  53.458  15.057  1.00  0.00    -0.344 N 
ATOM      3  H4  UNL     1      68.923  52.661  14.594  1.00  0.00     0.167 HD
HETATM    4  C14 UNL     1      68.669  54.117  16.017  1.00  0.00     0.009 A 
HETATM    5  C15 UNL     1      67.278  53.676  16.391  1.00  0.00     0.068 C 
HETATM    6  C16 UNL     1      69.220  55.210  16.679  1.00  0.00     0.057 A 
HETATM    7  C17 UNL     1      70.508  55.611  16.326  1.00  0.00     0.076 A 
HETATM    8  C25 UNL     1      71.173  54.909  15.343  1.00  0.00     0.140 A 
ENDROOT
BRANCH   1   9
HETATM    9  N3  UNL     1      71.352  53.166  13.710  1.00  0.00    -0.173 N 
ATOM     10  H3  UNL     1      71.567  53.696  12.865  1.00  0.00     0.186 HD
BRANCH   9  11
HETATM   11  C12 UNL     1      71.799  51.949  13.772  1.00  0.00     0.685 A 
HETATM   12  N2  UNL     1      73.062  51.728  14.172  1.00  0.00    -0.201 N 
HETATM   13  C11 UNL     1      73.615  50.513  14.272  1.00  0.00     0.117 A 
ATOM     14  H2  UNL     1      73.635  52.536  14.415  1.00  0.00     0.183 HD
HETATM   15  C10 UNL     1      72.845  49.389  13.942  1.00  0.00     0.004 A 
HETATM   16  C9  UNL     1      73.438  48.042  14.039  1.00  0.00     0.063 C 
HETATM   17  C27 UNL     1      71.552  49.625  13.533  1.00  0.00     0.133 A 
HETATM   18  C4  UNL     1      72.367  46.982  14.265  1.00  0.00     0.045 C 
HETATM   19  C3  UNL     1      71.279  47.206  13.294  1.00  0.00     0.234 C 
HETATM   20  N1  UNL     1      70.710  48.519  13.187  1.00  0.00    -0.303 N 
HETATM   21  O1  UNL     1      70.860  46.285  12.582  1.00  0.00    -0.272 OA
HETATM   22  N7  UNL     1      71.039  50.890  13.449  1.00  0.00    -0.176 N 
ATOM     23  H7  UNL     1      70.076  51.029  13.141  1.00  0.00     0.186 HD
BRANCH  18  24
HETATM   24  C5  UNL     1      71.795  47.082  15.658  1.00  0.00     0.015 C 
HETATM   25  C6  UNL     1      72.934  47.047  16.645  1.00  0.00     0.006 C 
ENDBRANCH  18  24
BRANCH  18  26
HETATM   26  C7  UNL     1      73.006  45.626  14.119  1.00  0.00     0.015 C 
HETATM   27  C8  UNL     1      74.337  45.646  13.424  1.00  0.00     0.006 C 
ENDBRANCH  18  26
BRANCH  20  28
HETATM   28  C2  UNL     1      69.354  48.694  12.752  1.00  0.00     0.129 C 
HETATM   29  C1  UNL     1      68.327  48.442  13.809  1.00  0.00     0.027 C 
ENDBRANCH  20  28
ENDBRANCH   9  11
ENDBRANCH   1   9
BRANCH   8  30
HETATM   30  O5  UNL     1      72.458  55.337  15.016  1.00  0.00    -0.350 OA
HETATM   31  C26 UNL     1      73.626  54.940  15.666  1.00  0.00     0.210 C 
ENDBRANCH   8  30
BRANCH   7  32
HETATM   32  N5  UNL     1      71.043  56.726  17.020  1.00  0.00    -0.320 N 
HETATM   33  C18 UNL     1      70.949  58.021  16.395  1.00  0.00     0.159 C 
HETATM   34  C19 UNL     1      71.663  56.616  18.292  1.00  0.00     0.224 C 
HETATM   35  O2  UNL     1      71.734  55.474  18.807  1.00  0.00    -0.273 OA
BRANCH  34  36
HETATM   36  C20 UNL     1      72.204  57.780  18.993  1.00  0.00     0.103 C 
BRANCH  36  37
HETATM   37  C21 UNL     1      73.660  57.990  18.928  1.00  0.00     0.012 C 
BRANCH  37  38
HETATM   38  C22 UNL     1      74.358  58.735  19.987  1.00  0.00     0.044 C 
BRANCH  38  39
HETATM   39  C23 UNL     1      74.347  60.216  19.951  1.00  0.00     0.283 C 
BRANCH  39  40
HETATM   40  N6  UNL     1      73.947  60.811  21.217  1.00  0.00    -0.065 N 
ATOM     41  H63 UNL     1      74.698  60.747  21.904  1.00  0.00     0.275 HD
ATOM     42  H62 UNL     1      73.879  61.826  21.139  1.00  0.00     0.275 HD
ATOM     43  H61 UNL     1      73.081  60.415  21.585  1.00  0.00     0.275 HD
ENDBRANCH  39  40
BRANCH  39  44
HETATM   44  C24 UNL     1      75.518  60.861  19.415  1.00  0.00     0.204 C 
HETATM   45  O3  UNL     1      75.723  62.122  19.495  1.00  0.00    -0.646 OA
HETATM   46  O4  UNL     1      76.514  60.121  18.759  1.00  0.00    -0.646 OA
ENDBRANCH  39  44
ENDBRANCH  38  39
ENDBRANCH  37  38
ENDBRANCH  36  37
ENDBRANCH  34  36
ENDBRANCH   7  32
TORSDOF 13
ENDMDL
MODEL 2
REMARK VINA RESULT: -8.238713157      3.632     11.309
REMARK  13 active torsions:
REMARK  status: ('A' for Active; 'I' for Inactive)
REMARK    1  A    between atoms: C2_2  and  N1_3 
REMARK    2  A    between atoms: C4_6  and  C5_7 
REMARK    3  A    between atoms: C4_6  and  C7_9 
REMARK    4  A    between atoms: C12_16  and  N3_17 
REMARK    5  A    between atoms: N3_17  and  C13_19 
REMARK    6  A    between atoms: C17_25  and  N5_26 
REMARK       I    between atoms: N5_26  and  C19_28 
REMARK    7  A    between atoms: C19_28  and  C20_30 
REMARK    8  A    between atoms: C20_30  and  C21_31 
REMARK    9  A    between atoms: C21_31  and  C22_32 
REMARK   10  A    between atoms: C22_32  and  C23_33 
REMARK   11  A    between atoms: C23_33  and  N6_34 
REMARK   12  A    between atoms: C23_33  and  C24_38 
REMARK   13  A    between atoms: C25_41  and  O5_42 
ROOT
HETATM    1  C13 UNL     1      69.731  57.969  16.333  1.00  0.00     0.157 A 
HETATM    2  N4  UNL     1      68.664  57.154  16.307  1.00  0.00    -0.344 N 
ATOM      3  H4  UNL     1      67.745  57.539  16.525  1.00  0.00     0.167 HD
HETATM    4  C14 UNL     1      68.767  55.839  16.001  1.00  0.00     0.009 A 
HETATM    5  C15 UNL     1      67.541  54.964  15.985  1.00  0.00     0.068 C 
HETATM    6  C16 UNL     1      69.997  55.265  15.696  1.00  0.00     0.057 A 
HETATM    7  C17 UNL     1      71.126  56.084  15.713  1.00  0.00     0.076 A 
HETATM    8  C25 UNL     1      70.972  57.417  16.030  1.00  0.00     0.140 A 
ENDROOT
BRANCH   1   9
HETATM    9  N3  UNL     1      69.670  59.332  16.642  1.00  0.00    -0.173 N 
ATOM     10  H3  UNL     1      69.830  59.988  15.877  1.00  0.00     0.186 HD
BRANCH   9  11
HETATM   11  C12 UNL     1      69.428  59.840  17.812  1.00  0.00     0.685 A 
HETATM   12  N2  UNL     1      68.155  60.001  18.213  1.00  0.00    -0.201 N 
HETATM   13  C11 UNL     1      67.802  60.512  19.399  1.00  0.00     0.117 A 
ATOM     14  H2  UNL     1      67.413  59.716  17.575  1.00  0.00     0.183 HD
HETATM   15  C10 UNL     1      68.808  60.911  20.291  1.00  0.00     0.004 A 
HETATM   16  C9  UNL     1      68.439  61.482  21.599  1.00  0.00     0.063 C 
HETATM   17  C27 UNL     1      70.108  60.742  19.871  1.00  0.00     0.133 A 
HETATM   18  C4  UNL     1      69.544  61.268  22.626  1.00  0.00     0.045 C 
HETATM   19  C3  UNL     1      70.828  61.667  22.018  1.00  0.00     0.234 C 
HETATM   20  N1  UNL     1      71.183  61.124  20.738  1.00  0.00    -0.303 N 
HETATM   21  O1  UNL     1      71.589  62.455  22.594  1.00  0.00    -0.272 OA
HETATM   22  N7  UNL     1      70.411  60.214  18.647  1.00  0.00    -0.176 N 
ATOM     23  H7  UNL     1      71.386  60.104  18.367  1.00  0.00     0.186 HD
BRANCH  18  24
HETATM   24  C5  UNL     1      69.634  59.816  23.028  1.00  0.00     0.015 C 
HETATM   25  C6  UNL     1      69.439  59.720  24.519  1.00  0.00     0.006 C 
ENDBRANCH  18  24
BRANCH  18  26
HETATM   26  C7  UNL     1      69.210  62.072  23.856  1.00  0.00     0.015 C 
HETATM   27  C8  UNL     1      68.153  63.115  23.638  1.00  0.00     0.006 C 
ENDBRANCH  18  26
BRANCH  20  28
HETATM   28  C2  UNL     1      72.560  60.977  20.364  1.00  0.00     0.129 C 
HETATM   29  C1  UNL     1      73.135  62.152  19.642  1.00  0.00     0.027 C 
ENDBRANCH  20  28
ENDBRANCH   9  11
ENDBRANCH   1   9
BRANCH   8  30
HETATM   30  O5  UNL     1      72.121  58.204  16.038  1.00  0.00    -0.350 OA
HETATM   31  C26 UNL     1      72.952  58.401  17.141  1.00  0.00     0.210 C 
ENDBRANCH   8  30
BRANCH   7  32
HETATM   32  N5  UNL     1      72.365  55.471  15.396  1.00  0.00    -0.320 N 
HETATM   33  C18 UNL     1      72.801  55.495  14.023  1.00  0.00     0.159 C 
HETATM   34  C19 UNL     1      73.182  54.840  16.370  1.00  0.00     0.224 C 
HETATM   35  O2  UNL     1      72.772  54.830  17.555  1.00  0.00    -0.273 OA
BRANCH  34  36
HETATM   36  C20 UNL     1      74.460  54.218  16.023  1.00  0.00     0.103 C 
BRANCH  36  37
HETATM   37  C21 UNL     1      74.422  52.835  15.520  1.00  0.00     0.012 C 
BRANCH  37  38
HETATM   38  C22 UNL     1      73.137  52.161  15.273  1.00  0.00     0.044 C 
BRANCH  38  39
HETATM   39  C23 UNL     1      73.042  51.173  14.173  1.00  0.00     0.283 C 
BRANCH  39  40
HETATM   40  N6  UNL     1      72.519  49.888  14.609  1.00  0.00    -0.065 N 
ATOM     41  H63 UNL     1      72.684  49.169  13.905  1.00  0.00     0.275 HD
ATOM     42  H62 UNL     1      73.079  49.506  15.371  1.00  0.00     0.275 HD
ATOM     43  H61 UNL     1      71.532  49.927  14.866  1.00  0.00     0.275 HD
ENDBRANCH  39  40
BRANCH  39  44
HETATM   44  C24 UNL     1      72.407  51.614  12.958  1.00  0.00     0.204 C 
HETATM   45  O3  UNL     1      71.222  51.266  12.620  1.00  0.00    -0.646 OA
HETATM   46  O4  UNL     1      73.073  52.465  12.061  1.00  0.00    -0.646 OA
ENDBRANCH  39  44
ENDBRANCH  38  39
ENDBRANCH  37  38
ENDBRANCH  36  37
ENDBRANCH  34  36
ENDBRANCH   7  32
TORSDOF 13
ENDMDL
MODEL 3
REMARK VINA RESULT: -8.202778691      3.073     11.140
REMARK  13 active torsions:
REMARK  status: ('A' for Active; 'I' for Inactive)
REMARK    1  A    between atoms: C2_2  and  N1_3 
REMARK    2  A    between atoms: C4_6  and  C5_7 
REMARK    3  A    between atoms: C4_6  and  C7_9 
REMARK    4  A    between atoms: C12_16  and  N3_17 
REMARK    5  A    between atoms: N3_17  and  C13_19 
REMARK    6  A    between atoms: C17_25  and  N5_26 
REMARK       I    between atoms: N5_26  and  C19_28 
REMARK    7  A    between atoms: C19_28  and  C20_30 
REMARK    8  A    between atoms: C20_30  and  C21_31 
REMARK    9  A    between atoms: C21_31  and  C22_32 
REMARK   10  A    between atoms: C22_32  and  C23_33 
REMARK   11  A    between atoms: C23_33  and  N6_34 
REMARK   12  A    between atoms: C23_33  and  C24_38 
REMARK   13  A    between atoms: C25_41  and  O5_42 
ROOT
HETATM    1  C13 UNL     1      70.726  55.480  14.888  1.00  0.00     0.157 A 
HETATM    2  N4  UNL     1      71.955  54.945  14.967  1.00  0.00    -0.344 N 
ATOM      3  H4  UNL     1      72.749  55.558  15.151  1.00  0.00     0.167 HD
HETATM    4  C14 UNL     1      72.177  53.618  14.810  1.00  0.00     0.009 A 
HETATM    5  C15 UNL     1      73.573  53.064  14.907  1.00  0.00     0.068 C 
HETATM    6  C16 UNL     1      71.129  52.738  14.559  1.00  0.00     0.057 A 
HETATM    7  C17 UNL     1      69.839  53.260  14.472  1.00  0.00     0.076 A 
HETATM    8  C25 UNL     1      69.662  54.618  14.638  1.00  0.00     0.140 A 
ENDROOT
BRANCH   1   9
HETATM    9  N3  UNL     1      70.452  56.842  15.045  1.00  0.00    -0.173 N 
ATOM     10  H3  UNL     1      69.928  57.298  14.298  1.00  0.00     0.186 HD
BRANCH   9  11
HETATM   11  C12 UNL     1      70.803  57.581  16.053  1.00  0.00     0.685 A 
HETATM   12  N2  UNL     1      71.995  58.201  16.036  1.00  0.00    -0.201 N 
HETATM   13  C11 UNL     1      72.447  58.985  17.023  1.00  0.00     0.117 A 
ATOM     14  H2  UNL     1      72.592  58.066  15.221  1.00  0.00     0.183 HD
HETATM   15  C10 UNL     1      71.642  59.182  18.154  1.00  0.00     0.004 A 
HETATM   16  C9  UNL     1      72.124  60.035  19.255  1.00  0.00     0.063 C 
HETATM   17  C27 UNL     1      70.423  58.543  18.163  1.00  0.00     0.133 A 
HETATM   18  C4  UNL     1      70.963  60.631  20.041  1.00  0.00     0.045 C 
HETATM   19  C3  UNL     1      70.009  59.549  20.353  1.00  0.00     0.234 C 
HETATM   20  N1  UNL     1      69.549  58.708  19.286  1.00  0.00    -0.303 N 
HETATM   21  O1  UNL     1      69.610  59.366  21.510  1.00  0.00    -0.272 OA
HETATM   22  N7  UNL     1      70.012  57.752  17.125  1.00  0.00    -0.176 N 
ATOM     23  H7  UNL     1      69.102  57.292  17.165  1.00  0.00     0.186 HD
BRANCH  18  24
HETATM   24  C5  UNL     1      70.247  61.684  19.232  1.00  0.00     0.015 C 
HETATM   25  C6  UNL     1      68.965  62.040  19.940  1.00  0.00     0.006 C 
ENDBRANCH  18  24
BRANCH  18  26
HETATM   26  C7  UNL     1      71.518  61.290  21.277  1.00  0.00     0.015 C 
HETATM   27  C8  UNL     1      72.752  62.109  21.034  1.00  0.00     0.006 C 
ENDBRANCH  18  26
BRANCH  20  28
HETATM   28  C2  UNL     1      68.266  58.070  19.361  1.00  0.00     0.129 C 
HETATM   29  C1  UNL     1      67.110  59.013  19.448  1.00  0.00     0.027 C 
ENDBRANCH  20  28
ENDBRANCH   9  11
ENDBRANCH   1   9
BRANCH   8  30
HETATM   30  O5  UNL     1      68.360  55.105  14.544  1.00  0.00    -0.350 OA
HETATM   31  C26 UNL     1      67.505  55.324  15.624  1.00  0.00     0.210 C 
ENDBRANCH   8  30
BRANCH   7  32
HETATM   32  N5  UNL     1      68.791  52.339  14.216  1.00  0.00    -0.320 N 
HETATM   33  C18 UNL     1      67.995  51.893  15.331  1.00  0.00     0.159 C 
HETATM   34  C19 UNL     1      68.502  51.845  12.918  1.00  0.00     0.224 C 
HETATM   35  O2  UNL     1      69.216  52.248  11.969  1.00  0.00    -0.273 OA
BRANCH  34  36
HETATM   36  C20 UNL     1      67.413  50.898  12.675  1.00  0.00     0.103 C 
BRANCH  36  37
HETATM   37  C21 UNL     1      67.777  49.483  12.497  1.00  0.00     0.012 C 
BRANCH  37  38
HETATM   38  C22 UNL     1      68.241  48.678  13.639  1.00  0.00     0.044 C 
BRANCH  38  39
HETATM   39  C23 UNL     1      69.631  48.165  13.639  1.00  0.00     0.283 C 
BRANCH  39  40
HETATM   40  N6  UNL     1      70.618  49.206  13.884  1.00  0.00    -0.065 N 
ATOM     41  H63 UNL     1      70.220  50.131  13.720  1.00  0.00     0.275 HD
ATOM     42  H62 UNL     1      70.824  49.287  14.880  1.00  0.00     0.275 HD
ATOM     43  H61 UNL     1      71.474  49.076  13.344  1.00  0.00     0.275 HD
ENDBRANCH  39  40
BRANCH  39  44
HETATM   44  C24 UNL     1      69.891  46.996  14.438  1.00  0.00     0.204 C 
HETATM   45  O3  UNL     1      71.063  46.512  14.613  1.00  0.00    -0.646 OA
HETATM   46  O4  UNL     1      68.846  46.309  15.076  1.00  0.00    -0.646 OA
ENDBRANCH  39  44
ENDBRANCH  38  39
ENDBRANCH  37  38
ENDBRANCH  36  37
ENDBRANCH  34  36
ENDBRANCH   7  32
TORSDOF 13
ENDMDL
MODEL 4
REMARK VINA RESULT: -8.189399311      1.056      1.203
REMARK  13 active torsions:
REMARK  status: ('A' for Active; 'I' for Inactive)
REMARK    1  A    between atoms: C2_2  and  N1_3 
REMARK    2  A    between atoms: C4_6  and  C5_7 
REMARK    3  A    between atoms: C4_6  and  C7_9 
REMARK    4  A    between atoms: C12_16  and  N3_17 
REMARK    5  A    between atoms: N3_17  and  C13_19 
REMARK    6  A    between atoms: C17_25  and  N5_26 
REMARK       I    between atoms: N5_26  and  C19_28 
REMARK    7  A    between atoms: C19_28  and  C20_30 
REMARK    8  A    between atoms: C20_30  and  C21_31 
REMARK    9  A    between atoms: C21_31  and  C22_32 
REMARK   10  A    between atoms: C22_32  and  C23_33 
REMARK   11  A    between atoms: C23_33  and  N6_34 
REMARK   12  A    between atoms: C23_33  and  C24_38 
REMARK   13  A    between atoms: C25_41  and  O5_42 
ROOT
HETATM    1  C13 UNL     1      70.319  53.421  14.167  1.00  0.00     0.157 A 
HETATM    2  N4  UNL     1      68.978  53.401  14.246  1.00  0.00    -0.344 N 
ATOM      3  H4  UNL     1      68.456  52.805  13.604  1.00  0.00     0.167 HD
HETATM    4  C14 UNL     1      68.297  54.144  15.150  1.00  0.00     0.009 A 
HETATM    5  C15 UNL     1      66.793  54.088  15.201  1.00  0.00     0.068 C 
HETATM    6  C16 UNL     1      68.962  54.971  16.050  1.00  0.00     0.057 A 
HETATM    7  C17 UNL     1      70.354  55.016  15.995  1.00  0.00     0.076 A 
HETATM    8  C25 UNL     1      71.005  54.242  15.058  1.00  0.00     0.140 A 
ENDROOT
BRANCH   1   9
HETATM    9  N3  UNL     1      71.062  52.670  13.251  1.00  0.00    -0.173 N 
ATOM     10  H3  UNL     1      71.162  53.053  12.311  1.00  0.00     0.186 HD
BRANCH   9  11
HETATM   11  C12 UNL     1      71.636  51.530  13.486  1.00  0.00     0.685 A 
HETATM   12  N2  UNL     1      72.898  51.507  13.947  1.00  0.00    -0.201 N 
HETATM   13  C11 UNL     1      73.576  50.385  14.222  1.00  0.00     0.117 A 
ATOM     14  H2  UNL     1      73.369  52.399  14.096  1.00  0.00     0.183 HD
HETATM   15  C10 UNL     1      72.948  49.148  14.022  1.00  0.00     0.004 A 
HETATM   16  C9  UNL     1      73.679  47.901  14.313  1.00  0.00     0.063 C 
HETATM   17  C27 UNL     1      71.655  49.181  13.551  1.00  0.00     0.133 A 
HETATM   18  C4  UNL     1      72.722  46.765  14.648  1.00  0.00     0.045 C 
HETATM   19  C3  UNL     1      71.658  46.737  13.626  1.00  0.00     0.234 C 
HETATM   20  N1  UNL     1      70.954  47.952  13.331  1.00  0.00    -0.303 N 
HETATM   21  O1  UNL     1      71.373  45.689  13.032  1.00  0.00    -0.272 OA
HETATM   22  N7  UNL     1      71.011  50.358  13.286  1.00  0.00    -0.176 N 
ATOM     23  H7  UNL     1      70.052  50.346  12.935  1.00  0.00     0.186 HD
BRANCH  18  24
HETATM   24  C5  UNL     1      72.084  46.976  16.000  1.00  0.00     0.015 C 
HETATM   25  C6  UNL     1      73.173  47.002  17.042  1.00  0.00     0.006 C 
ENDBRANCH  18  24
BRANCH  18  26
HETATM   26  C7  UNL     1      73.511  45.482  14.701  1.00  0.00     0.015 C 
HETATM   27  C8  UNL     1      74.833  45.545  13.992  1.00  0.00     0.006 C 
ENDBRANCH  18  26
BRANCH  20  28
HETATM   28  C2  UNL     1      69.607  47.913  12.840  1.00  0.00     0.129 C 
HETATM   29  C1  UNL     1      68.570  47.682  13.891  1.00  0.00     0.027 C 
ENDBRANCH  20  28
ENDBRANCH   9  11
ENDBRANCH   1   9
BRANCH   8  30
HETATM   30  O5  UNL     1      72.396  54.311  15.032  1.00  0.00    -0.350 OA
HETATM   31  C26 UNL     1      73.145  55.073  14.135  1.00  0.00     0.210 C 
ENDBRANCH   8  30
BRANCH   7  32
HETATM   32  N5  UNL     1      71.004  55.867  16.925  1.00  0.00    -0.320 N 
HETATM   33  C18 UNL     1      71.303  55.339  18.232  1.00  0.00     0.159 C 
HETATM   34  C19 UNL     1      71.365  57.206  16.621  1.00  0.00     0.224 C 
HETATM   35  O2  UNL     1      71.085  57.638  15.477  1.00  0.00    -0.273 OA
BRANCH  34  36
HETATM   36  C20 UNL     1      72.039  58.066  17.593  1.00  0.00     0.103 C 
BRANCH  36  37
HETATM   37  C21 UNL     1      73.470  58.336  17.376  1.00  0.00     0.012 C 
BRANCH  37  38
HETATM   38  C22 UNL     1      74.347  58.690  18.504  1.00  0.00     0.044 C 
BRANCH  38  39
HETATM   39  C23 UNL     1      74.188  60.013  19.151  1.00  0.00     0.283 C 
BRANCH  39  40
HETATM   40  N6  UNL     1      73.447  59.946  20.401  1.00  0.00    -0.065 N 
ATOM     41  H63 UNL     1      72.929  59.070  20.472  1.00  0.00     0.275 HD
ATOM     42  H62 UNL     1      74.078  59.830  21.194  1.00  0.00     0.275 HD
ATOM     43  H61 UNL     1      72.830  60.747  20.541  1.00  0.00     0.275 HD
ENDBRANCH  39  40
BRANCH  39  44
HETATM   44  C24 UNL     1      75.375  60.816  19.286  1.00  0.00     0.204 C 
HETATM   45  O3  UNL     1      75.350  62.087  19.432  1.00  0.00    -0.646 OA
HETATM   46  O4  UNL     1      76.651  60.230  19.259  1.00  0.00    -0.646 OA
ENDBRANCH  39  44
ENDBRANCH  38  39
ENDBRANCH  37  38
ENDBRANCH  36  37
ENDBRANCH  34  36
ENDBRANCH   7  32
TORSDOF 13
ENDMDL
MODEL 5
REMARK VINA RESULT: -8.109860576      4.737     12.908
REMARK  13 active torsions:
REMARK  status: ('A' for Active; 'I' for Inactive)
REMARK    1  A    between atoms: C2_2  and  N1_3 
REMARK    2  A    between atoms: C4_6  and  C5_7 
REMARK    3  A    between atoms: C4_6  and  C7_9 
REMARK    4  A    between atoms: C12_16  and  N3_17 
REMARK    5  A    between atoms: N3_17  and  C13_19 
REMARK    6  A    between atoms: C17_25  and  N5_26 
REMARK       I    between atoms: N5_26  and  C19_28 
REMARK    7  A    between atoms: C19_28  and  C20_30 
REMARK    8  A    between atoms: C20_30  and  C21_31 
REMARK    9  A    between atoms: C21_31  and  C22_32 
REMARK   10  A    between atoms: C22_32  and  C23_33 
REMARK   11  A    between atoms: C23_33  and  N6_34 
REMARK   12  A    between atoms: C23_33  and  C24_38 
REMARK   13  A    between atoms: C25_41  and  O5_42 
ROOT
HETATM    1  C13 UNL     1      71.932  59.886  18.976  1.00  0.00     0.157 A 
HETATM    2  N4  UNL     1      73.228  59.798  19.316  1.00  0.00    -0.344 N 
ATOM      3  H4  UNL     1      73.640  60.538  19.884  1.00  0.00     0.167 HD
HETATM    4  C14 UNL     1      74.007  58.760  18.930  1.00  0.00     0.009 A 
HETATM    5  C15 UNL     1      75.456  58.704  19.336  1.00  0.00     0.068 C 
HETATM    6  C16 UNL     1      73.494  57.723  18.156  1.00  0.00     0.057 A 
HETATM    7  C17 UNL     1      72.151  57.784  17.786  1.00  0.00     0.076 A 
HETATM    8  C25 UNL     1      71.397  58.861  18.202  1.00  0.00     0.140 A 
ENDROOT
BRANCH   1   9
HETATM    9  N3  UNL     1      71.092  60.939  19.354  1.00  0.00    -0.173 N 
ATOM     10  H3  UNL     1      70.866  61.630  18.638  1.00  0.00     0.186 HD
BRANCH   9  11
HETATM   11  C12 UNL     1      70.574  61.118  20.530  1.00  0.00     0.685 A 
HETATM   12  N2  UNL     1      69.263  60.891  20.717  1.00  0.00    -0.201 N 
HETATM   13  C11 UNL     1      68.635  61.044  21.890  1.00  0.00     0.117 A 
ATOM     14  H2  UNL     1      68.712  60.584  19.916  1.00  0.00     0.183 HD
HETATM   15  C10 UNL     1      69.374  61.468  23.004  1.00  0.00     0.004 A 
HETATM   16  C9  UNL     1      68.700  61.649  24.302  1.00  0.00     0.063 C 
HETATM   17  C27 UNL     1      70.716  61.698  22.803  1.00  0.00     0.133 A 
HETATM   18  C4  UNL     1      69.677  61.484  25.459  1.00  0.00     0.045 C 
HETATM   19  C3  UNL     1      70.880  62.289  25.170  1.00  0.00     0.234 C 
HETATM   20  N1  UNL     1      71.530  62.126  23.901  1.00  0.00    -0.303 N 
HETATM   21  O1  UNL     1      71.325  63.091  26.001  1.00  0.00    -0.272 OA
HETATM   22  N7  UNL     1      71.306  61.525  21.581  1.00  0.00    -0.176 N 
ATOM     23  H7  UNL     1      72.304  61.706  21.467  1.00  0.00     0.186 HD
BRANCH  18  24
HETATM   24  C5  UNL     1      70.092  60.042  25.616  1.00  0.00     0.015 C 
HETATM   25  C6  UNL     1      68.872  59.231  25.970  1.00  0.00     0.006 C 
ENDBRANCH  18  24
BRANCH  18  26
HETATM   26  C7  UNL     1      68.985  61.910  26.728  1.00  0.00     0.015 C 
HETATM   27  C8  UNL     1      67.804  62.811  26.509  1.00  0.00     0.006 C 
ENDBRANCH  18  26
BRANCH  20  28
HETATM   28  C2  UNL     1      72.934  62.384  23.762  1.00  0.00     0.129 C 
HETATM   29  C1  UNL     1      73.268  63.774  23.327  1.00  0.00     0.027 C 
ENDBRANCH  20  28
ENDBRANCH   9  11
ENDBRANCH   1   9
BRANCH   8  30
HETATM   30  O5  UNL     1      70.059  58.888  17.814  1.00  0.00    -0.350 OA
HETATM   31  C26 UNL     1      69.020  58.228  18.469  1.00  0.00     0.210 C 
ENDBRANCH   8  30
BRANCH   7  32
HETATM   32  N5  UNL     1      71.656  56.713  16.998  1.00  0.00    -0.320 N 
HETATM   33  C18 UNL     1      71.620  56.884  15.568  1.00  0.00     0.159 C 
HETATM   34  C19 UNL     1      71.197  55.493  17.561  1.00  0.00     0.224 C 
HETATM   35  O2  UNL     1      71.236  55.377  18.809  1.00  0.00    -0.273 OA
BRANCH  34  36
HETATM   36  C20 UNL     1      70.695  54.398  16.730  1.00  0.00     0.103 C 
BRANCH  36  37
HETATM   37  C21 UNL     1      69.239  54.321  16.525  1.00  0.00     0.012 C 
BRANCH  37  38
HETATM   38  C22 UNL     1      68.667  54.407  15.171  1.00  0.00     0.044 C 
BRANCH  38  39
HETATM   39  C23 UNL     1      68.222  53.164  14.499  1.00  0.00     0.283 C 
BRANCH  39  40
HETATM   40  N6  UNL     1      68.255  52.003  15.375  1.00  0.00    -0.065 N 
ATOM     41  H63 UNL     1      68.969  52.110  16.095  1.00  0.00     0.275 HD
ATOM     42  H62 UNL     1      67.425  51.970  15.968  1.00  0.00     0.275 HD
ATOM     43  H61 UNL     1      68.376  51.126  14.868  1.00  0.00     0.275 HD
ENDBRANCH  39  40
BRANCH  39  44
HETATM   44  C24 UNL     1      66.986  53.232  13.762  1.00  0.00     0.204 C 
HETATM   45  O3  UNL     1      65.919  53.760  14.230  1.00  0.00    -0.646 OA
HETATM   46  O4  UNL     1      66.888  52.703  12.465  1.00  0.00    -0.646 OA
ENDBRANCH  39  44
ENDBRANCH  38  39
ENDBRANCH  37  38
ENDBRANCH  36  37
ENDBRANCH  34  36
ENDBRANCH   7  32
TORSDOF 13
ENDMDL
