MODEL 1
REMARK VINA RESULT: -8.886007685      0.000      0.000
REMARK  13 active torsions:
REMARK  status: ('A' for Active; 'I' for Inactive)
REMARK    1  A    between atoms: C2_2  and  C3_3 
REMARK    2  A    between atoms: C3_3  and  N1_4 
REMARK    3  A    between atoms: N2_7  and  C6_8 
REMARK    4  A    between atoms: C6_8  and  C7_9 
REMARK    5  A    between atoms: C7_9  and  C8_10 
REMARK    6  A    between atoms: C8_10  and  C9_11 
REMARK    7  A    between atoms: C9_11  and  N3_12 
REMARK    8  A    between atoms: N3_12  and  C10_14 
REMARK    9  A    between atoms: C11_17  and  N5_18 
REMARK   10  A    between atoms: C16_24  and  O1_25 
REMARK   11  A    between atoms: C19_33  and  C20_34 
REMARK   12  A    between atoms: C20_34  and  C21_35 
REMARK   13  A    between atoms: C24_38  and  O2_39 
ROOT
HETATM    1  C10 UNL     1      70.909  55.678  14.994  1.00  0.00     0.131 A 
HETATM    2  N4  UNL     1      71.068  54.438  14.480  1.00  0.00    -0.176 N 
ATOM      3  H4  UNL     1      70.319  54.063  13.897  1.00  0.00     0.186 HD
HETATM    4  C11 UNL     1      72.142  53.670  14.686  1.00  0.00     0.685 A 
HETATM    5  N7  UNL     1      73.116  54.151  15.443  1.00  0.00    -0.175 N 
ATOM      6  H7  UNL     1      73.948  53.588  15.619  1.00  0.00     0.186 HD
HETATM    7  C17 UNL     1      73.016  55.377  15.980  1.00  0.00     0.135 A 
HETATM    8  N8  UNL     1      73.869  56.055  16.794  1.00  0.00    -0.350 N 
ATOM      9  H8  UNL     1      74.770  55.707  17.120  1.00  0.00     0.166 HD
HETATM   10  C18 UNL     1      73.350  57.246  17.101  1.00  0.00     0.098 A 
HETATM   11  C19 UNL     1      72.094  57.374  16.466  1.00  0.00    -0.021 A 
HETATM   12  C27 UNL     1      71.915  56.211  15.789  1.00  0.00     0.061 A 
ENDROOT
BRANCH   1  13
HETATM   13  N3  UNL     1      69.855  56.357  14.819  1.00  0.00    -0.375 N 
ATOM     14  H3  UNL     1      69.987  57.320  14.508  1.00  0.00     0.161 HD
BRANCH  13  15
HETATM   15  C9  UNL     1      68.493  55.933  15.007  1.00  0.00     0.121 C 
BRANCH  15  16
HETATM   16  C8  UNL     1      68.289  55.262  16.347  1.00  0.00     0.021 C 
BRANCH  16  17
HETATM   17  C7  UNL     1      67.243  54.189  16.207  1.00  0.00     0.032 C 
BRANCH  17  18
HETATM   18  C6  UNL     1      66.787  53.990  14.804  1.00  0.00     0.272 C 
BRANCH  18  19
HETATM   19  N2  UNL     1      66.677  52.603  14.421  1.00  0.00     0.091 N 
HETATM   20  C5  UNL     1      66.401  52.565  13.010  1.00  0.00     0.302 C 
HETATM   21  C4  UNL     1      66.238  51.125  12.599  1.00  0.00     0.302 C 
HETATM   22  N1  UNL     1      67.526  50.494  12.809  1.00  0.00     0.091 N 
HETATM   23  C29 UNL     1      67.832  50.472  14.196  1.00  0.00     0.302 C 
HETATM   24  C28 UNL     1      67.846  51.838  14.790  1.00  0.00     0.302 C 
BRANCH  22  25
HETATM   25  C3  UNL     1      67.575  49.249  12.145  1.00  0.00     0.272 C 
BRANCH  25  26
HETATM   26  C2  UNL     1      66.248  48.691  11.725  1.00  0.00     0.026 C 
HETATM   27  C1  UNL     1      66.414  47.693  10.596  1.00  0.00     0.007 C 
ENDBRANCH  25  26
ENDBRANCH  22  25
ENDBRANCH  18  19
ENDBRANCH  17  18
ENDBRANCH  16  17
ENDBRANCH  15  16
ENDBRANCH  13  15
ENDBRANCH   1  13
BRANCH   4  28
HETATM   28  N5  UNL     1      72.228  52.375  14.109  1.00  0.00    -0.188 N 
HETATM   29  C12 UNL     1      73.268  51.474  14.583  1.00  0.00     0.174 C 
HETATM   30  C13 UNL     1      73.520  50.336  13.625  1.00  0.00     0.292 C 
HETATM   31  N6  UNL     1      72.338  49.614  13.280  1.00  0.00     0.090 N 
HETATM   32  C14 UNL     1      72.169  48.398  14.050  1.00  0.00     0.310 C 
HETATM   33  C15 UNL     1      71.153  50.396  13.190  1.00  0.00     0.326 C 
HETATM   34  C16 UNL     1      71.359  51.883  13.087  1.00  0.00     0.265 C 
BRANCH  34  35
HETATM   35  O1  UNL     1      71.957  52.142  11.834  1.00  0.00    -0.374 OA
ATOM     36  H1  UNL     1      71.266  52.303  11.202  1.00  0.00     0.212 HD
ENDBRANCH  34  35
ENDBRANCH   4  28
BRANCH  11  37
HETATM   37  C20 UNL     1      71.261  58.586  16.491  1.00  0.00     0.081 C 
BRANCH  37  38
HETATM   38  C21 UNL     1      70.575  58.739  17.774  1.00  0.00    -0.038 A 
HETATM   39  C22 UNL     1      69.401  58.175  18.139  1.00  0.00     0.013 A 
HETATM   40  C23 UNL     1      68.817  58.379  19.375  1.00  0.00     0.056 A 
HETATM   41  C24 UNL     1      69.469  59.192  20.267  1.00  0.00     0.141 A 
HETATM   42  N9  UNL     1      70.645  59.775  19.942  1.00  0.00    -0.346 N 
HETATM   43  C26 UNL     1      71.200  59.565  18.726  1.00  0.00     0.097 A 
ATOM     44  H9  UNL     1      71.116  60.377  20.616  1.00  0.00     0.167 HD
BRANCH  41  45
HETATM   45  O2  UNL     1      68.901  59.406  21.507  1.00  0.00    -0.341 OA
HETATM   46  C25 UNL     1      69.664  60.065  22.496  1.00  0.00     0.211 C 
ENDBRANCH  41  45
ENDBRANCH  37  38
ENDBRANCH  11  37
TORSDOF 13
ENDMDL
MODEL 2
REMARK VINA RESULT: -8.664151216      1.905      3.345
REMARK  13 active torsions:
REMARK  status: ('A' for Active; 'I' for Inactive)
REMARK    1  A    between atoms: C2_2  and  C3_3 
REMARK    2  A    between atoms: C3_3  and  N1_4 
REMARK    3  A    between atoms: N2_7  and  C6_8 
REMARK    4  A    between atoms: C6_8  and  C7_9 
REMARK    5  A    between atoms: C7_9  and  C8_10 
REMARK    6  A    between atoms: C8_10  and  C9_11 
REMARK    7  A    between atoms: C9_11  and  N3_12 
REMARK    8  A    between atoms: N3_12  and  C10_14 
REMARK    9  A    between atoms: C11_17  and  N5_18 
REMARK   10  A    between atoms: C16_24  and  O1_25 
REMARK   11  A    between atoms: C19_33  and  C20_34 
REMARK   12  A    between atoms: C20_34  and  C21_35 
REMARK   13  A    between atoms: C24_38  and  O2_39 
ROOT
HETATM    1  C10 UNL     1      71.718  58.445  17.152  1.00  0.00     0.131 A 
HETATM    2  N4  UNL     1      71.894  57.327  16.413  1.00  0.00    -0.176 N 
ATOM      3  H4  UNL     1      71.160  57.071  15.752  1.00  0.00     0.186 HD
HETATM    4  C11 UNL     1      72.967  56.535  16.492  1.00  0.00     0.685 A 
HETATM    5  N7  UNL     1      73.922  56.862  17.349  1.00  0.00    -0.175 N 
ATOM      6  H7  UNL     1      74.753  56.276  17.432  1.00  0.00     0.186 HD
HETATM    7  C17 UNL     1      73.803  57.961  18.110  1.00  0.00     0.135 A 
HETATM    8  N8  UNL     1      74.634  58.471  19.058  1.00  0.00    -0.350 N 
ATOM      9  H8  UNL     1      75.530  58.067  19.332  1.00  0.00     0.166 HD
HETATM   10  C18 UNL     1      74.103  59.579  19.577  1.00  0.00     0.098 A 
HETATM   11  C19 UNL     1      72.860  59.826  18.951  1.00  0.00    -0.021 A 
HETATM   12  C27 UNL     1      72.702  58.815  18.058  1.00  0.00     0.061 A 
ENDROOT
BRANCH   1  13
HETATM   13  N3  UNL     1      70.664  59.143  17.088  1.00  0.00    -0.375 N 
ATOM     14  H3  UNL     1      70.797  60.151  17.000  1.00  0.00     0.161 HD
BRANCH  13  15
HETATM   15  C9  UNL     1      69.300  58.686  17.123  1.00  0.00     0.121 C 
BRANCH  15  16
HETATM   16  C8  UNL     1      69.023  57.826  18.337  1.00  0.00     0.021 C 
BRANCH  16  17
HETATM   17  C7  UNL     1      68.937  56.385  17.910  1.00  0.00     0.032 C 
BRANCH  17  18
HETATM   18  C6  UNL     1      68.506  56.214  16.496  1.00  0.00     0.272 C 
BRANCH  18  19
HETATM   19  N2  UNL     1      67.896  54.935  16.226  1.00  0.00     0.091 N 
HETATM   20  C5  UNL     1      67.231  55.032  14.955  1.00  0.00     0.302 C 
HETATM   21  C4  UNL     1      66.549  53.718  14.676  1.00  0.00     0.302 C 
HETATM   22  N1  UNL     1      67.604  52.733  14.542  1.00  0.00     0.091 N 
HETATM   23  C29 UNL     1      68.272  52.570  15.786  1.00  0.00     0.302 C 
HETATM   24  C28 UNL     1      68.849  53.849  16.285  1.00  0.00     0.302 C 
BRANCH  22  25
HETATM   25  C3  UNL     1      67.100  51.554  13.951  1.00  0.00     0.272 C 
BRANCH  25  26
HETATM   26  C2  UNL     1      65.936  51.745  13.025  1.00  0.00     0.026 C 
HETATM   27  C1  UNL     1      65.678  50.489  12.216  1.00  0.00     0.007 C 
ENDBRANCH  25  26
ENDBRANCH  22  25
ENDBRANCH  18  19
ENDBRANCH  17  18
ENDBRANCH  16  17
ENDBRANCH  15  16
ENDBRANCH  13  15
ENDBRANCH   1  13
BRANCH   4  28
HETATM   28  N5  UNL     1      73.073  55.375  15.677  1.00  0.00    -0.188 N 
HETATM   29  C12 UNL     1      74.032  54.349  16.058  1.00  0.00     0.174 C 
HETATM   30  C13 UNL     1      74.346  53.409  14.920  1.00  0.00     0.292 C 
HETATM   31  N6  UNL     1      73.184  52.829  14.327  1.00  0.00     0.090 N 
HETATM   32  C14 UNL     1      72.901  51.496  14.818  1.00  0.00     0.310 C 
HETATM   33  C15 UNL     1      72.040  53.672  14.283  1.00  0.00     0.326 C 
HETATM   34  C16 UNL     1      72.300  55.138  14.500  1.00  0.00     0.265 C 
BRANCH  34  35
HETATM   35  O1  UNL     1      73.031  55.607  13.387  1.00  0.00    -0.374 OA
ATOM     36  H1  UNL     1      73.208  54.870  12.814  1.00  0.00     0.212 HD
ENDBRANCH  34  35
ENDBRANCH   4  28
BRANCH  11  37
HETATM   37  C20 UNL     1      72.020  61.009  19.189  1.00  0.00     0.081 C 
BRANCH  37  38
HETATM   38  C21 UNL     1      71.249  60.878  20.425  1.00  0.00    -0.038 A 
HETATM   39  C22 UNL     1      70.192  60.061  20.640  1.00  0.00     0.013 A 
HETATM   40  C23 UNL     1      69.513  60.005  21.843  1.00  0.00     0.056 A 
HETATM   41  C24 UNL     1      69.939  60.819  22.861  1.00  0.00     0.141 A 
HETATM   42  N9  UNL     1      70.992  61.651  22.687  1.00  0.00    -0.346 N 
HETATM   43  C26 UNL     1      71.643  61.693  21.502  1.00  0.00     0.097 A 
ATOM     44  H9  UNL     1      71.296  62.249  23.454  1.00  0.00     0.167 HD
BRANCH  41  45
HETATM   45  O2  UNL     1      69.273  60.775  24.068  1.00  0.00    -0.341 OA
HETATM   46  C25 UNL     1      69.641  59.785  25.007  1.00  0.00     0.211 C 
ENDBRANCH  41  45
ENDBRANCH  37  38
ENDBRANCH  11  37
TORSDOF 13
ENDMDL
MODEL 3
REMARK VINA RESULT: -8.403658060      2.385      3.938
REMARK  13 active torsions:
REMARK  status: ('A' for Active; 'I' for Inactive)
REMARK    1  A    between atoms: C2_2  and  C3_3 
REMARK    2  A    between atoms: C3_3  and  N1_4 
REMARK    3  A    between atoms: N2_7  and  C6_8 
REMARK    4  A    between atoms: C6_8  and  C7_9 
REMARK    5  A    between atoms: C7_9  and  C8_10 
REMARK    6  A    between atoms: C8_10  and  C9_11 
REMARK    7  A    between atoms: C9_11  and  N3_12 
REMARK    8  A    between atoms: N3_12  and  C10_14 
REMARK    9  A    between atoms: C11_17  and  N5_18 
REMARK   10  A    between atoms: C16_24  and  O1_25 
REMARK   11  A    between atoms: C19_33  and  C20_34 
REMARK   12  A    between atoms: C20_34  and  C21_35 
REMARK   13  A    between atoms: C24_38  and  O2_39 
ROOT
HETATM    1  C10 UNL     1      71.811  58.606  17.175  1.00  0.00     0.131 A 
HETATM    2  N4  UNL     1      71.968  57.472  16.455  1.00  0.00    -0.176 N 
ATOM      3  H4  UNL     1      71.240  57.230  15.782  1.00  0.00     0.186 HD
HETATM    4  C11 UNL     1      73.014  56.648  16.567  1.00  0.00     0.685 A 
HETATM    5  N7  UNL     1      73.961  56.958  17.439  1.00  0.00    -0.175 N 
ATOM      6  H7  UNL     1      74.771  56.348  17.547  1.00  0.00     0.186 HD
HETATM    7  C17 UNL     1      73.861  58.071  18.182  1.00  0.00     0.135 A 
HETATM    8  N8  UNL     1      74.688  58.568  19.141  1.00  0.00    -0.350 N 
ATOM      9  H8  UNL     1      75.565  58.141  19.438  1.00  0.00     0.166 HD
HETATM   10  C18 UNL     1      74.181  59.700  19.633  1.00  0.00     0.098 A 
HETATM   11  C19 UNL     1      72.960  59.976  18.977  1.00  0.00    -0.021 A 
HETATM   12  C27 UNL     1      72.788  58.958  18.096  1.00  0.00     0.061 A 
ENDROOT
BRANCH   1  13
HETATM   13  N3  UNL     1      70.781  59.335  17.079  1.00  0.00    -0.375 N 
ATOM     14  H3  UNL     1      70.947  60.340  17.010  1.00  0.00     0.161 HD
BRANCH  13  15
HETATM   15  C9  UNL     1      69.405  58.918  17.054  1.00  0.00     0.121 C 
BRANCH  15  16
HETATM   16  C8  UNL     1      68.983  58.282  18.360  1.00  0.00     0.021 C 
BRANCH  16  17
HETATM   17  C7  UNL     1      68.717  56.818  18.133  1.00  0.00     0.032 C 
BRANCH  17  18
HETATM   18  C6  UNL     1      68.710  56.437  16.695  1.00  0.00     0.272 C 
BRANCH  18  19
HETATM   19  N2  UNL     1      68.060  55.176  16.431  1.00  0.00     0.091 N 
HETATM   20  C5  UNL     1      67.394  55.289  15.163  1.00  0.00     0.302 C 
HETATM   21  C4  UNL     1      66.671  53.995  14.891  1.00  0.00     0.302 C 
HETATM   22  N1  UNL     1      67.695  52.978  14.758  1.00  0.00     0.091 N 
HETATM   23  C29 UNL     1      68.362  52.799  15.999  1.00  0.00     0.302 C 
HETATM   24  C28 UNL     1      68.979  54.062  16.492  1.00  0.00     0.302 C 
BRANCH  22  25
HETATM   25  C3  UNL     1      67.153  51.813  14.173  1.00  0.00     0.272 C 
BRANCH  25  26
HETATM   26  C2  UNL     1      65.999  52.037  13.242  1.00  0.00     0.026 C 
HETATM   27  C1  UNL     1      65.697  50.783  12.444  1.00  0.00     0.007 C 
ENDBRANCH  25  26
ENDBRANCH  22  25
ENDBRANCH  18  19
ENDBRANCH  17  18
ENDBRANCH  16  17
ENDBRANCH  15  16
ENDBRANCH  13  15
ENDBRANCH   1  13
BRANCH   4  28
HETATM   28  N5  UNL     1      73.100  55.475  15.770  1.00  0.00    -0.188 N 
HETATM   29  C12 UNL     1      74.112  54.485  16.106  1.00  0.00     0.174 C 
HETATM   30  C13 UNL     1      74.378  53.529  14.969  1.00  0.00     0.292 C 
HETATM   31  N6  UNL     1      73.197  52.903  14.468  1.00  0.00     0.090 N 
HETATM   32  C14 UNL     1      72.988  51.574  15.004  1.00  0.00     0.310 C 
HETATM   33  C15 UNL     1      72.027  53.712  14.485  1.00  0.00     0.326 C 
HETATM   34  C16 UNL     1      72.257  55.189  14.653  1.00  0.00     0.265 C 
BRANCH  34  35
HETATM   35  O1  UNL     1      72.897  55.654  13.484  1.00  0.00    -0.374 OA
ATOM     36  H1  UNL     1      73.398  56.430  13.707  1.00  0.00     0.212 HD
ENDBRANCH  34  35
ENDBRANCH   4  28
BRANCH  11  37
HETATM   37  C20 UNL     1      72.153  61.188  19.183  1.00  0.00     0.081 C 
BRANCH  37  38
HETATM   38  C21 UNL     1      72.226  61.653  20.567  1.00  0.00    -0.038 A 
HETATM   39  C22 UNL     1      73.199  62.416  21.117  1.00  0.00     0.013 A 
HETATM   40  C23 UNL     1      73.194  62.807  22.443  1.00  0.00     0.056 A 
HETATM   41  C24 UNL     1      72.147  62.399  23.230  1.00  0.00     0.141 A 
HETATM   42  N9  UNL     1      71.155  61.635  22.719  1.00  0.00    -0.346 N 
HETATM   43  C26 UNL     1      71.178  61.261  21.419  1.00  0.00     0.097 A 
ATOM     44  H9  UNL     1      70.384  61.340  23.317  1.00  0.00     0.167 HD
BRANCH  41  45
HETATM   45  O2  UNL     1      72.126  62.781  24.555  1.00  0.00    -0.341 OA
HETATM   46  C25 UNL     1      72.163  61.778  25.549  1.00  0.00     0.211 C 
ENDBRANCH  41  45
ENDBRANCH  37  38
ENDBRANCH  11  37
TORSDOF 13
ENDMDL
MODEL 4
REMARK VINA RESULT: -8.388212038      1.531      1.928
REMARK  13 active torsions:
REMARK  status: ('A' for Active; 'I' for Inactive)
REMARK    1  A    between atoms: C2_2  and  C3_3 
REMARK    2  A    between atoms: C3_3  and  N1_4 
REMARK    3  A    between atoms: N2_7  and  C6_8 
REMARK    4  A    between atoms: C6_8  and  C7_9 
REMARK    5  A    between atoms: C7_9  and  C8_10 
REMARK    6  A    between atoms: C8_10  and  C9_11 
REMARK    7  A    between atoms: C9_11  and  N3_12 
REMARK    8  A    between atoms: N3_12  and  C10_14 
REMARK    9  A    between atoms: C11_17  and  N5_18 
REMARK   10  A    between atoms: C16_24  and  O1_25 
REMARK   11  A    between atoms: C19_33  and  C20_34 
REMARK   12  A    between atoms: C20_34  and  C21_35 
REMARK   13  A    between atoms: C24_38  and  O2_39 
ROOT
HETATM    1  C10 UNL     1      69.692  54.727  16.027  1.00  0.00     0.131 A 
HETATM    2  N4  UNL     1      70.266  53.626  15.491  1.00  0.00    -0.176 N 
ATOM      3  H4  UNL     1      69.795  52.731  15.622  1.00  0.00     0.186 HD
HETATM    4  C11 UNL     1      71.410  53.635  14.801  1.00  0.00     0.685 A 
HETATM    5  N7  UNL     1      72.026  54.795  14.629  1.00  0.00    -0.175 N 
ATOM      6  H7  UNL     1      72.901  54.832  14.107  1.00  0.00     0.186 HD
HETATM    7  C17 UNL     1      71.504  55.921  15.137  1.00  0.00     0.135 A 
HETATM    8  N8  UNL     1      71.966  57.200  15.104  1.00  0.00    -0.350 N 
ATOM      9  H8  UNL     1      72.827  57.501  14.646  1.00  0.00     0.166 HD
HETATM   10  C18 UNL     1      71.126  58.002  15.760  1.00  0.00     0.098 A 
HETATM   11  C19 UNL     1      70.052  57.230  16.256  1.00  0.00    -0.021 A 
HETATM   12  C27 UNL     1      70.312  55.958  15.861  1.00  0.00     0.061 A 
ENDROOT
BRANCH   1  13
HETATM   13  N3  UNL     1      68.633  54.673  16.719  1.00  0.00    -0.375 N 
ATOM     14  H3  UNL     1      68.684  55.087  17.650  1.00  0.00     0.161 HD
BRANCH  13  15
HETATM   15  C9  UNL     1      67.368  54.098  16.349  1.00  0.00     0.121 C 
BRANCH  15  16
HETATM   16  C8  UNL     1      66.809  54.721  15.090  1.00  0.00     0.021 C 
BRANCH  16  17
HETATM   17  C7  UNL     1      66.004  53.690  14.345  1.00  0.00     0.032 C 
BRANCH  17  18
HETATM   18  C6  UNL     1      66.785  52.974  13.300  1.00  0.00     0.272 C 
BRANCH  18  19
HETATM   19  N2  UNL     1      66.819  51.543  13.479  1.00  0.00     0.091 N 
HETATM   20  C5  UNL     1      66.591  50.940  12.194  1.00  0.00     0.302 C 
HETATM   21  C4  UNL     1      66.577  49.444  12.368  1.00  0.00     0.302 C 
HETATM   22  N1  UNL     1      67.912  49.073  12.794  1.00  0.00     0.091 N 
HETATM   23  C29 UNL     1      68.175  49.613  14.081  1.00  0.00     0.302 C 
HETATM   24  C28 UNL     1      68.043  51.096  14.105  1.00  0.00     0.302 C 
BRANCH  22  25
HETATM   25  C3  UNL     1      68.099  47.679  12.658  1.00  0.00     0.272 C 
BRANCH  25  26
HETATM   26  C2  UNL     1      67.263  46.826  13.564  1.00  0.00     0.026 C 
HETATM   27  C1  UNL     1      68.137  45.961  14.450  1.00  0.00     0.007 C 
ENDBRANCH  25  26
ENDBRANCH  22  25
ENDBRANCH  18  19
ENDBRANCH  17  18
ENDBRANCH  16  17
ENDBRANCH  15  16
ENDBRANCH  13  15
ENDBRANCH   1  13
BRANCH   4  28
HETATM   28  N5  UNL     1      71.945  52.430  14.272  1.00  0.00    -0.188 N 
HETATM   29  C12 UNL     1      73.091  51.830  14.940  1.00  0.00     0.174 C 
HETATM   30  C13 UNL     1      73.807  50.833  14.064  1.00  0.00     0.292 C 
HETATM   31  N6  UNL     1      72.946  49.829  13.527  1.00  0.00     0.090 N 
HETATM   32  C14 UNL     1      72.981  48.590  14.277  1.00  0.00     0.310 C 
HETATM   33  C15 UNL     1      71.629  50.264  13.213  1.00  0.00     0.326 C 
HETATM   34  C16 UNL     1      71.438  51.753  13.121  1.00  0.00     0.265 C 
BRANCH  34  35
HETATM   35  O1  UNL     1      72.154  52.203  11.990  1.00  0.00    -0.374 OA
ATOM     36  H1  UNL     1      71.608  52.078  11.222  1.00  0.00     0.212 HD
ENDBRANCH  34  35
ENDBRANCH   4  28
BRANCH  11  37
HETATM   37  C20 UNL     1      68.877  57.776  16.952  1.00  0.00     0.081 C 
BRANCH  37  38
HETATM   38  C21 UNL     1      69.260  58.776  17.948  1.00  0.00    -0.038 A 
HETATM   39  C22 UNL     1      69.893  58.551  19.123  1.00  0.00     0.013 A 
HETATM   40  C23 UNL     1      70.213  59.558  20.014  1.00  0.00     0.056 A 
HETATM   41  C24 UNL     1      69.871  60.844  19.680  1.00  0.00     0.141 A 
HETATM   42  N9  UNL     1      69.239  61.112  18.515  1.00  0.00    -0.346 N 
HETATM   43  C26 UNL     1      68.931  60.112  17.657  1.00  0.00     0.097 A 
ATOM     44  H9  UNL     1      68.991  62.073  18.282  1.00  0.00     0.167 HD
BRANCH  41  45
HETATM   45  O2  UNL     1      70.185  61.862  20.557  1.00  0.00    -0.341 OA
HETATM   46  C25 UNL     1      70.687  61.524  21.834  1.00  0.00     0.211 C 
ENDBRANCH  41  45
ENDBRANCH  37  38
ENDBRANCH  11  37
TORSDOF 13
ENDMDL
MODEL 5
REMARK VINA RESULT: -8.335931491      1.796      7.500
REMARK  13 active torsions:
REMARK  status: ('A' for Active; 'I' for Inactive)
REMARK    1  A    between atoms: C2_2  and  C3_3 
REMARK    2  A    between atoms: C3_3  and  N1_4 
REMARK    3  A    between atoms: N2_7  and  C6_8 
REMARK    4  A    between atoms: C6_8  and  C7_9 
REMARK    5  A    between atoms: C7_9  and  C8_10 
REMARK    6  A    between atoms: C8_10  and  C9_11 
REMARK    7  A    between atoms: C9_11  and  N3_12 
REMARK    8  A    between atoms: N3_12  and  C10_14 
REMARK    9  A    between atoms: C11_17  and  N5_18 
REMARK   10  A    between atoms: C16_24  and  O1_25 
REMARK   11  A    between atoms: C19_33  and  C20_34 
REMARK   12  A    between atoms: C20_34  and  C21_35 
REMARK   13  A    between atoms: C24_38  and  O2_39 
ROOT
HETATM    1  C10 UNL     1      69.180  56.003  16.846  1.00  0.00     0.131 A 
HETATM    2  N4  UNL     1      69.114  56.903  17.854  1.00  0.00    -0.176 N 
ATOM      3  H4  UNL     1      68.496  56.695  18.639  1.00  0.00     0.186 HD
HETATM    4  C11 UNL     1      69.805  58.045  17.888  1.00  0.00     0.685 A 
HETATM    5  N7  UNL     1      70.608  58.319  16.871  1.00  0.00    -0.175 N 
ATOM      6  H7  UNL     1      71.147  59.185  16.870  1.00  0.00     0.186 HD
HETATM    7  C17 UNL     1      70.715  57.465  15.842  1.00  0.00     0.135 A 
HETATM    8  N8  UNL     1      71.448  57.549  14.700  1.00  0.00    -0.350 N 
ATOM      9  H8  UNL     1      72.069  58.320  14.457  1.00  0.00     0.166 HD
HETATM   10  C18 UNL     1      71.233  56.470  13.944  1.00  0.00     0.098 A 
HETATM   11  C19 UNL     1      70.316  55.624  14.608  1.00  0.00    -0.021 A 
HETATM   12  C27 UNL     1      70.014  56.262  15.767  1.00  0.00     0.061 A 
ENDROOT
BRANCH   1  13
HETATM   13  N3  UNL     1      68.470  54.955  16.823  1.00  0.00    -0.375 N 
ATOM     14  H3  UNL     1      68.965  54.075  16.973  1.00  0.00     0.161 HD
BRANCH  13  15
HETATM   15  C9  UNL     1      67.051  54.856  16.611  1.00  0.00     0.121 C 
BRANCH  15  16
HETATM   16  C8  UNL     1      66.710  54.636  15.154  1.00  0.00     0.021 C 
BRANCH  16  17
HETATM   17  C7  UNL     1      66.779  53.163  14.849  1.00  0.00     0.032 C 
BRANCH  17  18
HETATM   18  C6  UNL     1      66.446  52.838  13.435  1.00  0.00     0.272 C 
BRANCH  18  19
HETATM   19  N2  UNL     1      67.080  51.636  12.951  1.00  0.00     0.091 N 
HETATM   20  C5  UNL     1      67.759  51.027  14.062  1.00  0.00     0.302 C 
HETATM   21  C4  UNL     1      68.466  49.792  13.565  1.00  0.00     0.302 C 
HETATM   22  N1  UNL     1      67.429  48.877  13.131  1.00  0.00     0.091 N 
HETATM   23  C29 UNL     1      66.749  49.417  12.006  1.00  0.00     0.302 C 
HETATM   24  C28 UNL     1      66.145  50.747  12.300  1.00  0.00     0.302 C 
BRANCH  22  25
HETATM   25  C3  UNL     1      67.959  47.579  12.969  1.00  0.00     0.272 C 
BRANCH  25  26
HETATM   26  C2  UNL     1      67.365  46.526  13.856  1.00  0.00     0.026 C 
HETATM   27  C1  UNL     1      68.434  45.875  14.712  1.00  0.00     0.007 C 
ENDBRANCH  25  26
ENDBRANCH  22  25
ENDBRANCH  18  19
ENDBRANCH  17  18
ENDBRANCH  16  17
ENDBRANCH  15  16
ENDBRANCH  13  15
ENDBRANCH   1  13
BRANCH   4  28
HETATM   28  N5  UNL     1      69.676  58.936  18.988  1.00  0.00    -0.188 N 
HETATM   29  C12 UNL     1      68.562  58.746  19.904  1.00  0.00     0.174 C 
HETATM   30  C13 UNL     1      68.297  59.970  20.745  1.00  0.00     0.292 C 
HETATM   31  N6  UNL     1      69.452  60.443  21.437  1.00  0.00     0.090 N 
HETATM   32  C14 UNL     1      69.509  60.002  22.816  1.00  0.00     0.310 C 
HETATM   33  C15 UNL     1      70.683  60.287  20.741  1.00  0.00     0.326 C 
HETATM   34  C16 UNL     1      70.569  60.017  19.265  1.00  0.00     0.265 C 
BRANCH  34  35
HETATM   35  O1  UNL     1      70.054  61.184  18.659  1.00  0.00    -0.374 OA
ATOM     36  H1  UNL     1      69.658  60.940  17.831  1.00  0.00     0.212 HD
ENDBRANCH  34  35
ENDBRANCH   4  28
BRANCH  11  37
HETATM   37  C20 UNL     1      69.905  54.295  14.131  1.00  0.00     0.081 C 
BRANCH  37  38
HETATM   38  C21 UNL     1      71.000  53.330  14.222  1.00  0.00    -0.038 A 
HETATM   39  C22 UNL     1      71.954  53.272  15.180  1.00  0.00     0.013 A 
HETATM   40  C23 UNL     1      72.962  52.326  15.186  1.00  0.00     0.056 A 
HETATM   41  C24 UNL     1      72.987  51.407  14.168  1.00  0.00     0.141 A 
HETATM   42  N9  UNL     1      72.053  51.430  13.191  1.00  0.00    -0.346 N 
HETATM   43  C26 UNL     1      71.075  52.365  13.201  1.00  0.00     0.097 A 
ATOM     44  H9  UNL     1      72.086  50.740  12.441  1.00  0.00     0.167 HD
BRANCH  41  45
HETATM   45  O2  UNL     1      73.986  50.455  14.160  1.00  0.00    -0.341 OA
HETATM   46  C25 UNL     1      73.699  49.178  13.628  1.00  0.00     0.211 C 
ENDBRANCH  41  45
ENDBRANCH  37  38
ENDBRANCH  11  37
TORSDOF 13
ENDMDL
