MODEL 1
REMARK VINA RESULT: -8.555004872      0.000      0.000
REMARK  12 active torsions:
REMARK  status: ('A' for Active; 'I' for Inactive)
REMARK    1  A    between atoms: S1_2  and  C2_3 
REMARK    2  A    between atoms: C2_3  and  C3_4 
REMARK       I    between atoms: C3_4  and  N1_6 
REMARK    3  A    between atoms: N1_6  and  C4_8 
REMARK    4  A    between atoms: C7_11  and  C8_12 
REMARK    5  A    between atoms: C8_12  and  N2_13 
REMARK    6  A    between atoms: N2_13  and  C9_15 
REMARK    7  A    between atoms: C9_15  and  C10_16 
REMARK    8  A    between atoms: C10_16  and  C11_17 
REMARK    9  A    between atoms: C11_17  and  N3_18 
REMARK   10  A    between atoms: N3_18  and  C13_20 
REMARK   11  A    between atoms: C14_23  and  C15_24 
REMARK   12  A    between atoms: C17_26  and  C18_27 
ROOT
HETATM    1  N3  UNL     1      15.567  22.430  64.101  1.00  0.00    -0.366 N 
HETATM    2  C12 UNL     1      16.152  23.530  64.824  1.00  0.00     0.151 C 
ENDROOT
BRANCH   1   3
HETATM    3  C11 UNL     1      14.973  21.346  64.803  1.00  0.00     0.126 C 
BRANCH   3   4
HETATM    4  C10 UNL     1      13.650  21.578  65.435  1.00  0.00     0.039 C 
BRANCH   4   5
HETATM    5  C9  UNL     1      12.461  20.959  64.799  1.00  0.00     0.115 C 
BRANCH   5   6
HETATM    6  N2  UNL     1      12.459  19.539  65.085  1.00  0.00    -0.421 N 
ATOM      7  H2  UNL     1      12.400  19.176  66.037  1.00  0.00     0.153 HD
BRANCH   6   8
HETATM    8  C8  UNL     1      12.543  18.685  63.954  1.00  0.00     0.118 C 
BRANCH   8   9
HETATM    9  C7  UNL     1      11.264  17.885  63.749  1.00  0.00     0.003 C 
HETATM   10  C6  UNL     1      10.195  18.417  64.722  1.00  0.00     0.008 C 
HETATM   11  C5  UNL     1       9.029  17.439  64.643  1.00  0.00     0.026 C 
HETATM   12  C4  UNL     1       8.906  16.854  63.275  1.00  0.00     0.084 C 
HETATM   13  C26 UNL     1       9.268  17.908  62.247  1.00  0.00     0.026 C 
HETATM   14  C25 UNL     1      10.734  18.293  62.362  1.00  0.00     0.008 C 
BRANCH  12  15
HETATM   15  N1  UNL     1       7.604  16.334  62.958  1.00  0.00    -0.356 N 
HETATM   16  C3  UNL     1       7.378  15.164  62.207  1.00  0.00     0.227 C 
HETATM   17  O1  UNL     1       8.281  14.461  61.744  1.00  0.00    -0.273 OA
ATOM     18  H1  UNL     1       6.791  16.846  63.298  1.00  0.00     0.162 HD
BRANCH  16  19
HETATM   19  C2  UNL     1       5.954  14.740  61.948  1.00  0.00     0.176 C 
BRANCH  19  20
HETATM   20  S1  UNL     1       4.818  15.905  62.721  1.00  0.00    -0.164 SA
HETATM   21  C1  UNL     1       3.197  15.847  61.946  1.00  0.00     0.090 C 
ENDBRANCH  19  20
ENDBRANCH  16  19
ENDBRANCH  12  15
ENDBRANCH   8   9
ENDBRANCH   6   8
ENDBRANCH   5   6
ENDBRANCH   4   5
ENDBRANCH   3   4
ENDBRANCH   1   3
BRANCH   1  22
HETATM   22  C13 UNL     1      15.638  22.440  62.671  1.00  0.00     0.146 A 
HETATM   23  N4  UNL     1      16.432  23.097  61.859  1.00  0.00    -0.336 N 
HETATM   24  C14 UNL     1      16.343  22.943  60.575  1.00  0.00     0.052 A 
ATOM     25  H4  UNL     1      17.127  23.737  62.243  1.00  0.00     0.168 HD
HETATM   26  C24 UNL     1      15.392  22.071  60.104  1.00  0.00     0.083 A 
HETATM   27  S2  UNL     1      14.678  21.524  61.553  1.00  0.00    -0.064 SA
BRANCH  24  28
HETATM   28  C15 UNL     1      17.221  23.685  59.629  1.00  0.00     0.013 A 
HETATM   29  C16 UNL     1      16.832  24.893  59.096  1.00  0.00     0.026 A 
HETATM   30  C17 UNL     1      17.631  25.600  58.225  1.00  0.00    -0.013 A 
HETATM   31  C21 UNL     1      18.855  25.110  57.863  1.00  0.00     0.043 A 
HETATM   32 CL2  UNL     1      19.933  25.954  56.753  1.00  0.00    -0.084 Cl
HETATM   33  C22 UNL     1      19.286  23.884  58.386  1.00  0.00     0.049 A 
HETATM   34  C23 UNL     1      18.457  23.204  59.255  1.00  0.00     0.048 A 
HETATM   35 CL3  UNL     1      19.028  21.656  59.901  1.00  0.00    -0.083 Cl
BRANCH  30  36
HETATM   36  C18 UNL     1      17.183  26.892  57.649  1.00  0.00     0.058 C 
HETATM   37  C19 UNL     1      17.936  28.055  58.287  1.00  0.00     0.037 C 
HETATM   38  C20 UNL     1      15.685  27.019  57.849  1.00  0.00     0.037 C 
HETATM   39 CL1  UNL     1      17.551  26.899  55.907  1.00  0.00    -0.115 Cl
ENDBRANCH  30  36
ENDBRANCH  24  28
ENDBRANCH   1  22
TORSDOF 12
ENDMDL
MODEL 2
REMARK VINA RESULT: -8.268063058      3.033      3.865
REMARK  12 active torsions:
REMARK  status: ('A' for Active; 'I' for Inactive)
REMARK    1  A    between atoms: S1_2  and  C2_3 
REMARK    2  A    between atoms: C2_3  and  C3_4 
REMARK       I    between atoms: C3_4  and  N1_6 
REMARK    3  A    between atoms: N1_6  and  C4_8 
REMARK    4  A    between atoms: C7_11  and  C8_12 
REMARK    5  A    between atoms: C8_12  and  N2_13 
REMARK    6  A    between atoms: N2_13  and  C9_15 
REMARK    7  A    between atoms: C9_15  and  C10_16 
REMARK    8  A    between atoms: C10_16  and  C11_17 
REMARK    9  A    between atoms: C11_17  and  N3_18 
REMARK   10  A    between atoms: N3_18  and  C13_20 
REMARK   11  A    between atoms: C14_23  and  C15_24 
REMARK   12  A    between atoms: C17_26  and  C18_27 
ROOT
HETATM    1  N3  UNL     1      15.143  21.810  60.534  1.00  0.00    -0.366 N 
HETATM    2  C12 UNL     1      14.653  21.697  59.184  1.00  0.00     0.151 C 
ENDROOT
BRANCH   1   3
HETATM    3  C11 UNL     1      14.345  21.367  61.624  1.00  0.00     0.126 C 
BRANCH   3   4
HETATM    4  C10 UNL     1      15.009  20.562  62.680  1.00  0.00     0.039 C 
BRANCH   4   5
HETATM    5  C9  UNL     1      14.863  21.008  64.087  1.00  0.00     0.115 C 
BRANCH   5   6
HETATM    6  N2  UNL     1      13.977  20.097  64.782  1.00  0.00    -0.421 N 
ATOM      7  H2  UNL     1      14.270  19.160  65.060  1.00  0.00     0.153 HD
BRANCH   6   8
HETATM    8  C8  UNL     1      12.674  20.592  65.049  1.00  0.00     0.118 C 
BRANCH   8   9
HETATM    9  C7  UNL     1      11.595  19.591  64.656  1.00  0.00     0.003 C 
HETATM   10  C6  UNL     1      10.248  20.080  65.220  1.00  0.00     0.008 C 
HETATM   11  C5  UNL     1       9.261  18.938  65.005  1.00  0.00     0.026 C 
HETATM   12  C4  UNL     1       9.585  18.171  63.768  1.00  0.00     0.084 C 
HETATM   13  C26 UNL     1      10.102  19.124  62.709  1.00  0.00     0.026 C 
HETATM   14  C25 UNL     1      11.428  19.734  63.131  1.00  0.00     0.008 C 
BRANCH  12  15
HETATM   15  N1  UNL     1       8.486  17.427  63.215  1.00  0.00    -0.356 N 
HETATM   16  C3  UNL     1       8.086  16.151  63.660  1.00  0.00     0.227 C 
HETATM   17  O1  UNL     1       8.642  15.540  64.577  1.00  0.00    -0.273 OA
ATOM     18  H1  UNL     1       7.960  17.850  62.451  1.00  0.00     0.162 HD
BRANCH  16  19
HETATM   19  C2  UNL     1       6.914  15.488  62.982  1.00  0.00     0.176 C 
BRANCH  19  20
HETATM   20  S1  UNL     1       7.110  15.579  61.193  1.00  0.00    -0.164 SA
HETATM   21  C1  UNL     1       8.764  15.081  60.693  1.00  0.00     0.090 C 
ENDBRANCH  19  20
ENDBRANCH  16  19
ENDBRANCH  12  15
ENDBRANCH   8   9
ENDBRANCH   6   8
ENDBRANCH   5   6
ENDBRANCH   4   5
ENDBRANCH   3   4
ENDBRANCH   1   3
BRANCH   1  22
HETATM   22  C13 UNL     1      16.424  22.413  60.746  1.00  0.00     0.146 A 
HETATM   23  N4  UNL     1      16.751  23.543  61.327  1.00  0.00    -0.336 N 
HETATM   24  C14 UNL     1      17.993  23.898  61.436  1.00  0.00     0.052 A 
ATOM     25  H4  UNL     1      16.019  24.150  61.697  1.00  0.00     0.168 HD
HETATM   26  C24 UNL     1      18.943  23.048  60.923  1.00  0.00     0.083 A 
HETATM   27  S2  UNL     1      17.980  21.782  60.310  1.00  0.00    -0.064 SA
BRANCH  24  28
HETATM   28  C15 UNL     1      18.394  25.180  62.078  1.00  0.00     0.013 A 
HETATM   29  C16 UNL     1      18.828  26.247  61.323  1.00  0.00     0.026 A 
HETATM   30  C17 UNL     1      19.198  27.444  61.895  1.00  0.00    -0.013 A 
HETATM   31  C21 UNL     1      19.138  27.606  63.252  1.00  0.00     0.043 A 
HETATM   32 CL2  UNL     1      19.595  29.106  64.057  1.00  0.00    -0.084 Cl
HETATM   33  C22 UNL     1      18.700  26.543  64.052  1.00  0.00     0.049 A 
HETATM   34  C23 UNL     1      18.340  25.357  63.443  1.00  0.00     0.048 A 
HETATM   35 CL3  UNL     1      17.789  24.030  64.479  1.00  0.00    -0.083 Cl
BRANCH  30  36
HETATM   36  C18 UNL     1      19.679  28.576  61.064  1.00  0.00     0.058 C 
HETATM   37  C19 UNL     1      19.502  28.268  59.581  1.00  0.00     0.037 C 
HETATM   38  C20 UNL     1      21.131  28.847  61.410  1.00  0.00     0.037 C 
HETATM   39 CL1  UNL     1      18.702  30.015  61.439  1.00  0.00    -0.115 Cl
ENDBRANCH  30  36
ENDBRANCH  24  28
ENDBRANCH   1  22
TORSDOF 12
ENDMDL
MODEL 3
REMARK VINA RESULT: -8.195429837      3.057      3.900
REMARK  12 active torsions:
REMARK  status: ('A' for Active; 'I' for Inactive)
REMARK    1  A    between atoms: S1_2  and  C2_3 
REMARK    2  A    between atoms: C2_3  and  C3_4 
REMARK       I    between atoms: C3_4  and  N1_6 
REMARK    3  A    between atoms: N1_6  and  C4_8 
REMARK    4  A    between atoms: C7_11  and  C8_12 
REMARK    5  A    between atoms: C8_12  and  N2_13 
REMARK    6  A    between atoms: N2_13  and  C9_15 
REMARK    7  A    between atoms: C9_15  and  C10_16 
REMARK    8  A    between atoms: C10_16  and  C11_17 
REMARK    9  A    between atoms: C11_17  and  N3_18 
REMARK   10  A    between atoms: N3_18  and  C13_20 
REMARK   11  A    between atoms: C14_23  and  C15_24 
REMARK   12  A    between atoms: C17_26  and  C18_27 
ROOT
HETATM    1  N3  UNL     1      15.301  21.975  60.816  1.00  0.00    -0.366 N 
HETATM    2  C12 UNL     1      14.824  21.625  59.502  1.00  0.00     0.151 C 
ENDROOT
BRANCH   1   3
HETATM    3  C11 UNL     1      14.507  21.700  61.963  1.00  0.00     0.126 C 
BRANCH   3   4
HETATM    4  C10 UNL     1      15.140  20.949  63.075  1.00  0.00     0.039 C 
BRANCH   4   5
HETATM    5  C9  UNL     1      14.984  21.484  64.450  1.00  0.00     0.115 C 
BRANCH   5   6
HETATM    6  N2  UNL     1      14.147  20.582  65.215  1.00  0.00    -0.421 N 
ATOM      7  H2  UNL     1      14.538  19.871  65.833  1.00  0.00     0.153 HD
BRANCH   6   8
HETATM    8  C8  UNL     1      12.748  20.751  65.047  1.00  0.00     0.118 C 
BRANCH   8   9
HETATM    9  C7  UNL     1      12.133  19.621  64.233  1.00  0.00     0.003 C 
HETATM   10  C6  UNL     1      11.078  18.911  65.101  1.00  0.00     0.008 C 
HETATM   11  C5  UNL     1      10.672  17.660  64.333  1.00  0.00     0.026 C 
HETATM   12  C4  UNL     1      10.736  17.886  62.860  1.00  0.00     0.084 C 
HETATM   13  C26 UNL     1      10.309  19.308  62.554  1.00  0.00     0.026 C 
HETATM   14  C25 UNL     1      11.301  20.305  63.131  1.00  0.00     0.008 C 
BRANCH  12  15
HETATM   15  N1  UNL     1       9.930  16.989  62.077  1.00  0.00    -0.356 N 
HETATM   16  C3  UNL     1      10.240  16.582  60.765  1.00  0.00     0.227 C 
HETATM   17  O1  UNL     1      11.243  16.956  60.150  1.00  0.00    -0.273 OA
ATOM     18  H1  UNL     1       9.077  16.624  62.500  1.00  0.00     0.162 HD
BRANCH  16  19
HETATM   19  C2  UNL     1       9.297  15.638  60.063  1.00  0.00     0.176 C 
BRANCH  19  20
HETATM   20  S1  UNL     1       7.608  15.937  60.615  1.00  0.00    -0.164 SA
HETATM   21  C1  UNL     1       7.127  14.776  61.900  1.00  0.00     0.090 C 
ENDBRANCH  19  20
ENDBRANCH  16  19
ENDBRANCH  12  15
ENDBRANCH   8   9
ENDBRANCH   6   8
ENDBRANCH   5   6
ENDBRANCH   4   5
ENDBRANCH   3   4
ENDBRANCH   1   3
BRANCH   1  22
HETATM   22  C13 UNL     1      16.565  22.638  60.928  1.00  0.00     0.146 A 
HETATM   23  N4  UNL     1      16.875  23.807  61.437  1.00  0.00    -0.336 N 
HETATM   24  C14 UNL     1      18.105  24.215  61.460  1.00  0.00     0.052 A 
ATOM     25  H4  UNL     1      16.139  24.401  61.819  1.00  0.00     0.168 HD
HETATM   26  C24 UNL     1      19.061  23.380  60.934  1.00  0.00     0.083 A 
HETATM   27  S2  UNL     1      18.120  22.048  60.435  1.00  0.00    -0.064 SA
BRANCH  24  28
HETATM   28  C15 UNL     1      18.485  25.541  62.018  1.00  0.00     0.013 A 
HETATM   29  C16 UNL     1      18.825  26.589  61.192  1.00  0.00     0.026 A 
HETATM   30  C17 UNL     1      19.174  27.827  61.686  1.00  0.00    -0.013 A 
HETATM   31  C21 UNL     1      19.188  28.049  63.036  1.00  0.00     0.043 A 
HETATM   32 CL2  UNL     1      19.624  29.604  63.744  1.00  0.00    -0.084 Cl
HETATM   33  C22 UNL     1      18.848  27.007  63.907  1.00  0.00     0.049 A 
HETATM   34  C23 UNL     1      18.505  25.780  63.375  1.00  0.00     0.048 A 
HETATM   35 CL3  UNL     1      18.078  24.481  64.501  1.00  0.00    -0.083 Cl
BRANCH  30  36
HETATM   36  C18 UNL     1      19.553  28.937  60.778  1.00  0.00     0.058 C 
HETATM   37  C19 UNL     1      18.806  30.214  61.148  1.00  0.00     0.037 C 
HETATM   38  C20 UNL     1      19.266  28.515  59.350  1.00  0.00     0.037 C 
HETATM   39 CL1  UNL     1      21.295  29.256  60.963  1.00  0.00    -0.115 Cl
ENDBRANCH  30  36
ENDBRANCH  24  28
ENDBRANCH   1  22
TORSDOF 12
ENDMDL
MODEL 4
REMARK VINA RESULT: -8.039162655      6.136     13.258
REMARK  12 active torsions:
REMARK  status: ('A' for Active; 'I' for Inactive)
REMARK    1  A    between atoms: S1_2  and  C2_3 
REMARK    2  A    between atoms: C2_3  and  C3_4 
REMARK       I    between atoms: C3_4  and  N1_6 
REMARK    3  A    between atoms: N1_6  and  C4_8 
REMARK    4  A    between atoms: C7_11  and  C8_12 
REMARK    5  A    between atoms: C8_12  and  N2_13 
REMARK    6  A    between atoms: N2_13  and  C9_15 
REMARK    7  A    between atoms: C9_15  and  C10_16 
REMARK    8  A    between atoms: C10_16  and  C11_17 
REMARK    9  A    between atoms: C11_17  and  N3_18 
REMARK   10  A    between atoms: N3_18  and  C13_20 
REMARK   11  A    between atoms: C14_23  and  C15_24 
REMARK   12  A    between atoms: C17_26  and  C18_27 
ROOT
HETATM    1  N3  UNL     1      10.103  17.976  62.203  1.00  0.00    -0.366 N 
HETATM    2  C12 UNL     1      10.671  17.367  61.027  1.00  0.00     0.151 C 
ENDROOT
BRANCH   1   3
HETATM    3  C11 UNL     1      10.628  19.199  62.701  1.00  0.00     0.126 C 
BRANCH   3   4
HETATM    4  C10 UNL     1      11.765  19.124  63.653  1.00  0.00     0.039 C 
BRANCH   4   5
HETATM    5  C9  UNL     1      11.556  19.647  65.025  1.00  0.00     0.115 C 
BRANCH   5   6
HETATM    6  N2  UNL     1      12.246  20.914  65.157  1.00  0.00    -0.421 N 
ATOM      7  H2  UNL     1      11.934  21.756  64.674  1.00  0.00     0.153 HD
BRANCH   6   8
HETATM    8  C8  UNL     1      13.385  20.906  66.004  1.00  0.00     0.118 C 
BRANCH   8   9
HETATM    9  C7  UNL     1      14.487  21.820  65.483  1.00  0.00     0.003 C 
HETATM   10  C6  UNL     1      14.207  22.125  64.000  1.00  0.00     0.008 C 
HETATM   11  C5  UNL     1      15.448  22.836  63.475  1.00  0.00     0.026 C 
HETATM   12  C4  UNL     1      16.090  23.659  64.540  1.00  0.00     0.084 C 
HETATM   13  C26 UNL     1      15.015  24.260  65.424  1.00  0.00     0.026 C 
HETATM   14  C25 UNL     1      14.271  23.174  66.184  1.00  0.00     0.008 C 
BRANCH  12  15
HETATM   15  N1  UNL     1      16.930  24.721  64.057  1.00  0.00    -0.356 N 
HETATM   16  C3  UNL     1      18.002  25.279  64.781  1.00  0.00     0.227 C 
HETATM   17  O1  UNL     1      18.331  24.909  65.911  1.00  0.00    -0.273 OA
ATOM     18  H1  UNL     1      16.737  25.096  63.128  1.00  0.00     0.162 HD
BRANCH  16  19
HETATM   19  C2  UNL     1      18.795  26.394  64.147  1.00  0.00     0.176 C 
BRANCH  19  20
HETATM   20  S1  UNL     1      18.742  26.238  62.352  1.00  0.00    -0.164 SA
HETATM   21  C1  UNL     1      18.948  27.836  61.554  1.00  0.00     0.090 C 
ENDBRANCH  19  20
ENDBRANCH  16  19
ENDBRANCH  12  15
ENDBRANCH   8   9
ENDBRANCH   6   8
ENDBRANCH   5   6
ENDBRANCH   4   5
ENDBRANCH   3   4
ENDBRANCH   1   3
BRANCH   1  22
HETATM   22  C13 UNL     1       9.033  17.299  62.872  1.00  0.00     0.146 A 
HETATM   23  N4  UNL     1       8.257  17.690  63.855  1.00  0.00    -0.336 N 
HETATM   24  C14 UNL     1       7.317  16.918  64.306  1.00  0.00     0.052 A 
ATOM     25  H4  UNL     1       8.394  18.611  64.270  1.00  0.00     0.168 HD
HETATM   26  C24 UNL     1       7.170  15.686  63.716  1.00  0.00     0.083 A 
HETATM   27  S2  UNL     1       8.405  15.716  62.540  1.00  0.00    -0.064 SA
BRANCH  24  28
HETATM   28  C15 UNL     1       6.430  17.329  65.428  1.00  0.00     0.013 A 
HETATM   29  C16 UNL     1       5.116  17.675  65.206  1.00  0.00     0.026 A 
HETATM   30  C17 UNL     1       4.276  18.052  66.230  1.00  0.00    -0.013 A 
HETATM   31  C21 UNL     1       4.735  18.089  67.518  1.00  0.00     0.043 A 
HETATM   32 CL2  UNL     1       3.722  18.561  68.881  1.00  0.00    -0.084 Cl
HETATM   33  C22 UNL     1       6.066  17.743  67.783  1.00  0.00     0.049 A 
HETATM   34  C23 UNL     1       6.878  17.372  66.730  1.00  0.00     0.048 A 
HETATM   35 CL3  UNL     1       8.557  16.938  67.095  1.00  0.00    -0.083 Cl
BRANCH  30  36
HETATM   36  C18 UNL     1       2.868  18.437  65.965  1.00  0.00     0.058 C 
HETATM   37  C19 UNL     1       2.608  19.870  66.418  1.00  0.00     0.037 C 
HETATM   38  C20 UNL     1       1.955  17.454  66.672  1.00  0.00     0.037 C 
HETATM   39 CL1  UNL     1       2.575  18.362  64.211  1.00  0.00    -0.115 Cl
ENDBRANCH  30  36
ENDBRANCH  24  28
ENDBRANCH   1  22
TORSDOF 12
ENDMDL
MODEL 5
REMARK VINA RESULT: -7.980129636      2.819      3.485
REMARK  12 active torsions:
REMARK  status: ('A' for Active; 'I' for Inactive)
REMARK    1  A    between atoms: S1_2  and  C2_3 
REMARK    2  A    between atoms: C2_3  and  C3_4 
REMARK       I    between atoms: C3_4  and  N1_6 
REMARK    3  A    between atoms: N1_6  and  C4_8 
REMARK    4  A    between atoms: C7_11  and  C8_12 
REMARK    5  A    between atoms: C8_12  and  N2_13 
REMARK    6  A    between atoms: N2_13  and  C9_15 
REMARK    7  A    between atoms: C9_15  and  C10_16 
REMARK    8  A    between atoms: C10_16  and  C11_17 
REMARK    9  A    between atoms: C11_17  and  N3_18 
REMARK   10  A    between atoms: N3_18  and  C13_20 
REMARK   11  A    between atoms: C14_23  and  C15_24 
REMARK   12  A    between atoms: C17_26  and  C18_27 
ROOT
HETATM    1  N3  UNL     1      15.208  21.996  60.723  1.00  0.00    -0.366 N 
HETATM    2  C12 UNL     1      14.719  21.884  59.372  1.00  0.00     0.151 C 
ENDROOT
BRANCH   1   3
HETATM    3  C11 UNL     1      14.410  21.550  61.812  1.00  0.00     0.126 C 
BRANCH   3   4
HETATM    4  C10 UNL     1      14.617  20.161  62.294  1.00  0.00     0.039 C 
BRANCH   4   5
HETATM    5  C9  UNL     1      14.730  19.945  63.757  1.00  0.00     0.115 C 
BRANCH   5   6
HETATM    6  N2  UNL     1      13.666  19.062  64.187  1.00  0.00    -0.421 N 
ATOM      7  H2  UNL     1      13.819  18.068  64.357  1.00  0.00     0.153 HD
BRANCH   6   8
HETATM    8  C8  UNL     1      12.395  19.672  64.358  1.00  0.00     0.118 C 
BRANCH   8   9
HETATM    9  C7  UNL     1      11.258  18.727  63.992  1.00  0.00     0.003 C 
HETATM   10  C6  UNL     1       9.972  19.221  64.679  1.00  0.00     0.008 C 
HETATM   11  C5  UNL     1       8.936  18.123  64.475  1.00  0.00     0.026 C 
HETATM   12  C4  UNL     1       9.144  17.418  63.177  1.00  0.00     0.084 C 
HETATM   13  C26 UNL     1       9.614  18.415  62.137  1.00  0.00     0.026 C 
HETATM   14  C25 UNL     1      10.987  18.960  62.493  1.00  0.00     0.008 C 
BRANCH  12  15
HETATM   15  N1  UNL     1       7.984  16.738  62.668  1.00  0.00    -0.356 N 
HETATM   16  C3  UNL     1       8.022  15.515  61.971  1.00  0.00     0.227 C 
HETATM   17  O1  UNL     1       9.062  14.897  61.727  1.00  0.00    -0.273 OA
ATOM     18  H1  UNL     1       7.073  17.171  62.820  1.00  0.00     0.162 HD
BRANCH  16  19
HETATM   19  C2  UNL     1       6.722  14.920  61.490  1.00  0.00     0.176 C 
BRANCH  19  20
HETATM   20  S1  UNL     1       5.340  15.917  62.077  1.00  0.00    -0.164 SA
HETATM   21  C1  UNL     1       4.099  14.898  62.885  1.00  0.00     0.090 C 
ENDBRANCH  19  20
ENDBRANCH  16  19
ENDBRANCH  12  15
ENDBRANCH   8   9
ENDBRANCH   6   8
ENDBRANCH   5   6
ENDBRANCH   4   5
ENDBRANCH   3   4
ENDBRANCH   1   3
BRANCH   1  22
HETATM   22  C13 UNL     1      16.488  22.599  60.936  1.00  0.00     0.146 A 
HETATM   23  N4  UNL     1      16.808  23.778  61.416  1.00  0.00    -0.336 N 
HETATM   24  C14 UNL     1      18.050  24.125  61.550  1.00  0.00     0.052 A 
ATOM     25  H4  UNL     1      16.071  24.429  61.687  1.00  0.00     0.168 HD
HETATM   26  C24 UNL     1      19.008  23.215  61.172  1.00  0.00     0.083 A 
HETATM   27  S2  UNL     1      18.051  21.907  60.643  1.00  0.00    -0.064 SA
BRANCH  24  28
HETATM   28  C15 UNL     1      18.443  25.460  62.078  1.00  0.00     0.013 A 
HETATM   29  C16 UNL     1      18.767  26.494  61.229  1.00  0.00     0.026 A 
HETATM   30  C17 UNL     1      19.127  27.739  61.695  1.00  0.00    -0.013 A 
HETATM   31  C21 UNL     1      19.170  27.983  63.040  1.00  0.00     0.043 A 
HETATM   32 CL2  UNL     1      19.622  29.548  63.714  1.00  0.00    -0.084 Cl
HETATM   33  C22 UNL     1      18.845  26.956  63.935  1.00  0.00     0.049 A 
HETATM   34  C23 UNL     1      18.491  25.721  63.430  1.00  0.00     0.048 A 
HETATM   35 CL3  UNL     1      18.085  24.441  64.586  1.00  0.00    -0.083 Cl
BRANCH  30  36
HETATM   36  C18 UNL     1      19.490  28.833  60.761  1.00  0.00     0.058 C 
HETATM   37  C19 UNL     1      20.996  29.071  60.769  1.00  0.00     0.037 C 
HETATM   38  C20 UNL     1      18.725  30.081  61.158  1.00  0.00     0.037 C 
HETATM   39 CL1  UNL     1      19.026  28.353  59.111  1.00  0.00    -0.115 Cl
ENDBRANCH  30  36
ENDBRANCH  24  28
ENDBRANCH   1  22
TORSDOF 12
ENDMDL
