MODEL 1
REMARK VINA RESULT: -4.752896947      0.000      0.000
REMARK  1 active torsions:
REMARK  status: ('A' for Active; 'I' for Inactive)
REMARK    1  A    between atoms: N1_1  and  C1_4 
ROOT
HETATM    1  C1  UNL     1      29.351  66.720  98.833  1.00  0.00     0.713 A 
HETATM    2  N2  UNL     1      28.335  66.135  99.478  1.00  0.00    -0.185 N 
ATOM      3  H2  UNL     1      28.458  65.744 100.412  1.00  0.00     0.185 HD
HETATM    4  C2  UNL     1      27.146  66.078  98.853  1.00  0.00     0.215 A 
HETATM    5  N3  UNL     1      26.921  66.570  97.629  1.00  0.00    -0.185 N 
ATOM      6  H3  UNL     1      25.999  66.501  97.200  1.00  0.00     0.185 HD
HETATM    7  C3  UNL     1      27.954  67.166  96.972  1.00  0.00     0.723 A 
HETATM    8  N4  UNL     1      28.063  67.746  95.767  1.00  0.00    -0.138 N 
ATOM      9  H4  UNL     1      27.315  67.844  95.080  1.00  0.00     0.189 HD
HETATM   10  C4  UNL     1      29.327  68.176  95.622  1.00  0.00     0.354 A 
HETATM   11  O1  UNL     1      29.835  68.775  94.629  1.00  0.00    -0.245 OA
HETATM   12  N5  UNL     1      29.972  67.848  96.748  1.00  0.00    -0.215 N 
ATOM     13  H5  UNL     1      30.956  68.044  96.938  1.00  0.00     0.193 HD
HETATM   14  N6  UNL     1      29.145  67.231  97.581  1.00  0.00     0.094 N 
ENDROOT
BRANCH   1  15
HETATM   15  N1  UNL     1      30.503  66.809  99.367  1.00  0.00    -0.232 N 
ATOM     16  H12 UNL     1      31.334  66.599  98.812  1.00  0.00     0.174 HD
ATOM     17  H11 UNL     1      30.611  67.086 100.342  1.00  0.00     0.174 HD
ENDBRANCH   1  15
TORSDOF 1
ENDMDL
MODEL 2
REMARK VINA RESULT: -4.201938060      1.321      2.286
REMARK  1 active torsions:
REMARK  status: ('A' for Active; 'I' for Inactive)
REMARK    1  A    between atoms: N1_1  and  C1_4 
ROOT
HETATM    1  C1  UNL     1      27.913  66.053  98.565  1.00  0.00     0.713 A 
HETATM    2  N2  UNL     1      28.851  65.368  99.230  1.00  0.00    -0.185 N 
ATOM      3  H2  UNL     1      28.616  64.820 100.057  1.00  0.00     0.185 HD
HETATM    4  C2  UNL     1      30.114  65.428  98.771  1.00  0.00     0.215 A 
HETATM    5  N3  UNL     1      30.485  66.129  97.694  1.00  0.00    -0.185 N 
ATOM      6  H3  UNL     1      31.458  66.141  97.388  1.00  0.00     0.185 HD
HETATM    7  C3  UNL     1      29.532  66.827  97.016  1.00  0.00     0.723 A 
HETATM    8  N4  UNL     1      29.567  67.609  95.926  1.00  0.00    -0.138 N 
ATOM      9  H4  UNL     1      30.397  67.830  95.375  1.00  0.00     0.189 HD
HETATM   10  C4  UNL     1      28.322  68.051  95.688  1.00  0.00     0.354 A 
HETATM   11  O1  UNL     1      27.933  68.812  94.754  1.00  0.00    -0.245 OA
HETATM   12  N5  UNL     1      27.542  67.527  96.643  1.00  0.00    -0.215 N 
ATOM     13  H5  UNL     1      26.537  67.683  96.728  1.00  0.00     0.193 HD
HETATM   14  N6  UNL     1      28.269  66.778  97.460  1.00  0.00     0.094 N 
ENDROOT
BRANCH   1  15
HETATM   15  N1  UNL     1      26.698  66.040  98.943  1.00  0.00    -0.232 N 
ATOM     16  H12 UNL     1      26.477  66.162  99.932  1.00  0.00     0.174 HD
ATOM     17  H11 UNL     1      25.940  65.910  98.275  1.00  0.00     0.174 HD
ENDBRANCH   1  15
TORSDOF 1
ENDMDL
MODEL 3
REMARK VINA RESULT: -4.063626409      1.522      2.068
REMARK  1 active torsions:
REMARK  status: ('A' for Active; 'I' for Inactive)
REMARK    1  A    between atoms: N1_1  and  C1_4 
ROOT
HETATM    1  C1  UNL     1      29.147  67.224  99.355  1.00  0.00     0.713 A 
HETATM    2  N2  UNL     1      29.884  66.235  99.875  1.00  0.00    -0.185 N 
ATOM      3  H2  UNL     1      29.984  66.126 100.883  1.00  0.00     0.185 HD
HETATM    4  C2  UNL     1      30.490  65.390  99.021  1.00  0.00     0.215 A 
HETATM    5  N3  UNL     1      30.399  65.481  97.690  1.00  0.00    -0.185 N 
ATOM      6  H3  UNL     1      30.879  64.813  97.087  1.00  0.00     0.185 HD
HETATM    7  C3  UNL     1      29.650  66.486  97.159  1.00  0.00     0.723 A 
HETATM    8  N4  UNL     1      29.360  66.850  95.900  1.00  0.00    -0.138 N 
ATOM      9  H4  UNL     1      29.687  66.385  95.053  1.00  0.00     0.189 HD
HETATM   10  C4  UNL     1      28.565  67.931  95.950  1.00  0.00     0.354 A 
HETATM   11  O1  UNL     1      28.071  68.577  94.979  1.00  0.00    -0.245 OA
HETATM   12  N5  UNL     1      28.383  68.211  97.246  1.00  0.00    -0.215 N 
ATOM     13  H5  UNL     1      27.821  68.984  97.605  1.00  0.00     0.193 HD
HETATM   14  N6  UNL     1      29.040  67.336  97.996  1.00  0.00     0.094 N 
ENDROOT
BRANCH   1  15
HETATM   15  N1  UNL     1      28.547  68.058 100.104  1.00  0.00    -0.232 N 
ATOM     16  H12 UNL     1      28.951  68.308 101.007  1.00  0.00     0.174 HD
ATOM     17  H11 UNL     1      27.665  68.483  99.818  1.00  0.00     0.174 HD
ENDBRANCH   1  15
TORSDOF 1
ENDMDL
MODEL 4
REMARK VINA RESULT: -3.651427856      2.184      3.382
REMARK  1 active torsions:
REMARK  status: ('A' for Active; 'I' for Inactive)
REMARK    1  A    between atoms: N1_1  and  C1_4 
ROOT
HETATM    1  C1  UNL     1      28.829  67.349  96.084  1.00  0.00     0.713 A 
HETATM    2  N2  UNL     1      27.532  67.674  96.026  1.00  0.00    -0.185 N 
ATOM      3  H2  UNL     1      27.156  68.203  95.240  1.00  0.00     0.185 HD
HETATM    4  C2  UNL     1      26.742  67.281  97.041  1.00  0.00     0.215 A 
HETATM    5  N3  UNL     1      27.176  66.587  98.099  1.00  0.00    -0.185 N 
ATOM      6  H3  UNL     1      26.534  66.314  98.843  1.00  0.00     0.185 HD
HETATM    7  C3  UNL     1      28.495  66.255  98.160  1.00  0.00     0.723 A 
HETATM    8  N4  UNL     1      29.233  65.583  99.057  1.00  0.00    -0.138 N 
ATOM      9  H4  UNL     1      28.891  65.172  99.925  1.00  0.00     0.189 HD
HETATM   10  C4  UNL     1      30.500  65.547  98.613  1.00  0.00     0.354 A 
HETATM   11  O1  UNL     1      31.502  65.008  99.167  1.00  0.00    -0.245 OA
HETATM   12  N5  UNL     1      30.514  66.202  97.445  1.00  0.00    -0.215 N 
ATOM     13  H5  UNL     1      31.340  66.344  96.863  1.00  0.00     0.193 HD
HETATM   14  N6  UNL     1      29.295  66.639  97.157  1.00  0.00     0.094 N 
ENDROOT
BRANCH   1  15
HETATM   15  N1  UNL     1      29.633  67.689  95.158  1.00  0.00    -0.232 N 
ATOM     16  H12 UNL     1      29.283  68.205  94.350  1.00  0.00     0.174 HD
ATOM     17  H11 UNL     1      30.624  67.453  95.208  1.00  0.00     0.174 HD
ENDBRANCH   1  15
TORSDOF 1
ENDMDL
MODEL 5
REMARK VINA RESULT: -3.569014036      2.289      3.434
REMARK  1 active torsions:
REMARK  status: ('A' for Active; 'I' for Inactive)
REMARK    1  A    between atoms: N1_1  and  C1_4 
ROOT
HETATM    1  C1  UNL     1      27.346  66.469  97.987  1.00  0.00     0.713 A 
HETATM    2  N2  UNL     1      26.820  67.131  96.949  1.00  0.00    -0.185 N 
ATOM      3  H2  UNL     1      25.829  67.369  96.923  1.00  0.00     0.185 HD
HETATM    4  C2  UNL     1      27.643  67.472  95.941  1.00  0.00     0.215 A 
HETATM    5  N3  UNL     1      28.950  67.188  95.916  1.00  0.00    -0.185 N 
ATOM      6  H3  UNL     1      29.530  67.469  95.125  1.00  0.00     0.185 HD
HETATM    7  C3  UNL     1      29.486  66.514  96.970  1.00  0.00     0.723 A 
HETATM    8  N4  UNL     1      30.727  66.086  97.251  1.00  0.00    -0.138 N 
ATOM      9  H4  UNL     1      31.550  66.207  96.661  1.00  0.00     0.189 HD
HETATM   10  C4  UNL     1      30.696  65.470  98.444  1.00  0.00     0.354 A 
HETATM   11  O1  UNL     1      31.659  64.928  99.064  1.00  0.00    -0.245 OA
HETATM   12  N5  UNL     1      29.430  65.532  98.873  1.00  0.00    -0.215 N 
ATOM     13  H5  UNL     1      29.091  65.147  99.756  1.00  0.00     0.193 HD
HETATM   14  N6  UNL     1      28.681  66.168  97.982  1.00  0.00     0.094 N 
ENDROOT
BRANCH   1  15
HETATM   15  N1  UNL     1      26.625  66.117  98.974  1.00  0.00    -0.232 N 
ATOM     16  H12 UNL     1      26.839  66.471  99.907  1.00  0.00     0.174 HD
ATOM     17  H11 UNL     1      25.834  65.485  98.850  1.00  0.00     0.174 HD
ENDBRANCH   1  15
TORSDOF 1
ENDMDL
