MODEL 1
REMARK VINA RESULT: -6.074687666      0.000      0.000
REMARK  8 active torsions:
REMARK  status: ('A' for Active; 'I' for Inactive)
REMARK    1  A    between atoms: O1_1  and  C1_3 
REMARK    2  A    between atoms: C1_3  and  C2_4 
REMARK    3  A    between atoms: C3_6  and  O3_7 
REMARK    4  A    between atoms: O3_7  and  C4_8 
REMARK    5  A    between atoms: C10_19  and  C11_20 
REMARK    6  A    between atoms: C11_20  and  O4_21 
REMARK    7  A    between atoms: C12_23  and  O5_24 
REMARK    8  A    between atoms: C13_26  and  O6_27 
ROOT
HETATM    1  C2  UNL     1      -1.930   5.913  13.419  1.00  0.00     0.179 C 
HETATM    2  O2  UNL     1      -2.954   4.991  13.441  1.00  0.00    -0.350 OA
HETATM    3  C3  UNL     1      -3.921   5.210  12.467  1.00  0.00     0.275 C 
HETATM    4  C10 UNL     1      -3.406   5.260  11.087  1.00  0.00     0.096 C 
HETATM    5  C12 UNL     1      -2.068   5.933  10.931  1.00  0.00     0.160 C 
HETATM    6  C13 UNL     1      -1.187   5.786  12.138  1.00  0.00     0.178 C 
ENDROOT
BRANCH   3   7
HETATM    7  O3  UNL     1      -4.833   4.142  12.598  1.00  0.00    -0.316 OA
BRANCH   7   8
HETATM    8  C4  UNL     1      -5.118   3.428  13.713  1.00  0.00     0.119 A 
HETATM    9  C5  UNL     1      -4.635   2.161  13.892  1.00  0.00     0.092 A 
HETATM   10 CL1  UNL     1      -3.625   1.394  12.706  1.00  0.00    -0.079 Cl
HETATM   11  C6  UNL     1      -4.916   1.410  15.031  1.00  0.00     0.082 A 
HETATM   12 CL2  UNL     1      -4.289  -0.210  15.243  1.00  0.00    -0.081 Cl
HETATM   13  C7  UNL     1      -5.708   1.941  16.025  1.00  0.00     0.081 A 
HETATM   14 CL3  UNL     1      -6.078   1.002  17.483  1.00  0.00    -0.081 Cl
HETATM   15  C8  UNL     1      -6.200   3.216  15.855  1.00  0.00     0.082 A 
HETATM   16 CL4  UNL     1      -7.206   3.863  17.141  1.00  0.00    -0.081 Cl
HETATM   17  C9  UNL     1      -5.909   3.943  14.720  1.00  0.00     0.092 A 
HETATM   18 CL5  UNL     1      -6.591   5.574  14.599  1.00  0.00    -0.079 Cl
ENDBRANCH   7   8
ENDBRANCH   3   7
BRANCH   4  19
HETATM   19  C11 UNL     1      -3.261   3.886  10.444  1.00  0.00     0.176 C 
BRANCH  19  20
HETATM   20  O4  UNL     1      -4.479   3.478   9.903  1.00  0.00    -0.400 OA
ATOM     21  H4  UNL     1      -4.719   4.042   9.177  1.00  0.00     0.209 HD
ENDBRANCH  19  20
ENDBRANCH   4  19
BRANCH   1  22
HETATM   22  C1  UNL     1      -2.385   7.325  13.703  1.00  0.00     0.198 C 
BRANCH  22  23
HETATM   23  O1  UNL     1      -1.403   8.045  14.384  1.00  0.00    -0.398 OA
ATOM     24  H1  UNL     1      -1.463   7.905  15.321  1.00  0.00     0.209 HD
ENDBRANCH  22  23
ENDBRANCH   1  22
BRANCH   5  25
HETATM   25  O5  UNL     1      -2.203   7.291  10.643  1.00  0.00    -0.392 OA
ATOM     26  H5  UNL     1      -1.437   7.634  10.195  1.00  0.00     0.210 HD
ENDBRANCH   5  25
BRANCH   6  27
HETATM   27  O6  UNL     1      -0.160   6.728  12.018  1.00  0.00    -0.390 OA
ATOM     28  H6  UNL     1       0.502   6.635  12.693  1.00  0.00     0.210 HD
ENDBRANCH   6  27
TORSDOF 8
ENDMDL
MODEL 2
REMARK VINA RESULT: -6.072938785      0.031      2.409
REMARK  8 active torsions:
REMARK  status: ('A' for Active; 'I' for Inactive)
REMARK    1  A    between atoms: O1_1  and  C1_3 
REMARK    2  A    between atoms: C1_3  and  C2_4 
REMARK    3  A    between atoms: C3_6  and  O3_7 
REMARK    4  A    between atoms: O3_7  and  C4_8 
REMARK    5  A    between atoms: C10_19  and  C11_20 
REMARK    6  A    between atoms: C11_20  and  O4_21 
REMARK    7  A    between atoms: C12_23  and  O5_24 
REMARK    8  A    between atoms: C13_26  and  O6_27 
ROOT
HETATM    1  C2  UNL     1      -1.928   5.912  13.393  1.00  0.00     0.179 C 
HETATM    2  O2  UNL     1      -2.946   4.985  13.421  1.00  0.00    -0.350 OA
HETATM    3  C3  UNL     1      -3.924   5.201  12.457  1.00  0.00     0.275 C 
HETATM    4  C10 UNL     1      -3.422   5.258  11.072  1.00  0.00     0.096 C 
HETATM    5  C12 UNL     1      -2.089   5.939  10.905  1.00  0.00     0.160 C 
HETATM    6  C13 UNL     1      -1.196   5.793  12.104  1.00  0.00     0.178 C 
ENDROOT
BRANCH   3   7
HETATM    7  O3  UNL     1      -4.828   4.127  12.593  1.00  0.00    -0.316 OA
BRANCH   7   8
HETATM    8  C4  UNL     1      -5.108   3.416  13.711  1.00  0.00     0.119 A 
HETATM    9  C5  UNL     1      -5.889   3.932  14.709  1.00  0.00     0.092 A 
HETATM   10 CL1  UNL     1      -6.572   5.525  14.600  1.00  0.00    -0.079 Cl
HETATM   11  C6  UNL     1      -6.188   3.218  15.866  1.00  0.00     0.082 A 
HETATM   12 CL2  UNL     1      -7.189   3.895  17.132  1.00  0.00    -0.081 Cl
HETATM   13  C7  UNL     1      -5.690   1.945  16.035  1.00  0.00     0.081 A 
HETATM   14 CL3  UNL     1      -6.060   1.018  17.501  1.00  0.00    -0.081 Cl
HETATM   15  C8  UNL     1      -4.903   1.415  15.037  1.00  0.00     0.082 A 
HETATM   16 CL4  UNL     1      -4.285  -0.211  15.284  1.00  0.00    -0.081 Cl
HETATM   17  C9  UNL     1      -4.619   2.139  13.898  1.00  0.00     0.092 A 
HETATM   18 CL5  UNL     1      -3.597   1.366  12.675  1.00  0.00    -0.079 Cl
ENDBRANCH   7   8
ENDBRANCH   3   7
BRANCH   4  19
HETATM   19  C11 UNL     1      -3.275   3.886  10.423  1.00  0.00     0.176 C 
BRANCH  19  20
HETATM   20  O4  UNL     1      -4.505   3.455   9.930  1.00  0.00    -0.400 OA
ATOM     21  H4  UNL     1      -5.111   3.307  10.647  1.00  0.00     0.209 HD
ENDBRANCH  19  20
ENDBRANCH   4  19
BRANCH   1  22
HETATM   22  C1  UNL     1      -2.389   7.321  13.685  1.00  0.00     0.198 C 
BRANCH  22  23
HETATM   23  O1  UNL     1      -1.403   8.046  14.355  1.00  0.00    -0.398 OA
ATOM     24  H1  UNL     1      -0.680   7.486  14.612  1.00  0.00     0.209 HD
ENDBRANCH  22  23
ENDBRANCH   1  22
BRANCH   5  25
HETATM   25  O5  UNL     1      -2.234   7.297  10.623  1.00  0.00    -0.392 OA
ATOM     26  H5  UNL     1      -1.493   7.637  10.134  1.00  0.00     0.210 HD
ENDBRANCH   5  25
BRANCH   6  27
HETATM   27  O6  UNL     1      -0.176   6.742  11.978  1.00  0.00    -0.390 OA
ATOM     28  H6  UNL     1      -0.509   7.626  11.877  1.00  0.00     0.210 HD
ENDBRANCH   6  27
TORSDOF 8
ENDMDL
MODEL 3
REMARK VINA RESULT: -6.045715719      1.377      2.010
REMARK  8 active torsions:
REMARK  status: ('A' for Active; 'I' for Inactive)
REMARK    1  A    between atoms: O1_1  and  C1_3 
REMARK    2  A    between atoms: C1_3  and  C2_4 
REMARK    3  A    between atoms: C3_6  and  O3_7 
REMARK    4  A    between atoms: O3_7  and  C4_8 
REMARK    5  A    between atoms: C10_19  and  C11_20 
REMARK    6  A    between atoms: C11_20  and  O4_21 
REMARK    7  A    between atoms: C12_23  and  O5_24 
REMARK    8  A    between atoms: C13_26  and  O6_27 
ROOT
HETATM    1  C2  UNL     1      -1.730   4.178  10.544  1.00  0.00     0.179 C 
HETATM    2  O2  UNL     1      -2.927   3.742  11.066  1.00  0.00    -0.350 OA
HETATM    3  C3  UNL     1      -3.473   4.606  12.007  1.00  0.00     0.275 C 
HETATM    4  C10 UNL     1      -3.680   5.986  11.531  1.00  0.00     0.096 C 
HETATM    5  C12 UNL     1      -2.606   6.511  10.615  1.00  0.00     0.160 C 
HETATM    6  C13 UNL     1      -1.957   5.437   9.787  1.00  0.00     0.178 C 
ENDROOT
BRANCH   3   7
HETATM    7  O3  UNL     1      -4.712   4.035  12.367  1.00  0.00    -0.316 OA
BRANCH   7   8
HETATM    8  C4  UNL     1      -5.047   3.460  13.546  1.00  0.00     0.119 A 
HETATM    9  C5  UNL     1      -4.645   2.191  13.862  1.00  0.00     0.092 A 
HETATM   10 CL1  UNL     1      -3.679   1.244  12.773  1.00  0.00    -0.079 Cl
HETATM   11  C6  UNL     1      -4.979   1.581  15.068  1.00  0.00     0.082 A 
HETATM   12 CL2  UNL     1      -4.456  -0.044  15.454  1.00  0.00    -0.081 Cl
HETATM   13  C7  UNL     1      -5.742   2.260  15.992  1.00  0.00     0.081 A 
HETATM   14 CL3  UNL     1      -6.178   1.502  17.535  1.00  0.00    -0.081 Cl
HETATM   15  C8  UNL     1      -6.152   3.538  15.686  1.00  0.00     0.082 A 
HETATM   16 CL4  UNL     1      -7.122   4.377  16.887  1.00  0.00    -0.081 Cl
HETATM   17  C9  UNL     1      -5.810   4.125  14.485  1.00  0.00     0.092 A 
HETATM   18 CL5  UNL     1      -6.387   5.773  14.189  1.00  0.00    -0.079 Cl
ENDBRANCH   7   8
ENDBRANCH   3   7
BRANCH   4  19
HETATM   19  C11 UNL     1      -4.996   6.179  10.787  1.00  0.00     0.176 C 
BRANCH  19  20
HETATM   20  O4  UNL     1      -5.201   5.129   9.894  1.00  0.00    -0.400 OA
ATOM     21  H4  UNL     1      -4.379   4.883   9.485  1.00  0.00     0.209 HD
ENDBRANCH  19  20
ENDBRANCH   4  19
BRANCH   1  22
HETATM   22  C1  UNL     1      -0.631   4.297  11.575  1.00  0.00     0.198 C 
BRANCH  22  23
HETATM   23  O1  UNL     1      -0.377   3.068  12.185  1.00  0.00    -0.398 OA
ATOM     24  H1  UNL     1      -1.049   2.855  12.821  1.00  0.00     0.209 HD
ENDBRANCH  22  23
ENDBRANCH   1  22
BRANCH   5  25
HETATM   25  O5  UNL     1      -1.612   7.190  11.319  1.00  0.00    -0.392 OA
ATOM     26  H5  UNL     1      -1.947   7.981  11.726  1.00  0.00     0.210 HD
ENDBRANCH   5  25
BRANCH   6  27
HETATM   27  O6  UNL     1      -0.773   5.974   9.269  1.00  0.00    -0.390 OA
ATOM     28  H6  UNL     1      -0.061   5.346   9.262  1.00  0.00     0.210 HD
ENDBRANCH   6  27
TORSDOF 8
ENDMDL
MODEL 4
REMARK VINA RESULT: -6.000440886      1.318      3.263
REMARK  8 active torsions:
REMARK  status: ('A' for Active; 'I' for Inactive)
REMARK    1  A    between atoms: O1_1  and  C1_3 
REMARK    2  A    between atoms: C1_3  and  C2_4 
REMARK    3  A    between atoms: C3_6  and  O3_7 
REMARK    4  A    between atoms: O3_7  and  C4_8 
REMARK    5  A    between atoms: C10_19  and  C11_20 
REMARK    6  A    between atoms: C11_20  and  O4_21 
REMARK    7  A    between atoms: C12_23  and  O5_24 
REMARK    8  A    between atoms: C13_26  and  O6_27 
ROOT
HETATM    1  C2  UNL     1      -2.109   4.502  10.226  1.00  0.00     0.179 C 
HETATM    2  O2  UNL     1      -3.277   4.081  10.822  1.00  0.00    -0.350 OA
HETATM    3  C3  UNL     1      -3.541   4.707  12.035  1.00  0.00     0.275 C 
HETATM    4  C10 UNL     1      -3.589   6.179  11.971  1.00  0.00     0.096 C 
HETATM    5  C12 UNL     1      -2.582   6.809  11.044  1.00  0.00     0.160 C 
HETATM    6  C13 UNL     1      -2.234   5.940   9.869  1.00  0.00     0.178 C 
ENDROOT
BRANCH   3   7
HETATM    7  O3  UNL     1      -4.794   4.208  12.449  1.00  0.00    -0.316 OA
BRANCH   7   8
HETATM    8  C4  UNL     1      -5.079   3.524  13.583  1.00  0.00     0.119 A 
HETATM    9  C5  UNL     1      -5.840   4.075  14.577  1.00  0.00     0.092 A 
HETATM   10 CL1  UNL     1      -6.488   5.680  14.444  1.00  0.00    -0.079 Cl
HETATM   11  C6  UNL     1      -6.143   3.389  15.750  1.00  0.00     0.082 A 
HETATM   12 CL2  UNL     1      -7.118   4.112  17.012  1.00  0.00    -0.081 Cl
HETATM   13  C7  UNL     1      -5.672   2.109  15.939  1.00  0.00     0.081 A 
HETATM   14 CL3  UNL     1      -6.048   1.218  17.425  1.00  0.00    -0.081 Cl
HETATM   15  C8  UNL     1      -4.905   1.544  14.945  1.00  0.00     0.082 A 
HETATM   16 CL4  UNL     1      -4.321  -0.090  15.217  1.00  0.00    -0.081 Cl
HETATM   17  C9  UNL     1      -4.616   2.240  13.790  1.00  0.00     0.092 A 
HETATM   18 CL5  UNL     1      -3.622   1.422  12.573  1.00  0.00    -0.079 Cl
ENDBRANCH   7   8
ENDBRANCH   3   7
BRANCH   4  19
HETATM   19  C11 UNL     1      -4.947   6.725  11.545  1.00  0.00     0.176 C 
BRANCH  19  20
HETATM   20  O4  UNL     1      -5.449   5.983  10.477  1.00  0.00    -0.400 OA
ATOM     21  H4  UNL     1      -4.863   6.048   9.731  1.00  0.00     0.209 HD
ENDBRANCH  19  20
ENDBRANCH   4  19
BRANCH   1  22
HETATM   22  C1  UNL     1      -0.874   4.200  11.042  1.00  0.00     0.198 C 
BRANCH  22  23
HETATM   23  O1  UNL     1       0.199   3.850  10.222  1.00  0.00    -0.398 OA
ATOM     24  H1  UNL     1       1.006   4.252  10.521  1.00  0.00     0.209 HD
ENDBRANCH  22  23
ENDBRANCH   1  22
BRANCH   5  25
HETATM   25  O5  UNL     1      -1.404   7.144  11.711  1.00  0.00    -0.392 OA
ATOM     26  H5  UNL     1      -1.059   6.411  12.208  1.00  0.00     0.210 HD
ENDBRANCH   5  25
BRANCH   6  27
HETATM   27  O6  UNL     1      -1.063   6.457   9.304  1.00  0.00    -0.390 OA
ATOM     28  H6  UNL     1      -0.963   7.388   9.462  1.00  0.00     0.210 HD
ENDBRANCH   6  27
TORSDOF 8
ENDMDL
MODEL 5
REMARK VINA RESULT: -5.905193285      1.256      2.794
REMARK  8 active torsions:
REMARK  status: ('A' for Active; 'I' for Inactive)
REMARK    1  A    between atoms: O1_1  and  C1_3 
REMARK    2  A    between atoms: C1_3  and  C2_4 
REMARK    3  A    between atoms: C3_6  and  O3_7 
REMARK    4  A    between atoms: O3_7  and  C4_8 
REMARK    5  A    between atoms: C10_19  and  C11_20 
REMARK    6  A    between atoms: C11_20  and  O4_21 
REMARK    7  A    between atoms: C12_23  and  O5_24 
REMARK    8  A    between atoms: C13_26  and  O6_27 
ROOT
HETATM    1  C2  UNL     1      -1.169   4.780  11.447  1.00  0.00     0.179 C 
HETATM    2  O2  UNL     1      -2.343   4.135  11.763  1.00  0.00    -0.350 OA
HETATM    3  C3  UNL     1      -3.422   4.994  11.938  1.00  0.00     0.275 C 
HETATM    4  C10 UNL     1      -3.701   5.874  10.789  1.00  0.00     0.096 C 
HETATM    5  C12 UNL     1      -2.482   6.392  10.072  1.00  0.00     0.160 C 
HETATM    6  C13 UNL     1      -1.317   5.445  10.126  1.00  0.00     0.178 C 
ENDROOT
BRANCH   3   7
HETATM    7  O3  UNL     1      -4.532   4.158  12.179  1.00  0.00    -0.316 OA
BRANCH   7   8
HETATM    8  C4  UNL     1      -4.891   3.573  13.347  1.00  0.00     0.119 A 
HETATM    9  C5  UNL     1      -5.637   4.241  14.280  1.00  0.00     0.092 A 
HETATM   10 CL1  UNL     1      -6.170   5.873  14.021  1.00  0.00    -0.079 Cl
HETATM   11  C6  UNL     1      -6.016   3.659  15.486  1.00  0.00     0.082 A 
HETATM   12 CL2  UNL     1      -6.969   4.529  16.668  1.00  0.00    -0.081 Cl
HETATM   13  C7  UNL     1      -5.638   2.366  15.773  1.00  0.00     0.081 A 
HETATM   14 CL3  UNL     1      -6.110   1.606  17.304  1.00  0.00    -0.081 Cl
HETATM   15  C8  UNL     1      -4.887   1.684  14.842  1.00  0.00     0.082 A 
HETATM   16 CL4  UNL     1      -4.423   0.037  15.239  1.00  0.00    -0.081 Cl
HETATM   17  C9  UNL     1      -4.522   2.279  13.652  1.00  0.00     0.092 A 
HETATM   18 CL5  UNL     1      -3.557   1.315  12.522  1.00  0.00    -0.079 Cl
ENDBRANCH   7   8
ENDBRANCH   3   7
BRANCH   4  19
HETATM   19  C11 UNL     1      -4.568   5.219   9.719  1.00  0.00     0.176 C 
BRANCH  19  20
HETATM   20  O4  UNL     1      -4.160   3.903   9.511  1.00  0.00    -0.400 OA
ATOM     21  H4  UNL     1      -3.273   3.782   9.831  1.00  0.00     0.209 HD
ENDBRANCH  19  20
ENDBRANCH   4  19
BRANCH   1  22
HETATM   22  C1  UNL     1      -0.686   5.716  12.530  1.00  0.00     0.198 C 
BRANCH  22  23
HETATM   23  O1  UNL     1       0.701   5.859  12.493  1.00  0.00    -0.398 OA
ATOM     24  H1  UNL     1       1.038   6.166  13.326  1.00  0.00     0.209 HD
ENDBRANCH  22  23
ENDBRANCH   1  22
BRANCH   5  25
HETATM   25  O5  UNL     1      -2.073   7.627  10.575  1.00  0.00    -0.392 OA
ATOM     26  H5  UNL     1      -2.649   8.330  10.296  1.00  0.00     0.210 HD
ENDBRANCH   5  25
BRANCH   6  27
HETATM   27  O6  UNL     1      -0.178   6.169   9.758  1.00  0.00    -0.390 OA
ATOM     28  H6  UNL     1      -0.100   6.273   8.817  1.00  0.00     0.210 HD
ENDBRANCH   6  27
TORSDOF 8
ENDMDL
