MODEL 1
REMARK VINA RESULT: -7.434727760      0.000      0.000
REMARK  7 active torsions:
REMARK  status: ('A' for Active; 'I' for Inactive)
REMARK    1  A    between atoms: N2_11  and  C8_12 
REMARK    2  A    between atoms: C9_13  and  O1_14 
REMARK    3  A    between atoms: C10_16  and  O2_17 
REMARK    4  A    between atoms: C11_19  and  O3_20 
REMARK    5  A    between atoms: C12_22  and  O4_23 
REMARK    6  A    between atoms: O4_23  and  C13_24 
REMARK    7  A    between atoms: C13_24  and  C14_25 
ROOT
HETATM    1  C8  UNL     1      -3.280   2.379  11.790  1.00  0.00     0.153 C 
HETATM    2  C9  UNL     1      -4.651   2.580  11.179  1.00  0.00     0.175 C 
HETATM    3  C10 UNL     1      -5.172   1.155  11.032  1.00  0.00     0.180 C 
HETATM    4  C11 UNL     1      -4.260   0.272  11.822  1.00  0.00     0.180 C 
HETATM    5  C12 UNL     1      -3.533   1.255  12.754  1.00  0.00     0.178 C 
ENDROOT
BRANCH   1   6
HETATM    6  N2  UNL     1      -2.770   3.567  12.382  1.00  0.00    -0.333 N 
HETATM    7  C4  UNL     1      -3.430   4.473  13.124  1.00  0.00     0.120 A 
HETATM    8  N1  UNL     1      -4.606   4.845  13.678  1.00  0.00    -0.332 N 
HETATM    9  C5  UNL     1      -2.536   5.475  13.495  1.00  0.00     0.018 A 
HETATM   10  C3  UNL     1      -4.498   5.983  14.351  1.00  0.00     0.112 A 
ATOM     11  H1  UNL     1      -5.473   4.315  13.589  1.00  0.00     0.168 HD
HETATM   12  C2  UNL     1      -3.193   6.418  14.259  1.00  0.00    -0.009 A 
HETATM   13 CL1  UNL     1      -5.739   6.868  15.240  1.00  0.00    -0.064 Cl
HETATM   14  C1  UNL     1      -2.617   7.664  14.870  1.00  0.00     0.052 C 
HETATM   15  C6  UNL     1      -1.328   5.152  12.962  1.00  0.00     0.033 A 
HETATM   16  C7  UNL     1      -1.487   3.956  12.268  1.00  0.00     0.094 A 
ENDBRANCH   1   6
BRANCH   2  17
HETATM   17  O1  UNL     1      -4.591   3.156   9.923  1.00  0.00    -0.391 OA
ATOM     18  H1  UNL     1      -5.427   3.135   9.474  1.00  0.00     0.210 HD
ENDBRANCH   2  17
BRANCH   5  19
HETATM   19  O4  UNL     1      -4.414   1.563  13.760  1.00  0.00    -0.380 OA
BRANCH  19  20
HETATM   20  C13 UNL     1      -4.343   0.644  14.803  1.00  0.00     0.183 C 
BRANCH  20  21
HETATM   21  C14 UNL     1      -4.410   1.283  16.155  1.00  0.00     0.071 C 
HETATM   22  C15 UNL     1      -4.880   2.687  16.154  1.00  0.00     0.018 C 
HETATM   23  C16 UNL     1      -6.346   2.728  16.448  1.00  0.00     0.011 C 
HETATM   24  C17 UNL     1      -6.627   1.889  17.653  1.00  0.00     0.074 C 
HETATM   25  S1  UNL     1      -5.552   0.444  17.279  1.00  0.00    -0.162 SA
ENDBRANCH  20  21
ENDBRANCH  19  20
ENDBRANCH   5  19
BRANCH   3  26
HETATM   26  O2  UNL     1      -5.137   0.744   9.694  1.00  0.00    -0.390 OA
ATOM     27  H2  UNL     1      -5.999   0.802   9.298  1.00  0.00     0.210 HD
ENDBRANCH   3  26
BRANCH   4  28
HETATM   28  O3  UNL     1      -3.273  -0.268  10.990  1.00  0.00    -0.390 OA
ATOM     29  H3  UNL     1      -2.549   0.341  10.905  1.00  0.00     0.210 HD
ENDBRANCH   4  28
TORSDOF 7
ENDMDL
MODEL 2
REMARK VINA RESULT: -7.075686260      1.201      1.405
REMARK  7 active torsions:
REMARK  status: ('A' for Active; 'I' for Inactive)
REMARK    1  A    between atoms: N2_11  and  C8_12 
REMARK    2  A    between atoms: C9_13  and  O1_14 
REMARK    3  A    between atoms: C10_16  and  O2_17 
REMARK    4  A    between atoms: C11_19  and  O3_20 
REMARK    5  A    between atoms: C12_22  and  O4_23 
REMARK    6  A    between atoms: O4_23  and  C13_24 
REMARK    7  A    between atoms: C13_24  and  C14_25 
ROOT
HETATM    1  C8  UNL     1      -2.959   2.992  12.010  1.00  0.00     0.153 C 
HETATM    2  C9  UNL     1      -3.981   3.238  10.921  1.00  0.00     0.175 C 
HETATM    3  C10 UNL     1      -4.906   2.032  11.039  1.00  0.00     0.180 C 
HETATM    4  C11 UNL     1      -4.576   1.354  12.331  1.00  0.00     0.180 C 
HETATM    5  C12 UNL     1      -3.811   2.433  13.114  1.00  0.00     0.178 C 
ENDROOT
BRANCH   1   6
HETATM    6  N2  UNL     1      -2.236   4.167  12.354  1.00  0.00    -0.333 N 
HETATM    7  C4  UNL     1      -2.628   5.178  13.148  1.00  0.00     0.120 A 
HETATM    8  N1  UNL     1      -3.601   5.693  13.933  1.00  0.00    -0.332 N 
HETATM    9  C5  UNL     1      -1.602   6.120  13.202  1.00  0.00     0.018 A 
HETATM   10  C3  UNL     1      -3.251   6.861  14.455  1.00  0.00     0.112 A 
ATOM     11  H1  UNL     1      -4.498   5.237  14.103  1.00  0.00     0.168 HD
HETATM   12  C2  UNL     1      -1.982   7.169  14.014  1.00  0.00    -0.009 A 
HETATM   13 CL1  UNL     1      -4.170   7.913  15.533  1.00  0.00    -0.064 Cl
HETATM   14  C1  UNL     1      -1.188   8.398  14.354  1.00  0.00     0.052 C 
HETATM   15  C6  UNL     1      -0.588   5.653  12.426  1.00  0.00     0.033 A 
HETATM   16  C7  UNL     1      -0.997   4.431  11.900  1.00  0.00     0.094 A 
ENDBRANCH   1   6
BRANCH   2  17
HETATM   17  O1  UNL     1      -3.418   3.238   9.658  1.00  0.00    -0.391 OA
ATOM     18  H1  UNL     1      -3.717   3.967   9.127  1.00  0.00     0.210 HD
ENDBRANCH   2  17
BRANCH   5  19
HETATM   19  O4  UNL     1      -4.754   3.307  13.595  1.00  0.00    -0.380 OA
BRANCH  19  20
HETATM   20  C13 UNL     1      -5.708   2.657  14.371  1.00  0.00     0.183 C 
BRANCH  20  21
HETATM   21  C14 UNL     1      -5.329   2.564  15.815  1.00  0.00     0.071 C 
HETATM   22  C15 UNL     1      -6.462   2.675  16.762  1.00  0.00     0.018 C 
HETATM   23  C16 UNL     1      -6.924   1.309  17.158  1.00  0.00     0.011 C 
HETATM   24  C17 UNL     1      -5.742   0.490  17.564  1.00  0.00     0.074 C 
HETATM   25  S1  UNL     1      -4.558   0.985  16.246  1.00  0.00    -0.162 SA
ENDBRANCH  20  21
ENDBRANCH  19  20
ENDBRANCH   5  19
BRANCH   3  26
HETATM   26  O2  UNL     1      -4.682   1.126   9.995  1.00  0.00    -0.390 OA
ATOM     27  H2  UNL     1      -4.065   0.452  10.256  1.00  0.00     0.210 HD
ENDBRANCH   3  26
BRANCH   4  28
HETATM   28  O3  UNL     1      -3.661   0.319  12.111  1.00  0.00    -0.390 OA
ATOM     29  H3  UNL     1      -2.851   0.669  11.759  1.00  0.00     0.210 HD
ENDBRANCH   4  28
TORSDOF 7
ENDMDL
MODEL 3
REMARK VINA RESULT: -6.951828331      1.675      1.958
REMARK  7 active torsions:
REMARK  status: ('A' for Active; 'I' for Inactive)
REMARK    1  A    between atoms: N2_11  and  C8_12 
REMARK    2  A    between atoms: C9_13  and  O1_14 
REMARK    3  A    between atoms: C10_16  and  O2_17 
REMARK    4  A    between atoms: C11_19  and  O3_20 
REMARK    5  A    between atoms: C12_22  and  O4_23 
REMARK    6  A    between atoms: O4_23  and  C13_24 
REMARK    7  A    between atoms: C13_24  and  C14_25 
ROOT
HETATM    1  C8  UNL     1      -3.203   4.078  12.002  1.00  0.00     0.153 C 
HETATM    2  C9  UNL     1      -4.167   3.753  10.880  1.00  0.00     0.175 C 
HETATM    3  C10 UNL     1      -4.470   2.276  11.107  1.00  0.00     0.180 C 
HETATM    4  C11 UNL     1      -3.949   1.926  12.464  1.00  0.00     0.180 C 
HETATM    5  C12 UNL     1      -3.783   3.295  13.144  1.00  0.00     0.178 C 
ENDROOT
BRANCH   1   6
HETATM    6  N2  UNL     1      -3.094   5.477  12.235  1.00  0.00    -0.333 N 
HETATM    7  C4  UNL     1      -3.920   6.267  12.941  1.00  0.00     0.120 A 
HETATM    8  N1  UNL     1      -5.046   6.353  13.686  1.00  0.00    -0.332 N 
HETATM    9  C5  UNL     1      -3.425   7.569  12.903  1.00  0.00     0.018 A 
HETATM   10  C3  UNL     1      -5.271   7.593  14.101  1.00  0.00     0.112 A 
ATOM     11  H1  UNL     1      -5.649   5.560  13.903  1.00  0.00     0.168 HD
HETATM   12  C2  UNL     1      -4.260   8.399  13.623  1.00  0.00    -0.009 A 
HETATM   13 CL1  UNL     1      -6.596   8.207  15.090  1.00  0.00    -0.064 Cl
HETATM   14  C1  UNL     1      -4.109   9.877  13.847  1.00  0.00     0.052 C 
HETATM   15  C6  UNL     1      -2.286   7.543  12.162  1.00  0.00     0.033 A 
HETATM   16  C7  UNL     1      -2.089   6.229  11.749  1.00  0.00     0.094 A 
ENDBRANCH   1   6
BRANCH   2  17
HETATM   17  O1  UNL     1      -3.591   3.895   9.630  1.00  0.00    -0.391 OA
ATOM     18  H1  UNL     1      -3.478   4.806   9.385  1.00  0.00     0.210 HD
ENDBRANCH   2  17
BRANCH   5  19
HETATM   19  O4  UNL     1      -5.040   3.696  13.523  1.00  0.00    -0.380 OA
BRANCH  19  20
HETATM   20  C13 UNL     1      -5.700   2.706  14.244  1.00  0.00     0.183 C 
BRANCH  20  21
HETATM   21  C14 UNL     1      -5.335   2.693  15.695  1.00  0.00     0.071 C 
HETATM   22  C15 UNL     1      -6.485   2.786  16.623  1.00  0.00     0.018 C 
HETATM   23  C16 UNL     1      -6.884   1.417  17.072  1.00  0.00     0.011 C 
HETATM   24  C17 UNL     1      -5.668   0.676  17.526  1.00  0.00     0.074 C 
HETATM   25  S1  UNL     1      -4.493   1.175  16.202  1.00  0.00    -0.162 SA
ENDBRANCH  20  21
ENDBRANCH  19  20
ENDBRANCH   5  19
BRANCH   3  26
HETATM   26  O2  UNL     1      -3.812   1.479  10.161  1.00  0.00    -0.390 OA
ATOM     27  H2  UNL     1      -3.019   1.103  10.527  1.00  0.00     0.210 HD
ENDBRANCH   3  26
BRANCH   4  28
HETATM   28  O3  UNL     1      -2.660   1.391  12.362  1.00  0.00    -0.390 OA
ATOM     29  H3  UNL     1      -2.319   1.194  13.226  1.00  0.00     0.210 HD
ENDBRANCH   4  28
TORSDOF 7
ENDMDL
MODEL 4
REMARK VINA RESULT: -6.826286308      2.212      2.819
REMARK  7 active torsions:
REMARK  status: ('A' for Active; 'I' for Inactive)
REMARK    1  A    between atoms: N2_11  and  C8_12 
REMARK    2  A    between atoms: C9_13  and  O1_14 
REMARK    3  A    between atoms: C10_16  and  O2_17 
REMARK    4  A    between atoms: C11_19  and  O3_20 
REMARK    5  A    between atoms: C12_22  and  O4_23 
REMARK    6  A    between atoms: O4_23  and  C13_24 
REMARK    7  A    between atoms: C13_24  and  C14_25 
ROOT
HETATM    1  C8  UNL     1      -3.117   4.758  12.537  1.00  0.00     0.153 C 
HETATM    2  C9  UNL     1      -3.887   4.747  11.233  1.00  0.00     0.175 C 
HETATM    3  C10 UNL     1      -4.128   3.262  10.989  1.00  0.00     0.180 C 
HETATM    4  C11 UNL     1      -3.788   2.550  12.260  1.00  0.00     0.180 C 
HETATM    5  C12 UNL     1      -3.807   3.672  13.311  1.00  0.00     0.178 C 
ENDROOT
BRANCH   1   6
HETATM    6  N2  UNL     1      -3.129   6.035  13.164  1.00  0.00    -0.333 N 
HETATM    7  C4  UNL     1      -3.738   7.158  12.745  1.00  0.00     0.120 A 
HETATM    8  N1  UNL     1      -4.503   7.749  11.801  1.00  0.00    -0.332 N 
HETATM    9  C5  UNL     1      -3.483   8.168  13.671  1.00  0.00     0.018 A 
HETATM   10  C3  UNL     1      -4.732   9.026  12.076  1.00  0.00     0.112 A 
ATOM     11  H1  UNL     1      -4.862   7.270  10.974  1.00  0.00     0.168 HD
HETATM   12  C2  UNL     1      -4.099   9.333  13.261  1.00  0.00    -0.009 A 
HETATM   13 CL1  UNL     1      -5.665  10.209  11.158  1.00  0.00    -0.064 Cl
HETATM   14  C1  UNL     1      -4.088  10.666  13.954  1.00  0.00     0.052 C 
HETATM   15  C6  UNL     1      -2.711   7.628  14.652  1.00  0.00     0.033 A 
HETATM   16  C7  UNL     1      -2.497   6.293  14.323  1.00  0.00     0.094 A 
ENDBRANCH   1   6
BRANCH   2  17
HETATM   17  O1  UNL     1      -3.147   5.250  10.178  1.00  0.00    -0.391 OA
ATOM     18  H1  UNL     1      -3.599   5.948   9.718  1.00  0.00     0.210 HD
ENDBRANCH   2  17
BRANCH   5  19
HETATM   19  O4  UNL     1      -5.128   3.926  13.586  1.00  0.00    -0.380 OA
BRANCH  19  20
HETATM   20  C13 UNL     1      -5.731   2.856  14.240  1.00  0.00     0.183 C 
BRANCH  20  21
HETATM   21  C14 UNL     1      -5.294   2.714  15.664  1.00  0.00     0.071 C 
HETATM   22  C15 UNL     1      -6.389   2.785  16.658  1.00  0.00     0.018 C 
HETATM   23  C16 UNL     1      -6.830   1.404  17.023  1.00  0.00     0.011 C 
HETATM   24  C17 UNL     1      -5.629   0.577  17.353  1.00  0.00     0.074 C 
HETATM   25  S1  UNL     1      -4.500   1.126  16.008  1.00  0.00    -0.162 SA
ENDBRANCH  20  21
ENDBRANCH  19  20
ENDBRANCH   5  19
BRANCH   3  26
HETATM   26  O2  UNL     1      -3.293   2.779   9.975  1.00  0.00    -0.390 OA
ATOM     27  H2  UNL     1      -2.378   2.911  10.196  1.00  0.00     0.210 HD
ENDBRANCH   3  26
BRANCH   4  28
HETATM   28  O3  UNL     1      -2.467   2.090  12.215  1.00  0.00    -0.390 OA
ATOM     29  H3  UNL     1      -2.095   2.082  13.089  1.00  0.00     0.210 HD
ENDBRANCH   4  28
TORSDOF 7
ENDMDL
MODEL 5
REMARK VINA RESULT: -6.739710254      2.179      2.891
REMARK  7 active torsions:
REMARK  status: ('A' for Active; 'I' for Inactive)
REMARK    1  A    between atoms: N2_11  and  C8_12 
REMARK    2  A    between atoms: C9_13  and  O1_14 
REMARK    3  A    between atoms: C10_16  and  O2_17 
REMARK    4  A    between atoms: C11_19  and  O3_20 
REMARK    5  A    between atoms: C12_22  and  O4_23 
REMARK    6  A    between atoms: O4_23  and  C13_24 
REMARK    7  A    between atoms: C13_24  and  C14_25 
ROOT
HETATM    1  C8  UNL     1      -3.519   4.914  12.016  1.00  0.00     0.153 C 
HETATM    2  C9  UNL     1      -4.327   4.373  10.855  1.00  0.00     0.175 C 
HETATM    3  C10 UNL     1      -4.178   2.863  11.009  1.00  0.00     0.180 C 
HETATM    4  C11 UNL     1      -3.595   2.617  12.364  1.00  0.00     0.180 C 
HETATM    5  C12 UNL     1      -3.854   3.938  13.107  1.00  0.00     0.178 C 
ENDROOT
BRANCH   1   6
HETATM    6  N2  UNL     1      -3.834   6.268  12.312  1.00  0.00    -0.333 N 
HETATM    7  C4  UNL     1      -3.218   7.094  13.176  1.00  0.00     0.120 A 
HETATM    8  N1  UNL     1      -2.228   7.253  14.082  1.00  0.00    -0.332 N 
HETATM    9  C5  UNL     1      -3.864   8.328  13.143  1.00  0.00     0.018 A 
HETATM   10  C3  UNL     1      -2.219   8.475  14.597  1.00  0.00     0.112 A 
ATOM     11  H1  UNL     1      -1.566   6.521  14.339  1.00  0.00     0.168 HD
HETATM   12  C2  UNL     1      -3.247   9.193  14.024  1.00  0.00    -0.009 A 
HETATM   13 CL1  UNL     1      -1.132   9.162  15.805  1.00  0.00    -0.064 Cl
HETATM   14  C1  UNL     1      -3.612  10.622  14.309  1.00  0.00     0.052 C 
HETATM   15  C6  UNL     1      -4.877   8.227  12.242  1.00  0.00     0.033 A 
HETATM   16  C7  UNL     1      -4.849   6.934  11.729  1.00  0.00     0.094 A 
ENDBRANCH   1   6
BRANCH   2  17
HETATM   17  O1  UNL     1      -3.803   4.742   9.629  1.00  0.00    -0.391 OA
ATOM     18  H1  UNL     1      -4.129   5.585   9.335  1.00  0.00     0.210 HD
ENDBRANCH   2  17
BRANCH   5  19
HETATM   19  O4  UNL     1      -5.178   3.928  13.469  1.00  0.00    -0.380 OA
BRANCH  19  20
HETATM   20  C13 UNL     1      -5.525   2.747  14.117  1.00  0.00     0.183 C 
BRANCH  20  21
HETATM   21  C14 UNL     1      -5.203   2.762  15.578  1.00  0.00     0.071 C 
HETATM   22  C15 UNL     1      -6.378   2.884  16.470  1.00  0.00     0.018 C 
HETATM   23  C16 UNL     1      -6.803   1.528  16.935  1.00  0.00     0.011 C 
HETATM   24  C17 UNL     1      -5.607   0.787  17.440  1.00  0.00     0.074 C 
HETATM   25  S1  UNL     1      -4.389   1.247  16.140  1.00  0.00    -0.162 SA
ENDBRANCH  20  21
ENDBRANCH  19  20
ENDBRANCH   5  19
BRANCH   3  26
HETATM   26  O2  UNL     1      -3.301   2.346  10.049  1.00  0.00    -0.390 OA
ATOM     27  H2  UNL     1      -2.407   2.619  10.223  1.00  0.00     0.210 HD
ENDBRANCH   3  26
BRANCH   4  28
HETATM   28  O3  UNL     1      -2.204   2.495  12.274  1.00  0.00    -0.390 OA
ATOM     29  H3  UNL     1      -1.830   2.376  13.139  1.00  0.00     0.210 HD
ENDBRANCH   4  28
TORSDOF 7
ENDMDL
