MODEL 1
REMARK VINA RESULT: -7.668993575      0.000      0.000
REMARK  4 active torsions:
REMARK  status: ('A' for Active; 'I' for Inactive)
REMARK    1  A    between atoms: C2_2  and  N1_5 
REMARK       I    between atoms: N1_5  and  C5_7 
REMARK       I    between atoms: C5_7  and  N2_9 
REMARK    2  A    between atoms: N3_11  and  N4_13 
REMARK    3  A    between atoms: N4_13  and  C6_15 
REMARK    4  A    between atoms: C10_20  and  N5_21 
ROOT
HETATM    1  N4  UNL     1       8.233 -27.999  17.284  1.00  0.00    -0.283 N 
ATOM      2  H4  UNL     1       8.121 -27.206  16.652  1.00  0.00     0.188 HD
ENDROOT
BRANCH   1   3
HETATM    3  N3  UNL     1       9.277 -28.896  17.077  1.00  0.00    -0.238 N 
HETATM    4  N2  UNL     1      10.135 -28.707  16.167  1.00  0.00    -0.237 N 
HETATM    5  C5  UNL     1      10.069 -27.557  15.306  1.00  0.00     0.336 C 
ATOM      6  H2  UNL     1      10.888 -29.384  16.042  1.00  0.00     0.193 HD
HETATM    7  N1  UNL     1      11.038 -26.529  15.436  1.00  0.00    -0.334 N 
HETATM    8  O1  UNL     1       9.172 -27.437  14.439  1.00  0.00    -0.246 OA
ATOM      9  H1  UNL     1      11.774 -26.612  16.137  1.00  0.00     0.165 HD
ATOM     10  H3  UNL     1       9.352 -29.723  17.670  1.00  0.00     0.208 HD
BRANCH   7  11
HETATM   11  C2  UNL     1      10.987 -25.373  14.587  1.00  0.00     0.023 C 
HETATM   12  C1  UNL     1      12.289 -24.598  14.591  1.00  0.00     0.037 C 
HETATM   13  C3  UNL     1      10.742 -25.841  13.170  1.00  0.00     0.037 C 
HETATM   14  C4  UNL     1       9.839 -24.485  15.065  1.00  0.00     0.037 C 
ENDBRANCH   7  11
ENDBRANCH   1   3
BRANCH   1  15
HETATM   15  C6  UNL     1       7.320 -28.168  18.359  1.00  0.00     0.093 A 
HETATM   16  C7  UNL     1       6.523 -29.291  18.409  1.00  0.00     0.076 A 
HETATM   17  C8  UNL     1       5.615 -29.517  19.423  1.00  0.00     0.121 A 
HETATM   18  F1  UNL     1       4.836 -30.621  19.465  1.00  0.00    -0.206 F 
HETATM   19  C9  UNL     1       5.508 -28.578  20.425  1.00  0.00     0.081 A 
HETATM   20  C10 UNL     1       6.293 -27.424  20.419  1.00  0.00     0.146 A 
HETATM   21  C11 UNL     1       7.178 -27.255  19.382  1.00  0.00     0.177 A 
HETATM   22  F2  UNL     1       7.947 -26.145  19.359  1.00  0.00    -0.201 F 
BRANCH  20  23
HETATM   23  N5  UNL     1       6.154 -26.478  21.468  1.00  0.00    -0.112 N 
HETATM   24  O2  UNL     1       6.449 -26.767  22.646  1.00  0.00    -0.532 OA
HETATM   25  O3  UNL     1       5.692 -25.226  21.219  1.00  0.00    -0.532 OA
ENDBRANCH  20  23
ENDBRANCH   1  15
TORSDOF 4
ENDMDL
MODEL 2
REMARK VINA RESULT: -7.627602358      0.371      1.010
REMARK  4 active torsions:
REMARK  status: ('A' for Active; 'I' for Inactive)
REMARK    1  A    between atoms: C2_2  and  N1_5 
REMARK       I    between atoms: N1_5  and  C5_7 
REMARK       I    between atoms: C5_7  and  N2_9 
REMARK    2  A    between atoms: N3_11  and  N4_13 
REMARK    3  A    between atoms: N4_13  and  C6_15 
REMARK    4  A    between atoms: C10_20  and  N5_21 
ROOT
HETATM    1  N4  UNL     1       8.322 -27.728  17.731  1.00  0.00    -0.283 N 
ATOM      2  H4  UNL     1       8.410 -26.810  17.294  1.00  0.00     0.188 HD
ENDROOT
BRANCH   1   3
HETATM    3  N3  UNL     1       9.183 -28.752  17.348  1.00  0.00    -0.238 N 
HETATM    4  N2  UNL     1       9.898 -28.655  16.308  1.00  0.00    -0.237 N 
HETATM    5  C5  UNL     1       9.851 -27.483  15.477  1.00  0.00     0.336 C 
ATOM      6  H2  UNL     1      10.519 -29.424  16.055  1.00  0.00     0.193 HD
HETATM    7  N1  UNL     1      10.961 -26.600  15.448  1.00  0.00    -0.334 N 
HETATM    8  O1  UNL     1       8.849 -27.218  14.772  1.00  0.00    -0.246 OA
ATOM      9  H1  UNL     1      11.784 -26.801  16.016  1.00  0.00     0.165 HD
ATOM     10  H3  UNL     1       9.240 -29.597  17.916  1.00  0.00     0.208 HD
BRANCH   7  11
HETATM   11  C2  UNL     1      10.931 -25.425  14.626  1.00  0.00     0.023 C 
HETATM   12  C1  UNL     1       9.847 -24.453  15.047  1.00  0.00     0.037 C 
HETATM   13  C3  UNL     1      12.259 -24.714  14.772  1.00  0.00     0.037 C 
HETATM   14  C4  UNL     1      10.715 -25.866  13.178  1.00  0.00     0.037 C 
ENDBRANCH   7  11
ENDBRANCH   1   3
BRANCH   1  15
HETATM   15  C6  UNL     1       7.324 -27.937  18.719  1.00  0.00     0.093 A 
HETATM   16  C7  UNL     1       6.471 -29.014  18.612  1.00  0.00     0.076 A 
HETATM   17  C8  UNL     1       5.480 -29.276  19.535  1.00  0.00     0.121 A 
HETATM   18  F1  UNL     1       4.647 -30.334  19.423  1.00  0.00    -0.206 F 
HETATM   19  C9  UNL     1       5.344 -28.421  20.607  1.00  0.00     0.081 A 
HETATM   20  C10 UNL     1       6.184 -27.317  20.760  1.00  0.00     0.146 A 
HETATM   21  C11 UNL     1       7.151 -27.109  19.807  1.00  0.00     0.177 A 
HETATM   22  F2  UNL     1       7.973 -26.045  19.938  1.00  0.00    -0.201 F 
BRANCH  20  23
HETATM   23  N5  UNL     1       6.013 -26.458  21.877  1.00  0.00    -0.112 N 
HETATM   24  O2  UNL     1       6.464 -26.759  23.002  1.00  0.00    -0.532 OA
HETATM   25  O3  UNL     1       5.349 -25.280  21.754  1.00  0.00    -0.532 OA
ENDBRANCH  20  23
ENDBRANCH   1  15
TORSDOF 4
ENDMDL
MODEL 3
REMARK VINA RESULT: -7.627451876      2.148      2.526
REMARK  4 active torsions:
REMARK  status: ('A' for Active; 'I' for Inactive)
REMARK    1  A    between atoms: C2_2  and  N1_5 
REMARK       I    between atoms: N1_5  and  C5_7 
REMARK       I    between atoms: C5_7  and  N2_9 
REMARK    2  A    between atoms: N3_11  and  N4_13 
REMARK    3  A    between atoms: N4_13  and  C6_15 
REMARK    4  A    between atoms: C10_20  and  N5_21 
ROOT
HETATM    1  N4  UNL     1       9.787 -28.540  16.972  1.00  0.00    -0.283 N 
ATOM      2  H4  UNL     1      10.578 -27.936  17.201  1.00  0.00     0.188 HD
ENDROOT
BRANCH   1   3
HETATM    3  N3  UNL     1       9.762 -29.196  15.745  1.00  0.00    -0.238 N 
HETATM    4  N2  UNL     1       9.782 -28.552  14.656  1.00  0.00    -0.237 N 
HETATM    5  C5  UNL     1       9.831 -27.115  14.639  1.00  0.00     0.336 C 
ATOM      6  H2  UNL     1       9.762 -29.063  13.773  1.00  0.00     0.193 HD
HETATM    7  N1  UNL     1      11.015 -26.460  14.213  1.00  0.00    -0.334 N 
HETATM    8  O1  UNL     1       8.850 -26.420  14.992  1.00  0.00    -0.246 OA
ATOM      9  H1  UNL     1      11.823 -27.011  13.922  1.00  0.00     0.165 HD
ATOM     10  H3  UNL     1       9.726 -30.215  15.722  1.00  0.00     0.208 HD
BRANCH   7  11
HETATM   11  C2  UNL     1      11.084 -25.028  14.190  1.00  0.00     0.023 C 
HETATM   12  C1  UNL     1      10.119 -24.389  15.170  1.00  0.00     0.037 C 
HETATM   13  C3  UNL     1      12.482 -24.616  14.597  1.00  0.00     0.037 C 
HETATM   14  C4  UNL     1      10.780 -24.562  12.767  1.00  0.00     0.037 C 
ENDBRANCH   7  11
ENDBRANCH   1   3
BRANCH   1  15
HETATM   15  C6  UNL     1       8.734 -28.696  17.912  1.00  0.00     0.093 A 
HETATM   16  C7  UNL     1       8.983 -29.309  19.121  1.00  0.00     0.076 A 
HETATM   17  C8  UNL     1       8.006 -29.493  20.078  1.00  0.00     0.121 A 
HETATM   18  F1  UNL     1       8.257 -30.096  21.261  1.00  0.00    -0.206 F 
HETATM   19  C9  UNL     1       6.733 -29.043  19.808  1.00  0.00     0.081 A 
HETATM   20  C10 UNL     1       6.432 -28.415  18.598  1.00  0.00     0.146 A 
HETATM   21  C11 UNL     1       7.446 -28.261  17.684  1.00  0.00     0.177 A 
HETATM   22  F2  UNL     1       7.174 -27.656  16.508  1.00  0.00    -0.201 F 
BRANCH  20  23
HETATM   23  N5  UNL     1       5.108 -27.964  18.354  1.00  0.00    -0.112 N 
HETATM   24  O2  UNL     1       4.142 -28.755  18.364  1.00  0.00    -0.532 OA
HETATM   25  O3  UNL     1       4.854 -26.655  18.102  1.00  0.00    -0.532 OA
ENDBRANCH  20  23
ENDBRANCH   1  15
TORSDOF 4
ENDMDL
MODEL 4
REMARK VINA RESULT: -7.562943869      2.598      3.194
REMARK  4 active torsions:
REMARK  status: ('A' for Active; 'I' for Inactive)
REMARK    1  A    between atoms: C2_2  and  N1_5 
REMARK       I    between atoms: N1_5  and  C5_7 
REMARK       I    between atoms: C5_7  and  N2_9 
REMARK    2  A    between atoms: N3_11  and  N4_13 
REMARK    3  A    between atoms: N4_13  and  C6_15 
REMARK    4  A    between atoms: C10_20  and  N5_21 
ROOT
HETATM    1  N4  UNL     1       8.411 -28.386  19.322  1.00  0.00    -0.283 N 
ATOM      2  H4  UNL     1       9.009 -27.559  19.345  1.00  0.00     0.188 HD
ENDROOT
BRANCH   1   3
HETATM    3  N3  UNL     1       8.906 -29.570  18.784  1.00  0.00    -0.238 N 
HETATM    4  N2  UNL     1       9.200 -29.662  17.557  1.00  0.00    -0.237 N 
HETATM    5  C5  UNL     1       9.036 -28.547  16.664  1.00  0.00     0.336 C 
ATOM      6  H2  UNL     1       9.560 -30.545  17.194  1.00  0.00     0.193 HD
HETATM    7  N1  UNL     1      10.183 -27.888  16.150  1.00  0.00    -0.334 N 
HETATM    8  O1  UNL     1       7.901 -28.138  16.326  1.00  0.00    -0.246 OA
ATOM      9  H1  UNL     1      11.114 -28.209  16.415  1.00  0.00     0.165 HD
ATOM     10  H3  UNL     1       9.033 -30.381  19.390  1.00  0.00     0.208 HD
BRANCH   7  11
HETATM   11  C2  UNL     1      10.039 -26.773  15.259  1.00  0.00     0.023 C 
HETATM   12  C1  UNL     1       8.993 -25.785  15.736  1.00  0.00     0.037 C 
HETATM   13  C3  UNL     1      11.362 -26.041  15.204  1.00  0.00     0.037 C 
HETATM   14  C4  UNL     1       9.668 -27.314  13.879  1.00  0.00     0.037 C 
ENDBRANCH   7  11
ENDBRANCH   1   3
BRANCH   1  15
HETATM   15  C6  UNL     1       7.091 -28.306  19.838  1.00  0.00     0.093 A 
HETATM   16  C7  UNL     1       6.853 -27.604  21.000  1.00  0.00     0.076 A 
HETATM   17  C8  UNL     1       5.596 -27.487  21.556  1.00  0.00     0.121 A 
HETATM   18  F1  UNL     1       5.370 -26.796  22.696  1.00  0.00    -0.206 F 
HETATM   19  C9  UNL     1       4.540 -28.100  20.919  1.00  0.00     0.081 A 
HETATM   20  C10 UNL     1       4.730 -28.824  19.741  1.00  0.00     0.146 A 
HETATM   21  C11 UNL     1       6.005 -28.904  19.236  1.00  0.00     0.177 A 
HETATM   22  F2  UNL     1       6.209 -29.600  18.096  1.00  0.00    -0.201 F 
BRANCH  20  23
HETATM   23  N5  UNL     1       3.618 -29.443  19.113  1.00  0.00    -0.112 N 
HETATM   24  O2  UNL     1       3.044 -30.423  19.631  1.00  0.00    -0.532 OA
HETATM   25  O3  UNL     1       3.145 -28.986  17.925  1.00  0.00    -0.532 OA
ENDBRANCH  20  23
ENDBRANCH   1  15
TORSDOF 4
ENDMDL
MODEL 5
REMARK VINA RESULT: -7.529139935      2.599      4.090
REMARK  4 active torsions:
REMARK  status: ('A' for Active; 'I' for Inactive)
REMARK    1  A    between atoms: C2_2  and  N1_5 
REMARK       I    between atoms: N1_5  and  C5_7 
REMARK       I    between atoms: C5_7  and  N2_9 
REMARK    2  A    between atoms: N3_11  and  N4_13 
REMARK    3  A    between atoms: N4_13  and  C6_15 
REMARK    4  A    between atoms: C10_20  and  N5_21 
ROOT
HETATM    1  N4  UNL     1       6.474 -28.753  19.981  1.00  0.00    -0.283 N 
ATOM      2  H4  UNL     1       5.762 -28.894  19.264  1.00  0.00     0.188 HD
ENDROOT
BRANCH   1   3
HETATM    3  N3  UNL     1       7.332 -29.799  20.307  1.00  0.00    -0.238 N 
HETATM    4  N2  UNL     1       8.116 -30.297  19.448  1.00  0.00    -0.237 N 
HETATM    5  C5  UNL     1       8.154 -29.805  18.097  1.00  0.00     0.336 C 
ATOM      6  H2  UNL     1       8.733 -31.063  19.720  1.00  0.00     0.193 HD
HETATM    7  N1  UNL     1       9.285 -29.076  17.649  1.00  0.00    -0.334 N 
HETATM    8  O1  UNL     1       7.208 -30.004  17.300  1.00  0.00    -0.246 OA
ATOM      9  H1  UNL     1      10.064 -28.906  18.286  1.00  0.00     0.165 HD
ATOM     10  H3  UNL     1       7.330 -30.171  21.257  1.00  0.00     0.208 HD
BRANCH   7  11
HETATM   11  C2  UNL     1       9.340 -28.576  16.306  1.00  0.00     0.023 C 
HETATM   12  C1  UNL     1       8.111 -27.767  15.941  1.00  0.00     0.037 C 
HETATM   13  C3  UNL     1      10.537 -27.658  16.193  1.00  0.00     0.037 C 
HETATM   14  C4  UNL     1       9.488 -29.770  15.363  1.00  0.00     0.037 C 
ENDBRANCH   7  11
ENDBRANCH   1   3
BRANCH   1  15
HETATM   15  C6  UNL     1       6.571 -27.492  20.628  1.00  0.00     0.093 A 
HETATM   16  C7  UNL     1       7.581 -26.622  20.280  1.00  0.00     0.076 A 
HETATM   17  C8  UNL     1       7.733 -25.383  20.869  1.00  0.00     0.121 A 
HETATM   18  F1  UNL     1       8.727 -24.535  20.522  1.00  0.00    -0.206 F 
HETATM   19  C9  UNL     1       6.835 -25.008  21.843  1.00  0.00     0.081 A 
HETATM   20  C10 UNL     1       5.795 -25.855  22.230  1.00  0.00     0.146 A 
HETATM   21  C11 UNL     1       5.696 -27.075  21.608  1.00  0.00     0.177 A 
HETATM   22  F2  UNL     1       4.696 -27.908  21.969  1.00  0.00    -0.201 F 
BRANCH  20  23
HETATM   23  N5  UNL     1       4.889 -25.433  23.238  1.00  0.00    -0.112 N 
HETATM   24  O2  UNL     1       3.726 -25.078  22.958  1.00  0.00    -0.532 OA
HETATM   25  O3  UNL     1       5.264 -25.403  24.543  1.00  0.00    -0.532 OA
ENDBRANCH  20  23
ENDBRANCH   1  15
TORSDOF 4
ENDMDL
