MODEL 1
REMARK VINA RESULT: -8.275372330      0.000      0.000
REMARK  5 active torsions:
REMARK  status: ('A' for Active; 'I' for Inactive)
REMARK    1  A    between atoms: O1_2  and  C2_3 
REMARK    2  A    between atoms: C7_8  and  O2_10 
REMARK    3  A    between atoms: C12_15  and  C13_16 
REMARK    4  A    between atoms: C13_16  and  O3_17 
REMARK    5  A    between atoms: C17_22  and  C19_24 
ROOT
HETATM    1  C2  UNL     1       4.745  17.885 -44.539  1.00  0.00     0.072 C 
HETATM    2  C3  UNL     1       5.345  18.983 -43.755  1.00  0.00     0.040 C 
HETATM    3  C4  UNL     1       6.113  19.918 -44.588  1.00  0.00     0.016 C 
HETATM    4  C5  UNL     1       7.145  19.274 -45.495  1.00  0.00    -0.003 C 
HETATM    5  C6  UNL     1       8.299  18.913 -44.540  1.00  0.00     0.019 C 
HETATM    6  C7  UNL     1       7.598  20.423 -46.355  1.00  0.00     0.062 C 
HETATM    7  C8  UNL     1       8.749  21.186 -45.672  1.00  0.00     0.046 C 
HETATM    8  C9  UNL     1       8.062  20.143 -47.727  1.00  0.00     0.038 C 
HETATM    9  C10 UNL     1       7.361  19.036 -48.430  1.00  0.00     0.004 C 
HETATM   10  C11 UNL     1       6.346  18.374 -47.585  1.00  0.00     0.013 C 
HETATM   11  C12 UNL     1       6.746  18.029 -46.168  1.00  0.00    -0.002 C 
HETATM   12  C14 UNL     1       5.581  17.268 -45.586  1.00  0.00     0.036 C 
HETATM   13  C15 UNL     1       5.952  15.929 -44.980  1.00  0.00     0.044 C 
HETATM   14  C16 UNL     1       4.622  15.615 -44.258  1.00  0.00    -0.064 C 
HETATM   15  C17 UNL     1       3.978  14.546 -44.555  1.00  0.00    -0.021 C 
HETATM   16  C18 UNL     1       4.591  13.624 -45.641  1.00  0.00     0.052 C 
HETATM   17  C20 UNL     1       4.584  16.760 -43.426  1.00  0.00     0.046 C 
HETATM   18  C21 UNL     1       3.472  17.116 -42.539  1.00  0.00     0.018 C 
ENDROOT
BRANCH  15  19
HETATM   19  C19 UNL     1       2.738  14.026 -44.028  1.00  0.00     0.265 C 
HETATM   20  O4  UNL     1       1.803  13.529 -44.651  1.00  0.00    -0.302 OA
ENDBRANCH  15  19
BRANCH   1  21
HETATM   21  O1  UNL     1       3.432  18.009 -44.878  1.00  0.00    -0.384 OA
HETATM   22  C1  UNL     1       2.903  19.158 -45.296  1.00  0.00     0.202 C 
ENDBRANCH   1  21
BRANCH  11  23
HETATM   23  C13 UNL     1       7.837  16.983 -46.281  1.00  0.00     0.175 C 
BRANCH  23  24
HETATM   24  O3  UNL     1       7.970  16.327 -47.466  1.00  0.00    -0.400 OA
ATOM     25  H3  UNL     1       8.797  16.407 -47.927  1.00  0.00     0.209 HD
ENDBRANCH  23  24
ENDBRANCH  11  23
BRANCH   6  26
HETATM   26  O2  UNL     1       6.599  21.432 -46.470  1.00  0.00    -0.389 OA
ATOM     27  H2  UNL     1       6.866  22.247 -46.062  1.00  0.00     0.210 HD
ENDBRANCH   6  26
TORSDOF 5
ENDMDL
MODEL 2
REMARK VINA RESULT: -7.563875286      1.903      4.152
REMARK  5 active torsions:
REMARK  status: ('A' for Active; 'I' for Inactive)
REMARK    1  A    between atoms: O1_2  and  C2_3 
REMARK    2  A    between atoms: C7_8  and  O2_10 
REMARK    3  A    between atoms: C12_15  and  C13_16 
REMARK    4  A    between atoms: C13_16  and  O3_17 
REMARK    5  A    between atoms: C17_22  and  C19_24 
ROOT
HETATM    1  C2  UNL     1       5.884  16.322 -45.482  1.00  0.00     0.072 C 
HETATM    2  C3  UNL     1       5.584  16.559 -44.055  1.00  0.00     0.040 C 
HETATM    3  C4  UNL     1       4.734  17.740 -43.845  1.00  0.00     0.016 C 
HETATM    4  C5  UNL     1       5.221  19.012 -44.513  1.00  0.00    -0.003 C 
HETATM    5  C6  UNL     1       6.383  19.478 -43.614  1.00  0.00     0.019 C 
HETATM    6  C7  UNL     1       4.070  19.958 -44.311  1.00  0.00     0.062 C 
HETATM    7  C8  UNL     1       4.199  20.681 -42.956  1.00  0.00     0.046 C 
HETATM    8  C9  UNL     1       3.838  21.019 -45.310  1.00  0.00     0.038 C 
HETATM    9  C10 UNL     1       4.145  20.654 -46.718  1.00  0.00     0.004 C 
HETATM   10  C11 UNL     1       4.688  19.286 -46.848  1.00  0.00     0.013 C 
HETATM   11  C12 UNL     1       5.766  18.875 -45.872  1.00  0.00    -0.002 C 
HETATM   12  C14 UNL     1       6.212  17.501 -46.306  1.00  0.00     0.036 C 
HETATM   13  C15 UNL     1       7.708  17.367 -46.511  1.00  0.00     0.044 C 
HETATM   14  C16 UNL     1       7.796  15.829 -46.642  1.00  0.00    -0.064 C 
HETATM   15  C17 UNL     1       8.280  15.312 -47.712  1.00  0.00    -0.021 C 
HETATM   16  C18 UNL     1       8.753  16.286 -48.823  1.00  0.00     0.052 C 
HETATM   17  C20 UNL     1       7.242  15.500 -45.382  1.00  0.00     0.046 C 
HETATM   18  C21 UNL     1       6.947  14.139 -44.923  1.00  0.00     0.018 C 
ENDROOT
BRANCH  15  19
HETATM   19  C19 UNL     1       8.478  13.928 -48.072  1.00  0.00     0.265 C 
HETATM   20  O4  UNL     1       7.765  13.224 -48.784  1.00  0.00    -0.302 OA
ENDBRANCH  15  19
BRANCH   1  21
HETATM   21  O1  UNL     1       5.137  15.384 -46.126  1.00  0.00    -0.384 OA
HETATM   22  C1  UNL     1       4.215  14.648 -45.506  1.00  0.00     0.202 C 
ENDBRANCH   1  21
BRANCH  11  23
HETATM   23  C13 UNL     1       6.965  19.752 -46.174  1.00  0.00     0.175 C 
BRANCH  23  24
HETATM   24  O3  UNL     1       7.023  20.352 -47.394  1.00  0.00    -0.400 OA
ATOM     25  H3  UNL     1       7.737  20.957 -47.558  1.00  0.00     0.209 HD
ENDBRANCH  23  24
ENDBRANCH  11  23
BRANCH   6  26
HETATM   26  O2  UNL     1       2.831  19.271 -44.164  1.00  0.00    -0.389 OA
ATOM     27  H2  UNL     1       2.126  19.702 -44.634  1.00  0.00     0.210 HD
ENDBRANCH   6  26
TORSDOF 5
ENDMDL
MODEL 3
REMARK VINA RESULT: -7.509067178      1.810      2.451
REMARK  5 active torsions:
REMARK  status: ('A' for Active; 'I' for Inactive)
REMARK    1  A    between atoms: O1_2  and  C2_3 
REMARK    2  A    between atoms: C7_8  and  O2_10 
REMARK    3  A    between atoms: C12_15  and  C13_16 
REMARK    4  A    between atoms: C13_16  and  O3_17 
REMARK    5  A    between atoms: C17_22  and  C19_24 
ROOT
HETATM    1  C2  UNL     1       6.358  17.331 -46.104  1.00  0.00     0.072 C 
HETATM    2  C3  UNL     1       6.673  18.410 -45.146  1.00  0.00     0.040 C 
HETATM    3  C4  UNL     1       7.045  19.667 -45.811  1.00  0.00     0.016 C 
HETATM    4  C5  UNL     1       8.132  19.542 -46.862  1.00  0.00    -0.003 C 
HETATM    5  C6  UNL     1       9.426  19.400 -46.038  1.00  0.00     0.019 C 
HETATM    6  C7  UNL     1       8.137  20.904 -47.501  1.00  0.00     0.062 C 
HETATM    7  C8  UNL     1       9.066  21.859 -46.726  1.00  0.00     0.046 C 
HETATM    8  C9  UNL     1       8.532  21.024 -48.917  1.00  0.00     0.038 C 
HETATM    9  C10 UNL     1       8.132  19.891 -49.794  1.00  0.00     0.004 C 
HETATM   10  C11 UNL     1       7.446  18.812 -49.055  1.00  0.00     0.013 C 
HETATM   11  C12 UNL     1       8.062  18.370 -47.747  1.00  0.00    -0.002 C 
HETATM   12  C14 UNL     1       7.238  17.196 -47.280  1.00  0.00     0.036 C 
HETATM   13  C15 UNL     1       8.048  15.955 -46.958  1.00  0.00     0.044 C 
HETATM   14  C16 UNL     1       6.947  15.124 -46.262  1.00  0.00    -0.064 C 
HETATM   15  C17 UNL     1       6.627  13.975 -46.735  1.00  0.00    -0.021 C 
HETATM   16  C18 UNL     1       7.383  13.491 -48.000  1.00  0.00     0.052 C 
HETATM   17  C20 UNL     1       6.647  16.038 -45.224  1.00  0.00     0.046 C 
HETATM   18  C21 UNL     1       5.568  15.873 -44.244  1.00  0.00     0.018 C 
ENDROOT
BRANCH  15  19
HETATM   19  C19 UNL     1       5.655  13.012 -46.273  1.00  0.00     0.265 C 
HETATM   20  O4  UNL     1       4.464  13.198 -46.035  1.00  0.00    -0.302 OA
ENDBRANCH  15  19
BRANCH   1  21
HETATM   21  O1  UNL     1       5.043  17.098 -46.365  1.00  0.00    -0.384 OA
HETATM   22  C1  UNL     1       4.218  18.044 -46.810  1.00  0.00     0.202 C 
ENDBRANCH   1  21
BRANCH  11  23
HETATM   23  C13 UNL     1       9.400  17.751 -48.099  1.00  0.00     0.175 C 
BRANCH  23  24
HETATM   24  O3  UNL     1       9.562  17.258 -49.357  1.00  0.00    -0.400 OA
ATOM     25  H3  UNL     1       9.465  17.859 -50.086  1.00  0.00     0.209 HD
ENDBRANCH  23  24
ENDBRANCH  11  23
BRANCH   6  26
HETATM   26  O2  UNL     1       6.876  21.556 -47.383  1.00  0.00    -0.389 OA
ATOM     27  H2  UNL     1       6.393  21.264 -46.619  1.00  0.00     0.210 HD
ENDBRANCH   6  26
TORSDOF 5
ENDMDL
MODEL 4
REMARK VINA RESULT: -7.457921276      1.848      2.629
REMARK  5 active torsions:
REMARK  status: ('A' for Active; 'I' for Inactive)
REMARK    1  A    between atoms: O1_2  and  C2_3 
REMARK    2  A    between atoms: C7_8  and  O2_10 
REMARK    3  A    between atoms: C12_15  and  C13_16 
REMARK    4  A    between atoms: C13_16  and  O3_17 
REMARK    5  A    between atoms: C17_22  and  C19_24 
ROOT
HETATM    1  C2  UNL     1       4.982  17.063 -44.456  1.00  0.00     0.072 C 
HETATM    2  C3  UNL     1       4.882  17.810 -43.187  1.00  0.00     0.040 C 
HETATM    3  C4  UNL     1       4.706  19.255 -43.393  1.00  0.00     0.016 C 
HETATM    4  C5  UNL     1       5.716  19.900 -44.324  1.00  0.00    -0.003 C 
HETATM    5  C6  UNL     1       6.991  20.008 -43.464  1.00  0.00     0.019 C 
HETATM    6  C7  UNL     1       5.163  21.287 -44.507  1.00  0.00     0.062 C 
HETATM    7  C8  UNL     1       5.670  22.221 -43.391  1.00  0.00     0.046 C 
HETATM    8  C9  UNL     1       5.428  21.996 -45.773  1.00  0.00     0.038 C 
HETATM    9  C10 UNL     1       5.474  21.143 -46.991  1.00  0.00     0.004 C 
HETATM   10  C11 UNL     1       5.294  19.708 -46.689  1.00  0.00     0.013 C 
HETATM   11  C12 UNL     1       6.081  19.142 -45.529  1.00  0.00    -0.002 C 
HETATM   12  C14 UNL     1       5.801  17.659 -45.528  1.00  0.00     0.036 C 
HETATM   13  C15 UNL     1       7.044  16.791 -45.528  1.00  0.00     0.044 C 
HETATM   14  C16 UNL     1       6.384  15.426 -45.231  1.00  0.00    -0.064 C 
HETATM   15  C17 UNL     1       6.524  14.460 -46.064  1.00  0.00    -0.021 C 
HETATM   16  C18 UNL     1       7.364  14.736 -47.339  1.00  0.00     0.052 C 
HETATM   17  C20 UNL     1       5.786  15.771 -43.995  1.00  0.00     0.046 C 
HETATM   18  C21 UNL     1       4.895  14.900 -43.221  1.00  0.00     0.018 C 
ENDROOT
BRANCH  15  19
HETATM   19  C19 UNL     1       6.026  13.106 -46.015  1.00  0.00     0.265 C 
HETATM   20  O4  UNL     1       4.861  12.727 -46.115  1.00  0.00    -0.302 OA
ENDBRANCH  15  19
BRANCH   1  21
HETATM   21  O1  UNL     1       3.856  16.440 -44.900  1.00  0.00    -0.384 OA
HETATM   22  C1  UNL     1       2.682  16.546 -44.278  1.00  0.00     0.202 C 
ENDBRANCH   1  21
BRANCH  11  23
HETATM   23  C13 UNL     1       7.540  19.231 -45.927  1.00  0.00     0.175 C 
BRANCH  23  24
HETATM   24  O3  UNL     1       7.836  19.306 -47.252  1.00  0.00    -0.400 OA
ATOM     25  H3  UNL     1       8.752  19.313 -47.504  1.00  0.00     0.209 HD
ENDBRANCH  23  24
ENDBRANCH  11  23
BRANCH   6  26
HETATM   26  O2  UNL     1       3.752  21.331 -44.314  1.00  0.00    -0.389 OA
ATOM     27  H2  UNL     1       3.278  20.992 -45.065  1.00  0.00     0.210 HD
ENDBRANCH   6  26
TORSDOF 5
ENDMDL
MODEL 5
REMARK VINA RESULT: -7.107469999      1.983      3.682
REMARK  5 active torsions:
REMARK  status: ('A' for Active; 'I' for Inactive)
REMARK    1  A    between atoms: O1_2  and  C2_3 
REMARK    2  A    between atoms: C7_8  and  O2_10 
REMARK    3  A    between atoms: C12_15  and  C13_16 
REMARK    4  A    between atoms: C13_16  and  O3_17 
REMARK    5  A    between atoms: C17_22  and  C19_24 
ROOT
HETATM    1  C2  UNL     1       5.713  17.600 -45.412  1.00  0.00     0.072 C 
HETATM    2  C3  UNL     1       5.124  17.915 -44.095  1.00  0.00     0.040 C 
HETATM    3  C4  UNL     1       4.864  19.351 -43.920  1.00  0.00     0.016 C 
HETATM    4  C5  UNL     1       6.043  20.259 -44.217  1.00  0.00    -0.003 C 
HETATM    5  C6  UNL     1       6.949  20.100 -42.981  1.00  0.00     0.019 C 
HETATM    6  C7  UNL     1       5.428  21.631 -44.168  1.00  0.00     0.062 C 
HETATM    7  C8  UNL     1       5.438  22.174 -42.725  1.00  0.00     0.046 C 
HETATM    8  C9  UNL     1       6.010  22.700 -45.001  1.00  0.00     0.038 C 
HETATM    9  C10 UNL     1       6.543  22.268 -46.321  1.00  0.00     0.004 C 
HETATM   10  C11 UNL     1       6.436  20.810 -46.531  1.00  0.00     0.013 C 
HETATM   11  C12 UNL     1       6.862  19.915 -45.389  1.00  0.00    -0.002 C 
HETATM   12  C14 UNL     1       6.764  18.504 -45.914  1.00  0.00     0.036 C 
HETATM   13  C15 UNL     1       8.028  17.686 -45.740  1.00  0.00     0.044 C 
HETATM   14  C16 UNL     1       7.464  16.293 -46.098  1.00  0.00    -0.064 C 
HETATM   15  C17 UNL     1       7.974  15.635 -47.074  1.00  0.00    -0.021 C 
HETATM   16  C18 UNL     1       9.145  16.298 -47.845  1.00  0.00     0.052 C 
HETATM   17  C20 UNL     1       6.462  16.232 -45.099  1.00  0.00     0.046 C 
HETATM   18  C21 UNL     1       5.471  15.160 -44.967  1.00  0.00     0.018 C 
ENDROOT
BRANCH  15  19
HETATM   19  C19 UNL     1       7.641  14.330 -47.596  1.00  0.00     0.265 C 
HETATM   20  O4  UNL     1       8.106  13.774 -48.588  1.00  0.00    -0.302 OA
ENDBRANCH  15  19
BRANCH   1  21
HETATM   21  O1  UNL     1       4.868  17.140 -46.376  1.00  0.00    -0.384 OA
HETATM   22  C1  UNL     1       4.279  17.944 -47.260  1.00  0.00     0.202 C 
ENDBRANCH   1  21
BRANCH  11  23
HETATM   23  C13 UNL     1       8.352  20.131 -45.217  1.00  0.00     0.175 C 
BRANCH  23  24
HETATM   24  O3  UNL     1       9.037  20.694 -46.249  1.00  0.00    -0.400 OA
ATOM     25  H3  UNL     1       9.747  21.289 -46.039  1.00  0.00     0.209 HD
ENDBRANCH  23  24
ENDBRANCH  11  23
BRANCH   6  26
HETATM   26  O2  UNL     1       4.036  21.606 -44.467  1.00  0.00    -0.389 OA
ATOM     27  H2  UNL     1       3.681  22.478 -44.589  1.00  0.00     0.210 HD
ENDBRANCH   6  26
TORSDOF 5
ENDMDL
