MODEL 1
REMARK VINA RESULT: -6.142851055      0.000      0.000
REMARK  8 active torsions:
REMARK  status: ('A' for Active; 'I' for Inactive)
REMARK    1  A    between atoms: N1_1  and  C1_5 
REMARK    2  A    between atoms: C1_5  and  C2_6 
REMARK    3  A    between atoms: C2_6  and  C3_7 
REMARK    4  A    between atoms: C3_7  and  C4_8 
REMARK    5  A    between atoms: C4_8  and  C5_9 
REMARK    6  A    between atoms: C5_9  and  C6_10 
REMARK    7  A    between atoms: C6_10  and  C7_11 
REMARK    8  A    between atoms: C7_11  and  N2_12 
ROOT
HETATM    1  C6  UNL     1      75.693 391.752 118.199  1.00  0.00     0.020 C 
ENDROOT
BRANCH   1   2
HETATM    2  C5  UNL     1      76.105 391.690 119.645  1.00  0.00     0.002 C 
BRANCH   2   3
HETATM    3  C4  UNL     1      77.273 390.758 119.880  1.00  0.00     0.000 C 
BRANCH   3   4
HETATM    4  C3  UNL     1      78.554 391.425 119.488  1.00  0.00     0.002 C 
BRANCH   4   5
HETATM    5  C2  UNL     1      79.333 390.734 118.424  1.00  0.00     0.027 C 
BRANCH   5   6
HETATM    6  C1  UNL     1      78.652 389.556 117.806  1.00  0.00     0.229 C 
BRANCH   6   7
HETATM    7  N1  UNL     1      78.286 389.886 116.443  1.00  0.00    -0.079 N 
ATOM      8  H13 UNL     1      79.065 390.279 115.916  1.00  0.00     0.274 HD
ATOM      9  H12 UNL     1      78.132 389.056 115.870  1.00  0.00     0.274 HD
ATOM     10  H11 UNL     1      77.474 390.504 116.458  1.00  0.00     0.274 HD
ENDBRANCH   6   7
ENDBRANCH   5   6
ENDBRANCH   4   5
ENDBRANCH   3   4
ENDBRANCH   2   3
ENDBRANCH   1   2
BRANCH   1  11
HETATM   11  C7  UNL     1      75.302 393.131 117.757  1.00  0.00     0.128 C 
BRANCH  11  12
HETATM   12  N2  UNL     1      76.549 393.864 117.517  1.00  0.00    -0.356 N 
HETATM   13  C8  UNL     1      77.522 393.417 116.699  1.00  0.00     0.092 A 
HETATM   14  C9  UNL     1      78.534 394.324 116.698  1.00  0.00     0.031 A 
HETATM   15  C10 UNL     1      78.138 395.351 117.553  1.00  0.00    -0.008 A 
HETATM   16  C11 UNL     1      78.744 396.530 117.943  1.00  0.00     0.014 A 
HETATM   17  C15 UNL     1      76.904 395.050 118.052  1.00  0.00     0.044 A 
HETATM   18  C12 UNL     1      78.103 397.365 118.816  1.00  0.00     0.001 A 
HETATM   19  C13 UNL     1      76.855 397.081 119.335  1.00  0.00     0.002 A 
HETATM   20  C14 UNL     1      76.253 395.904 118.942  1.00  0.00     0.030 A 
ENDBRANCH  11  12
ENDBRANCH   1  11
TORSDOF 8
ENDMDL
MODEL 2
REMARK VINA RESULT: -6.119138129      1.197      2.426
REMARK  8 active torsions:
REMARK  status: ('A' for Active; 'I' for Inactive)
REMARK    1  A    between atoms: N1_1  and  C1_5 
REMARK    2  A    between atoms: C1_5  and  C2_6 
REMARK    3  A    between atoms: C2_6  and  C3_7 
REMARK    4  A    between atoms: C3_7  and  C4_8 
REMARK    5  A    between atoms: C4_8  and  C5_9 
REMARK    6  A    between atoms: C5_9  and  C6_10 
REMARK    7  A    between atoms: C6_10  and  C7_11 
REMARK    8  A    between atoms: C7_11  and  N2_12 
ROOT
HETATM    1  C6  UNL     1      78.748 391.933 116.900  1.00  0.00     0.020 C 
ENDROOT
BRANCH   1   2
HETATM    2  C5  UNL     1      79.507 391.880 118.197  1.00  0.00     0.002 C 
BRANCH   2   3
HETATM    3  C4  UNL     1      78.912 390.900 119.184  1.00  0.00     0.000 C 
BRANCH   3   4
HETATM    4  C3  UNL     1      77.686 391.482 119.813  1.00  0.00     0.002 C 
BRANCH   4   5
HETATM    5  C2  UNL     1      76.440 390.687 119.636  1.00  0.00     0.027 C 
BRANCH   5   6
HETATM    6  C1  UNL     1      76.549 389.544 118.680  1.00  0.00     0.229 C 
BRANCH   6   7
HETATM    7  N1  UNL     1      75.867 389.891 117.450  1.00  0.00    -0.079 N 
ATOM      8  H13 UNL     1      75.091 390.535 117.605  1.00  0.00     0.274 HD
ATOM      9  H12 UNL     1      76.431 390.492 116.849  1.00  0.00     0.274 HD
ATOM     10  H11 UNL     1      75.575 389.035 116.980  1.00  0.00     0.274 HD
ENDBRANCH   6   7
ENDBRANCH   5   6
ENDBRANCH   4   5
ENDBRANCH   3   4
ENDBRANCH   2   3
ENDBRANCH   1   2
BRANCH   1  11
HETATM   11  C7  UNL     1      78.617 393.322 116.350  1.00  0.00     0.128 C 
BRANCH  11  12
HETATM   12  N2  UNL     1      77.529 393.967 117.094  1.00  0.00    -0.356 N 
HETATM   13  C8  UNL     1      76.283 393.461 117.164  1.00  0.00     0.092 A 
HETATM   14  C9  UNL     1      75.523 394.293 117.924  1.00  0.00     0.031 A 
HETATM   15  C10 UNL     1      76.360 395.334 118.317  1.00  0.00    -0.008 A 
HETATM   16  C11 UNL     1      76.152 396.461 119.091  1.00  0.00     0.014 A 
HETATM   17  C15 UNL     1      77.601 395.117 117.794  1.00  0.00     0.044 A 
HETATM   18  C12 UNL     1      77.184 397.329 119.314  1.00  0.00     0.001 A 
HETATM   19  C13 UNL     1      78.448 397.131 118.795  1.00  0.00     0.002 A 
HETATM   20  C14 UNL     1      78.652 396.004 118.024  1.00  0.00     0.030 A 
ENDBRANCH  11  12
ENDBRANCH   1  11
TORSDOF 8
ENDMDL
MODEL 3
REMARK VINA RESULT: -6.086643650      1.658      3.105
REMARK  8 active torsions:
REMARK  status: ('A' for Active; 'I' for Inactive)
REMARK    1  A    between atoms: N1_1  and  C1_5 
REMARK    2  A    between atoms: C1_5  and  C2_6 
REMARK    3  A    between atoms: C2_6  and  C3_7 
REMARK    4  A    between atoms: C3_7  and  C4_8 
REMARK    5  A    between atoms: C4_8  and  C5_9 
REMARK    6  A    between atoms: C5_9  and  C6_10 
REMARK    7  A    between atoms: C6_10  and  C7_11 
REMARK    8  A    between atoms: C7_11  and  N2_12 
ROOT
HETATM    1  C6  UNL     1      79.218 391.672 118.424  1.00  0.00     0.020 C 
ENDROOT
BRANCH   1   2
HETATM    2  C5  UNL     1      79.285 391.017 117.072  1.00  0.00     0.002 C 
BRANCH   2   3
HETATM    3  C4  UNL     1      78.416 391.707 116.044  1.00  0.00     0.000 C 
BRANCH   3   4
HETATM    4  C3  UNL     1      77.192 390.892 115.771  1.00  0.00     0.002 C 
BRANCH   4   5
HETATM    5  C2  UNL     1      75.975 391.296 116.526  1.00  0.00     0.027 C 
BRANCH   5   6
HETATM    6  C1  UNL     1      75.625 390.413 117.680  1.00  0.00     0.229 C 
BRANCH   6   7
HETATM    7  N1  UNL     1      76.253 389.121 117.493  1.00  0.00    -0.079 N 
ATOM      8  H13 UNL     1      76.689 389.031 116.575  1.00  0.00     0.274 HD
ATOM      9  H12 UNL     1      77.094 389.011 118.060  1.00  0.00     0.274 HD
ATOM     10  H11 UNL     1      75.566 388.389 117.671  1.00  0.00     0.274 HD
ENDBRANCH   6   7
ENDBRANCH   5   6
ENDBRANCH   4   5
ENDBRANCH   3   4
ENDBRANCH   2   3
ENDBRANCH   1   2
BRANCH   1  11
HETATM   11  C7  UNL     1      79.493 393.146 118.380  1.00  0.00     0.128 C 
BRANCH  11  12
HETATM   12  N2  UNL     1      78.252 393.816 118.783  1.00  0.00    -0.356 N 
HETATM   13  C8  UNL     1      77.260 393.193 119.449  1.00  0.00     0.092 A 
HETATM   14  C9  UNL     1      76.261 394.088 119.668  1.00  0.00     0.031 A 
HETATM   15  C10 UNL     1      76.684 395.290 119.105  1.00  0.00    -0.008 A 
HETATM   16  C11 UNL     1      76.099 396.540 119.018  1.00  0.00     0.014 A 
HETATM   17  C15 UNL     1      77.921 395.104 118.561  1.00  0.00     0.044 A 
HETATM   18  C12 UNL     1      76.766 397.557 118.392  1.00  0.00     0.001 A 
HETATM   19  C13 UNL     1      78.017 397.392 117.833  1.00  0.00     0.002 A 
HETATM   20  C14 UNL     1      78.597 396.144 117.923  1.00  0.00     0.030 A 
ENDBRANCH  11  12
ENDBRANCH   1  11
TORSDOF 8
ENDMDL
MODEL 4
REMARK VINA RESULT: -6.084173290      1.428      2.185
REMARK  8 active torsions:
REMARK  status: ('A' for Active; 'I' for Inactive)
REMARK    1  A    between atoms: N1_1  and  C1_5 
REMARK    2  A    between atoms: C1_5  and  C2_6 
REMARK    3  A    between atoms: C2_6  and  C3_7 
REMARK    4  A    between atoms: C3_7  and  C4_8 
REMARK    5  A    between atoms: C4_8  and  C5_9 
REMARK    6  A    between atoms: C5_9  and  C6_10 
REMARK    7  A    between atoms: C6_10  and  C7_11 
REMARK    8  A    between atoms: C7_11  and  N2_12 
ROOT
HETATM    1  C6  UNL     1      77.929 391.217 119.630  1.00  0.00     0.020 C 
ENDROOT
BRANCH   1   2
HETATM    2  C5  UNL     1      76.528 390.671 119.664  1.00  0.00     0.002 C 
BRANCH   2   3
HETATM    3  C4  UNL     1      75.611 391.351 118.672  1.00  0.00     0.000 C 
BRANCH   3   4
HETATM    4  C3  UNL     1      75.803 390.769 117.308  1.00  0.00     0.002 C 
BRANCH   4   5
HETATM    5  C2  UNL     1      76.407 391.685 116.302  1.00  0.00     0.027 C 
BRANCH   5   6
HETATM    6  C1  UNL     1      77.640 391.167 115.635  1.00  0.00     0.229 C 
BRANCH   6   7
HETATM    7  N1  UNL     1      78.135 390.028 116.381  1.00  0.00    -0.079 N 
ATOM      8  H13 UNL     1      78.000 390.133 117.386  1.00  0.00     0.274 HD
ATOM      9  H12 UNL     1      77.561 389.196 116.246  1.00  0.00     0.274 HD
ATOM     10  H11 UNL     1      79.112 389.869 116.134  1.00  0.00     0.274 HD
ENDBRANCH   6   7
ENDBRANCH   5   6
ENDBRANCH   4   5
ENDBRANCH   3   4
ENDBRANCH   2   3
ENDBRANCH   1   2
BRANCH   1  11
HETATM   11  C7  UNL     1      78.039 392.595 120.212  1.00  0.00     0.128 C 
BRANCH  11  12
HETATM   12  N2  UNL     1      78.265 393.508 119.086  1.00  0.00    -0.356 N 
HETATM   13  C8  UNL     1      79.193 393.289 118.134  1.00  0.00     0.092 A 
HETATM   14  C9  UNL     1      79.146 394.315 117.244  1.00  0.00     0.031 A 
HETATM   15  C10 UNL     1      78.147 395.176 117.694  1.00  0.00    -0.008 A 
HETATM   16  C11 UNL     1      77.651 396.371 117.206  1.00  0.00     0.014 A 
HETATM   17  C15 UNL     1      77.610 394.660 118.837  1.00  0.00     0.044 A 
HETATM   18  C12 UNL     1      76.642 397.008 117.873  1.00  0.00     0.001 A 
HETATM   19  C13 UNL     1      76.085 396.506 119.032  1.00  0.00     0.002 A 
HETATM   20  C14 UNL     1      76.582 395.313 119.515  1.00  0.00     0.030 A 
ENDBRANCH  11  12
ENDBRANCH   1  11
TORSDOF 8
ENDMDL
MODEL 5
REMARK VINA RESULT: -6.060281264      1.959      5.747
REMARK  8 active torsions:
REMARK  status: ('A' for Active; 'I' for Inactive)
REMARK    1  A    between atoms: N1_1  and  C1_5 
REMARK    2  A    between atoms: C1_5  and  C2_6 
REMARK    3  A    between atoms: C2_6  and  C3_7 
REMARK    4  A    between atoms: C3_7  and  C4_8 
REMARK    5  A    between atoms: C4_8  and  C5_9 
REMARK    6  A    between atoms: C5_9  and  C6_10 
REMARK    7  A    between atoms: C6_10  and  C7_11 
REMARK    8  A    between atoms: C7_11  and  N2_12 
ROOT
HETATM    1  C6  UNL     1      76.455 396.139 117.529  1.00  0.00     0.020 C 
ENDROOT
BRANCH   1   2
HETATM    2  C5  UNL     1      76.103 396.362 118.974  1.00  0.00     0.002 C 
BRANCH   2   3
HETATM    3  C4  UNL     1      77.300 396.749 119.814  1.00  0.00     0.000 C 
BRANCH   3   4
HETATM    4  C3  UNL     1      78.272 397.539 118.997  1.00  0.00     0.002 C 
BRANCH   4   5
HETATM    5  C2  UNL     1      78.209 399.015 119.182  1.00  0.00     0.027 C 
BRANCH   5   6
HETATM    6  C1  UNL     1      77.674 399.776 118.012  1.00  0.00     0.229 C 
BRANCH   6   7
HETATM    7  N1  UNL     1      76.312 400.182 118.298  1.00  0.00    -0.079 N 
ATOM      8  H13 UNL     1      75.733 399.403 118.611  1.00  0.00     0.274 HD
ATOM      9  H12 UNL     1      76.246 400.755 119.138  1.00  0.00     0.274 HD
ATOM     10  H11 UNL     1      75.926 400.649 117.477  1.00  0.00     0.274 HD
ENDBRANCH   6   7
ENDBRANCH   5   6
ENDBRANCH   4   5
ENDBRANCH   3   4
ENDBRANCH   2   3
ENDBRANCH   1   2
BRANCH   1  11
HETATM   11  C7  UNL     1      76.217 394.729 117.075  1.00  0.00     0.128 C 
BRANCH  11  12
HETATM   12  N2  UNL     1      77.310 393.921 117.626  1.00  0.00    -0.356 N 
HETATM   13  C8  UNL     1      78.611 394.217 117.443  1.00  0.00     0.092 A 
HETATM   14  C9  UNL     1      79.360 393.277 118.077  1.00  0.00     0.031 A 
HETATM   15  C10 UNL     1      78.459 392.388 118.658  1.00  0.00    -0.008 A 
HETATM   16  C11 UNL     1      78.629 391.247 119.421  1.00  0.00     0.014 A 
HETATM   17  C15 UNL     1      77.192 392.802 118.369  1.00  0.00     0.044 A 
HETATM   18  C12 UNL     1      77.534 390.561 119.866  1.00  0.00     0.001 A 
HETATM   19  C13 UNL     1      76.242 390.959 119.585  1.00  0.00     0.002 A 
HETATM   20  C14 UNL     1      76.077 392.099 118.825  1.00  0.00     0.030 A 
ENDBRANCH  11  12
ENDBRANCH   1  11
TORSDOF 8
ENDMDL
