MODEL 1
REMARK VINA RESULT: -6.671836299      0.000      0.000
REMARK  5 active torsions:
REMARK  status: ('A' for Active; 'I' for Inactive)
REMARK    1  A    between atoms: N1_2  and  C2_4 
REMARK    2  A    between atoms: C2_4  and  C3_6 
REMARK    3  A    between atoms: C5_10  and  N3_11 
REMARK    4  A    between atoms: N3_11  and  C6_13 
REMARK    5  A    between atoms: C6_13  and  N4_15 
ROOT
HETATM    1  C3  UNL     1     -16.345 -39.344  -8.412  1.00  0.00     0.089 A 
HETATM    2  S2  UNL     1     -15.118 -40.563  -8.616  1.00  0.00    -0.058 SA
HETATM    3  C4  UNL     1     -14.032 -39.646  -9.505  1.00  0.00     0.116 A 
HETATM    4  N2  UNL     1     -14.597 -38.465  -9.627  1.00  0.00    -0.321 N 
HETATM    5  C5  UNL     1     -15.826 -38.273  -9.053  1.00  0.00     0.131 A 
HETATM    6  C11 UNL     1     -13.766 -37.492 -10.397  1.00  0.00     0.133 C 
HETATM    7  C12 UNL     1     -13.528 -38.095 -11.789  1.00  0.00     0.031 C 
HETATM    8  C13 UNL     1     -12.334 -39.016 -11.786  1.00  0.00     0.083 C 
HETATM    9  S4  UNL     1     -12.387 -39.962 -10.248  1.00  0.00    -0.104 SA
ENDROOT
BRANCH   5  10
HETATM   10  N3  UNL     1     -16.375 -36.941  -9.038  1.00  0.00    -0.318 N 
ATOM     11  H3  UNL     1     -16.068 -36.395  -8.233  1.00  0.00     0.170 HD
BRANCH  10  12
HETATM   12  C6  UNL     1     -17.224 -36.240  -9.872  1.00  0.00     0.175 C 
HETATM   13  S3  UNL     1     -18.552 -36.833 -10.577  1.00  0.00    -0.041 SA
BRANCH  12  14
HETATM   14  N4  UNL     1     -17.021 -34.804 -10.050  1.00  0.00    -0.354 N 
HETATM   15  C7  UNL     1     -15.937 -34.381 -10.882  1.00  0.00     0.151 C 
HETATM   16  C8  UNL     1     -15.553 -32.939 -10.613  1.00  0.00     0.187 C 
HETATM   17  O1  UNL     1     -16.070 -32.490  -9.398  1.00  0.00    -0.388 OA
HETATM   18  C9  UNL     1     -17.454 -32.472  -9.473  1.00  0.00     0.187 C 
HETATM   19  C10 UNL     1     -17.927 -33.923  -9.369  1.00  0.00     0.151 C 
ENDBRANCH  12  14
ENDBRANCH  10  12
ENDBRANCH   5  10
BRANCH   1  20
HETATM   20  C2  UNL     1     -17.652 -39.628  -7.774  1.00  0.00     0.117 C 
HETATM   21  S1  UNL     1     -18.560 -40.814  -8.405  1.00  0.00    -0.059 SA
BRANCH  20  22
HETATM   22  N1  UNL     1     -18.137 -38.868  -6.711  1.00  0.00    -0.384 N 
HETATM   23  C1  UNL     1     -19.351 -38.101  -6.718  1.00  0.00     0.147 C 
ATOM     24  H1  UNL     1     -17.582 -38.855  -5.854  1.00  0.00     0.160 HD
ENDBRANCH  20  22
ENDBRANCH   1  20
TORSDOF 5
ENDMDL
MODEL 2
REMARK VINA RESULT: -6.622180469      1.579      4.358
REMARK  5 active torsions:
REMARK  status: ('A' for Active; 'I' for Inactive)
REMARK    1  A    between atoms: N1_2  and  C2_4 
REMARK    2  A    between atoms: C2_4  and  C3_6 
REMARK    3  A    between atoms: C5_10  and  N3_11 
REMARK    4  A    between atoms: N3_11  and  C6_13 
REMARK    5  A    between atoms: C6_13  and  N4_15 
ROOT
HETATM    1  C3  UNL     1     -15.638 -39.522  -8.871  1.00  0.00     0.089 A 
HETATM    2  S2  UNL     1     -16.614 -40.938  -8.598  1.00  0.00    -0.058 SA
HETATM    3  C4  UNL     1     -18.090 -40.166  -8.415  1.00  0.00     0.116 A 
HETATM    4  N2  UNL     1     -17.829 -38.886  -8.562  1.00  0.00    -0.321 N 
HETATM    5  C5  UNL     1     -16.535 -38.512  -8.809  1.00  0.00     0.131 A 
HETATM    6  C11 UNL     1     -19.040 -38.021  -8.436  1.00  0.00     0.133 C 
HETATM    7  C12 UNL     1     -19.635 -38.268  -7.042  1.00  0.00     0.031 C 
HETATM    8  C13 UNL     1     -20.563 -39.457  -7.049  1.00  0.00     0.083 C 
HETATM    9  S4  UNL     1     -19.804 -40.727  -8.086  1.00  0.00    -0.104 SA
ENDROOT
BRANCH   5  10
HETATM   10  N3  UNL     1     -16.269 -37.135  -9.136  1.00  0.00    -0.318 N 
ATOM     11  H3  UNL     1     -15.965 -36.588  -8.331  1.00  0.00     0.170 HD
BRANCH  10  12
HETATM   12  C6  UNL     1     -16.333 -36.392 -10.299  1.00  0.00     0.175 C 
HETATM   13  S3  UNL     1     -16.283 -36.987 -11.801  1.00  0.00    -0.041 SA
BRANCH  12  14
HETATM   14  N4  UNL     1     -16.610 -34.959 -10.214  1.00  0.00    -0.354 N 
HETATM   15  C7  UNL     1     -15.752 -34.070 -10.936  1.00  0.00     0.151 C 
HETATM   16  C8  UNL     1     -15.841 -32.652 -10.407  1.00  0.00     0.187 C 
HETATM   17  O1  UNL     1     -16.426 -32.614  -9.142  1.00  0.00    -0.388 OA
HETATM   18  C9  UNL     1     -17.743 -33.031  -9.238  1.00  0.00     0.187 C 
HETATM   19  C10 UNL     1     -17.722 -34.552  -9.404  1.00  0.00     0.151 C 
ENDBRANCH  12  14
ENDBRANCH  10  12
ENDBRANCH   5  10
BRANCH   1  20
HETATM   20  C2  UNL     1     -14.162 -39.582  -8.988  1.00  0.00     0.117 C 
HETATM   21  S1  UNL     1     -13.499 -39.190 -10.415  1.00  0.00    -0.059 SA
BRANCH  20  22
HETATM   22  N1  UNL     1     -13.355 -40.027  -7.942  1.00  0.00    -0.384 N 
HETATM   23  C1  UNL     1     -12.151 -40.798  -8.086  1.00  0.00     0.147 C 
ATOM     24  H1  UNL     1     -13.643 -39.785  -6.994  1.00  0.00     0.160 HD
ENDBRANCH  20  22
ENDBRANCH   1  20
TORSDOF 5
ENDMDL
MODEL 3
REMARK VINA RESULT: -6.567511393      2.225      4.624
REMARK  5 active torsions:
REMARK  status: ('A' for Active; 'I' for Inactive)
REMARK    1  A    between atoms: N1_2  and  C2_4 
REMARK    2  A    between atoms: C2_4  and  C3_6 
REMARK    3  A    between atoms: C5_10  and  N3_11 
REMARK    4  A    between atoms: N3_11  and  C6_13 
REMARK    5  A    between atoms: C6_13  and  N4_15 
ROOT
HETATM    1  C3  UNL     1     -17.319 -38.731  -9.679  1.00  0.00     0.089 A 
HETATM    2  S2  UNL     1     -18.124 -40.275  -9.717  1.00  0.00    -0.058 SA
HETATM    3  C4  UNL     1     -19.694 -39.711  -9.869  1.00  0.00     0.116 A 
HETATM    4  N2  UNL     1     -19.588 -38.400  -9.892  1.00  0.00    -0.321 N 
HETATM    5  C5  UNL     1     -18.338 -37.849  -9.796  1.00  0.00     0.131 A 
HETATM    6  C11 UNL     1     -20.903 -37.706 -10.029  1.00  0.00     0.133 C 
HETATM    7  C12 UNL     1     -21.772 -38.132  -8.837  1.00  0.00     0.031 C 
HETATM    8  C13 UNL     1     -22.496 -39.424  -9.125  1.00  0.00     0.083 C 
HETATM    9  S4  UNL     1     -21.341 -40.505  -9.997  1.00  0.00    -0.104 SA
ENDROOT
BRANCH   5  10
HETATM   10  N3  UNL     1     -18.197 -36.429  -9.987  1.00  0.00    -0.318 N 
ATOM     11  H3  UNL     1     -18.825 -35.885  -9.394  1.00  0.00     0.170 HD
BRANCH  10  12
HETATM   12  C6  UNL     1     -17.401 -35.640 -10.795  1.00  0.00     0.175 C 
HETATM   13  S3  UNL     1     -16.806 -36.068 -12.235  1.00  0.00    -0.041 SA
BRANCH  12  14
HETATM   14  N4  UNL     1     -17.167 -34.247 -10.421  1.00  0.00    -0.354 N 
HETATM   15  C7  UNL     1     -15.930 -33.648 -10.819  1.00  0.00     0.151 C 
HETATM   16  C8  UNL     1     -15.613 -32.414  -9.997  1.00  0.00     0.187 C 
HETATM   17  O1  UNL     1     -16.379 -32.365  -8.833  1.00  0.00    -0.388 OA
HETATM   18  C9  UNL     1     -17.715 -32.222  -9.174  1.00  0.00     0.187 C 
HETATM   19  C10 UNL     1     -18.198 -33.584  -9.675  1.00  0.00     0.151 C 
ENDBRANCH  12  14
ENDBRANCH  10  12
ENDBRANCH   5  10
BRANCH   1  20
HETATM   20  C2  UNL     1     -15.864 -38.596  -9.432  1.00  0.00     0.117 C 
HETATM   21  S1  UNL     1     -14.853 -38.977 -10.641  1.00  0.00    -0.059 SA
BRANCH  20  22
HETATM   22  N1  UNL     1     -15.358 -38.225  -8.188  1.00  0.00    -0.384 N 
HETATM   23  C1  UNL     1     -15.021 -39.126  -7.121  1.00  0.00     0.147 C 
ATOM     24  H1  UNL     1     -15.213 -37.229  -8.020  1.00  0.00     0.160 HD
ENDBRANCH  20  22
ENDBRANCH   1  20
TORSDOF 5
ENDMDL
MODEL 4
REMARK VINA RESULT: -6.565571017      2.092      4.549
REMARK  5 active torsions:
REMARK  status: ('A' for Active; 'I' for Inactive)
REMARK    1  A    between atoms: N1_2  and  C2_4 
REMARK    2  A    between atoms: C2_4  and  C3_6 
REMARK    3  A    between atoms: C5_10  and  N3_11 
REMARK    4  A    between atoms: N3_11  and  C6_13 
REMARK    5  A    between atoms: C6_13  and  N4_15 
ROOT
HETATM    1  C3  UNL     1     -17.289 -38.908  -8.870  1.00  0.00     0.089 A 
HETATM    2  S2  UNL     1     -18.159 -40.407  -9.048  1.00  0.00    -0.058 SA
HETATM    3  C4  UNL     1     -19.595 -39.770  -9.631  1.00  0.00     0.116 A 
HETATM    4  N2  UNL     1     -19.399 -38.470  -9.684  1.00  0.00    -0.321 N 
HETATM    5  C5  UNL     1     -18.181 -37.982  -9.289  1.00  0.00     0.131 A 
HETATM    6  C11 UNL     1     -20.584 -37.717 -10.192  1.00  0.00     0.133 C 
HETATM    7  C12 UNL     1     -21.758 -38.022  -9.251  1.00  0.00     0.031 C 
HETATM    8  C13 UNL     1     -22.468 -39.288  -9.659  1.00  0.00     0.083 C 
HETATM    9  S4  UNL     1     -21.203 -40.481 -10.149  1.00  0.00    -0.104 SA
ENDROOT
BRANCH   5  10
HETATM   10  N3  UNL     1     -17.901 -36.586  -9.501  1.00  0.00    -0.318 N 
ATOM     11  H3  UNL     1     -18.309 -35.986  -8.784  1.00  0.00     0.170 HD
BRANCH  10  12
HETATM   12  C6  UNL     1     -17.201 -35.879 -10.460  1.00  0.00     0.175 C 
HETATM   13  S3  UNL     1     -16.683 -36.468 -11.872  1.00  0.00    -0.041 SA
BRANCH  12  14
HETATM   14  N4  UNL     1     -17.013 -34.440 -10.287  1.00  0.00    -0.354 N 
HETATM   15  C7  UNL     1     -15.856 -33.842 -10.881  1.00  0.00     0.151 C 
HETATM   16  C8  UNL     1     -15.534 -32.499 -10.255  1.00  0.00     0.187 C 
HETATM   17  O1  UNL     1     -16.186 -32.335  -9.033  1.00  0.00    -0.388 OA
HETATM   18  C9  UNL     1     -17.554 -32.298  -9.250  1.00  0.00     0.187 C 
HETATM   19  C10 UNL     1     -18.003 -33.734  -9.526  1.00  0.00     0.151 C 
ENDBRANCH  12  14
ENDBRANCH  10  12
ENDBRANCH   5  10
BRANCH   1  20
HETATM   20  C2  UNL     1     -15.942 -38.837  -8.257  1.00  0.00     0.117 C 
HETATM   21  S1  UNL     1     -15.692 -39.657  -6.882  1.00  0.00    -0.059 SA
BRANCH  20  22
HETATM   22  N1  UNL     1     -14.930 -38.039  -8.790  1.00  0.00    -0.384 N 
HETATM   23  C1  UNL     1     -14.035 -38.421  -9.847  1.00  0.00     0.147 C 
ATOM     24  H1  UNL     1     -14.814 -37.106  -8.395  1.00  0.00     0.160 HD
ENDBRANCH  20  22
ENDBRANCH   1  20
TORSDOF 5
ENDMDL
MODEL 5
REMARK VINA RESULT: -6.546244020      2.819      5.374
REMARK  5 active torsions:
REMARK  status: ('A' for Active; 'I' for Inactive)
REMARK    1  A    between atoms: N1_2  and  C2_4 
REMARK    2  A    between atoms: C2_4  and  C3_6 
REMARK    3  A    between atoms: C5_10  and  N3_11 
REMARK    4  A    between atoms: N3_11  and  C6_13 
REMARK    5  A    between atoms: C6_13  and  N4_15 
ROOT
HETATM    1  C3  UNL     1     -17.773 -36.607  -9.700  1.00  0.00     0.089 A 
HETATM    2  S2  UNL     1     -17.760 -34.914  -9.289  1.00  0.00    -0.058 SA
HETATM    3  C4  UNL     1     -16.560 -34.430 -10.354  1.00  0.00     0.116 A 
HETATM    4  N2  UNL     1     -16.200 -35.524 -10.988  1.00  0.00    -0.321 N 
HETATM    5  C5  UNL     1     -16.829 -36.697 -10.665  1.00  0.00     0.131 A 
HETATM    6  C11 UNL     1     -15.126 -35.292 -11.999  1.00  0.00     0.133 C 
HETATM    7  C12 UNL     1     -13.917 -34.707 -11.256  1.00  0.00     0.031 C 
HETATM    8  C13 UNL     1     -14.030 -33.208 -11.126  1.00  0.00     0.083 C 
HETATM    9  S4  UNL     1     -15.756 -32.830 -10.746  1.00  0.00    -0.104 SA
ENDROOT
BRANCH   5  10
HETATM   10  N3  UNL     1     -16.562 -37.863 -11.467  1.00  0.00    -0.318 N 
ATOM     11  H3  UNL     1     -17.059 -37.854 -12.358  1.00  0.00     0.170 HD
BRANCH  10  12
HETATM   12  C6  UNL     1     -15.781 -38.990 -11.297  1.00  0.00     0.175 C 
HETATM   13  S3  UNL     1     -14.322 -39.231 -11.947  1.00  0.00    -0.041 SA
BRANCH  12  14
HETATM   14  N4  UNL     1     -16.209 -40.016 -10.348  1.00  0.00    -0.354 N 
HETATM   15  C7  UNL     1     -17.300 -40.861 -10.726  1.00  0.00     0.151 C 
HETATM   16  C8  UNL     1     -17.933 -41.533  -9.523  1.00  0.00     0.187 C 
HETATM   17  O1  UNL     1     -17.567 -40.902  -8.334  1.00  0.00    -0.388 OA
HETATM   18  C9  UNL     1     -16.204 -41.055  -8.140  1.00  0.00     0.187 C 
HETATM   19  C10 UNL     1     -15.503 -40.094  -9.102  1.00  0.00     0.151 C 
ENDBRANCH  12  14
ENDBRANCH  10  12
ENDBRANCH   5  10
BRANCH   1  20
HETATM   20  C2  UNL     1     -18.593 -37.598  -8.966  1.00  0.00     0.117 C 
HETATM   21  S1  UNL     1     -19.945 -38.139  -9.679  1.00  0.00    -0.059 SA
BRANCH  20  22
HETATM   22  N1  UNL     1     -18.270 -38.014  -7.675  1.00  0.00    -0.384 N 
HETATM   23  C1  UNL     1     -19.214 -38.366  -6.651  1.00  0.00     0.147 C 
ATOM     24  H1  UNL     1     -17.280 -38.073  -7.437  1.00  0.00     0.160 HD
ENDBRANCH  20  22
ENDBRANCH   1  20
TORSDOF 5
ENDMDL
