MODEL 1
REMARK VINA RESULT: -8.873846214      0.000      0.000
REMARK  2 active torsions:
REMARK  status: ('A' for Active; 'I' for Inactive)
REMARK    1  A    between atoms: C5_6  and  N1_7 
REMARK       I    between atoms: N1_7  and  C6_9 
REMARK    2  A    between atoms: C6_9  and  C7_11 
ROOT
HETATM    1  O1  UNL     1     -16.169 -35.445 -10.069  1.00  0.00    -0.291 OA
HETATM    2  C1  UNL     1     -16.403 -35.694 -11.232  1.00  0.00     0.171 C 
HETATM    3  C2  UNL     1     -17.857 -35.856 -11.600  1.00  0.00     0.089 C 
HETATM    4  C3  UNL     1     -18.592 -37.001 -10.950  1.00  0.00     0.037 C 
HETATM    5  C4  UNL     1     -17.603 -38.112 -10.892  1.00  0.00    -0.001 C 
HETATM    6  C5  UNL     1     -17.875 -39.396 -10.254  1.00  0.00     0.009 C 
HETATM    7  C12 UNL     1     -16.703 -40.335 -10.652  1.00  0.00     0.069 C 
HETATM    8  C13 UNL     1     -15.407 -39.683 -10.164  1.00  0.00     0.064 C 
HETATM    9  C14 UNL     1     -14.375 -40.664  -9.649  1.00  0.00     0.013 C 
HETATM   10  C15 UNL     1     -13.184 -39.732  -9.367  1.00  0.00     0.001 C 
HETATM   11  C16 UNL     1     -12.366 -39.403 -10.558  1.00  0.00     0.003 C 
HETATM   12  C17 UNL     1     -12.577 -37.977 -11.108  1.00  0.00     0.040 C 
HETATM   13  C18 UNL     1     -14.017 -37.609 -11.172  1.00  0.00     0.197 C 
HETATM   14  O4  UNL     1     -14.520 -36.919 -12.208  1.00  0.00    -0.347 OA
HETATM   15  C19 UNL     1     -15.245 -35.816 -12.114  1.00  0.00     0.185 C 
HETATM   16  C20 UNL     1     -14.706 -38.970 -11.241  1.00  0.00     0.160 C 
HETATM   17  O5  UNL     1     -14.694 -39.562 -12.293  1.00  0.00    -0.295 OA
ENDROOT
BRANCH   6  18
HETATM   18  N1  UNL     1     -19.059 -40.054 -10.045  1.00  0.00    -0.329 N 
HETATM   19  C6  UNL     1     -19.932 -39.842  -8.922  1.00  0.00     0.244 C 
HETATM   20  O2  UNL     1     -19.602 -39.131  -7.950  1.00  0.00    -0.271 OA
ATOM     21  H1  UNL     1     -19.342 -40.746 -10.739  1.00  0.00     0.168 HD
BRANCH  19  22
HETATM   22  C7  UNL     1     -21.279 -40.480  -8.947  1.00  0.00     0.171 C 
HETATM   23  C8  UNL     1     -21.206 -41.642  -9.944  1.00  0.00     0.060 C 
HETATM   24  C9  UNL     1     -22.507 -41.836 -10.661  1.00  0.00     0.170 C 
HETATM   25  O3  UNL     1     -23.361 -42.665  -9.938  1.00  0.00    -0.389 OA
HETATM   26  C10 UNL     1     -23.754 -41.991  -8.788  1.00  0.00     0.186 C 
HETATM   27  C11 UNL     1     -22.614 -42.027  -7.785  1.00  0.00     0.141 C 
HETATM   28  N2  UNL     1     -21.932 -40.736  -7.788  1.00  0.00    -0.407 N 
ATOM     29  H2  UNL     1     -21.946 -40.092  -6.998  1.00  0.00     0.154 HD
ENDBRANCH  19  22
ENDBRANCH   6  18
TORSDOF 2
ENDMDL
MODEL 2
REMARK VINA RESULT: -8.799817406      0.844      1.164
REMARK  2 active torsions:
REMARK  status: ('A' for Active; 'I' for Inactive)
REMARK    1  A    between atoms: C5_6  and  N1_7 
REMARK       I    between atoms: N1_7  and  C6_9 
REMARK    2  A    between atoms: C6_9  and  C7_11 
ROOT
HETATM    1  O1  UNL     1     -16.421 -35.457  -9.884  1.00  0.00    -0.291 OA
HETATM    2  C1  UNL     1     -16.623 -35.664 -11.061  1.00  0.00     0.171 C 
HETATM    3  C2  UNL     1     -18.062 -35.866 -11.466  1.00  0.00     0.089 C 
HETATM    4  C3  UNL     1     -18.763 -37.066 -10.882  1.00  0.00     0.037 C 
HETATM    5  C4  UNL     1     -17.732 -38.139 -10.851  1.00  0.00    -0.001 C 
HETATM    6  C5  UNL     1     -17.965 -39.460 -10.275  1.00  0.00     0.009 C 
HETATM    7  C12 UNL     1     -16.749 -40.334 -10.689  1.00  0.00     0.069 C 
HETATM    8  C13 UNL     1     -15.489 -39.655 -10.147  1.00  0.00     0.064 C 
HETATM    9  C14 UNL     1     -14.430 -40.616  -9.653  1.00  0.00     0.013 C 
HETATM   10  C15 UNL     1     -13.282 -39.652  -9.307  1.00  0.00     0.001 C 
HETATM   11  C16 UNL     1     -12.456 -39.239 -10.466  1.00  0.00     0.003 C 
HETATM   12  C17 UNL     1     -12.712 -37.800 -10.957  1.00  0.00     0.040 C 
HETATM   13  C18 UNL     1     -14.164 -37.486 -11.035  1.00  0.00     0.197 C 
HETATM   14  O4  UNL     1     -14.674 -36.770 -12.051  1.00  0.00    -0.347 OA
HETATM   15  C19 UNL     1     -15.445 -35.702 -11.924  1.00  0.00     0.185 C 
HETATM   16  C20 UNL     1     -14.797 -38.868 -11.177  1.00  0.00     0.160 C 
HETATM   17  O5  UNL     1     -14.742 -39.412 -12.254  1.00  0.00    -0.295 OA
ENDROOT
BRANCH   6  18
HETATM   18  N1  UNL     1     -19.125 -40.171 -10.119  1.00  0.00    -0.329 N 
HETATM   19  C6  UNL     1     -19.963 -40.135  -8.951  1.00  0.00     0.244 C 
HETATM   20  O2  UNL     1     -19.616 -39.552  -7.902  1.00  0.00    -0.271 OA
ATOM     21  H1  UNL     1     -19.417 -40.772 -10.890  1.00  0.00     0.168 HD
BRANCH  19  22
HETATM   22  C7  UNL     1     -21.296 -40.801  -9.018  1.00  0.00     0.171 C 
HETATM   23  C8  UNL     1     -22.353 -39.692  -8.970  1.00  0.00     0.060 C 
HETATM   24  C9  UNL     1     -23.588 -40.138  -8.250  1.00  0.00     0.170 C 
HETATM   25  O3  UNL     1     -24.471 -40.781  -9.114  1.00  0.00    -0.389 OA
HETATM   26  C10 UNL     1     -23.902 -41.988  -9.501  1.00  0.00     0.186 C 
HETATM   27  C11 UNL     1     -22.833 -41.713 -10.545  1.00  0.00     0.141 C 
HETATM   28  N2  UNL     1     -21.517 -41.791  -9.915  1.00  0.00    -0.407 N 
ATOM     29  H2  UNL     1     -20.834 -42.517 -10.129  1.00  0.00     0.154 HD
ENDBRANCH  19  22
ENDBRANCH   6  18
TORSDOF 2
ENDMDL
MODEL 3
REMARK VINA RESULT: -8.632404914      0.870      1.041
REMARK  2 active torsions:
REMARK  status: ('A' for Active; 'I' for Inactive)
REMARK    1  A    between atoms: C5_6  and  N1_7 
REMARK       I    between atoms: N1_7  and  C6_9 
REMARK    2  A    between atoms: C6_9  and  C7_11 
ROOT
HETATM    1  O1  UNL     1     -16.106 -35.433 -10.091  1.00  0.00    -0.291 OA
HETATM    2  C1  UNL     1     -16.337 -35.696 -11.252  1.00  0.00     0.171 C 
HETATM    3  C2  UNL     1     -17.791 -35.801 -11.637  1.00  0.00     0.089 C 
HETATM    4  C3  UNL     1     -18.586 -36.898 -10.974  1.00  0.00     0.037 C 
HETATM    5  C4  UNL     1     -17.648 -38.051 -10.880  1.00  0.00    -0.001 C 
HETATM    6  C5  UNL     1     -17.986 -39.308 -10.219  1.00  0.00     0.009 C 
HETATM    7  C12 UNL     1     -16.852 -40.306 -10.582  1.00  0.00     0.069 C 
HETATM    8  C13 UNL     1     -15.535 -39.703 -10.089  1.00  0.00     0.064 C 
HETATM    9  C14 UNL     1     -14.555 -40.718  -9.540  1.00  0.00     0.013 C 
HETATM   10  C15 UNL     1     -13.327 -39.835  -9.261  1.00  0.00     0.001 C 
HETATM   11  C16 UNL     1     -12.480 -39.568 -10.447  1.00  0.00     0.003 C 
HETATM   12  C17 UNL     1     -12.619 -38.146 -11.028  1.00  0.00     0.040 C 
HETATM   13  C18 UNL     1     -14.040 -37.715 -11.120  1.00  0.00     0.197 C 
HETATM   14  O4  UNL     1     -14.498 -37.025 -12.176  1.00  0.00    -0.347 OA
HETATM   15  C19 UNL     1     -15.174 -35.888 -12.115  1.00  0.00     0.185 C 
HETATM   16  C20 UNL     1     -14.788 -39.045 -11.170  1.00  0.00     0.160 C 
HETATM   17  O5  UNL     1     -14.789 -39.658 -12.210  1.00  0.00    -0.295 OA
ENDROOT
BRANCH   6  18
HETATM   18  N1  UNL     1     -19.201 -39.907 -10.014  1.00  0.00    -0.329 N 
HETATM   19  C6  UNL     1     -19.933 -39.881  -8.777  1.00  0.00     0.244 C 
HETATM   20  O2  UNL     1     -19.442 -39.424  -7.723  1.00  0.00    -0.271 OA
ATOM     21  H1  UNL     1     -19.618 -40.409 -10.798  1.00  0.00     0.168 HD
BRANCH  19  22
HETATM   22  C7  UNL     1     -21.332 -40.399  -8.774  1.00  0.00     0.171 C 
HETATM   23  C8  UNL     1     -21.439 -41.391  -7.611  1.00  0.00     0.060 C 
HETATM   24  C9  UNL     1     -22.379 -42.514  -7.928  1.00  0.00     0.170 C 
HETATM   25  O3  UNL     1     -23.692 -42.177  -7.609  1.00  0.00    -0.389 OA
HETATM   26  C10 UNL     1     -24.113 -41.182  -8.483  1.00  0.00     0.186 C 
HETATM   27  C11 UNL     1     -23.503 -39.860  -8.052  1.00  0.00     0.141 C 
HETATM   28  N2  UNL     1     -22.373 -39.547  -8.923  1.00  0.00    -0.407 N 
ATOM     29  H2  UNL     1     -22.370 -38.765  -9.578  1.00  0.00     0.154 HD
ENDBRANCH  19  22
ENDBRANCH   6  18
TORSDOF 2
ENDMDL
MODEL 4
REMARK VINA RESULT: -8.582283360      1.191      1.243
REMARK  2 active torsions:
REMARK  status: ('A' for Active; 'I' for Inactive)
REMARK    1  A    between atoms: C5_6  and  N1_7 
REMARK       I    between atoms: N1_7  and  C6_9 
REMARK    2  A    between atoms: C6_9  and  C7_11 
ROOT
HETATM    1  O1  UNL     1     -15.838 -35.384 -10.662  1.00  0.00    -0.291 OA
HETATM    2  C1  UNL     1     -16.290 -35.858 -11.682  1.00  0.00     0.171 C 
HETATM    3  C2  UNL     1     -17.792 -35.967 -11.758  1.00  0.00     0.089 C 
HETATM    4  C3  UNL     1     -18.453 -36.874 -10.751  1.00  0.00     0.037 C 
HETATM    5  C4  UNL     1     -17.526 -38.029 -10.605  1.00  0.00    -0.001 C 
HETATM    6  C5  UNL     1     -17.740 -39.115  -9.653  1.00  0.00     0.009 C 
HETATM    7  C12 UNL     1     -16.706 -40.218 -10.014  1.00  0.00     0.069 C 
HETATM    8  C13 UNL     1     -15.313 -39.593  -9.909  1.00  0.00     0.064 C 
HETATM    9  C14 UNL     1     -14.254 -40.526  -9.360  1.00  0.00     0.013 C 
HETATM   10  C15 UNL     1     -12.988 -39.663  -9.500  1.00  0.00     0.001 C 
HETATM   11  C16 UNL     1     -12.384 -39.674 -10.853  1.00  0.00     0.003 C 
HETATM   12  C17 UNL     1     -12.620 -38.388 -11.671  1.00  0.00     0.040 C 
HETATM   13  C18 UNL     1     -14.029 -37.917 -11.579  1.00  0.00     0.197 C 
HETATM   14  O4  UNL     1     -14.676 -37.426 -12.649  1.00  0.00    -0.347 OA
HETATM   15  C19 UNL     1     -15.318 -36.269 -12.691  1.00  0.00     0.185 C 
HETATM   16  C20 UNL     1     -14.784 -39.195 -11.220  1.00  0.00     0.160 C 
HETATM   17  O5  UNL     1     -14.991 -39.999 -12.097  1.00  0.00    -0.295 OA
ENDROOT
BRANCH   6  18
HETATM   18  N1  UNL     1     -18.897 -39.605  -9.107  1.00  0.00    -0.329 N 
HETATM   19  C6  UNL     1     -19.376 -39.304  -7.785  1.00  0.00     0.244 C 
HETATM   20  O2  UNL     1     -18.686 -38.674  -6.956  1.00  0.00    -0.271 OA
ATOM     21  H1  UNL     1     -19.462 -40.230  -9.682  1.00  0.00     0.168 HD
BRANCH  19  22
HETATM   22  C7  UNL     1     -20.752 -39.745  -7.416  1.00  0.00     0.171 C 
HETATM   23  C8  UNL     1     -21.460 -40.138  -8.717  1.00  0.00     0.060 C 
HETATM   24  C9  UNL     1     -22.923 -39.824  -8.666  1.00  0.00     0.170 C 
HETATM   25  O3  UNL     1     -23.643 -40.871  -8.095  1.00  0.00    -0.389 OA
HETATM   26  C10 UNL     1     -23.309 -40.948  -6.749  1.00  0.00     0.186 C 
HETATM   27  C11 UNL     1     -21.946 -41.605  -6.619  1.00  0.00     0.141 C 
HETATM   28  N2  UNL     1     -20.941 -40.577  -6.365  1.00  0.00    -0.407 N 
ATOM     29  H2  UNL     1     -20.432 -40.494  -5.485  1.00  0.00     0.154 HD
ENDBRANCH  19  22
ENDBRANCH   6  18
TORSDOF 2
ENDMDL
MODEL 5
REMARK VINA RESULT: -8.539736484      3.131      4.767
REMARK  2 active torsions:
REMARK  status: ('A' for Active; 'I' for Inactive)
REMARK    1  A    between atoms: C5_6  and  N1_7 
REMARK       I    between atoms: N1_7  and  C6_9 
REMARK    2  A    between atoms: C6_9  and  C7_11 
ROOT
HETATM    1  O1  UNL     1     -13.978 -38.421 -12.818  1.00  0.00    -0.291 OA
HETATM    2  C1  UNL     1     -13.544 -38.450 -11.686  1.00  0.00     0.171 C 
HETATM    3  C2  UNL     1     -13.192 -39.811 -11.141  1.00  0.00     0.089 C 
HETATM    4  C3  UNL     1     -14.329 -40.791 -10.993  1.00  0.00     0.037 C 
HETATM    5  C4  UNL     1     -15.489 -39.972 -10.546  1.00  0.00    -0.001 C 
HETATM    6  C5  UNL     1     -16.831 -40.516 -10.362  1.00  0.00     0.009 C 
HETATM    7  C12 UNL     1     -17.653 -39.408  -9.645  1.00  0.00     0.069 C 
HETATM    8  C13 UNL     1     -17.625 -38.166 -10.538  1.00  0.00     0.064 C 
HETATM    9  C14 UNL     1     -18.919 -37.380 -10.549  1.00  0.00     0.013 C 
HETATM   10  C15 UNL     1     -18.529 -36.165 -11.409  1.00  0.00     0.001 C 
HETATM   11  C16 UNL     1     -17.814 -35.096 -10.674  1.00  0.00     0.003 C 
HETATM   12  C17 UNL     1     -16.300 -35.023 -10.959  1.00  0.00     0.040 C 
HETATM   13  C18 UNL     1     -15.664 -36.368 -10.954  1.00  0.00     0.197 C 
HETATM   14  O4  UNL     1     -14.455 -36.571 -10.406  1.00  0.00    -0.347 OA
HETATM   15  C19 UNL     1     -13.433 -37.163 -11.002  1.00  0.00     0.185 C 
HETATM   16  C20 UNL     1     -16.624 -37.186 -10.093  1.00  0.00     0.160 C 
HETATM   17  O5  UNL     1     -16.582 -37.038  -8.896  1.00  0.00    -0.295 OA
ENDROOT
BRANCH   6  18
HETATM   18  N1  UNL     1     -17.244 -41.787 -10.061  1.00  0.00    -0.329 N 
HETATM   19  C6  UNL     1     -16.974 -42.469  -8.825  1.00  0.00     0.244 C 
HETATM   20  O2  UNL     1     -16.200 -42.002  -7.963  1.00  0.00    -0.271 OA
ATOM     21  H1  UNL     1     -17.783 -42.288 -10.768  1.00  0.00     0.168 HD
BRANCH  19  22
HETATM   22  C7  UNL     1     -17.667 -43.764  -8.568  1.00  0.00     0.171 C 
HETATM   23  C8  UNL     1     -16.583 -44.845  -8.489  1.00  0.00     0.060 C 
HETATM   24  C9  UNL     1     -17.068 -46.154  -9.030  1.00  0.00     0.170 C 
HETATM   25  O3  UNL     1     -17.715 -46.897  -8.045  1.00  0.00    -0.389 OA
HETATM   26  C10 UNL     1     -18.902 -46.252  -7.720  1.00  0.00     0.186 C 
HETATM   27  C11 UNL     1     -18.586 -45.060  -6.835  1.00  0.00     0.141 C 
HETATM   28  N2  UNL     1     -18.646 -43.839  -7.635  1.00  0.00    -0.407 N 
ATOM     29  H2  UNL     1     -19.353 -43.117  -7.505  1.00  0.00     0.154 HD
ENDBRANCH  19  22
ENDBRANCH   6  18
TORSDOF 2
ENDMDL
