MODEL 1
REMARK VINA RESULT: -8.261458883      0.000      0.000
REMARK  5 active torsions:
REMARK  status: ('A' for Active; 'I' for Inactive)
REMARK    1  A    between atoms: C2_2  and  C3_3 
REMARK    2  A    between atoms: C6_6  and  N1_7 
REMARK    3  A    between atoms: N1_7  and  C7_9 
REMARK    4  A    between atoms: C8_12  and  C9_13 
REMARK    5  A    between atoms: C16_22  and  N4_23 
ROOT
HETATM    1  C7  UNL     1      66.327  36.469  24.265  1.00  0.00     0.700 A 
HETATM    2  N2  UNL     1      66.090  35.609  25.268  1.00  0.00    -0.179 N 
ATOM      3  H2  UNL     1      66.778  35.535  26.017  1.00  0.00     0.185 HD
HETATM    4  C8  UNL     1      64.995  34.844  25.330  1.00  0.00     0.117 A 
HETATM    5  N3  UNL     1      64.102  34.956  24.333  1.00  0.00    -0.179 N 
ATOM      6  H3  UNL     1      63.259  34.382  24.361  1.00  0.00     0.185 HD
HETATM    7  C16 UNL     1      64.278  35.798  23.300  1.00  0.00     0.691 A 
HETATM    8  N5  UNL     1      65.400  36.541  23.294  1.00  0.00    -0.022 N 
ATOM      9  H5  UNL     1      65.554  37.185  22.519  1.00  0.00     0.203 HD
ENDROOT
BRANCH   1  10
HETATM   10  N1  UNL     1      67.387  37.199  24.220  1.00  0.00    -0.169 N 
ATOM     11  H1  UNL     1      67.949  37.197  23.370  1.00  0.00     0.186 HD
BRANCH  10  12
HETATM   12  C6  UNL     1      67.802  38.010  25.316  1.00  0.00     0.163 A 
HETATM   13  C5  UNL     1      68.027  39.370  25.342  1.00  0.00     0.060 A 
HETATM   14  C4  UNL     1      68.414  39.738  26.603  1.00  0.00     0.041 A 
HETATM   15  C3  UNL     1      68.411  38.542  27.328  1.00  0.00     0.077 A 
HETATM   16  O1  UNL     1      68.051  37.582  26.536  1.00  0.00    -0.293 OA
BRANCH  15  17
HETATM   17  C2  UNL     1      68.769  38.467  28.753  1.00  0.00     0.027 C 
HETATM   18  C1  UNL     1      68.697  39.504  29.539  1.00  0.00     0.014 C 
ENDBRANCH  15  17
ENDBRANCH  10  12
ENDBRANCH   1  10
BRANCH   4  19
HETATM   19  C9  UNL     1      64.689  33.879  26.417  1.00  0.00     0.054 C 
HETATM   20  C10 UNL     1      65.456  32.627  26.118  1.00  0.00     0.012 C 
HETATM   21  C11 UNL     1      65.247  31.518  27.076  1.00  0.00     0.001 C 
HETATM   22  C12 UNL     1      64.862  32.039  28.430  1.00  0.00     0.000 C 
HETATM   23  C13 UNL     1      63.410  32.346  28.547  1.00  0.00     0.000 C 
HETATM   24  C14 UNL     1      62.719  32.536  27.219  1.00  0.00     0.001 C 
HETATM   25  C15 UNL     1      63.211  33.705  26.453  1.00  0.00     0.012 C 
ENDBRANCH   4  19
BRANCH   7  26
HETATM   26  N4  UNL     1      63.433  35.912  22.346  1.00  0.00    -0.234 N 
ATOM     27  H42 UNL     1      63.484  35.283  21.544  1.00  0.00     0.174 HD
ATOM     28  H41 UNL     1      62.693  36.614  22.343  1.00  0.00     0.174 HD
ENDBRANCH   7  26
TORSDOF 5
ENDMDL
MODEL 2
REMARK VINA RESULT: -8.021483226      1.098      1.102
REMARK  5 active torsions:
REMARK  status: ('A' for Active; 'I' for Inactive)
REMARK    1  A    between atoms: C2_2  and  C3_3 
REMARK    2  A    between atoms: C6_6  and  N1_7 
REMARK    3  A    between atoms: N1_7  and  C7_9 
REMARK    4  A    between atoms: C8_12  and  C9_13 
REMARK    5  A    between atoms: C16_22  and  N4_23 
ROOT
HETATM    1  C7  UNL     1      64.971  37.606  25.129  1.00  0.00     0.700 A 
HETATM    2  N2  UNL     1      64.914  36.583  25.995  1.00  0.00    -0.179 N 
ATOM      3  H2  UNL     1      65.235  36.736  26.951  1.00  0.00     0.185 HD
HETATM    4  C8  UNL     1      64.455  35.371  25.663  1.00  0.00     0.117 A 
HETATM    5  N3  UNL     1      64.037  35.190  24.400  1.00  0.00    -0.179 N 
ATOM      6  H3  UNL     1      63.683  34.274  24.125  1.00  0.00     0.185 HD
HETATM    7  C16 UNL     1      64.068  36.173  23.483  1.00  0.00     0.691 A 
HETATM    8  N5  UNL     1      64.540  37.369  23.878  1.00  0.00    -0.022 N 
ATOM      9  H5  UNL     1      64.573  38.129  23.199  1.00  0.00     0.203 HD
ENDROOT
BRANCH   1  10
HETATM   10  N1  UNL     1      65.415  38.767  25.465  1.00  0.00    -0.169 N 
ATOM     11  H1  UNL     1      64.862  39.591  25.232  1.00  0.00     0.186 HD
BRANCH  10  12
HETATM   12  C6  UNL     1      66.653  38.943  26.150  1.00  0.00     0.163 A 
HETATM   13  C5  UNL     1      67.874  39.322  25.634  1.00  0.00     0.060 A 
HETATM   14  C4  UNL     1      68.795  39.365  26.646  1.00  0.00     0.041 A 
HETATM   15  C3  UNL     1      68.074  38.997  27.787  1.00  0.00     0.077 A 
HETATM   16  O1  UNL     1      66.848  38.766  27.440  1.00  0.00    -0.293 OA
BRANCH  15  17
HETATM   17  C2  UNL     1      68.678  38.910  29.125  1.00  0.00     0.027 C 
HETATM   18  C1  UNL     1      68.355  39.733  30.083  1.00  0.00     0.014 C 
ENDBRANCH  15  17
ENDBRANCH  10  12
ENDBRANCH   1  10
BRANCH   4  19
HETATM   19  C9  UNL     1      64.372  34.209  26.585  1.00  0.00     0.054 C 
HETATM   20  C10 UNL     1      65.305  33.163  26.054  1.00  0.00     0.012 C 
HETATM   21  C11 UNL     1      65.331  31.897  26.821  1.00  0.00     0.001 C 
HETATM   22  C12 UNL     1      64.955  32.126  28.256  1.00  0.00     0.000 C 
HETATM   23  C13 UNL     1      63.483  32.168  28.474  1.00  0.00     0.000 C 
HETATM   24  C14 UNL     1      62.689  32.451  27.221  1.00  0.00     0.001 C 
HETATM   25  C15 UNL     1      62.944  33.790  26.644  1.00  0.00     0.012 C 
ENDBRANCH   4  19
BRANCH   7  26
HETATM   26  N4  UNL     1      63.672  36.010  22.278  1.00  0.00    -0.234 N 
ATOM     27  H42 UNL     1      64.250  35.488  21.619  1.00  0.00     0.174 HD
ATOM     28  H41 UNL     1      62.788  36.383  21.931  1.00  0.00     0.174 HD
ENDBRANCH   7  26
TORSDOF 5
ENDMDL
MODEL 3
REMARK VINA RESULT: -8.014588847      1.741      6.143
REMARK  5 active torsions:
REMARK  status: ('A' for Active; 'I' for Inactive)
REMARK    1  A    between atoms: C2_2  and  C3_3 
REMARK    2  A    between atoms: C6_6  and  N1_7 
REMARK    3  A    between atoms: N1_7  and  C7_9 
REMARK    4  A    between atoms: C8_12  and  C9_13 
REMARK    5  A    between atoms: C16_22  and  N4_23 
ROOT
HETATM    1  C7  UNL     1      64.328  35.835  23.431  1.00  0.00     0.700 A 
HETATM    2  N2  UNL     1      65.167  36.325  24.356  1.00  0.00    -0.179 N 
ATOM      3  H2  UNL     1      65.199  35.873  25.270  1.00  0.00     0.185 HD
HETATM    4  C8  UNL     1      65.963  37.376  24.137  1.00  0.00     0.117 A 
HETATM    5  N3  UNL     1      65.906  37.956  22.926  1.00  0.00    -0.179 N 
ATOM      6  H3  UNL     1      66.505  38.760  22.737  1.00  0.00     0.185 HD
HETATM    7  C16 UNL     1      65.087  37.516  21.955  1.00  0.00     0.691 A 
HETATM    8  N5  UNL     1      64.311  36.455  22.237  1.00  0.00    -0.022 N 
ATOM      9  H5  UNL     1      63.682  36.105  21.515  1.00  0.00     0.203 HD
ENDROOT
BRANCH   1  10
HETATM   10  N1  UNL     1      63.567  34.821  23.658  1.00  0.00    -0.169 N 
ATOM     11  H1  UNL     1      62.971  34.476  22.906  1.00  0.00     0.186 HD
BRANCH  10  12
HETATM   12  C6  UNL     1      63.529  34.165  24.923  1.00  0.00     0.163 A 
HETATM   13  C5  UNL     1      62.504  34.138  25.846  1.00  0.00     0.060 A 
HETATM   14  C4  UNL     1      62.891  33.387  26.924  1.00  0.00     0.041 A 
HETATM   15  C3  UNL     1      64.187  32.967  26.606  1.00  0.00     0.077 A 
HETATM   16  O1  UNL     1      64.500  33.445  25.444  1.00  0.00    -0.293 OA
BRANCH  15  17
HETATM   17  C2  UNL     1      64.998  32.122  27.497  1.00  0.00     0.027 C 
HETATM   18  C1  UNL     1      64.777  32.060  28.780  1.00  0.00     0.014 C 
ENDBRANCH  15  17
ENDBRANCH  10  12
ENDBRANCH   1  10
BRANCH   4  19
HETATM   19  C9  UNL     1      66.907  37.953  25.127  1.00  0.00     0.054 C 
HETATM   20  C10 UNL     1      66.145  38.132  26.404  1.00  0.00     0.012 C 
HETATM   21  C11 UNL     1      66.912  38.742  27.514  1.00  0.00     0.001 C 
HETATM   22  C12 UNL     1      68.380  38.468  27.371  1.00  0.00     0.000 C 
HETATM   23  C13 UNL     1      69.064  39.414  26.447  1.00  0.00     0.000 C 
HETATM   24  C14 UNL     1      68.127  40.122  25.498  1.00  0.00     0.001 C 
HETATM   25  C15 UNL     1      67.445  39.215  24.547  1.00  0.00     0.012 C 
ENDBRANCH   4  19
BRANCH   7  26
HETATM   26  N4  UNL     1      65.025  38.062  20.800  1.00  0.00    -0.234 N 
ATOM     27  H42 UNL     1      64.678  37.528  20.003  1.00  0.00     0.174 HD
ATOM     28  H41 UNL     1      65.312  39.026  20.628  1.00  0.00     0.174 HD
ENDBRANCH   7  26
TORSDOF 5
ENDMDL
MODEL 4
REMARK VINA RESULT: -7.871892477      1.171      1.751
REMARK  5 active torsions:
REMARK  status: ('A' for Active; 'I' for Inactive)
REMARK    1  A    between atoms: C2_2  and  C3_3 
REMARK    2  A    between atoms: C6_6  and  N1_7 
REMARK    3  A    between atoms: N1_7  and  C7_9 
REMARK    4  A    between atoms: C8_12  and  C9_13 
REMARK    5  A    between atoms: C16_22  and  N4_23 
ROOT
HETATM    1  C7  UNL     1      66.347  36.484  24.168  1.00  0.00     0.700 A 
HETATM    2  N2  UNL     1      66.125  35.626  25.175  1.00  0.00    -0.179 N 
ATOM      3  H2  UNL     1      66.834  35.538  25.903  1.00  0.00     0.185 HD
HETATM    4  C8  UNL     1      65.020  34.880  25.269  1.00  0.00     0.117 A 
HETATM    5  N3  UNL     1      64.099  35.010  24.299  1.00  0.00    -0.179 N 
ATOM      6  H3  UNL     1      63.247  34.451  24.351  1.00  0.00     0.185 HD
HETATM    7  C16 UNL     1      64.259  35.851  23.263  1.00  0.00     0.691 A 
HETATM    8  N5  UNL     1      65.393  36.573  23.225  1.00  0.00    -0.022 N 
ATOM      9  H5  UNL     1      65.535  37.217  22.447  1.00  0.00     0.203 HD
ENDROOT
BRANCH   1  10
HETATM   10  N1  UNL     1      67.417  37.195  24.092  1.00  0.00    -0.169 N 
ATOM     11  H1  UNL     1      68.139  36.927  23.424  1.00  0.00     0.186 HD
BRANCH  10  12
HETATM   12  C6  UNL     1      67.630  38.344  24.909  1.00  0.00     0.163 A 
HETATM   13  C5  UNL     1      68.355  38.445  26.077  1.00  0.00     0.060 A 
HETATM   14  C4  UNL     1      68.296  39.735  26.533  1.00  0.00     0.041 A 
HETATM   15  C3  UNL     1      67.506  40.399  25.589  1.00  0.00     0.077 A 
HETATM   16  O1  UNL     1      67.152  39.549  24.678  1.00  0.00    -0.293 OA
BRANCH  15  17
HETATM   17  C2  UNL     1      67.177  41.830  25.682  1.00  0.00     0.027 C 
HETATM   18  C1  UNL     1      66.002  42.244  26.065  1.00  0.00     0.014 C 
ENDBRANCH  15  17
ENDBRANCH  10  12
ENDBRANCH   1  10
BRANCH   4  19
HETATM   19  C9  UNL     1      64.729  33.918  26.363  1.00  0.00     0.054 C 
HETATM   20  C10 UNL     1      65.496  32.667  26.059  1.00  0.00     0.012 C 
HETATM   21  C11 UNL     1      65.301  31.561  27.024  1.00  0.00     0.001 C 
HETATM   22  C12 UNL     1      64.932  32.086  28.381  1.00  0.00     0.000 C 
HETATM   23  C13 UNL     1      63.480  32.389  28.515  1.00  0.00     0.000 C 
HETATM   24  C14 UNL     1      62.772  32.573  27.193  1.00  0.00     0.001 C 
HETATM   25  C15 UNL     1      63.252  33.740  26.417  1.00  0.00     0.012 C 
ENDBRANCH   4  19
BRANCH   7  26
HETATM   26  N4  UNL     1      63.388  35.981  22.335  1.00  0.00    -0.234 N 
ATOM     27  H42 UNL     1      62.553  35.396  22.335  1.00  0.00     0.174 HD
ATOM     28  H41 UNL     1      63.486  36.656  21.575  1.00  0.00     0.174 HD
ENDBRANCH   7  26
TORSDOF 5
ENDMDL
MODEL 5
REMARK VINA RESULT: -7.790845264      1.351      1.562
REMARK  5 active torsions:
REMARK  status: ('A' for Active; 'I' for Inactive)
REMARK    1  A    between atoms: C2_2  and  C3_3 
REMARK    2  A    between atoms: C6_6  and  N1_7 
REMARK    3  A    between atoms: N1_7  and  C7_9 
REMARK    4  A    between atoms: C8_12  and  C9_13 
REMARK    5  A    between atoms: C16_22  and  N4_23 
ROOT
HETATM    1  C7  UNL     1      64.959  37.656  25.160  1.00  0.00     0.700 A 
HETATM    2  N2  UNL     1      64.896  36.622  26.013  1.00  0.00    -0.179 N 
ATOM      3  H2  UNL     1      65.193  36.769  26.977  1.00  0.00     0.185 HD
HETATM    4  C8  UNL     1      64.463  35.408  25.658  1.00  0.00     0.117 A 
HETATM    5  N3  UNL     1      64.077  35.234  24.383  1.00  0.00    -0.179 N 
ATOM      6  H3  UNL     1      63.743  34.316  24.090  1.00  0.00     0.185 HD
HETATM    7  C16 UNL     1      64.116  36.228  23.478  1.00  0.00     0.691 A 
HETATM    8  N5  UNL     1      64.561  37.426  23.896  1.00  0.00    -0.022 N 
ATOM      9  H5  UNL     1      64.599  38.193  23.226  1.00  0.00     0.203 HD
ENDROOT
BRANCH   1  10
HETATM   10  N1  UNL     1      65.379  38.819  25.518  1.00  0.00    -0.169 N 
ATOM     11  H1  UNL     1      64.871  39.644  25.199  1.00  0.00     0.186 HD
BRANCH  10  12
HETATM   12  C6  UNL     1      66.527  38.996  26.344  1.00  0.00     0.163 A 
HETATM   13  C5  UNL     1      66.609  38.959  27.720  1.00  0.00     0.060 A 
HETATM   14  C4  UNL     1      67.907  39.180  28.098  1.00  0.00     0.041 A 
HETATM   15  C3  UNL     1      68.595  39.349  26.892  1.00  0.00     0.077 A 
HETATM   16  O1  UNL     1      67.750  39.234  25.917  1.00  0.00    -0.293 OA
BRANCH  15  17
HETATM   17  C2  UNL     1      70.040  39.613  26.823  1.00  0.00     0.027 C 
HETATM   18  C1  UNL     1      70.593  40.605  27.463  1.00  0.00     0.014 C 
ENDBRANCH  15  17
ENDBRANCH  10  12
ENDBRANCH   1  10
BRANCH   4  19
HETATM   19  C9  UNL     1      64.375  34.234  26.564  1.00  0.00     0.054 C 
HETATM   20  C10 UNL     1      65.306  33.193  26.023  1.00  0.00     0.012 C 
HETATM   21  C11 UNL     1      65.327  31.918  26.774  1.00  0.00     0.001 C 
HETATM   22  C12 UNL     1      64.949  32.130  28.211  1.00  0.00     0.000 C 
HETATM   23  C13 UNL     1      63.476  32.173  28.427  1.00  0.00     0.000 C 
HETATM   24  C14 UNL     1      62.686  32.473  27.176  1.00  0.00     0.001 C 
HETATM   25  C15 UNL     1      62.945  33.819  26.616  1.00  0.00     0.012 C 
ENDBRANCH   4  19
BRANCH   7  26
HETATM   26  N4  UNL     1      63.751  36.072  22.262  1.00  0.00    -0.234 N 
ATOM     27  H42 UNL     1      62.952  35.477  22.042  1.00  0.00     0.174 HD
ATOM     28  H41 UNL     1      64.227  36.522  21.479  1.00  0.00     0.174 HD
ENDBRANCH   7  26
TORSDOF 5
ENDMDL
