MODEL 1
REMARK VINA RESULT: -6.812689274      0.000      0.000
REMARK  6 active torsions:
REMARK  status: ('A' for Active; 'I' for Inactive)
REMARK    1  A    between atoms: C2_2  and  N1_5 
REMARK    2  A    between atoms: N1_5  and  C5_7 
REMARK    3  A    between atoms: C8_10  and  C9_11 
REMARK    4  A    between atoms: C9_11  and  N2_12 
REMARK       I    between atoms: N2_12  and  C10_13 
REMARK    5  A    between atoms: C10_13  and  O2_15 
REMARK    6  A    between atoms: O2_15  and  C11_16 
ROOT
HETATM    1  C5  UNL     1      65.297  34.167  25.599  1.00  0.00     0.050 A 
HETATM    2  C6  UNL     1      64.353  33.989  24.628  1.00  0.00     0.032 A 
HETATM    3  C7  UNL     1      64.158  34.872  23.546  1.00  0.00     0.016 A 
HETATM    4  C8  UNL     1      64.960  35.994  23.434  1.00  0.00    -0.005 A 
HETATM    5  C15 UNL     1      65.920  36.212  24.406  1.00  0.00     0.040 A 
HETATM    6  C16 UNL     1      66.073  35.333  25.436  1.00  0.00     0.061 A 
HETATM    7 CL1  UNL     1      67.322  35.616  26.654  1.00  0.00    -0.082 Cl
ENDROOT
BRANCH   4   8
HETATM    8  C9  UNL     1      64.851  36.758  22.190  1.00  0.00     0.200 C 
BRANCH   8   9
HETATM    9  N2  UNL     1      65.688  37.523  21.539  1.00  0.00    -0.358 NA
HETATM   10  C10 UNL     1      66.573  38.314  20.860  1.00  0.00     0.440 C 
HETATM   11  O1  UNL     1      67.783  38.066  20.617  1.00  0.00    -0.221 OA
BRANCH  10  12
HETATM   12  O2  UNL     1      66.238  39.577  20.295  1.00  0.00    -0.282 OA
BRANCH  12  13
HETATM   13  C11 UNL     1      65.883  39.798  18.973  1.00  0.00     0.062 C 
HETATM   14  C12 UNL     1      64.868  40.973  18.999  1.00  0.00     0.046 C 
HETATM   15  C13 UNL     1      67.063  40.175  18.105  1.00  0.00     0.046 C 
HETATM   16  C14 UNL     1      65.142  38.671  18.300  1.00  0.00     0.046 C 
ENDBRANCH  12  13
ENDBRANCH  10  12
ENDBRANCH   8   9
ENDBRANCH   4   8
BRANCH   1  17
HETATM   17  N1  UNL     1      65.604  33.285  26.649  1.00  0.00    -0.380 N 
ATOM     18  H1  UNL     1      65.140  33.523  27.526  1.00  0.00     0.160 HD
BRANCH  17  19
HETATM   19  C2  UNL     1      66.425  32.134  26.742  1.00  0.00     0.019 C 
HETATM   20  C1  UNL     1      66.163  31.463  28.151  1.00  0.00     0.037 C 
HETATM   21  C3  UNL     1      65.948  31.022  25.791  1.00  0.00     0.037 C 
HETATM   22  C4  UNL     1      67.889  32.259  26.617  1.00  0.00     0.037 C 
ENDBRANCH  17  19
ENDBRANCH   1  17
TORSDOF 6
ENDMDL
MODEL 2
REMARK VINA RESULT: -6.806126039      4.469      8.054
REMARK  6 active torsions:
REMARK  status: ('A' for Active; 'I' for Inactive)
REMARK    1  A    between atoms: C2_2  and  N1_5 
REMARK    2  A    between atoms: N1_5  and  C5_7 
REMARK    3  A    between atoms: C8_10  and  C9_11 
REMARK    4  A    between atoms: C9_11  and  N2_12 
REMARK       I    between atoms: N2_12  and  C10_13 
REMARK    5  A    between atoms: C10_13  and  O2_15 
REMARK    6  A    between atoms: O2_15  and  C11_16 
ROOT
HETATM    1  C5  UNL     1      67.306  38.044  25.277  1.00  0.00     0.050 A 
HETATM    2  C6  UNL     1      66.657  37.547  26.371  1.00  0.00     0.032 A 
HETATM    3  C7  UNL     1      65.570  36.652  26.305  1.00  0.00     0.016 A 
HETATM    4  C8  UNL     1      65.113  36.231  25.068  1.00  0.00    -0.005 A 
HETATM    5  C15 UNL     1      65.740  36.723  23.937  1.00  0.00     0.040 A 
HETATM    6  C16 UNL     1      66.786  37.588  24.048  1.00  0.00     0.061 A 
HETATM    7 CL1  UNL     1      67.591  38.184  22.591  1.00  0.00    -0.082 Cl
ENDROOT
BRANCH   4   8
HETATM    8  C9  UNL     1      64.124  35.151  25.065  1.00  0.00     0.200 C 
BRANCH   8   9
HETATM    9  N2  UNL     1      63.909  34.140  25.865  1.00  0.00    -0.358 NA
HETATM   10  C10 UNL     1      63.674  33.090  26.708  1.00  0.00     0.440 C 
HETATM   11  O1  UNL     1      62.810  33.025  27.622  1.00  0.00    -0.221 OA
BRANCH  10  12
HETATM   12  O2  UNL     1      64.392  31.861  26.665  1.00  0.00    -0.282 OA
BRANCH  12  13
HETATM   13  C11 UNL     1      65.747  31.713  26.919  1.00  0.00     0.062 C 
HETATM   14  C12 UNL     1      65.864  31.465  28.448  1.00  0.00     0.046 C 
HETATM   15  C13 UNL     1      66.359  30.548  26.175  1.00  0.00     0.046 C 
HETATM   16  C14 UNL     1      66.595  32.934  26.667  1.00  0.00     0.046 C 
ENDBRANCH  12  13
ENDBRANCH  10  12
ENDBRANCH   8   9
ENDBRANCH   4   8
BRANCH   1  17
HETATM   17  N1  UNL     1      68.447  38.864  25.273  1.00  0.00    -0.380 N 
ATOM     18  H1  UNL     1      69.211  38.491  24.709  1.00  0.00     0.160 HD
BRANCH  17  19
HETATM   19  C2  UNL     1      68.755  40.102  25.889  1.00  0.00     0.019 C 
HETATM   20  C1  UNL     1      70.082  39.908  26.731  1.00  0.00     0.037 C 
HETATM   21  C3  UNL     1      69.211  41.149  24.857  1.00  0.00     0.037 C 
HETATM   22  C4  UNL     1      67.785  40.736  26.800  1.00  0.00     0.037 C 
ENDBRANCH  17  19
ENDBRANCH   1  17
TORSDOF 6
ENDMDL
MODEL 3
REMARK VINA RESULT: -6.757143894      4.364      5.587
REMARK  6 active torsions:
REMARK  status: ('A' for Active; 'I' for Inactive)
REMARK    1  A    between atoms: C2_2  and  N1_5 
REMARK    2  A    between atoms: N1_5  and  C5_7 
REMARK    3  A    between atoms: C8_10  and  C9_11 
REMARK    4  A    between atoms: C9_11  and  N2_12 
REMARK       I    between atoms: N2_12  and  C10_13 
REMARK    5  A    between atoms: C10_13  and  O2_15 
REMARK    6  A    between atoms: O2_15  and  C11_16 
ROOT
HETATM    1  C5  UNL     1      65.672  33.879  25.424  1.00  0.00     0.050 A 
HETATM    2  C6  UNL     1      66.618  34.779  25.022  1.00  0.00     0.032 A 
HETATM    3  C7  UNL     1      66.417  36.173  24.990  1.00  0.00     0.016 A 
HETATM    4  C8  UNL     1      65.197  36.692  25.387  1.00  0.00    -0.005 A 
HETATM    5  C15 UNL     1      64.211  35.810  25.791  1.00  0.00     0.040 A 
HETATM    6  C16 UNL     1      64.447  34.468  25.805  1.00  0.00     0.061 A 
HETATM    7 CL1  UNL     1      63.183  33.359  26.349  1.00  0.00    -0.082 Cl
ENDROOT
BRANCH   4   8
HETATM    8  C9  UNL     1      65.116  38.147  25.528  1.00  0.00     0.200 C 
BRANCH   8   9
HETATM    9  N2  UNL     1      65.827  39.018  26.196  1.00  0.00    -0.358 NA
HETATM   10  C10 UNL     1      66.564  39.937  26.888  1.00  0.00     0.440 C 
HETATM   11  O1  UNL     1      66.572  41.186  26.724  1.00  0.00    -0.221 OA
BRANCH  10  12
HETATM   12  O2  UNL     1      67.458  39.606  27.945  1.00  0.00    -0.282 OA
BRANCH  12  13
HETATM   13  C11 UNL     1      68.660  38.932  27.799  1.00  0.00     0.062 C 
HETATM   14  C12 UNL     1      69.489  39.267  29.069  1.00  0.00     0.046 C 
HETATM   15  C13 UNL     1      68.484  37.433  27.698  1.00  0.00     0.046 C 
HETATM   16  C14 UNL     1      69.527  39.384  26.652  1.00  0.00     0.046 C 
ENDBRANCH  12  13
ENDBRANCH  10  12
ENDBRANCH   8   9
ENDBRANCH   4   8
BRANCH   1  17
HETATM   17  N1  UNL     1      65.833  32.491  25.566  1.00  0.00    -0.380 N 
ATOM     18  H1  UNL     1      65.301  31.950  24.885  1.00  0.00     0.160 HD
BRANCH  17  19
HETATM   19  C2  UNL     1      66.582  31.687  26.461  1.00  0.00     0.019 C 
HETATM   20  C1  UNL     1      67.928  32.451  26.790  1.00  0.00     0.037 C 
HETATM   21  C3  UNL     1      65.927  31.631  27.854  1.00  0.00     0.037 C 
HETATM   22  C4  UNL     1      66.974  30.319  26.075  1.00  0.00     0.037 C 
ENDBRANCH  17  19
ENDBRANCH   1  17
TORSDOF 6
ENDMDL
MODEL 4
REMARK VINA RESULT: -6.740605919      0.599      1.127
REMARK  6 active torsions:
REMARK  status: ('A' for Active; 'I' for Inactive)
REMARK    1  A    between atoms: C2_2  and  N1_5 
REMARK    2  A    between atoms: N1_5  and  C5_7 
REMARK    3  A    between atoms: C8_10  and  C9_11 
REMARK    4  A    between atoms: C9_11  and  N2_12 
REMARK       I    between atoms: N2_12  and  C10_13 
REMARK    5  A    between atoms: C10_13  and  O2_15 
REMARK    6  A    between atoms: O2_15  and  C11_16 
ROOT
HETATM    1  C5  UNL     1      65.383  34.361  25.487  1.00  0.00     0.050 A 
HETATM    2  C6  UNL     1      64.495  34.206  24.461  1.00  0.00     0.032 A 
HETATM    3  C7  UNL     1      64.371  35.105  23.383  1.00  0.00     0.016 A 
HETATM    4  C8  UNL     1      65.188  36.221  23.333  1.00  0.00    -0.005 A 
HETATM    5  C15 UNL     1      66.093  36.416  24.361  1.00  0.00     0.040 A 
HETATM    6  C16 UNL     1      66.178  35.522  25.386  1.00  0.00     0.061 A 
HETATM    7 CL1  UNL     1      67.359  35.775  26.676  1.00  0.00    -0.082 Cl
ENDROOT
BRANCH   4   8
HETATM    8  C9  UNL     1      65.158  37.003  22.095  1.00  0.00     0.200 C 
BRANCH   8   9
HETATM    9  N2  UNL     1      65.984  37.869  21.569  1.00  0.00    -0.358 NA
HETATM   10  C10 UNL     1      66.852  38.778  21.031  1.00  0.00     0.440 C 
HETATM   11  O1  UNL     1      67.597  39.580  21.654  1.00  0.00    -0.221 OA
BRANCH  10  12
HETATM   12  O2  UNL     1      67.057  38.950  19.633  1.00  0.00    -0.282 OA
BRANCH  12  13
HETATM   13  C11 UNL     1      66.197  39.613  18.771  1.00  0.00     0.062 C 
HETATM   14  C12 UNL     1      67.063  40.032  17.551  1.00  0.00     0.046 C 
HETATM   15  C13 UNL     1      65.055  38.742  18.297  1.00  0.00     0.046 C 
HETATM   16  C14 UNL     1      65.622  40.906  19.289  1.00  0.00     0.046 C 
ENDBRANCH  12  13
ENDBRANCH  10  12
ENDBRANCH   8   9
ENDBRANCH   4   8
BRANCH   1  17
HETATM   17  N1  UNL     1      65.622  33.463  26.541  1.00  0.00    -0.380 N 
ATOM     18  H1  UNL     1      65.098  33.684  27.387  1.00  0.00     0.160 HD
BRANCH  17  19
HETATM   19  C2  UNL     1      66.440  32.313  26.670  1.00  0.00     0.019 C 
HETATM   20  C1  UNL     1      66.075  31.608  28.039  1.00  0.00     0.037 C 
HETATM   21  C3  UNL     1      66.043  31.220  25.660  1.00  0.00     0.037 C 
HETATM   22  C4  UNL     1      67.909  32.446  26.660  1.00  0.00     0.037 C 
ENDBRANCH  17  19
ENDBRANCH   1  17
TORSDOF 6
ENDMDL
MODEL 5
REMARK VINA RESULT: -6.720422047      3.430      8.119
REMARK  6 active torsions:
REMARK  status: ('A' for Active; 'I' for Inactive)
REMARK    1  A    between atoms: C2_2  and  N1_5 
REMARK    2  A    between atoms: N1_5  and  C5_7 
REMARK    3  A    between atoms: C8_10  and  C9_11 
REMARK    4  A    between atoms: C9_11  and  N2_12 
REMARK       I    between atoms: N2_12  and  C10_13 
REMARK    5  A    between atoms: C10_13  and  O2_15 
REMARK    6  A    between atoms: O2_15  and  C11_16 
ROOT
HETATM    1  C5  UNL     1      66.174  37.493  22.852  1.00  0.00     0.050 A 
HETATM    2  C6  UNL     1      65.061  37.040  22.203  1.00  0.00     0.032 A 
HETATM    3  C7  UNL     1      64.265  35.968  22.654  1.00  0.00     0.016 A 
HETATM    4  C8  UNL     1      64.607  35.317  23.827  1.00  0.00    -0.005 A 
HETATM    5  C15 UNL     1      65.734  35.741  24.506  1.00  0.00     0.040 A 
HETATM    6  C16 UNL     1      66.476  36.781  24.032  1.00  0.00     0.061 A 
HETATM    7 CL1  UNL     1      67.899  37.326  24.929  1.00  0.00    -0.082 Cl
ENDROOT
BRANCH   4   8
HETATM    8  C9  UNL     1      63.636  34.354  24.350  1.00  0.00     0.200 C 
BRANCH   8   9
HETATM    9  N2  UNL     1      63.592  33.640  25.445  1.00  0.00    -0.358 NA
HETATM   10  C10 UNL     1      63.536  32.902  26.594  1.00  0.00     0.440 C 
HETATM   11  O1  UNL     1      62.817  33.119  27.604  1.00  0.00    -0.221 OA
BRANCH  10  12
HETATM   12  O2  UNL     1      64.306  31.725  26.820  1.00  0.00    -0.282 OA
BRANCH  12  13
HETATM   13  C11 UNL     1      65.677  31.689  27.021  1.00  0.00     0.062 C 
HETATM   14  C12 UNL     1      65.874  31.452  28.543  1.00  0.00     0.046 C 
HETATM   15  C13 UNL     1      66.353  30.576  26.251  1.00  0.00     0.046 C 
HETATM   16  C14 UNL     1      66.413  32.974  26.739  1.00  0.00     0.046 C 
ENDBRANCH  12  13
ENDBRANCH  10  12
ENDBRANCH   8   9
ENDBRANCH   4   8
BRANCH   1  17
HETATM   17  N1  UNL     1      66.958  38.607  22.509  1.00  0.00    -0.380 N 
ATOM     18  H1  UNL     1      67.274  39.143  23.317  1.00  0.00     0.160 HD
BRANCH  17  19
HETATM   19  C2  UNL     1      67.398  39.140  21.272  1.00  0.00     0.019 C 
HETATM   20  C1  UNL     1      68.501  40.234  21.581  1.00  0.00     0.037 C 
HETATM   21  C3  UNL     1      68.219  38.111  20.473  1.00  0.00     0.037 C 
HETATM   22  C4  UNL     1      66.435  39.781  20.358  1.00  0.00     0.037 C 
ENDBRANCH  17  19
ENDBRANCH   1  17
TORSDOF 6
ENDMDL
