MODEL 1
REMARK VINA RESULT: -9.172171348      0.000      0.000
REMARK  10 active torsions:
REMARK  status: ('A' for Active; 'I' for Inactive)
REMARK    1  A    between atoms: C2_2  and  N1_3 
REMARK    2  A    between atoms: C4_5  and  C5_6 
REMARK    3  A    between atoms: C5_6  and  N2_7 
REMARK    4  A    between atoms: C11_16  and  C12_17 
REMARK    5  A    between atoms: C12_17  and  C13_18 
REMARK       I    between atoms: C13_18  and  N5_20 
REMARK    6  A    between atoms: N5_20  and  C14_22 
REMARK    7  A    between atoms: C14_22  and  C15_23 
REMARK    8  A    between atoms: N6_24  and  N7_26 
REMARK    9  A    between atoms: C16_31  and  S1_32 
REMARK   10  A    between atoms: S1_32  and  N9_33 
ROOT
HETATM    1  N1  UNL     1       0.751  26.857   2.432  1.00  0.00    -0.355 N 
HETATM    2  C3  UNL     1       1.572  27.362   3.433  1.00  0.00     0.100 A 
HETATM    3  C4  UNL     1       1.887  28.666   3.626  1.00  0.00    -0.024 A 
HETATM    4  C7  UNL     1       1.355  29.553   2.770  1.00  0.00     0.024 A 
HETATM    5  C8  UNL     1       0.536  29.132   1.767  1.00  0.00    -0.007 A 
HETATM    6  C9  UNL     1       0.068  30.058   0.847  1.00  0.00     0.014 A 
HETATM    7  C10 UNL     1      -0.680  29.687  -0.196  1.00  0.00     0.014 A 
HETATM    8  C11 UNL     1      -1.009  28.331  -0.362  1.00  0.00    -0.005 A 
HETATM    9  C16 UNL     1      -0.584  27.354   0.530  1.00  0.00     0.117 A 
HETATM   10  C17 UNL     1       0.227  27.770   1.605  1.00  0.00     0.069 A 
ENDROOT
BRANCH   8  11
HETATM   11  C12 UNL     1      -1.689  28.033  -1.598  1.00  0.00     0.087 C 
BRANCH  11  12
HETATM   12  C13 UNL     1      -1.261  28.367  -2.927  1.00  0.00     0.242 C 
HETATM   13  O1  UNL     1      -0.201  27.864  -3.425  1.00  0.00    -0.269 OA
HETATM   14  N5  UNL     1      -1.958  29.279  -3.799  1.00  0.00    -0.353 N 
ATOM     15  H5  UNL     1      -2.831  29.709  -3.489  1.00  0.00     0.163 HD
BRANCH  14  16
HETATM   16  C14 UNL     1      -1.422  29.595  -5.133  1.00  0.00     0.169 C 
BRANCH  16  17
HETATM   17  C15 UNL     1      -2.335  28.984  -6.151  1.00  0.00     0.101 C 
HETATM   18  N6  UNL     1      -1.983  27.882  -6.728  1.00  0.00    -0.300 N 
ATOM     19  H6  UNL     1      -2.601  27.459  -7.422  1.00  0.00     0.187 HD
BRANCH  18  20
HETATM   20  N7  UNL     1      -0.764  27.254  -6.418  1.00  0.00    -0.250 N 
HETATM   21  N8  UNL     1      -0.383  26.150  -6.894  1.00  0.00    -0.331 N 
ATOM     22  H82 UNL     1      -1.017  25.693  -7.550  1.00  0.00     0.178 HD
ATOM     23  H81 UNL     1       0.501  25.695  -6.668  1.00  0.00     0.178 HD
ATOM     24  H7  UNL     1      -0.142  27.726  -5.761  1.00  0.00     0.207 HD
ENDBRANCH  18  20
ENDBRANCH  16  17
ENDBRANCH  14  16
ENDBRANCH  11  12
ENDBRANCH   8  11
BRANCH   9  25
HETATM   25  S1  UNL     1      -1.288  25.810   0.662  1.00  0.00     0.259 S 
HETATM   26  O2  UNL     1      -2.155  25.579   1.968  1.00  0.00    -0.201 OA
HETATM   27  O3  UNL     1      -2.698  26.150   0.064  1.00  0.00    -0.201 OA
BRANCH  25  28
HETATM   28  N9  UNL     1      -0.936  24.505  -0.261  1.00  0.00    -0.324 N 
ATOM     29  H92 UNL     1      -0.695  24.700  -1.233  1.00  0.00     0.169 HD
ATOM     30  H91 UNL     1      -0.938  23.532   0.045  1.00  0.00     0.169 HD
ENDBRANCH  25  28
ENDBRANCH   9  25
BRANCH   1  31
HETATM   31  C2  UNL     1       0.755  25.468   2.162  1.00  0.00     0.124 C 
HETATM   32  C1  UNL     1       2.148  25.052   1.545  1.00  0.00     0.027 C 
ENDBRANCH   1  31
BRANCH   3  33
HETATM   33  C5  UNL     1       2.771  29.082   4.727  1.00  0.00     0.162 C 
BRANCH  33  34
HETATM   34  N2  UNL     1       3.596  30.196   4.241  1.00  0.00    -0.363 N 
HETATM   35  C6  UNL     1       4.811  30.017   3.861  1.00  0.00     0.197 C 
HETATM   36  N3  UNL     1       5.414  28.755   3.887  1.00  0.00    -0.067 NA
HETATM   37  N4  UNL     1       5.584  31.118   3.397  1.00  0.00    -0.067 NA
ATOM     38  H2  UNL     1       3.196  31.133   4.205  1.00  0.00     0.162 HD
ENDBRANCH  33  34
ENDBRANCH   3  33
TORSDOF 10
ENDMDL
MODEL 2
REMARK VINA RESULT: -8.986452561      1.180      1.557
REMARK  10 active torsions:
REMARK  status: ('A' for Active; 'I' for Inactive)
REMARK    1  A    between atoms: C2_2  and  N1_3 
REMARK    2  A    between atoms: C4_5  and  C5_6 
REMARK    3  A    between atoms: C5_6  and  N2_7 
REMARK    4  A    between atoms: C11_16  and  C12_17 
REMARK    5  A    between atoms: C12_17  and  C13_18 
REMARK       I    between atoms: C13_18  and  N5_20 
REMARK    6  A    between atoms: N5_20  and  C14_22 
REMARK    7  A    between atoms: C14_22  and  C15_23 
REMARK    8  A    between atoms: N6_24  and  N7_26 
REMARK    9  A    between atoms: C16_31  and  S1_32 
REMARK   10  A    between atoms: S1_32  and  N9_33 
ROOT
HETATM    1  N1  UNL     1       1.144  26.430   2.248  1.00  0.00    -0.355 N 
HETATM    2  C3  UNL     1       2.135  26.714   3.180  1.00  0.00     0.100 A 
HETATM    3  C4  UNL     1       2.623  27.944   3.478  1.00  0.00    -0.024 A 
HETATM    4  C7  UNL     1       2.099  28.984   2.810  1.00  0.00     0.024 A 
HETATM    5  C8  UNL     1       1.120  28.782   1.885  1.00  0.00    -0.007 A 
HETATM    6  C9  UNL     1       0.656  29.861   1.150  1.00  0.00     0.014 A 
HETATM    7  C10 UNL     1      -0.252  29.708   0.181  1.00  0.00     0.014 A 
HETATM    8  C11 UNL     1      -0.756  28.425  -0.093  1.00  0.00    -0.005 A 
HETATM    9  C16 UNL     1      -0.344  27.303   0.614  1.00  0.00     0.117 A 
HETATM   10  C17 UNL     1       0.635  27.491   1.610  1.00  0.00     0.069 A 
ENDROOT
BRANCH   8  11
HETATM   11  C12 UNL     1      -1.611  28.360  -1.253  1.00  0.00     0.087 C 
BRANCH  11  12
HETATM   12  C13 UNL     1      -1.223  28.498  -2.627  1.00  0.00     0.242 C 
HETATM   13  O1  UNL     1      -0.229  27.853  -3.100  1.00  0.00    -0.269 OA
HETATM   14  N5  UNL     1      -1.888  29.353  -3.579  1.00  0.00    -0.353 N 
ATOM     15  H5  UNL     1      -2.709  29.886  -3.291  1.00  0.00     0.163 HD
BRANCH  14  16
HETATM   16  C14 UNL     1      -1.393  29.462  -4.960  1.00  0.00     0.169 C 
BRANCH  16  17
HETATM   17  C15 UNL     1      -2.391  28.798  -5.859  1.00  0.00     0.101 C 
HETATM   18  N6  UNL     1      -2.067  27.694  -6.449  1.00  0.00    -0.300 N 
ATOM     19  H6  UNL     1      -2.743  27.236  -7.061  1.00  0.00     0.187 HD
BRANCH  18  20
HETATM   20  N7  UNL     1      -0.801  27.112  -6.261  1.00  0.00    -0.250 N 
HETATM   21  N8  UNL     1      -0.378  26.098  -6.881  1.00  0.00    -0.331 N 
ATOM     22  H82 UNL     1      -1.013  25.683  -7.563  1.00  0.00     0.178 HD
ATOM     23  H81 UNL     1       0.540  25.677  -6.745  1.00  0.00     0.178 HD
ATOM     24  H7  UNL     1      -0.180  27.541  -5.575  1.00  0.00     0.207 HD
ENDBRANCH  18  20
ENDBRANCH  16  17
ENDBRANCH  14  16
ENDBRANCH  11  12
ENDBRANCH   8  11
BRANCH   9  25
HETATM   25  S1  UNL     1      -1.204  25.834   0.661  1.00  0.00     0.259 S 
HETATM   26  O2  UNL     1      -2.076  25.611   1.966  1.00  0.00    -0.201 OA
HETATM   27  O3  UNL     1      -2.577  26.356   0.112  1.00  0.00    -0.201 OA
BRANCH  25  28
HETATM   28  N9  UNL     1      -1.001  24.562  -0.348  1.00  0.00    -0.324 N 
ATOM     29  H92 UNL     1      -0.045  24.220  -0.444  1.00  0.00     0.169 HD
ATOM     30  H91 UNL     1      -1.734  24.091  -0.880  1.00  0.00     0.169 HD
ENDBRANCH  25  28
ENDBRANCH   9  25
BRANCH   1  31
HETATM   31  C2  UNL     1       0.952  25.095   1.822  1.00  0.00     0.124 C 
HETATM   32  C1  UNL     1       2.233  24.596   1.044  1.00  0.00     0.027 C 
ENDBRANCH   1  31
BRANCH   3  33
HETATM   33  C5  UNL     1       3.677  28.121   4.489  1.00  0.00     0.162 C 
BRANCH  33  34
HETATM   34  N2  UNL     1       3.230  29.162   5.424  1.00  0.00    -0.363 N 
HETATM   35  C6  UNL     1       2.641  28.867   6.528  1.00  0.00     0.197 C 
HETATM   36  N3  UNL     1       2.395  27.541   6.901  1.00  0.00    -0.067 NA
HETATM   37  N4  UNL     1       2.219  29.899   7.411  1.00  0.00    -0.067 NA
ATOM     38  H2  UNL     1       3.391  30.142   5.192  1.00  0.00     0.162 HD
ENDBRANCH  33  34
ENDBRANCH   3  33
TORSDOF 10
ENDMDL
MODEL 3
REMARK VINA RESULT: -8.769206459      2.896      8.034
REMARK  10 active torsions:
REMARK  status: ('A' for Active; 'I' for Inactive)
REMARK    1  A    between atoms: C2_2  and  N1_3 
REMARK    2  A    between atoms: C4_5  and  C5_6 
REMARK    3  A    between atoms: C5_6  and  N2_7 
REMARK    4  A    between atoms: C11_16  and  C12_17 
REMARK    5  A    between atoms: C12_17  and  C13_18 
REMARK       I    between atoms: C13_18  and  N5_20 
REMARK    6  A    between atoms: N5_20  and  C14_22 
REMARK    7  A    between atoms: C14_22  and  C15_23 
REMARK    8  A    between atoms: N6_24  and  N7_26 
REMARK    9  A    between atoms: C16_31  and  S1_32 
REMARK   10  A    between atoms: S1_32  and  N9_33 
ROOT
HETATM    1  N1  UNL     1      -0.092  26.701  -0.177  1.00  0.00    -0.355 N 
HETATM    2  C3  UNL     1      -0.970  26.783  -1.253  1.00  0.00     0.100 A 
HETATM    3  C4  UNL     1      -1.497  27.921  -1.769  1.00  0.00    -0.024 A 
HETATM    4  C7  UNL     1      -1.137  29.076  -1.187  1.00  0.00     0.024 A 
HETATM    5  C8  UNL     1      -0.276  29.073  -0.132  1.00  0.00    -0.007 A 
HETATM    6  C9  UNL     1       0.013  30.271   0.504  1.00  0.00     0.014 A 
HETATM    7  C10 UNL     1       0.794  30.315   1.587  1.00  0.00     0.014 A 
HETATM    8  C11 UNL     1       1.345  29.124   2.089  1.00  0.00    -0.005 A 
HETATM    9  C16 UNL     1       1.106  27.892   1.493  1.00  0.00     0.117 A 
HETATM   10  C17 UNL     1       0.256  27.872   0.370  1.00  0.00     0.069 A 
ENDROOT
BRANCH   8  11
HETATM   11  C12 UNL     1       2.043  29.276   3.342  1.00  0.00     0.087 C 
BRANCH  11  12
HETATM   12  C13 UNL     1       1.510  29.089   4.661  1.00  0.00     0.242 C 
HETATM   13  O1  UNL     1       1.366  27.923   5.156  1.00  0.00    -0.269 OA
HETATM   14  N5  UNL     1       1.092  30.163   5.528  1.00  0.00    -0.353 N 
ATOM     15  H5  UNL     1       1.196  31.131   5.221  1.00  0.00     0.163 HD
BRANCH  14  16
HETATM   16  C14 UNL     1       0.518  29.876   6.852  1.00  0.00     0.169 C 
BRANCH  16  17
HETATM   17  C15 UNL     1      -0.962  29.710   6.684  1.00  0.00     0.101 C 
HETATM   18  N6  UNL     1      -1.487  28.542   6.860  1.00  0.00    -0.300 N 
ATOM     19  H6  UNL     1      -2.494  28.423   6.749  1.00  0.00     0.187 HD
BRANCH  18  20
HETATM   20  N7  UNL     1      -0.695  27.432   7.203  1.00  0.00    -0.250 N 
HETATM   21  N8  UNL     1      -0.707  26.327   6.595  1.00  0.00    -0.331 N 
ATOM     22  H82 UNL     1      -1.342  26.250   5.800  1.00  0.00     0.178 HD
ATOM     23  H81 UNL     1      -0.132  25.522   6.844  1.00  0.00     0.178 HD
ATOM     24  H7  UNL     1      -0.066  27.527   8.000  1.00  0.00     0.207 HD
ENDBRANCH  18  20
ENDBRANCH  16  17
ENDBRANCH  14  16
ENDBRANCH  11  12
ENDBRANCH   8  11
BRANCH   9  25
HETATM   25  S1  UNL     1       2.063  26.507   1.747  1.00  0.00     0.259 S 
HETATM   26  O2  UNL     1       2.882  26.018   0.481  1.00  0.00    -0.201 OA
HETATM   27  O3  UNL     1       3.423  27.223   2.062  1.00  0.00    -0.201 OA
BRANCH  25  28
HETATM   28  N9  UNL     1       2.000  25.513   3.046  1.00  0.00    -0.324 N 
ATOM     29  H92 UNL     1       1.606  24.588   2.877  1.00  0.00     0.169 HD
ATOM     30  H91 UNL     1       2.315  25.735   3.991  1.00  0.00     0.169 HD
ENDBRANCH  25  28
ENDBRANCH   9  25
BRANCH   1  31
HETATM   31  C2  UNL     1       0.133  25.450   0.443  1.00  0.00     0.124 C 
HETATM   32  C1  UNL     1      -0.884  24.385  -0.126  1.00  0.00     0.027 C 
ENDBRANCH   1  31
BRANCH   3  33
HETATM   33  C5  UNL     1      -2.419  27.882  -2.915  1.00  0.00     0.162 C 
BRANCH  33  34
HETATM   34  N2  UNL     1      -2.115  29.034  -3.773  1.00  0.00    -0.363 N 
HETATM   35  C6  UNL     1      -1.312  28.934  -4.772  1.00  0.00     0.197 C 
HETATM   36  N3  UNL     1      -0.685  27.727  -5.098  1.00  0.00    -0.067 NA
HETATM   37  N4  UNL     1      -1.037  30.070  -5.584  1.00  0.00    -0.067 NA
ATOM     38  H2  UNL     1      -2.550  29.933  -3.572  1.00  0.00     0.162 HD
ENDBRANCH  33  34
ENDBRANCH   3  33
TORSDOF 10
ENDMDL
MODEL 4
REMARK VINA RESULT: -8.563688885      2.984      8.196
REMARK  10 active torsions:
REMARK  status: ('A' for Active; 'I' for Inactive)
REMARK    1  A    between atoms: C2_2  and  N1_3 
REMARK    2  A    between atoms: C4_5  and  C5_6 
REMARK    3  A    between atoms: C5_6  and  N2_7 
REMARK    4  A    between atoms: C11_16  and  C12_17 
REMARK    5  A    between atoms: C12_17  and  C13_18 
REMARK       I    between atoms: C13_18  and  N5_20 
REMARK    6  A    between atoms: N5_20  and  C14_22 
REMARK    7  A    between atoms: C14_22  and  C15_23 
REMARK    8  A    between atoms: N6_24  and  N7_26 
REMARK    9  A    between atoms: C16_31  and  S1_32 
REMARK   10  A    between atoms: S1_32  and  N9_33 
ROOT
HETATM    1  N1  UNL     1      -1.651  27.592   1.561  1.00  0.00    -0.355 N 
HETATM    2  C3  UNL     1      -2.044  27.592   0.227  1.00  0.00     0.100 A 
HETATM    3  C4  UNL     1      -1.443  26.914  -0.782  1.00  0.00    -0.024 A 
HETATM    4  C7  UNL     1      -0.369  26.175  -0.463  1.00  0.00     0.024 A 
HETATM    5  C8  UNL     1       0.070  26.122   0.825  1.00  0.00    -0.007 A 
HETATM    6  C9  UNL     1       1.230  25.420   1.113  1.00  0.00     0.014 A 
HETATM    7  C10 UNL     1       1.743  25.396   2.347  1.00  0.00     0.014 A 
HETATM    8  C11 UNL     1       1.089  26.089   3.379  1.00  0.00    -0.005 A 
HETATM    9  C16 UNL     1      -0.083  26.803   3.162  1.00  0.00     0.117 A 
HETATM   10  C17 UNL     1      -0.585  26.834   1.846  1.00  0.00     0.069 A 
ENDROOT
BRANCH   8  11
HETATM   11  C12 UNL     1       1.813  26.117   4.626  1.00  0.00     0.087 C 
BRANCH  11  12
HETATM   12  C13 UNL     1       2.418  27.257   5.255  1.00  0.00     0.242 C 
HETATM   13  O1  UNL     1       3.467  27.797   4.772  1.00  0.00    -0.269 OA
HETATM   14  N5  UNL     1       1.922  27.880   6.457  1.00  0.00    -0.353 N 
ATOM     15  H5  UNL     1       1.071  27.526   6.896  1.00  0.00     0.163 HD
BRANCH  14  16
HETATM   16  C14 UNL     1       2.632  29.021   7.055  1.00  0.00     0.169 C 
BRANCH  16  17
HETATM   17  C15 UNL     1       1.689  30.185   7.082  1.00  0.00     0.101 C 
HETATM   18  N6  UNL     1       1.577  30.927   6.029  1.00  0.00    -0.300 N 
ATOM     19  H6  UNL     1       0.936  31.720   6.040  1.00  0.00     0.187 HD
BRANCH  18  20
HETATM   20  N7  UNL     1       2.324  30.661   4.868  1.00  0.00    -0.250 N 
HETATM   21  N8  UNL     1       1.827  30.411   3.736  1.00  0.00    -0.331 N 
ATOM     22  H82 UNL     1       0.809  30.407   3.676  1.00  0.00     0.178 HD
ATOM     23  H81 UNL     1       2.369  30.218   2.894  1.00  0.00     0.178 HD
ATOM     24  H7  UNL     1       3.341  30.670   4.946  1.00  0.00     0.207 HD
ENDBRANCH  18  20
ENDBRANCH  16  17
ENDBRANCH  14  16
ENDBRANCH  11  12
ENDBRANCH   8  11
BRANCH   9  25
HETATM   25  S1  UNL     1      -1.155  27.277   4.397  1.00  0.00     0.259 S 
HETATM   26  O2  UNL     1      -2.504  26.447   4.466  1.00  0.00    -0.201 OA
HETATM   27  O3  UNL     1      -0.726  26.232   5.485  1.00  0.00    -0.201 OA
BRANCH  25  28
HETATM   28  N9  UNL     1      -1.047  28.636   5.302  1.00  0.00    -0.324 N 
ATOM     29  H92 UNL     1      -1.898  29.195   5.365  1.00  0.00     0.169 HD
ATOM     30  H91 UNL     1      -0.219  28.965   5.798  1.00  0.00     0.169 HD
ENDBRANCH  25  28
ENDBRANCH   9  25
BRANCH   1  31
HETATM   31  C2  UNL     1      -2.172  28.572   2.439  1.00  0.00     0.124 C 
HETATM   32  C1  UNL     1      -2.598  29.850   1.615  1.00  0.00     0.027 C 
ENDBRANCH   1  31
BRANCH   3  33
HETATM   33  C5  UNL     1      -1.952  26.991  -2.160  1.00  0.00     0.162 C 
BRANCH  33  34
HETATM   34  N2  UNL     1      -1.020  27.818  -2.936  1.00  0.00    -0.363 N 
HETATM   35  C6  UNL     1      -1.414  28.504  -3.950  1.00  0.00     0.197 C 
HETATM   36  N3  UNL     1      -2.748  28.502  -4.369  1.00  0.00    -0.067 NA
HETATM   37  N4  UNL     1      -0.485  29.295  -4.681  1.00  0.00    -0.067 NA
ATOM     38  H2  UNL     1      -0.038  27.850  -2.664  1.00  0.00     0.162 HD
ENDBRANCH  33  34
ENDBRANCH   3  33
TORSDOF 10
ENDMDL
MODEL 5
REMARK VINA RESULT: -8.491628624      2.625      3.190
REMARK  10 active torsions:
REMARK  status: ('A' for Active; 'I' for Inactive)
REMARK    1  A    between atoms: C2_2  and  N1_3 
REMARK    2  A    between atoms: C4_5  and  C5_6 
REMARK    3  A    between atoms: C5_6  and  N2_7 
REMARK    4  A    between atoms: C11_16  and  C12_17 
REMARK    5  A    between atoms: C12_17  and  C13_18 
REMARK       I    between atoms: C13_18  and  N5_20 
REMARK    6  A    between atoms: N5_20  and  C14_22 
REMARK    7  A    between atoms: C14_22  and  C15_23 
REMARK    8  A    between atoms: N6_24  and  N7_26 
REMARK    9  A    between atoms: C16_31  and  S1_32 
REMARK   10  A    between atoms: S1_32  and  N9_33 
ROOT
HETATM    1  N1  UNL     1      -0.019  26.821   3.229  1.00  0.00    -0.355 N 
HETATM    2  C3  UNL     1       0.030  27.491   4.446  1.00  0.00     0.100 A 
HETATM    3  C4  UNL     1      -0.095  28.829   4.627  1.00  0.00    -0.024 A 
HETATM    4  C7  UNL     1      -0.283  29.576   3.527  1.00  0.00     0.024 A 
HETATM    5  C8  UNL     1      -0.348  28.988   2.301  1.00  0.00    -0.007 A 
HETATM    6  C9  UNL     1      -0.458  29.789   1.175  1.00  0.00     0.014 A 
HETATM    7  C10 UNL     1      -0.454  29.267  -0.056  1.00  0.00     0.014 A 
HETATM    8  C11 UNL     1      -0.345  27.876  -0.214  1.00  0.00    -0.005 A 
HETATM    9  C16 UNL     1      -0.243  27.015   0.871  1.00  0.00     0.117 A 
HETATM   10  C17 UNL     1      -0.222  27.595   2.155  1.00  0.00     0.069 A 
ENDROOT
BRANCH   8  11
HETATM   11  C12 UNL     1      -0.199  27.445  -1.583  1.00  0.00     0.087 C 
BRANCH  11  12
HETATM   12  C13 UNL     1      -0.985  27.856  -2.712  1.00  0.00     0.242 C 
HETATM   13  O1  UNL     1      -0.487  28.587  -3.631  1.00  0.00    -0.269 OA
HETATM   14  N5  UNL     1      -2.369  27.504  -2.910  1.00  0.00    -0.353 N 
ATOM     15  H5  UNL     1      -2.839  26.902  -2.234  1.00  0.00     0.163 HD
BRANCH  14  16
HETATM   16  C14 UNL     1      -3.108  28.007  -4.079  1.00  0.00     0.169 C 
BRANCH  16  17
HETATM   17  C15 UNL     1      -3.410  26.840  -4.968  1.00  0.00     0.101 C 
HETATM   18  N6  UNL     1      -2.649  26.617  -5.990  1.00  0.00    -0.300 N 
ATOM     19  H6  UNL     1      -2.848  25.823  -6.598  1.00  0.00     0.187 HD
BRANCH  18  20
HETATM   20  N7  UNL     1      -1.552  27.449  -6.277  1.00  0.00    -0.250 N 
HETATM   21  N8  UNL     1      -0.351  27.066  -6.310  1.00  0.00    -0.331 N 
ATOM     22  H82 UNL     1      -0.181  26.080  -6.112  1.00  0.00     0.178 HD
ATOM     23  H81 UNL     1       0.444  27.669  -6.519  1.00  0.00     0.178 HD
ATOM     24  H7  UNL     1      -1.742  28.431  -6.473  1.00  0.00     0.207 HD
ENDBRANCH  18  20
ENDBRANCH  16  17
ENDBRANCH  14  16
ENDBRANCH  11  12
ENDBRANCH   8  11
BRANCH   9  25
HETATM   25  S1  UNL     1      -0.558  25.343   0.797  1.00  0.00     0.259 S 
HETATM   26  O2  UNL     1      -1.955  24.897   1.398  1.00  0.00    -0.201 OA
HETATM   27  O3  UNL     1      -1.386  25.325  -0.535  1.00  0.00    -0.201 OA
BRANCH  25  28
HETATM   28  N9  UNL     1       0.525  24.171   0.432  1.00  0.00    -0.324 N 
ATOM     29  H92 UNL     1       0.423  23.297   0.947  1.00  0.00     0.169 HD
ATOM     30  H91 UNL     1       1.278  24.239  -0.253  1.00  0.00     0.169 HD
ENDBRANCH  25  28
ENDBRANCH   9  25
BRANCH   1  31
HETATM   31  C2  UNL     1       0.426  25.480   3.154  1.00  0.00     0.124 C 
HETATM   32  C1  UNL     1       1.748  25.313   4.002  1.00  0.00     0.027 C 
ENDBRANCH   1  31
BRANCH   3  33
HETATM   33  C5  UNL     1      -0.026  29.426   5.969  1.00  0.00     0.162 C 
BRANCH  33  34
HETATM   34  N2  UNL     1      -1.005  30.519   6.024  1.00  0.00    -0.363 N 
HETATM   35  C6  UNL     1      -2.079  30.424   6.724  1.00  0.00     0.197 C 
HETATM   36  N3  UNL     1      -2.374  29.280   7.472  1.00  0.00    -0.067 NA
HETATM   37  N4  UNL     1      -3.010  31.501   6.755  1.00  0.00    -0.067 NA
ATOM     38  H2  UNL     1      -0.830  31.372   5.495  1.00  0.00     0.162 HD
ENDBRANCH  33  34
ENDBRANCH   3  33
TORSDOF 10
ENDMDL
