MODEL 1
REMARK VINA RESULT: -7.169193496      0.000      0.000
REMARK  6 active torsions:
REMARK  status: ('A' for Active; 'I' for Inactive)
REMARK       I    between atoms: C1_2  and  N1_3 
REMARK    1  A    between atoms: C1_2  and  C15_29 
REMARK    2  A    between atoms: N1_3  and  C2_5 
REMARK    3  A    between atoms: N2_7  and  C4_8 
REMARK    4  A    between atoms: C7_11  and  N3_12 
REMARK       I    between atoms: N3_12  and  C8_14 
REMARK    5  A    between atoms: C8_14  and  C9_16 
REMARK    6  A    between atoms: C17_33  and  C18_34 
ROOT
HETATM    1  C2  UNL     1     -10.483   6.314  -1.651  1.00  0.00     0.304 C 
HETATM    2  C3  UNL     1     -11.518   6.163  -0.582  1.00  0.00     0.178 C 
HETATM    3  N2  UNL     1     -12.725   6.876  -0.929  1.00  0.00    -0.370 N 
HETATM    4  C13 UNL     1     -13.378   6.657  -2.190  1.00  0.00     0.151 C 
HETATM    5  C14 UNL     1     -12.321   6.277  -3.220  1.00  0.00     0.254 C 
HETATM    6  N5  UNL     1     -11.056   6.869  -2.888  1.00  0.00    -0.051 N 
ATOM      7  H51 UNL     1     -10.399   6.793  -3.664  1.00  0.00     0.279 HD
ATOM      8  H52 UNL     1     -11.129   7.885  -2.835  1.00  0.00     0.279 HD
ENDROOT
BRANCH   3   9
HETATM    9  C4  UNL     1     -13.229   7.799   0.069  1.00  0.00     0.074 A 
HETATM   10  C5  UNL     1     -12.505   8.370   1.082  1.00  0.00     0.040 A 
HETATM   11  C6  UNL     1     -13.145   9.201   1.913  1.00  0.00     0.040 A 
HETATM   12  C7  UNL     1     -14.467   9.436   1.702  1.00  0.00     0.078 A 
HETATM   13  S1  UNL     1     -14.782   8.448   0.305  1.00  0.00    -0.055 SA
BRANCH  12  14
HETATM   14  N3  UNL     1     -15.434  10.223   2.410  1.00  0.00    -0.319 N 
HETATM   15  C8  UNL     1     -15.633  11.590   2.133  1.00  0.00     0.253 C 
HETATM   16  O2  UNL     1     -14.961  12.214   1.260  1.00  0.00    -0.271 OA
ATOM     17  H3  UNL     1     -15.995   9.779   3.137  1.00  0.00     0.169 HD
BRANCH  15  18
HETATM   18  C9  UNL     1     -16.641  12.408   2.839  1.00  0.00     0.277 C 
HETATM   19  C10 UNL     1     -16.268  12.694   4.242  1.00  0.00     0.044 C 
HETATM   20  C11 UNL     1     -16.988  14.033   4.454  1.00  0.00     0.030 C 
HETATM   21  C12 UNL     1     -16.633  14.707   3.132  1.00  0.00     0.233 C 
HETATM   22  N4  UNL     1     -16.810  13.668   2.126  1.00  0.00    -0.062 N 
ATOM     23  H42 UNL     1     -16.195  13.769   1.318  1.00  0.00     0.278 HD
ATOM     24  H41 UNL     1     -17.690  13.736   1.615  1.00  0.00     0.278 HD
ENDBRANCH  15  18
ENDBRANCH  12  14
ENDBRANCH   3   9
BRANCH   1  25
HETATM   25  N1  UNL     1      -9.862   5.055  -1.877  1.00  0.00    -0.327 N 
HETATM   26  C1  UNL     1      -8.721   4.834  -2.664  1.00  0.00     0.261 C 
HETATM   27  O1  UNL     1      -8.191   5.794  -3.266  1.00  0.00    -0.267 OA
ATOM     28  H1  UNL     1     -10.283   4.241  -1.429  1.00  0.00     0.165 HD
BRANCH  26  29
HETATM   29  C15 UNL     1      -8.147   3.466  -2.790  1.00  0.00     0.090 A 
HETATM   30  C16 UNL     1      -8.396   2.404  -1.980  1.00  0.00     0.113 A 
HETATM   31  N6  UNL     1      -7.789   1.289  -2.220  1.00  0.00    -0.355 N 
HETATM   32  C17 UNL     1      -6.948   1.213  -3.247  1.00  0.00     0.159 A 
ATOM     33  H6  UNL     1      -7.952   0.475  -1.627  1.00  0.00     0.166 HD
HETATM   34  S2  UNL     1      -7.033   2.803  -3.892  1.00  0.00    -0.061 SA
BRANCH  32  35
HETATM   35  C18 UNL     1      -6.152   0.010  -3.690  1.00  0.00     0.439 C 
HETATM   36  F1  UNL     1      -4.838   0.372  -3.859  1.00  0.00    -0.164 F 
HETATM   37  F2  UNL     1      -6.679  -0.413  -4.877  1.00  0.00    -0.164 F 
HETATM   38  F3  UNL     1      -6.338  -0.951  -2.702  1.00  0.00    -0.164 F 
ENDBRANCH  32  35
ENDBRANCH  26  29
ENDBRANCH   1  25
TORSDOF 6
ENDMDL
MODEL 2
REMARK VINA RESULT: -7.160887590      1.225      1.491
REMARK  6 active torsions:
REMARK  status: ('A' for Active; 'I' for Inactive)
REMARK       I    between atoms: C1_2  and  N1_3 
REMARK    1  A    between atoms: C1_2  and  C15_29 
REMARK    2  A    between atoms: N1_3  and  C2_5 
REMARK    3  A    between atoms: N2_7  and  C4_8 
REMARK    4  A    between atoms: C7_11  and  N3_12 
REMARK       I    between atoms: N3_12  and  C8_14 
REMARK    5  A    between atoms: C8_14  and  C9_16 
REMARK    6  A    between atoms: C17_33  and  C18_34 
ROOT
HETATM    1  C2  UNL     1     -10.567   6.277  -1.236  1.00  0.00     0.304 C 
HETATM    2  C3  UNL     1     -12.039   6.008  -1.206  1.00  0.00     0.178 C 
HETATM    3  N2  UNL     1     -12.774   7.096  -1.806  1.00  0.00    -0.370 N 
HETATM    4  C13 UNL     1     -12.454   7.568  -3.125  1.00  0.00     0.151 C 
HETATM    5  C14 UNL     1     -10.965   7.349  -3.366  1.00  0.00     0.254 C 
HETATM    6  N5  UNL     1     -10.240   7.402  -2.128  1.00  0.00    -0.051 N 
ATOM      7  H51 UNL     1      -9.235   7.460  -2.294  1.00  0.00     0.279 HD
ATOM      8  H52 UNL     1     -10.379   8.296  -1.658  1.00  0.00     0.279 HD
ENDROOT
BRANCH   3   9
HETATM    9  C4  UNL     1     -13.846   7.657  -1.007  1.00  0.00     0.074 A 
HETATM   10  C5  UNL     1     -15.185   7.593  -1.288  1.00  0.00     0.040 A 
HETATM   11  C6  UNL     1     -16.030   8.175  -0.430  1.00  0.00     0.040 A 
HETATM   12  C7  UNL     1     -15.516   8.787   0.670  1.00  0.00     0.078 A 
HETATM   13  S1  UNL     1     -13.809   8.524   0.454  1.00  0.00    -0.055 SA
BRANCH  12  14
HETATM   14  N3  UNL     1     -16.125   9.519   1.741  1.00  0.00    -0.319 N 
HETATM   15  C8  UNL     1     -16.053  10.924   1.823  1.00  0.00     0.253 C 
HETATM   16  O2  UNL     1     -15.431  11.625   0.972  1.00  0.00    -0.271 OA
ATOM     17  H3  UNL     1     -16.626   9.007   2.467  1.00  0.00     0.169 HD
BRANCH  15  18
HETATM   18  C9  UNL     1     -16.694  11.694   2.910  1.00  0.00     0.277 C 
HETATM   19  C10 UNL     1     -15.753  12.605   3.600  1.00  0.00     0.044 C 
HETATM   20  C11 UNL     1     -16.721  13.702   4.066  1.00  0.00     0.030 C 
HETATM   21  C12 UNL     1     -17.553  13.843   2.795  1.00  0.00     0.233 C 
HETATM   22  N4  UNL     1     -17.789  12.476   2.352  1.00  0.00    -0.062 N 
ATOM     23  H42 UNL     1     -17.887  12.383   1.340  1.00  0.00     0.278 HD
ATOM     24  H41 UNL     1     -18.713  12.119   2.594  1.00  0.00     0.278 HD
ENDBRANCH  15  18
ENDBRANCH  12  14
ENDBRANCH   3   9
BRANCH   1  25
HETATM   25  N1  UNL     1      -9.885   5.089  -1.615  1.00  0.00    -0.327 N 
HETATM   26  C1  UNL     1      -8.497   4.959  -1.782  1.00  0.00     0.261 C 
HETATM   27  O1  UNL     1      -7.761   5.959  -1.629  1.00  0.00    -0.267 OA
ATOM     28  H1  UNL     1     -10.453   4.258  -1.780  1.00  0.00     0.165 HD
BRANCH  26  29
HETATM   29  C15 UNL     1      -7.903   3.643  -2.146  1.00  0.00     0.090 A 
HETATM   30  C16 UNL     1      -8.531   2.438  -2.136  1.00  0.00     0.113 A 
HETATM   31  N6  UNL     1      -7.854   1.386  -2.459  1.00  0.00    -0.355 N 
HETATM   32  C17 UNL     1      -6.573   1.513  -2.792  1.00  0.00     0.159 A 
ATOM     33  H6  UNL     1      -8.297   0.468  -2.458  1.00  0.00     0.166 HD
HETATM   34  S2  UNL     1      -6.334   3.207  -2.637  1.00  0.00    -0.061 SA
BRANCH  32  35
HETATM   35  C18 UNL     1      -5.621   0.415  -3.200  1.00  0.00     0.439 C 
HETATM   36  F1  UNL     1      -5.336   0.535  -4.537  1.00  0.00    -0.164 F 
HETATM   37  F2  UNL     1      -6.246  -0.776  -2.958  1.00  0.00    -0.164 F 
HETATM   38  F3  UNL     1      -4.507   0.558  -2.381  1.00  0.00    -0.164 F 
ENDBRANCH  32  35
ENDBRANCH  26  29
ENDBRANCH   1  25
TORSDOF 6
ENDMDL
MODEL 3
REMARK VINA RESULT: -7.021666308      6.965     12.449
REMARK  6 active torsions:
REMARK  status: ('A' for Active; 'I' for Inactive)
REMARK       I    between atoms: C1_2  and  N1_3 
REMARK    1  A    between atoms: C1_2  and  C15_29 
REMARK    2  A    between atoms: N1_3  and  C2_5 
REMARK    3  A    between atoms: N2_7  and  C4_8 
REMARK    4  A    between atoms: C7_11  and  N3_12 
REMARK       I    between atoms: N3_12  and  C8_14 
REMARK    5  A    between atoms: C8_14  and  C9_16 
REMARK    6  A    between atoms: C17_33  and  C18_34 
ROOT
HETATM    1  C2  UNL     1     -15.944   8.458   0.507  1.00  0.00     0.304 C 
HETATM    2  C3  UNL     1     -14.834   8.869  -0.408  1.00  0.00     0.178 C 
HETATM    3  N2  UNL     1     -14.952   8.213  -1.689  1.00  0.00    -0.370 N 
HETATM    4  C13 UNL     1     -16.173   8.277  -2.444  1.00  0.00     0.151 C 
HETATM    5  C14 UNL     1     -17.337   8.391  -1.467  1.00  0.00     0.254 C 
HETATM    6  N5  UNL     1     -17.015   7.757  -0.220  1.00  0.00    -0.051 N 
ATOM      7  H51 UNL     1     -17.846   7.649   0.362  1.00  0.00     0.279 HD
ATOM      8  H52 UNL     1     -16.783   6.774  -0.357  1.00  0.00     0.279 HD
ENDROOT
BRANCH   3   9
HETATM    9  C4  UNL     1     -13.772   7.512  -2.156  1.00  0.00     0.074 A 
HETATM   10  C5  UNL     1     -13.002   7.854  -3.237  1.00  0.00     0.040 A 
HETATM   11  C6  UNL     1     -11.946   7.081  -3.518  1.00  0.00     0.040 A 
HETATM   12  C7  UNL     1     -11.695   6.012  -2.718  1.00  0.00     0.078 A 
HETATM   13  S1  UNL     1     -12.992   6.123  -1.563  1.00  0.00    -0.055 SA
BRANCH  12  14
HETATM   14  N3  UNL     1     -10.694   4.987  -2.761  1.00  0.00    -0.319 N 
HETATM   15  C8  UNL     1      -9.498   5.077  -2.020  1.00  0.00     0.253 C 
HETATM   16  O2  UNL     1      -9.223   6.074  -1.290  1.00  0.00    -0.271 OA
ATOM     17  H3  UNL     1     -10.852   4.166  -3.346  1.00  0.00     0.169 HD
BRANCH  15  18
HETATM   18  C9  UNL     1      -8.468   4.018  -2.038  1.00  0.00     0.277 C 
HETATM   19  C10 UNL     1      -7.204   4.458  -2.671  1.00  0.00     0.044 C 
HETATM   20  C11 UNL     1      -6.198   3.563  -1.932  1.00  0.00     0.030 C 
HETATM   21  C12 UNL     1      -6.749   3.703  -0.516  1.00  0.00     0.233 C 
HETATM   22  N4  UNL     1      -8.194   3.604  -0.668  1.00  0.00    -0.062 N 
ATOM     23  H42 UNL     1      -8.717   4.129   0.033  1.00  0.00     0.278 HD
ATOM     24  H41 UNL     1      -8.569   2.685  -0.434  1.00  0.00     0.278 HD
ENDBRANCH  15  18
ENDBRANCH  12  14
ENDBRANCH   3   9
BRANCH   1  25
HETATM   25  N1  UNL     1     -16.434   9.606   1.188  1.00  0.00    -0.327 N 
HETATM   26  C1  UNL     1     -15.771  10.292   2.218  1.00  0.00     0.261 C 
HETATM   27  O1  UNL     1     -14.666   9.871   2.629  1.00  0.00    -0.267 OA
ATOM     28  H1  UNL     1     -17.346   9.962   0.904  1.00  0.00     0.165 HD
BRANCH  26  29
HETATM   29  C15 UNL     1     -16.379  11.508   2.825  1.00  0.00     0.090 A 
HETATM   30  C16 UNL     1     -17.449  12.201   2.355  1.00  0.00     0.113 A 
HETATM   31  N6  UNL     1     -17.832  13.255   2.997  1.00  0.00    -0.355 N 
HETATM   32  C17 UNL     1     -17.175  13.626   4.091  1.00  0.00     0.159 A 
ATOM     33  H6  UNL     1     -18.630  13.798   2.667  1.00  0.00     0.166 HD
HETATM   34  S2  UNL     1     -15.963  12.414   4.203  1.00  0.00    -0.061 SA
BRANCH  32  35
HETATM   35  C18 UNL     1     -17.467  14.815   4.974  1.00  0.00     0.439 C 
HETATM   36  F1  UNL     1     -16.803  15.914   4.488  1.00  0.00    -0.164 F 
HETATM   37  F2  UNL     1     -17.017  14.511   6.227  1.00  0.00    -0.164 F 
HETATM   38  F3  UNL     1     -18.849  14.957   4.971  1.00  0.00    -0.164 F 
ENDBRANCH  32  35
ENDBRANCH  26  29
ENDBRANCH   1  25
TORSDOF 6
ENDMDL
MODEL 4
REMARK VINA RESULT: -6.953422568      6.462     12.390
REMARK  6 active torsions:
REMARK  status: ('A' for Active; 'I' for Inactive)
REMARK       I    between atoms: C1_2  and  N1_3 
REMARK    1  A    between atoms: C1_2  and  C15_29 
REMARK    2  A    between atoms: N1_3  and  C2_5 
REMARK    3  A    between atoms: N2_7  and  C4_8 
REMARK    4  A    between atoms: C7_11  and  N3_12 
REMARK       I    between atoms: N3_12  and  C8_14 
REMARK    5  A    between atoms: C8_14  and  C9_16 
REMARK    6  A    between atoms: C17_33  and  C18_34 
ROOT
HETATM    1  C2  UNL     1     -13.157   7.921  -0.025  1.00  0.00     0.304 C 
HETATM    2  C3  UNL     1     -11.789   8.411  -0.383  1.00  0.00     0.178 C 
HETATM    3  N2  UNL     1     -11.413   7.967  -1.705  1.00  0.00    -0.370 N 
HETATM    4  C13 UNL     1     -12.263   8.208  -2.837  1.00  0.00     0.151 C 
HETATM    5  C14 UNL     1     -13.709   8.229  -2.358  1.00  0.00     0.254 C 
HETATM    6  N5  UNL     1     -13.870   7.396  -1.201  1.00  0.00    -0.051 N 
ATOM      7  H51 UNL     1     -14.857   7.241  -0.993  1.00  0.00     0.279 HD
ATOM      8  H52 UNL     1     -13.593   6.434  -1.399  1.00  0.00     0.279 HD
ENDROOT
BRANCH   3   9
HETATM    9  C4  UNL     1     -10.136   7.288  -1.808  1.00  0.00     0.074 A 
HETATM   10  C5  UNL     1      -8.901   7.853  -1.630  1.00  0.00     0.040 A 
HETATM   11  C6  UNL     1      -7.829   7.065  -1.769  1.00  0.00     0.040 A 
HETATM   12  C7  UNL     1      -8.025   5.754  -2.070  1.00  0.00     0.078 A 
HETATM   13  S1  UNL     1      -9.761   5.667  -2.158  1.00  0.00    -0.055 SA
BRANCH  12  14
HETATM   14  N3  UNL     1      -7.116   4.673  -2.317  1.00  0.00    -0.319 N 
HETATM   15  C8  UNL     1      -6.892   3.653  -1.372  1.00  0.00     0.253 C 
HETATM   16  O2  UNL     1      -7.459   3.636  -0.240  1.00  0.00    -0.271 OA
ATOM     17  H3  UNL     1      -6.616   4.642  -3.206  1.00  0.00     0.169 HD
BRANCH  15  18
HETATM   18  C9  UNL     1      -5.975   2.521  -1.622  1.00  0.00     0.277 C 
HETATM   19  C10 UNL     1      -5.729   2.290  -3.063  1.00  0.00     0.044 C 
HETATM   20  C11 UNL     1      -4.323   1.675  -3.009  1.00  0.00     0.030 C 
HETATM   21  C12 UNL     1      -3.689   2.616  -1.989  1.00  0.00     0.233 C 
HETATM   22  N4  UNL     1      -4.704   2.787  -0.960  1.00  0.00    -0.062 N 
ATOM     23  H42 UNL     1      -4.667   3.693  -0.491  1.00  0.00     0.278 HD
ATOM     24  H41 UNL     1      -4.547   2.217  -0.129  1.00  0.00     0.278 HD
ENDBRANCH  15  18
ENDBRANCH  12  14
ENDBRANCH   3   9
BRANCH   1  25
HETATM   25  N1  UNL     1     -13.879   8.974   0.602  1.00  0.00    -0.327 N 
HETATM   26  C1  UNL     1     -15.242   8.948   0.932  1.00  0.00     0.261 C 
HETATM   27  O1  UNL     1     -15.931   7.946   0.636  1.00  0.00    -0.267 OA
ATOM     28  H1  UNL     1     -13.360   9.822   0.832  1.00  0.00     0.165 HD
BRANCH  26  29
HETATM   29  C15 UNL     1     -15.871  10.108   1.624  1.00  0.00     0.090 A 
HETATM   30  C16 UNL     1     -16.897  10.869   1.161  1.00  0.00     0.113 A 
HETATM   31  N6  UNL     1     -17.305  11.860   1.883  1.00  0.00    -0.355 N 
HETATM   32  C17 UNL     1     -16.716  12.100   3.051  1.00  0.00     0.159 A 
ATOM     33  H6  UNL     1     -18.071  12.451   1.561  1.00  0.00     0.166 HD
HETATM   34  S2  UNL     1     -15.533  10.856   3.113  1.00  0.00    -0.061 SA
BRANCH  32  35
HETATM   35  C18 UNL     1     -17.048  13.197   4.033  1.00  0.00     0.439 C 
HETATM   36  F1  UNL     1     -18.403  13.217   4.251  1.00  0.00    -0.164 F 
HETATM   37  F2  UNL     1     -16.645  14.378   3.476  1.00  0.00    -0.164 F 
HETATM   38  F3  UNL     1     -16.307  12.917   5.175  1.00  0.00    -0.164 F 
ENDBRANCH  32  35
ENDBRANCH  26  29
ENDBRANCH   1  25
TORSDOF 6
ENDMDL
MODEL 5
REMARK VINA RESULT: -6.950725246      6.897     12.656
REMARK  6 active torsions:
REMARK  status: ('A' for Active; 'I' for Inactive)
REMARK       I    between atoms: C1_2  and  N1_3 
REMARK    1  A    between atoms: C1_2  and  C15_29 
REMARK    2  A    between atoms: N1_3  and  C2_5 
REMARK    3  A    between atoms: N2_7  and  C4_8 
REMARK    4  A    between atoms: C7_11  and  N3_12 
REMARK       I    between atoms: N3_12  and  C8_14 
REMARK    5  A    between atoms: C8_14  and  C9_16 
REMARK    6  A    between atoms: C17_33  and  C18_34 
ROOT
HETATM    1  C2  UNL     1     -14.877   8.987   0.109  1.00  0.00     0.304 C 
HETATM    2  C3  UNL     1     -13.400   8.828  -0.063  1.00  0.00     0.178 C 
HETATM    3  N2  UNL     1     -13.048   8.766  -1.463  1.00  0.00    -0.370 N 
HETATM    4  C13 UNL     1     -13.478   9.784  -2.380  1.00  0.00     0.151 C 
HETATM    5  C14 UNL     1     -14.808  10.343  -1.891  1.00  0.00     0.254 C 
HETATM    6  N5  UNL     1     -15.536   9.346  -1.158  1.00  0.00    -0.051 N 
ATOM      7  H51 UNL     1     -16.501   9.637  -1.001  1.00  0.00     0.279 HD
ATOM      8  H52 UNL     1     -15.706   8.520  -1.730  1.00  0.00     0.279 HD
ENDROOT
BRANCH   3   9
HETATM    9  C4  UNL     1     -12.235   7.634  -1.864  1.00  0.00     0.074 A 
HETATM   10  C5  UNL     1     -11.932   7.270  -3.150  1.00  0.00     0.040 A 
HETATM   11  C6  UNL     1     -11.165   6.188  -3.327  1.00  0.00     0.040 A 
HETATM   12  C7  UNL     1     -10.727   5.519  -2.228  1.00  0.00     0.078 A 
HETATM   13  S1  UNL     1     -11.432   6.455  -0.941  1.00  0.00    -0.055 SA
BRANCH  12  14
HETATM   14  N3  UNL     1      -9.941   4.332  -2.070  1.00  0.00    -0.319 N 
HETATM   15  C8  UNL     1      -8.572   4.379  -1.740  1.00  0.00     0.253 C 
HETATM   16  O2  UNL     1      -7.946   5.468  -1.584  1.00  0.00    -0.271 OA
ATOM     17  H3  UNL     1     -10.386   3.423  -2.201  1.00  0.00     0.169 HD
BRANCH  15  18
HETATM   18  C9  UNL     1      -7.754   3.162  -1.552  1.00  0.00     0.277 C 
HETATM   19  C10 UNL     1      -7.412   2.498  -2.830  1.00  0.00     0.044 C 
HETATM   20  C11 UNL     1      -6.083   1.830  -2.448  1.00  0.00     0.030 C 
HETATM   21  C12 UNL     1      -5.447   2.984  -1.680  1.00  0.00     0.233 C 
HETATM   22  N4  UNL     1      -6.523   3.523  -0.860  1.00  0.00    -0.062 N 
ATOM     23  H42 UNL     1      -6.435   4.522  -0.671  1.00  0.00     0.278 HD
ATOM     24  H41 UNL     1      -6.493   3.215   0.111  1.00  0.00     0.278 HD
ENDBRANCH  15  18
ENDBRANCH  12  14
ENDBRANCH   3   9
BRANCH   1  25
HETATM   25  N1  UNL     1     -15.126   9.951   1.124  1.00  0.00    -0.327 N 
HETATM   26  C1  UNL     1     -16.377  10.506   1.437  1.00  0.00     0.261 C 
HETATM   27  O1  UNL     1     -17.382  10.180   0.768  1.00  0.00    -0.267 OA
ATOM     28  H1  UNL     1     -14.326  10.267   1.672  1.00  0.00     0.165 HD
BRANCH  26  29
HETATM   29  C15 UNL     1     -16.508  11.484   2.553  1.00  0.00     0.090 A 
HETATM   30  C16 UNL     1     -15.695  11.593   3.636  1.00  0.00     0.113 A 
HETATM   31  N6  UNL     1     -15.971  12.486   4.528  1.00  0.00    -0.355 N 
HETATM   32  C17 UNL     1     -17.032  13.268   4.359  1.00  0.00     0.159 A 
ATOM     33  H6  UNL     1     -15.380  12.590   5.353  1.00  0.00     0.166 HD
HETATM   34  S2  UNL     1     -17.656  12.700   2.863  1.00  0.00    -0.061 SA
BRANCH  32  35
HETATM   35  C18 UNL     1     -17.516  14.364   5.278  1.00  0.00     0.439 C 
HETATM   36  F1  UNL     1     -18.875  14.502   5.142  1.00  0.00    -0.164 F 
HETATM   37  F2  UNL     1     -16.887  15.517   4.904  1.00  0.00    -0.164 F 
HETATM   38  F3  UNL     1     -17.123  13.985   6.556  1.00  0.00    -0.164 F 
ENDBRANCH  32  35
ENDBRANCH  26  29
ENDBRANCH   1  25
TORSDOF 6
ENDMDL
