MODEL 1
REMARK VINA RESULT: -6.778047239      0.000      0.000
REMARK  10 active torsions:
REMARK  status: ('A' for Active; 'I' for Inactive)
REMARK    1  A    between atoms: C2_2  and  C3_3 
REMARK    2  A    between atoms: C3_3  and  C4_4 
REMARK    3  A    between atoms: C4_4  and  C6_6 
REMARK    4  A    between atoms: C6_6  and  C7_7 
REMARK    5  A    between atoms: C7_7  and  N1_8 
REMARK    6  A    between atoms: N2_11  and  C10_12 
REMARK    7  A    between atoms: C10_12  and  C11_13 
REMARK    8  A    between atoms: C11_13  and  C12_14 
REMARK    9  A    between atoms: C12_14  and  C13_15 
REMARK   10  A    between atoms: C13_15  and  C14_16 
ROOT
HETATM    1  N1  UNL     1     -19.521 -39.841 -24.176  1.00  0.00    -0.363 N 
HETATM    2  C8  UNL     1     -19.412 -41.159 -24.423  1.00  0.00     0.107 A 
HETATM    3  C9  UNL     1     -18.219 -41.738 -24.804  1.00  0.00     0.107 A 
HETATM    4  N2  UNL     1     -17.103 -41.002 -24.944  1.00  0.00    -0.364 N 
HETATM    5  C16 UNL     1     -17.207 -39.685 -24.697  1.00  0.00     0.107 A 
HETATM    6  C17 UNL     1     -18.401 -39.109 -24.317  1.00  0.00     0.107 A 
ENDROOT
BRANCH   1   7
HETATM    7  C7  UNL     1     -20.794 -39.230 -23.771  1.00  0.00     0.132 C 
BRANCH   7   8
HETATM    8  C6  UNL     1     -21.672 -38.989 -24.951  1.00  0.00     0.058 C 
BRANCH   8   9
HETATM    9  C4  UNL     1     -21.418 -37.571 -25.451  1.00  0.00    -0.066 C 
HETATM   10  C5  UNL     1     -21.759 -36.639 -24.593  1.00  0.00     0.019 C 
BRANCH   9  11
HETATM   11  C3  UNL     1     -20.862 -37.491 -26.781  1.00  0.00     0.005 C 
BRANCH  11  12
HETATM   12  C2  UNL     1     -21.243 -38.329 -27.878  1.00  0.00    -0.010 C 
HETATM   13  C1  UNL     1     -21.818 -38.176 -29.025  1.00  0.00     0.011 C 
ENDBRANCH  11  12
ENDBRANCH   9  11
ENDBRANCH   8   9
ENDBRANCH   7   8
ENDBRANCH   1   7
BRANCH   4  14
HETATM   14  C10 UNL     1     -15.836 -41.609 -25.346  1.00  0.00     0.128 C 
BRANCH  14  15
HETATM   15  C11 UNL     1     -15.130 -42.233 -24.150  1.00  0.00     0.020 C 
BRANCH  15  16
HETATM   16  C12 UNL     1     -14.019 -41.292 -23.748  1.00  0.00     0.002 C 
BRANCH  16  17
HETATM   17  C13 UNL     1     -14.344 -40.623 -22.459  1.00  0.00    -0.000 C 
BRANCH  17  18
HETATM   18  C14 UNL     1     -13.609 -39.332 -22.333  1.00  0.00    -0.005 C 
HETATM   19  C15 UNL     1     -13.829 -38.575 -23.651  1.00  0.00     0.005 C 
ENDBRANCH  17  18
ENDBRANCH  16  17
ENDBRANCH  15  16
ENDBRANCH  14  15
ENDBRANCH   4  14
TORSDOF 10
ENDMDL
MODEL 2
REMARK VINA RESULT: -6.759197764      1.241      2.434
REMARK  10 active torsions:
REMARK  status: ('A' for Active; 'I' for Inactive)
REMARK    1  A    between atoms: C2_2  and  C3_3 
REMARK    2  A    between atoms: C3_3  and  C4_4 
REMARK    3  A    between atoms: C4_4  and  C6_6 
REMARK    4  A    between atoms: C6_6  and  C7_7 
REMARK    5  A    between atoms: C7_7  and  N1_8 
REMARK    6  A    between atoms: N2_11  and  C10_12 
REMARK    7  A    between atoms: C10_12  and  C11_13 
REMARK    8  A    between atoms: C11_13  and  C12_14 
REMARK    9  A    between atoms: C12_14  and  C13_15 
REMARK   10  A    between atoms: C13_15  and  C14_16 
ROOT
HETATM    1  N1  UNL     1     -19.099 -39.085 -25.627  1.00  0.00    -0.363 N 
HETATM    2  C8  UNL     1     -19.037 -40.383 -25.978  1.00  0.00     0.107 A 
HETATM    3  C9  UNL     1     -18.103 -41.245 -25.439  1.00  0.00     0.107 A 
HETATM    4  N2  UNL     1     -17.207 -40.820 -24.532  1.00  0.00    -0.364 N 
HETATM    5  C16 UNL     1     -17.266 -39.524 -24.178  1.00  0.00     0.107 A 
HETATM    6  C17 UNL     1     -18.200 -38.665 -24.719  1.00  0.00     0.107 A 
ENDROOT
BRANCH   1   7
HETATM    7  C7  UNL     1     -20.094 -38.172 -26.204  1.00  0.00     0.132 C 
BRANCH   7   8
HETATM    8  C6  UNL     1     -21.480 -38.610 -25.871  1.00  0.00     0.058 C 
BRANCH   8   9
HETATM    9  C4  UNL     1     -21.838 -38.050 -24.498  1.00  0.00    -0.066 C 
HETATM   10  C5  UNL     1     -21.707 -36.748 -24.406  1.00  0.00     0.019 C 
BRANCH   9  11
HETATM   11  C3  UNL     1     -22.245 -39.042 -23.530  1.00  0.00     0.005 C 
BRANCH  11  12
HETATM   12  C2  UNL     1     -21.475 -40.193 -23.166  1.00  0.00    -0.010 C 
HETATM   13  C1  UNL     1     -20.481 -40.453 -22.382  1.00  0.00     0.011 C 
ENDBRANCH  11  12
ENDBRANCH   9  11
ENDBRANCH   8   9
ENDBRANCH   7   8
ENDBRANCH   1   7
BRANCH   4  14
HETATM   14  C10 UNL     1     -16.217 -41.727 -23.957  1.00  0.00     0.128 C 
BRANCH  14  15
HETATM   15  C11 UNL     1     -15.011 -41.867 -24.877  1.00  0.00     0.020 C 
BRANCH  15  16
HETATM   16  C12 UNL     1     -13.812 -41.344 -24.121  1.00  0.00     0.002 C 
BRANCH  16  17
HETATM   17  C13 UNL     1     -14.212 -40.894 -22.760  1.00  0.00    -0.000 C 
BRANCH  17  18
HETATM   18  C14 UNL     1     -13.459 -39.668 -22.366  1.00  0.00    -0.005 C 
HETATM   19  C15 UNL     1     -13.851 -38.576 -23.371  1.00  0.00     0.005 C 
ENDBRANCH  17  18
ENDBRANCH  16  17
ENDBRANCH  15  16
ENDBRANCH  14  15
ENDBRANCH   4  14
TORSDOF 10
ENDMDL
MODEL 3
REMARK VINA RESULT: -6.748053118      1.373      2.977
REMARK  10 active torsions:
REMARK  status: ('A' for Active; 'I' for Inactive)
REMARK    1  A    between atoms: C2_2  and  C3_3 
REMARK    2  A    between atoms: C3_3  and  C4_4 
REMARK    3  A    between atoms: C4_4  and  C6_6 
REMARK    4  A    between atoms: C6_6  and  C7_7 
REMARK    5  A    between atoms: C7_7  and  N1_8 
REMARK    6  A    between atoms: N2_11  and  C10_12 
REMARK    7  A    between atoms: C10_12  and  C11_13 
REMARK    8  A    between atoms: C11_13  and  C12_14 
REMARK    9  A    between atoms: C12_14  and  C13_15 
REMARK   10  A    between atoms: C13_15  and  C14_16 
ROOT
HETATM    1  N1  UNL     1     -19.451 -39.434 -25.526  1.00  0.00    -0.363 N 
HETATM    2  C8  UNL     1     -18.406 -39.033 -24.779  1.00  0.00     0.107 A 
HETATM    3  C9  UNL     1     -17.225 -39.746 -24.727  1.00  0.00     0.107 A 
HETATM    4  N2  UNL     1     -17.068 -40.882 -25.428  1.00  0.00    -0.364 N 
HETATM    5  C16 UNL     1     -18.110 -41.286 -26.176  1.00  0.00     0.107 A 
HETATM    6  C17 UNL     1     -19.289 -40.571 -26.225  1.00  0.00     0.107 A 
ENDROOT
BRANCH   1   7
HETATM    7  C7  UNL     1     -20.706 -38.671 -25.578  1.00  0.00     0.132 C 
BRANCH   7   8
HETATM    8  C6  UNL     1     -21.797 -39.385 -24.857  1.00  0.00     0.058 C 
BRANCH   8   9
HETATM    9  C4  UNL     1     -22.151 -38.579 -23.611  1.00  0.00    -0.066 C 
HETATM   10  C5  UNL     1     -21.947 -37.290 -23.740  1.00  0.00     0.019 C 
BRANCH   9  11
HETATM   11  C3  UNL     1     -22.636 -39.365 -22.501  1.00  0.00     0.005 C 
BRANCH  11  12
HETATM   12  C2  UNL     1     -21.806 -39.956 -21.494  1.00  0.00    -0.010 C 
HETATM   13  C1  UNL     1     -20.644 -40.517 -21.441  1.00  0.00     0.011 C 
ENDBRANCH  11  12
ENDBRANCH   9  11
ENDBRANCH   8   9
ENDBRANCH   7   8
ENDBRANCH   1   7
BRANCH   4  14
HETATM   14  C10 UNL     1     -15.821 -41.641 -25.377  1.00  0.00     0.128 C 
BRANCH  14  15
HETATM   15  C11 UNL     1     -15.532 -42.116 -23.960  1.00  0.00     0.020 C 
BRANCH  15  16
HETATM   16  C12 UNL     1     -14.222 -41.493 -23.540  1.00  0.00     0.002 C 
BRANCH  16  17
HETATM   17  C13 UNL     1     -14.430 -40.567 -22.393  1.00  0.00    -0.000 C 
BRANCH  17  18
HETATM   18  C14 UNL     1     -13.445 -39.448 -22.430  1.00  0.00    -0.005 C 
HETATM   19  C15 UNL     1     -13.829 -38.571 -23.630  1.00  0.00     0.005 C 
ENDBRANCH  17  18
ENDBRANCH  16  17
ENDBRANCH  15  16
ENDBRANCH  14  15
ENDBRANCH   4  14
TORSDOF 10
ENDMDL
MODEL 4
REMARK VINA RESULT: -6.646761185      1.599      2.711
REMARK  10 active torsions:
REMARK  status: ('A' for Active; 'I' for Inactive)
REMARK    1  A    between atoms: C2_2  and  C3_3 
REMARK    2  A    between atoms: C3_3  and  C4_4 
REMARK    3  A    between atoms: C4_4  and  C6_6 
REMARK    4  A    between atoms: C6_6  and  C7_7 
REMARK    5  A    between atoms: C7_7  and  N1_8 
REMARK    6  A    between atoms: N2_11  and  C10_12 
REMARK    7  A    between atoms: C10_12  and  C11_13 
REMARK    8  A    between atoms: C11_13  and  C12_14 
REMARK    9  A    between atoms: C12_14  and  C13_15 
REMARK   10  A    between atoms: C13_15  and  C14_16 
ROOT
HETATM    1  N1  UNL     1     -19.655 -41.448 -22.986  1.00  0.00    -0.363 N 
HETATM    2  C8  UNL     1     -18.959 -40.315 -23.194  1.00  0.00     0.107 A 
HETATM    3  C9  UNL     1     -17.770 -40.302 -23.895  1.00  0.00     0.107 A 
HETATM    4  N2  UNL     1     -17.252 -41.433 -24.406  1.00  0.00    -0.364 N 
HETATM    5  C16 UNL     1     -17.945 -42.567 -24.202  1.00  0.00     0.107 A 
HETATM    6  C17 UNL     1     -19.133 -42.576 -23.500  1.00  0.00     0.107 A 
ENDROOT
BRANCH   1   7
HETATM    7  C7  UNL     1     -20.920 -41.456 -22.239  1.00  0.00     0.132 C 
BRANCH   7   8
HETATM    8  C6  UNL     1     -21.187 -40.125 -21.623  1.00  0.00     0.058 C 
BRANCH   8   9
HETATM    9  C4  UNL     1     -22.510 -39.603 -22.175  1.00  0.00    -0.066 C 
HETATM   10  C5  UNL     1     -23.543 -40.350 -21.866  1.00  0.00     0.019 C 
BRANCH   9  11
HETATM   11  C3  UNL     1     -22.404 -38.390 -22.950  1.00  0.00     0.005 C 
BRANCH  11  12
HETATM   12  C2  UNL     1     -21.881 -38.315 -24.281  1.00  0.00    -0.010 C 
HETATM   13  C1  UNL     1     -21.630 -39.139 -25.244  1.00  0.00     0.011 C 
ENDBRANCH  11  12
ENDBRANCH   9  11
ENDBRANCH   8   9
ENDBRANCH   7   8
ENDBRANCH   1   7
BRANCH   4  14
HETATM   14  C10 UNL     1     -15.995 -41.426 -25.149  1.00  0.00     0.128 C 
BRANCH  14  15
HETATM   15  C11 UNL     1     -14.943 -42.270 -24.443  1.00  0.00     0.020 C 
BRANCH  15  16
HETATM   16  C12 UNL     1     -13.878 -41.324 -23.940  1.00  0.00     0.002 C 
BRANCH  16  17
HETATM   17  C13 UNL     1     -14.273 -40.749 -22.625  1.00  0.00    -0.000 C 
BRANCH  17  18
HETATM   18  C14 UNL     1     -13.516 -39.495 -22.347  1.00  0.00    -0.005 C 
HETATM   19  C15 UNL     1     -13.924 -38.490 -23.433  1.00  0.00     0.005 C 
ENDBRANCH  17  18
ENDBRANCH  16  17
ENDBRANCH  15  16
ENDBRANCH  14  15
ENDBRANCH   4  14
TORSDOF 10
ENDMDL
MODEL 5
REMARK VINA RESULT: -6.622585734      2.460      4.072
REMARK  10 active torsions:
REMARK  status: ('A' for Active; 'I' for Inactive)
REMARK    1  A    between atoms: C2_2  and  C3_3 
REMARK    2  A    between atoms: C3_3  and  C4_4 
REMARK    3  A    between atoms: C4_4  and  C6_6 
REMARK    4  A    between atoms: C6_6  and  C7_7 
REMARK    5  A    between atoms: C7_7  and  N1_8 
REMARK    6  A    between atoms: N2_11  and  C10_12 
REMARK    7  A    between atoms: C10_12  and  C11_13 
REMARK    8  A    between atoms: C11_13  and  C12_14 
REMARK    9  A    between atoms: C12_14  and  C13_15 
REMARK   10  A    between atoms: C13_15  and  C14_16 
ROOT
HETATM    1  N1  UNL     1     -20.630 -40.723 -23.969  1.00  0.00    -0.363 N 
HETATM    2  C8  UNL     1     -20.216 -41.463 -25.014  1.00  0.00     0.107 A 
HETATM    3  C9  UNL     1     -18.880 -41.599 -25.334  1.00  0.00     0.107 A 
HETATM    4  N2  UNL     1     -17.926 -40.990 -24.608  1.00  0.00    -0.364 N 
HETATM    5  C16 UNL     1     -18.335 -40.251 -23.563  1.00  0.00     0.107 A 
HETATM    6  C17 UNL     1     -19.671 -40.117 -23.245  1.00  0.00     0.107 A 
ENDROOT
BRANCH   1   7
HETATM    7  C7  UNL     1     -22.053 -40.582 -23.632  1.00  0.00     0.132 C 
BRANCH   7   8
HETATM    8  C6  UNL     1     -22.693 -41.915 -23.442  1.00  0.00     0.058 C 
BRANCH   8   9
HETATM    9  C4  UNL     1     -22.942 -42.114 -21.951  1.00  0.00    -0.066 C 
HETATM   10  C5  UNL     1     -23.821 -41.282 -21.446  1.00  0.00     0.019 C 
BRANCH   9  11
HETATM   11  C3  UNL     1     -22.166 -43.170 -21.345  1.00  0.00     0.005 C 
BRANCH  11  12
HETATM   12  C2  UNL     1     -20.734 -43.221 -21.322  1.00  0.00    -0.010 C 
HETATM   13  C1  UNL     1     -19.801 -43.798 -22.003  1.00  0.00     0.011 C 
ENDBRANCH  11  12
ENDBRANCH   9  11
ENDBRANCH   8   9
ENDBRANCH   7   8
ENDBRANCH   1   7
BRANCH   4  14
HETATM   14  C10 UNL     1     -16.511 -41.130 -24.942  1.00  0.00     0.128 C 
BRANCH  14  15
HETATM   15  C11 UNL     1     -15.824 -42.105 -23.995  1.00  0.00     0.020 C 
BRANCH  15  16
HETATM   16  C12 UNL     1     -14.451 -41.549 -23.702  1.00  0.00     0.002 C 
BRANCH  16  17
HETATM   17  C13 UNL     1     -14.491 -40.668 -22.502  1.00  0.00    -0.000 C 
BRANCH  17  18
HETATM   18  C14 UNL     1     -13.387 -39.667 -22.544  1.00  0.00    -0.005 C 
HETATM   19  C15 UNL     1     -13.838 -38.563 -23.512  1.00  0.00     0.005 C 
ENDBRANCH  17  18
ENDBRANCH  16  17
ENDBRANCH  15  16
ENDBRANCH  14  15
ENDBRANCH   4  14
TORSDOF 10
ENDMDL
