MODEL 1
REMARK VINA RESULT: -8.746107586      0.000      0.000
REMARK  10 active torsions:
REMARK  status: ('A' for Active; 'I' for Inactive)
REMARK    1  A    between atoms: C2_5  and  N3_6 
REMARK    2  A    between atoms: N3_6  and  C3_8 
REMARK    3  A    between atoms: C4_10  and  O2_11 
REMARK    4  A    between atoms: C4_10  and  C5_13 
REMARK    5  A    between atoms: C5_13  and  O3_14 
REMARK    6  A    between atoms: C6_16  and  O4_17 
REMARK    7  A    between atoms: C6_16  and  C7_19 
REMARK    8  A    between atoms: C7_19  and  O5_20 
REMARK    9  A    between atoms: C8_22  and  O6_23 
REMARK   10  A    between atoms: C11_30  and  N5_31 
ROOT
HETATM    1  N3  UNL     1     132.140  10.541  72.318  1.00  0.00    -0.346 N 
ATOM      2  H3  UNL     1     131.334  11.022  72.717  1.00  0.00     0.163 HD
ENDROOT
BRANCH   1   3
HETATM    3  C2  UNL     1     132.724  11.455  71.772  1.00  0.00     0.138 A 
HETATM    4  N2  UNL     1     132.286  12.068  70.608  1.00  0.00    -0.281 N 
HETATM    5  N1  UNL     1     133.162  12.988  70.334  1.00  0.00    -0.278 N 
ATOM      6  H2  UNL     1     131.447  11.842  70.074  1.00  0.00     0.189 HD
HETATM    7  C1  UNL     1     133.070  13.877  69.167  1.00  0.00     0.179 C 
HETATM    8  C12 UNL     1     134.161  13.066  71.203  1.00  0.00     0.157 A 
HETATM    9  C9  UNL     1     133.909  12.091  72.143  1.00  0.00     0.123 A 
HETATM   10  N6  UNL     1     135.269  13.843  71.326  1.00  0.00    -0.174 N 
HETATM   11  C10 UNL     1     134.821  11.973  73.164  1.00  0.00     0.277 A 
HETATM   12  O7  UNL     1     134.633  11.105  74.036  1.00  0.00    -0.266 OA
HETATM   13  N4  UNL     1     135.924  12.772  73.257  1.00  0.00    -0.155 N 
HETATM   14  C11 UNL     1     136.145  13.714  72.329  1.00  0.00     0.680 A 
ATOM     15  H4  UNL     1     136.577  12.653  74.032  1.00  0.00     0.187 HD
ATOM     16  H6  UNL     1     135.440  14.560  70.621  1.00  0.00     0.186 HD
BRANCH  14  17
HETATM   17  N5  UNL     1     137.198  14.468  72.427  1.00  0.00    -0.234 N 
ATOM     18  H52 UNL     1     137.584  14.965  71.625  1.00  0.00     0.174 HD
ATOM     19  H51 UNL     1     137.656  14.570  73.332  1.00  0.00     0.174 HD
ENDBRANCH  14  17
ENDBRANCH   1   3
BRANCH   1  20
HETATM   20  C3  UNL     1     131.921   9.269  72.711  1.00  0.00     0.258 C 
HETATM   21  O1  UNL     1     130.739   8.742  72.170  1.00  0.00    -0.323 OA
HETATM   22  C4  UNL     1     130.477   7.583  72.899  1.00  0.00     0.222 C 
HETATM   23  C6  UNL     1     130.797   7.866  74.318  1.00  0.00     0.167 C 
HETATM   24  C8  UNL     1     131.688   9.093  74.225  1.00  0.00     0.209 C 
BRANCH  22  25
HETATM   25  O2  UNL     1     129.117   7.310  72.765  1.00  0.00    -0.361 OA
ATOM     26  H2  UNL     1     129.029   6.631  72.107  1.00  0.00     0.213 HD
ENDBRANCH  22  25
BRANCH  22  27
HETATM   27  C5  UNL     1     131.238   6.436  72.286  1.00  0.00     0.236 C 
BRANCH  27  28
HETATM   28  O3  UNL     1     130.266   5.504  71.853  1.00  0.00    -0.395 OA
ATOM     29  H3  UNL     1     130.573   4.650  72.135  1.00  0.00     0.209 HD
ENDBRANCH  27  28
ENDBRANCH  22  27
BRANCH  23  30
HETATM   30  O4  UNL     1     129.628   8.189  75.048  1.00  0.00    -0.379 OA
ATOM     31  H4  UNL     1     129.555   7.654  75.830  1.00  0.00     0.211 HD
ENDBRANCH  23  30
BRANCH  23  32
HETATM   32  C7  UNL     1     131.475   6.770  75.073  1.00  0.00     0.210 C 
BRANCH  32  33
HETATM   33  O5  UNL     1     131.910   7.221  76.296  1.00  0.00    -0.398 OA
ATOM     34  H5  UNL     1     132.023   6.496  76.899  1.00  0.00     0.209 HD
ENDBRANCH  32  33
ENDBRANCH  23  32
BRANCH  24  35
HETATM   35  O6  UNL     1     131.004  10.176  74.719  1.00  0.00    -0.388 OA
ATOM     36  H6  UNL     1     130.119   9.920  74.947  1.00  0.00     0.210 HD
ENDBRANCH  24  35
ENDBRANCH   1  20
TORSDOF 10
ENDMDL
MODEL 2
REMARK VINA RESULT: -8.611275296      2.672      4.171
REMARK  10 active torsions:
REMARK  status: ('A' for Active; 'I' for Inactive)
REMARK    1  A    between atoms: C2_5  and  N3_6 
REMARK    2  A    between atoms: N3_6  and  C3_8 
REMARK    3  A    between atoms: C4_10  and  O2_11 
REMARK    4  A    between atoms: C4_10  and  C5_13 
REMARK    5  A    between atoms: C5_13  and  O3_14 
REMARK    6  A    between atoms: C6_16  and  O4_17 
REMARK    7  A    between atoms: C6_16  and  C7_19 
REMARK    8  A    between atoms: C7_19  and  O5_20 
REMARK    9  A    between atoms: C8_22  and  O6_23 
REMARK   10  A    between atoms: C11_30  and  N5_31 
ROOT
HETATM    1  N3  UNL     1     133.066   8.451  72.273  1.00  0.00    -0.346 N 
ATOM      2  H3  UNL     1     132.198   8.744  71.826  1.00  0.00     0.163 HD
ENDROOT
BRANCH   1   3
HETATM    3  C2  UNL     1     133.779   9.415  72.080  1.00  0.00     0.138 A 
HETATM    4  N2  UNL     1     135.099   9.496  72.496  1.00  0.00    -0.281 N 
HETATM    5  N1  UNL     1     135.526  10.663  72.114  1.00  0.00    -0.278 N 
ATOM      6  H2  UNL     1     135.628   8.785  73.000  1.00  0.00     0.189 HD
HETATM    7  C1  UNL     1     136.890  11.152  72.360  1.00  0.00     0.179 C 
HETATM    8  C12 UNL     1     134.621  11.391  71.472  1.00  0.00     0.157 A 
HETATM    9  C9  UNL     1     133.483  10.614  71.433  1.00  0.00     0.123 A 
HETATM   10  N6  UNL     1     134.607  12.626  70.907  1.00  0.00    -0.174 N 
HETATM   11  C10 UNL     1     132.388  11.162  70.809  1.00  0.00     0.277 A 
HETATM   12  O7  UNL     1     131.338  10.496  70.751  1.00  0.00    -0.266 OA
HETATM   13  N4  UNL     1     132.410  12.407  70.251  1.00  0.00    -0.155 N 
HETATM   14  C11 UNL     1     133.531  13.141  70.302  1.00  0.00     0.680 A 
ATOM     15  H4  UNL     1     131.576  12.778  69.796  1.00  0.00     0.187 HD
ATOM     16  H6  UNL     1     135.458  13.187  70.945  1.00  0.00     0.186 HD
BRANCH  14  17
HETATM   17  N5  UNL     1     133.540  14.326  69.768  1.00  0.00    -0.234 N 
ATOM     18  H52 UNL     1     134.174  15.058  70.086  1.00  0.00     0.174 HD
ATOM     19  H51 UNL     1     132.895  14.535  69.007  1.00  0.00     0.174 HD
ENDBRANCH  14  17
ENDBRANCH   1   3
BRANCH   1  20
HETATM   20  C3  UNL     1     132.738   7.223  72.727  1.00  0.00     0.258 C 
HETATM   21  O1  UNL     1     133.865   6.419  72.947  1.00  0.00    -0.323 OA
HETATM   22  C4  UNL     1     133.379   5.121  73.089  1.00  0.00     0.222 C 
HETATM   23  C6  UNL     1     132.296   4.939  72.094  1.00  0.00     0.167 C 
HETATM   24  C8  UNL     1     131.922   6.367  71.738  1.00  0.00     0.209 C 
BRANCH  22  25
HETATM   25  O2  UNL     1     134.432   4.252  72.808  1.00  0.00    -0.361 OA
ATOM     26  H2  UNL     1     134.438   3.587  73.486  1.00  0.00     0.213 HD
ENDBRANCH  22  25
BRANCH  22  27
HETATM   27  C5  UNL     1     132.974   4.902  74.525  1.00  0.00     0.236 C 
BRANCH  27  28
HETATM   28  O3  UNL     1     133.752   3.817  74.993  1.00  0.00    -0.395 OA
ATOM     29  H3  UNL     1     134.294   4.162  75.693  1.00  0.00     0.209 HD
ENDBRANCH  27  28
ENDBRANCH  22  27
BRANCH  23  30
HETATM   30  O4  UNL     1     132.775   4.276  70.938  1.00  0.00    -0.379 OA
ATOM     31  H4  UNL     1     132.125   4.286  70.245  1.00  0.00     0.211 HD
ENDBRANCH  23  30
BRANCH  23  32
HETATM   32  C7  UNL     1     131.100   4.172  72.553  1.00  0.00     0.210 C 
BRANCH  32  33
HETATM   33  O5  UNL     1     130.762   3.206  71.635  1.00  0.00    -0.398 OA
ATOM     34  H5  UNL     1     130.616   2.372  72.066  1.00  0.00     0.209 HD
ENDBRANCH  32  33
ENDBRANCH  23  32
BRANCH  24  35
HETATM   35  O6  UNL     1     132.331   6.625  70.452  1.00  0.00    -0.388 OA
ATOM     36  H6  UNL     1     132.174   5.865  69.906  1.00  0.00     0.210 HD
ENDBRANCH  24  35
ENDBRANCH   1  20
TORSDOF 10
ENDMDL
MODEL 3
REMARK VINA RESULT: -8.597355117      1.784      2.250
REMARK  10 active torsions:
REMARK  status: ('A' for Active; 'I' for Inactive)
REMARK    1  A    between atoms: C2_5  and  N3_6 
REMARK    2  A    between atoms: N3_6  and  C3_8 
REMARK    3  A    between atoms: C4_10  and  O2_11 
REMARK    4  A    between atoms: C4_10  and  C5_13 
REMARK    5  A    between atoms: C5_13  and  O3_14 
REMARK    6  A    between atoms: C6_16  and  O4_17 
REMARK    7  A    between atoms: C6_16  and  C7_19 
REMARK    8  A    between atoms: C7_19  and  O5_20 
REMARK    9  A    between atoms: C8_22  and  O6_23 
REMARK   10  A    between atoms: C11_30  and  N5_31 
ROOT
HETATM    1  N3  UNL     1     132.482  10.264  72.227  1.00  0.00    -0.346 N 
ATOM      2  H3  UNL     1     131.838  10.633  72.927  1.00  0.00     0.163 HD
ENDROOT
BRANCH   1   3
HETATM    3  C2  UNL     1     132.946  11.284  71.760  1.00  0.00     0.138 A 
HETATM    4  N2  UNL     1     132.336  12.025  70.761  1.00  0.00    -0.281 N 
HETATM    5  N1  UNL     1     133.123  13.033  70.527  1.00  0.00    -0.278 N 
ATOM      6  H2  UNL     1     131.448  11.821  70.301  1.00  0.00     0.189 HD
HETATM    7  C1  UNL     1     132.841  14.071  69.526  1.00  0.00     0.179 C 
HETATM    8  C12 UNL     1     134.219  13.053  71.275  1.00  0.00     0.157 A 
HETATM    9  C9  UNL     1     134.135  11.938  72.081  1.00  0.00     0.123 A 
HETATM   10  N6  UNL     1     135.293  13.878  71.382  1.00  0.00    -0.174 N 
HETATM   11  C10 UNL     1     135.174  11.738  72.959  1.00  0.00     0.277 A 
HETATM   12  O7  UNL     1     135.140  10.744  73.706  1.00  0.00    -0.266 OA
HETATM   13  N4  UNL     1     136.238  12.588  73.041  1.00  0.00    -0.155 N 
HETATM   14  C11 UNL     1     136.293  13.666  72.245  1.00  0.00     0.680 A 
ATOM     15  H4  UNL     1     136.989  12.405  73.707  1.00  0.00     0.187 HD
ATOM     16  H6  UNL     1     135.338  14.698  70.777  1.00  0.00     0.186 HD
BRANCH  14  17
HETATM   17  N5  UNL     1     137.312  14.468  72.331  1.00  0.00    -0.234 N 
ATOM     18  H52 UNL     1     137.531  14.975  73.188  1.00  0.00     0.174 HD
ATOM     19  H51 UNL     1     137.913  14.600  71.518  1.00  0.00     0.174 HD
ENDBRANCH  14  17
ENDBRANCH   1   3
BRANCH   1  20
HETATM   20  C3  UNL     1     132.309   8.934  72.373  1.00  0.00     0.258 C 
HETATM   21  O1  UNL     1     132.908   8.204  71.336  1.00  0.00    -0.323 OA
HETATM   22  C4  UNL     1     132.385   6.916  71.432  1.00  0.00     0.222 C 
HETATM   23  C6  UNL     1     130.945   7.042  71.760  1.00  0.00     0.167 C 
HETATM   24  C8  UNL     1     130.844   8.460  72.293  1.00  0.00     0.209 C 
BRANCH  22  25
HETATM   25  O2  UNL     1     132.536   6.314  70.184  1.00  0.00    -0.361 OA
ATOM     26  H2  UNL     1     131.936   5.578  70.152  1.00  0.00     0.213 HD
ENDBRANCH  22  25
BRANCH  22  27
HETATM   27  C5  UNL     1     133.202   6.127  72.424  1.00  0.00     0.236 C 
BRANCH  27  28
HETATM   28  O3  UNL     1     133.490   4.889  71.802  1.00  0.00    -0.395 OA
ATOM     29  H3  UNL     1     134.413   4.725  71.954  1.00  0.00     0.209 HD
ENDBRANCH  27  28
ENDBRANCH  22  27
BRANCH  23  30
HETATM   30  O4  UNL     1     130.147   6.919  70.597  1.00  0.00    -0.379 OA
ATOM     31  H4  UNL     1     129.480   6.251  70.710  1.00  0.00     0.211 HD
ENDBRANCH  23  30
BRANCH  23  32
HETATM   32  C7  UNL     1     130.405   6.060  72.747  1.00  0.00     0.210 C 
BRANCH  32  33
HETATM   33  O5  UNL     1     130.368   4.798  72.204  1.00  0.00    -0.398 OA
ATOM     34  H5  UNL     1     130.221   4.147  72.881  1.00  0.00     0.209 HD
ENDBRANCH  32  33
ENDBRANCH  23  32
BRANCH  24  35
HETATM   35  O6  UNL     1     130.157   9.228  71.385  1.00  0.00    -0.388 OA
ATOM     36  H6  UNL     1     129.461   9.700  71.826  1.00  0.00     0.210 HD
ENDBRANCH  24  35
ENDBRANCH   1  20
TORSDOF 10
ENDMDL
MODEL 4
REMARK VINA RESULT: -8.567401205      1.751      2.927
REMARK  10 active torsions:
REMARK  status: ('A' for Active; 'I' for Inactive)
REMARK    1  A    between atoms: C2_5  and  N3_6 
REMARK    2  A    between atoms: N3_6  and  C3_8 
REMARK    3  A    between atoms: C4_10  and  O2_11 
REMARK    4  A    between atoms: C4_10  and  C5_13 
REMARK    5  A    between atoms: C5_13  and  O3_14 
REMARK    6  A    between atoms: C6_16  and  O4_17 
REMARK    7  A    between atoms: C6_16  and  C7_19 
REMARK    8  A    between atoms: C7_19  and  O5_20 
REMARK    9  A    between atoms: C8_22  and  O6_23 
REMARK   10  A    between atoms: C11_30  and  N5_31 
ROOT
HETATM    1  N3  UNL     1     132.947   9.634  73.445  1.00  0.00    -0.346 N 
ATOM      2  H3  UNL     1     132.781   9.848  74.428  1.00  0.00     0.163 HD
ENDROOT
BRANCH   1   3
HETATM    3  C2  UNL     1     133.539  10.628  73.075  1.00  0.00     0.138 A 
HETATM    4  N2  UNL     1     134.691  11.110  73.676  1.00  0.00    -0.281 N 
HETATM    5  N1  UNL     1     135.026  12.176  73.011  1.00  0.00    -0.278 N 
ATOM      6  H2  UNL     1     135.178  10.711  74.478  1.00  0.00     0.189 HD
HETATM    7  C1  UNL     1     136.202  12.997  73.327  1.00  0.00     0.179 C 
HETATM    8  C12 UNL     1     134.210  12.470  72.007  1.00  0.00     0.157 A 
HETATM    9  C9  UNL     1     133.240  11.491  72.021  1.00  0.00     0.123 A 
HETATM   10  N6  UNL     1     134.156  13.451  71.068  1.00  0.00    -0.174 N 
HETATM   11  C10 UNL     1     132.264  11.581  71.058  1.00  0.00     0.277 A 
HETATM   12  O7  UNL     1     131.367  10.718  71.034  1.00  0.00    -0.266 OA
HETATM   13  N4  UNL     1     132.241  12.581  70.129  1.00  0.00    -0.155 N 
HETATM   14  C11 UNL     1     133.197  13.521  70.138  1.00  0.00     0.680 A 
ATOM     15  H4  UNL     1     131.499  12.612  69.431  1.00  0.00     0.187 HD
ATOM     16  H6  UNL     1     134.882  14.168  71.073  1.00  0.00     0.186 HD
BRANCH  14  17
HETATM   17  N5  UNL     1     133.166  14.468  69.250  1.00  0.00    -0.234 N 
ATOM     18  H52 UNL     1     132.293  14.790  68.833  1.00  0.00     0.174 HD
ATOM     19  H51 UNL     1     134.038  14.906  68.956  1.00  0.00     0.174 HD
ENDBRANCH  14  17
ENDBRANCH   1   3
BRANCH   1  20
HETATM   20  C3  UNL     1     132.379   8.416  73.331  1.00  0.00     0.258 C 
HETATM   21  O1  UNL     1     132.168   8.052  71.993  1.00  0.00    -0.323 OA
HETATM   22  C4  UNL     1     131.304   6.959  72.033  1.00  0.00     0.222 C 
HETATM   23  C6  UNL     1     130.296   7.225  73.087  1.00  0.00     0.167 C 
HETATM   24  C8  UNL     1     130.958   8.308  73.920  1.00  0.00     0.209 C 
BRANCH  22  25
HETATM   25  O2  UNL     1     130.679   6.881  70.789  1.00  0.00    -0.361 OA
ATOM     26  H2  UNL     1     130.292   6.016  70.722  1.00  0.00     0.213 HD
ENDBRANCH  22  25
BRANCH  22  27
HETATM   27  C5  UNL     1     132.112   5.700  72.221  1.00  0.00     0.236 C 
BRANCH  27  28
HETATM   28  O3  UNL     1     132.570   5.330  70.935  1.00  0.00    -0.395 OA
ATOM     29  H3  UNL     1     132.362   4.409  70.834  1.00  0.00     0.209 HD
ENDBRANCH  27  28
ENDBRANCH  22  27
BRANCH  23  30
HETATM   30  O4  UNL     1     129.097   7.728  72.528  1.00  0.00    -0.379 OA
ATOM     31  H4  UNL     1     128.395   7.728  73.169  1.00  0.00     0.211 HD
ENDBRANCH  23  30
BRANCH  23  32
HETATM   32  C7  UNL     1     129.908   6.060  73.937  1.00  0.00     0.210 C 
BRANCH  32  33
HETATM   33  O5  UNL     1     128.565   5.796  73.812  1.00  0.00    -0.398 OA
ATOM     34  H5  UNL     1     128.122   5.912  74.645  1.00  0.00     0.209 HD
ENDBRANCH  32  33
ENDBRANCH  23  32
BRANCH  24  35
HETATM   35  O6  UNL     1     130.285   9.490  73.727  1.00  0.00    -0.388 OA
ATOM     36  H6  UNL     1     129.357   9.358  73.877  1.00  0.00     0.210 HD
ENDBRANCH  24  35
ENDBRANCH   1  20
TORSDOF 10
ENDMDL
MODEL 5
REMARK VINA RESULT: -8.539615656      4.312      6.613
REMARK  10 active torsions:
REMARK  status: ('A' for Active; 'I' for Inactive)
REMARK    1  A    between atoms: C2_5  and  N3_6 
REMARK    2  A    between atoms: N3_6  and  C3_8 
REMARK    3  A    between atoms: C4_10  and  O2_11 
REMARK    4  A    between atoms: C4_10  and  C5_13 
REMARK    5  A    between atoms: C5_13  and  O3_14 
REMARK    6  A    between atoms: C6_16  and  O4_17 
REMARK    7  A    between atoms: C6_16  and  C7_19 
REMARK    8  A    between atoms: C7_19  and  O5_20 
REMARK    9  A    between atoms: C8_22  and  O6_23 
REMARK   10  A    between atoms: C11_30  and  N5_31 
ROOT
HETATM    1  N3  UNL     1     132.988   5.933  72.820  1.00  0.00    -0.346 N 
ATOM      2  H3  UNL     1     132.608   5.263  72.152  1.00  0.00     0.163 HD
ENDROOT
BRANCH   1   3
HETATM    3  C2  UNL     1     133.793   5.249  73.421  1.00  0.00     0.138 A 
HETATM    4  N2  UNL     1     133.748   3.865  73.467  1.00  0.00    -0.281 N 
HETATM    5  N1  UNL     1     134.760   3.496  74.196  1.00  0.00    -0.278 N 
ATOM      6  H2  UNL     1     133.061   3.257  73.020  1.00  0.00     0.189 HD
HETATM    7  C1  UNL     1     135.077   2.093  74.497  1.00  0.00     0.179 C 
HETATM    8  C12 UNL     1     135.496   4.500  74.653  1.00  0.00     0.157 A 
HETATM    9  C9  UNL     1     134.899   5.645  74.171  1.00  0.00     0.123 A 
HETATM   10  N6  UNL     1     136.609   4.600  75.426  1.00  0.00    -0.174 N 
HETATM   11  C10 UNL     1     135.490   6.836  74.518  1.00  0.00     0.277 A 
HETATM   12  O7  UNL     1     134.985   7.896  74.104  1.00  0.00    -0.266 OA
HETATM   13  N4  UNL     1     136.609   6.900  75.296  1.00  0.00    -0.155 N 
HETATM   14  C11 UNL     1     137.170   5.770  75.751  1.00  0.00     0.680 A 
ATOM     15  H4  UNL     1     137.018   7.805  75.530  1.00  0.00     0.187 HD
ATOM     16  H6  UNL     1     137.038   3.743  75.774  1.00  0.00     0.186 HD
BRANCH  14  17
HETATM   17  N5  UNL     1     138.235   5.843  76.492  1.00  0.00    -0.234 N 
ATOM     18  H52 UNL     1     139.155   6.043  76.100  1.00  0.00     0.174 HD
ATOM     19  H51 UNL     1     138.155   5.695  77.497  1.00  0.00     0.174 HD
ENDBRANCH  14  17
ENDBRANCH   1   3
BRANCH   1  20
HETATM   20  C3  UNL     1     132.298   7.050  72.510  1.00  0.00     0.258 C 
HETATM   21  O1  UNL     1     131.732   7.655  73.642  1.00  0.00    -0.323 OA
HETATM   22  C4  UNL     1     130.806   8.574  73.152  1.00  0.00     0.222 C 
HETATM   23  C6  UNL     1     130.118   7.944  72.000  1.00  0.00     0.167 C 
HETATM   24  C8  UNL     1     131.062   6.818  71.618  1.00  0.00     0.209 C 
BRANCH  22  25
HETATM   25  O2  UNL     1     129.890   8.822  74.173  1.00  0.00    -0.361 OA
ATOM     26  H2  UNL     1     130.323   9.376  74.811  1.00  0.00     0.213 HD
ENDBRANCH  22  25
BRANCH  22  27
HETATM   27  C5  UNL     1     131.514   9.869  72.846  1.00  0.00     0.236 C 
BRANCH  27  28
HETATM   28  O3  UNL     1     131.304  10.708  73.965  1.00  0.00    -0.395 OA
ATOM     29  H3  UNL     1     131.852  10.363  74.661  1.00  0.00     0.209 HD
ENDBRANCH  27  28
ENDBRANCH  22  27
BRANCH  23  30
HETATM   30  O4  UNL     1     128.870   7.400  72.389  1.00  0.00    -0.379 OA
ATOM     31  H4  UNL     1     128.151   7.940  72.082  1.00  0.00     0.211 HD
ENDBRANCH  23  30
BRANCH  23  32
HETATM   32  C7  UNL     1     129.843   8.831  70.830  1.00  0.00     0.210 C 
BRANCH  32  33
HETATM   33  O5  UNL     1     128.521   8.751  70.462  1.00  0.00    -0.398 OA
ATOM     34  H5  UNL     1     128.285   7.854  70.254  1.00  0.00     0.209 HD
ENDBRANCH  32  33
ENDBRANCH  23  32
BRANCH  24  35
HETATM   35  O6  UNL     1     130.476   5.619  71.940  1.00  0.00    -0.388 OA
ATOM     36  H6  UNL     1     129.560   5.756  72.150  1.00  0.00     0.210 HD
ENDBRANCH  24  35
ENDBRANCH   1  20
TORSDOF 10
ENDMDL
