MODEL 1
REMARK VINA RESULT: -8.240862157      0.000      0.000
REMARK  7 active torsions:
REMARK  status: ('A' for Active; 'I' for Inactive)
REMARK    1  A    between atoms: C2_2  and  O2_4 
REMARK    2  A    between atoms: O2_4  and  C3_5 
REMARK    3  A    between atoms: C12_14  and  C13_15 
REMARK       I    between atoms: C13_15  and  N1_17 
REMARK    4  A    between atoms: N1_17  and  C14_19 
REMARK    5  A    between atoms: C14_19  and  C15_20 
REMARK    6  A    between atoms: C15_20  and  C16_21 
REMARK    7  A    between atoms: C16_21  and  N2_22 
ROOT
HETATM    1  C3  UNL     1      -3.795   3.698  15.552  1.00  0.00     0.140 C 
HETATM    2  C4  UNL     1      -5.244   3.760  15.052  1.00  0.00     0.034 C 
HETATM    3  C5  UNL     1      -5.163   4.148  13.578  1.00  0.00     0.008 C 
HETATM    4  C6  UNL     1      -3.687   4.185  13.327  1.00  0.00     0.001 C 
HETATM    5  C7  UNL     1      -3.261   4.900  12.095  1.00  0.00    -0.005 C 
HETATM    6  C8  UNL     1      -2.853   3.808  11.095  1.00  0.00     0.006 C 
HETATM    7  C9  UNL     1      -2.418   4.372   9.797  1.00  0.00     0.011 C 
HETATM    8  C10 UNL     1      -1.227   5.275   9.985  1.00  0.00    -0.028 C 
HETATM    9  C11 UNL     1      -0.011   4.343  10.100  1.00  0.00     0.016 C 
HETATM   10  C12 UNL     1      -1.059   6.011   8.673  1.00  0.00     0.086 C 
HETATM   11  C22 UNL     1      -2.229   6.907   8.346  1.00  0.00     0.015 C 
HETATM   12  C23 UNL     1      -2.805   7.529   9.571  1.00  0.00     0.001 C 
HETATM   13  C24 UNL     1      -1.831   7.607  10.718  1.00  0.00     0.006 C 
HETATM   14  C25 UNL     1      -1.327   6.216  11.116  1.00  0.00    -0.001 C 
HETATM   15  C26 UNL     1      -2.043   5.737  12.333  1.00  0.00    -0.005 C 
HETATM   16  C27 UNL     1      -1.076   5.097  13.305  1.00  0.00     0.006 C 
HETATM   17  C28 UNL     1      -1.712   4.765  14.624  1.00  0.00     0.012 C 
HETATM   18  C29 UNL     1      -3.185   4.764  14.624  1.00  0.00    -0.013 C 
HETATM   19  C30 UNL     1      -3.843   6.053  15.012  1.00  0.00     0.018 C 
ENDROOT
BRANCH  10  20
HETATM   20  C13 UNL     1       0.236   6.675   8.518  1.00  0.00     0.222 C 
HETATM   21  O3  UNL     1       0.297   7.921   8.469  1.00  0.00    -0.273 OA
HETATM   22  N1  UNL     1       1.409   5.926   8.424  1.00  0.00    -0.361 N 
ATOM     23  H1  UNL     1       1.303   4.912   8.477  1.00  0.00     0.162 HD
BRANCH  22  24
HETATM   24  C14 UNL     1       2.753   6.417   8.262  1.00  0.00     0.124 C 
BRANCH  24  25
HETATM   25  C15 UNL     1       3.714   5.273   8.293  1.00  0.00     0.048 C 
BRANCH  25  26
HETATM   26  C16 UNL     1       3.792   4.473   7.045  1.00  0.00     0.238 C 
BRANCH  26  27
HETATM   27  N2  UNL     1       3.898   3.067   7.133  1.00  0.00    -0.071 N 
HETATM   28  C17 UNL     1       3.097   2.544   5.978  1.00  0.00     0.272 C 
HETATM   29  C18 UNL     1       3.320   2.434   8.274  1.00  0.00     0.237 C 
HETATM   30  C19 UNL     1       3.944   1.032   8.206  1.00  0.00     0.029 C 
HETATM   31  C20 UNL     1       5.383   1.387   7.897  1.00  0.00     0.029 C 
HETATM   32  C21 UNL     1       5.247   2.545   6.963  1.00  0.00     0.237 C 
ENDBRANCH  26  27
ENDBRANCH  25  26
ENDBRANCH  24  25
ENDBRANCH  22  24
ENDBRANCH  10  20
BRANCH   1  33
HETATM   33  O2  UNL     1      -3.262   2.419  15.260  1.00  0.00    -0.316 OA
BRANCH  33  34
HETATM   34  C2  UNL     1      -3.888   1.244  15.599  1.00  0.00     0.255 C 
HETATM   35  C1  UNL     1      -4.295   0.225  14.567  1.00  0.00     0.126 C 
HETATM   36  O1  UNL     1      -4.121   1.026  16.817  1.00  0.00    -0.266 OA
ENDBRANCH  33  34
ENDBRANCH   1  33
TORSDOF 7
ENDMDL
MODEL 2
REMARK VINA RESULT: -8.236657175      3.228      8.986
REMARK  7 active torsions:
REMARK  status: ('A' for Active; 'I' for Inactive)
REMARK    1  A    between atoms: C2_2  and  O2_4 
REMARK    2  A    between atoms: O2_4  and  C3_5 
REMARK    3  A    between atoms: C12_14  and  C13_15 
REMARK       I    between atoms: C13_15  and  N1_17 
REMARK    4  A    between atoms: N1_17  and  C14_19 
REMARK    5  A    between atoms: C14_19  and  C15_20 
REMARK    6  A    between atoms: C15_20  and  C16_21 
REMARK    7  A    between atoms: C16_21  and  N2_22 
ROOT
HETATM    1  C3  UNL     1       2.755   2.893   6.065  1.00  0.00     0.140 C 
HETATM    2  C4  UNL     1       4.180   3.412   6.299  1.00  0.00     0.034 C 
HETATM    3  C5  UNL     1       4.128   4.209   7.599  1.00  0.00     0.008 C 
HETATM    4  C6  UNL     1       2.716   4.007   8.054  1.00  0.00     0.001 C 
HETATM    5  C7  UNL     1       2.230   4.960   9.087  1.00  0.00    -0.005 C 
HETATM    6  C8  UNL     1       2.190   4.169  10.403  1.00  0.00     0.006 C 
HETATM    7  C9  UNL     1       1.739   5.000  11.542  1.00  0.00     0.011 C 
HETATM    8  C10 UNL     1       0.349   5.526  11.294  1.00  0.00    -0.028 C 
HETATM    9  C11 UNL     1      -0.602   4.369  11.634  1.00  0.00     0.016 C 
HETATM   10  C12 UNL     1       0.114   6.578  12.357  1.00  0.00     0.086 C 
HETATM   11  C22 UNL     1       1.047   7.758  12.236  1.00  0.00     0.015 C 
HETATM   12  C23 UNL     1       1.347   8.079  10.813  1.00  0.00     0.001 C 
HETATM   13  C24 UNL     1       0.292   7.591   9.854  1.00  0.00     0.006 C 
HETATM   14  C25 UNL     1       0.118   6.072   9.944  1.00  0.00    -0.001 C 
HETATM   15  C26 UNL     1       0.826   5.405   8.814  1.00  0.00    -0.005 C 
HETATM   16  C27 UNL     1      -0.029   4.306   8.221  1.00  0.00     0.006 C 
HETATM   17  C28 UNL     1       0.557   3.727   6.966  1.00  0.00     0.012 C 
HETATM   18  C29 UNL     1       1.979   4.038   6.740  1.00  0.00    -0.013 C 
HETATM   19  C30 UNL     1       2.261   5.254   5.910  1.00  0.00     0.018 C 
ENDROOT
BRANCH  10  20
HETATM   20  C13 UNL     1      -1.288   6.967  12.517  1.00  0.00     0.222 C 
HETATM   21  O3  UNL     1      -1.696   8.045  12.037  1.00  0.00    -0.273 OA
HETATM   22  N1  UNL     1      -2.178   6.141  13.205  1.00  0.00    -0.361 N 
ATOM     23  H1  UNL     1      -1.793   5.269  13.571  1.00  0.00     0.162 HD
BRANCH  22  24
HETATM   24  C14 UNL     1      -3.576   6.376  13.458  1.00  0.00     0.124 C 
BRANCH  24  25
HETATM   25  C15 UNL     1      -3.958   5.774  14.771  1.00  0.00     0.048 C 
BRANCH  25  26
HETATM   26  C16 UNL     1      -3.592   4.346  14.948  1.00  0.00     0.238 C 
BRANCH  26  27
HETATM   27  N2  UNL     1      -4.603   3.408  15.251  1.00  0.00    -0.071 N 
HETATM   28  C17 UNL     1      -4.930   2.752  13.943  1.00  0.00     0.272 C 
HETATM   29  C18 UNL     1      -5.856   3.915  15.710  1.00  0.00     0.237 C 
HETATM   30  C19 UNL     1      -6.521   2.650  16.273  1.00  0.00     0.029 C 
HETATM   31  C20 UNL     1      -5.361   2.045  17.035  1.00  0.00     0.029 C 
HETATM   32  C21 UNL     1      -4.193   2.338  16.152  1.00  0.00     0.237 C 
ENDBRANCH  26  27
ENDBRANCH  25  26
ENDBRANCH  24  25
ENDBRANCH  22  24
ENDBRANCH  10  20
BRANCH   1  33
HETATM   33  O2  UNL     1       2.583   1.683   6.781  1.00  0.00    -0.316 OA
BRANCH  33  34
HETATM   34  C2  UNL     1       3.567   0.734   6.909  1.00  0.00     0.255 C 
HETATM   35  C1  UNL     1       4.376   0.581   8.171  1.00  0.00     0.126 C 
HETATM   36  O1  UNL     1       3.789  -0.026   5.930  1.00  0.00    -0.266 OA
ENDBRANCH  33  34
ENDBRANCH   1  33
TORSDOF 7
ENDMDL
MODEL 3
REMARK VINA RESULT: -8.078982350      2.346      3.501
REMARK  7 active torsions:
REMARK  status: ('A' for Active; 'I' for Inactive)
REMARK    1  A    between atoms: C2_2  and  O2_4 
REMARK    2  A    between atoms: O2_4  and  C3_5 
REMARK    3  A    between atoms: C12_14  and  C13_15 
REMARK       I    between atoms: C13_15  and  N1_17 
REMARK    4  A    between atoms: N1_17  and  C14_19 
REMARK    5  A    between atoms: C14_19  and  C15_20 
REMARK    6  A    between atoms: C15_20  and  C16_21 
REMARK    7  A    between atoms: C16_21  and  N2_22 
ROOT
HETATM    1  C3  UNL     1      -4.859   2.799  13.643  1.00  0.00     0.140 C 
HETATM    2  C4  UNL     1      -5.900   3.522  14.507  1.00  0.00     0.034 C 
HETATM    3  C5  UNL     1      -5.605   5.012  14.361  1.00  0.00     0.008 C 
HETATM    4  C6  UNL     1      -4.490   5.032  13.361  1.00  0.00     0.001 C 
HETATM    5  C7  UNL     1      -3.716   6.299  13.286  1.00  0.00    -0.005 C 
HETATM    6  C8  UNL     1      -4.162   6.988  11.988  1.00  0.00     0.006 C 
HETATM    7  C9  UNL     1      -3.484   8.287  11.781  1.00  0.00     0.011 C 
HETATM    8  C10 UNL     1      -1.991   8.097  11.697  1.00  0.00    -0.028 C 
HETATM    9  C11 UNL     1      -1.713   7.613  10.266  1.00  0.00     0.016 C 
HETATM   10  C12 UNL     1      -1.396   9.486  11.785  1.00  0.00     0.086 C 
HETATM   11  C22 UNL     1      -1.668  10.162  13.107  1.00  0.00     0.015 C 
HETATM   12  C23 UNL     1      -1.657   9.189  14.235  1.00  0.00     0.001 C 
HETATM   13  C24 UNL     1      -0.863   7.942  13.943  1.00  0.00     0.006 C 
HETATM   14  C25 UNL     1      -1.416   7.204  12.719  1.00  0.00    -0.001 C 
HETATM   15  C26 UNL     1      -2.246   6.044  13.150  1.00  0.00    -0.005 C 
HETATM   16  C27 UNL     1      -1.943   4.825  12.304  1.00  0.00     0.006 C 
HETATM   17  C28 UNL     1      -2.614   3.583  12.814  1.00  0.00     0.012 C 
HETATM   18  C29 UNL     1      -3.707   3.812  13.773  1.00  0.00    -0.013 C 
HETATM   19  C30 UNL     1      -3.324   3.794  15.222  1.00  0.00     0.018 C 
ENDROOT
BRANCH  10  20
HETATM   20  C13 UNL     1       0.007   9.565  11.376  1.00  0.00     0.222 C 
HETATM   21  O3  UNL     1       0.809  10.266  12.027  1.00  0.00    -0.273 OA
HETATM   22  N1  UNL     1       0.460   8.860  10.260  1.00  0.00    -0.361 N 
ATOM     23  H1  UNL     1      -0.235   8.297   9.769  1.00  0.00     0.162 HD
BRANCH  22  24
HETATM   24  C14 UNL     1       1.795   8.834   9.722  1.00  0.00     0.124 C 
BRANCH  24  25
HETATM   25  C15 UNL     1       2.521   7.631  10.232  1.00  0.00     0.048 C 
BRANCH  25  26
HETATM   26  C16 UNL     1       1.713   6.388  10.314  1.00  0.00     0.238 C 
BRANCH  26  27
HETATM   27  N2  UNL     1       1.967   5.341   9.400  1.00  0.00    -0.071 N 
HETATM   28  C17 UNL     1       0.782   5.331   8.482  1.00  0.00     0.272 C 
HETATM   29  C18 UNL     1       2.019   4.012   9.918  1.00  0.00     0.237 C 
HETATM   30  C19 UNL     1       2.664   3.245   8.754  1.00  0.00     0.029 C 
HETATM   31  C20 UNL     1       3.775   4.202   8.377  1.00  0.00     0.029 C 
HETATM   32  C21 UNL     1       3.137   5.540   8.553  1.00  0.00     0.237 C 
ENDBRANCH  26  27
ENDBRANCH  25  26
ENDBRANCH  24  25
ENDBRANCH  22  24
ENDBRANCH  10  20
BRANCH   1  33
HETATM   33  O2  UNL     1      -5.326   2.746  12.306  1.00  0.00    -0.316 OA
BRANCH  33  34
HETATM   34  C2  UNL     1      -4.838   1.868  11.370  1.00  0.00     0.255 C 
HETATM   35  C1  UNL     1      -4.544   0.427  11.696  1.00  0.00     0.126 C 
HETATM   36  O1  UNL     1      -4.635   2.298  10.204  1.00  0.00    -0.266 OA
ENDBRANCH  33  34
ENDBRANCH   1  33
TORSDOF 7
ENDMDL
MODEL 4
REMARK VINA RESULT: -8.077015422      4.304      8.808
REMARK  7 active torsions:
REMARK  status: ('A' for Active; 'I' for Inactive)
REMARK    1  A    between atoms: C2_2  and  O2_4 
REMARK    2  A    between atoms: O2_4  and  C3_5 
REMARK    3  A    between atoms: C12_14  and  C13_15 
REMARK       I    between atoms: C13_15  and  N1_17 
REMARK    4  A    between atoms: N1_17  and  C14_19 
REMARK    5  A    between atoms: C14_19  and  C15_20 
REMARK    6  A    between atoms: C15_20  and  C16_21 
REMARK    7  A    between atoms: C16_21  and  N2_22 
ROOT
HETATM    1  C3  UNL     1      -6.970   9.191   8.510  1.00  0.00     0.140 C 
HETATM    2  C4  UNL     1      -6.641  10.423   9.363  1.00  0.00     0.034 C 
HETATM    3  C5  UNL     1      -5.484  10.010  10.267  1.00  0.00     0.008 C 
HETATM    4  C6  UNL     1      -5.180   8.620   9.802  1.00  0.00     0.001 C 
HETATM    5  C7  UNL     1      -4.360   7.795  10.729  1.00  0.00    -0.005 C 
HETATM    6  C8  UNL     1      -2.959   7.726  10.102  1.00  0.00     0.006 C 
HETATM    7  C9  UNL     1      -2.014   6.944  10.930  1.00  0.00     0.011 C 
HETATM    8  C10 UNL     1      -2.501   5.528  11.095  1.00  0.00    -0.028 C 
HETATM    9  C11 UNL     1      -2.118   4.802   9.797  1.00  0.00     0.016 C 
HETATM   10  C12 UNL     1      -1.635   4.920  12.178  1.00  0.00     0.086 C 
HETATM   11  C22 UNL     1      -1.809   5.592  13.518  1.00  0.00     0.015 C 
HETATM   12  C23 UNL     1      -3.216   6.028  13.738  1.00  0.00     0.001 C 
HETATM   13  C24 UNL     1      -4.217   5.255  12.918  1.00  0.00     0.006 C 
HETATM   14  C25 UNL     1      -3.933   5.393  11.419  1.00  0.00    -0.001 C 
HETATM   15  C26 UNL     1      -4.862   6.387  10.808  1.00  0.00    -0.005 C 
HETATM   16  C27 UNL     1      -5.392   5.880   9.484  1.00  0.00     0.006 C 
HETATM   17  C28 UNL     1      -6.471   6.757   8.917  1.00  0.00     0.012 C 
HETATM   18  C29 UNL     1      -6.564   8.099   9.516  1.00  0.00    -0.013 C 
HETATM   19  C30 UNL     1      -7.519   8.241  10.663  1.00  0.00     0.018 C 
ENDROOT
BRANCH  10  20
HETATM   20  C13 UNL     1      -1.704   3.460  12.253  1.00  0.00     0.222 C 
HETATM   21  O3  UNL     1      -0.674   2.777  12.075  1.00  0.00    -0.273 OA
HETATM   22  N1  UNL     1      -2.915   2.821  12.523  1.00  0.00    -0.361 N 
ATOM     23  H1  UNL     1      -3.723   3.427  12.667  1.00  0.00     0.162 HD
BRANCH  22  24
HETATM   24  C14 UNL     1      -3.156   1.405  12.622  1.00  0.00     0.124 C 
BRANCH  24  25
HETATM   25  C15 UNL     1      -4.460   1.163  13.310  1.00  0.00     0.048 C 
BRANCH  25  26
HETATM   26  C16 UNL     1      -4.362   0.743  14.731  1.00  0.00     0.238 C 
BRANCH  26  27
HETATM   27  N2  UNL     1      -4.811   1.622  15.741  1.00  0.00    -0.071 N 
HETATM   28  C17 UNL     1      -3.577   2.322  16.225  1.00  0.00     0.272 C 
HETATM   29  C18 UNL     1      -5.368   1.041  16.920  1.00  0.00     0.237 C 
HETATM   30  C19 UNL     1      -6.056   2.250  17.573  1.00  0.00     0.029 C 
HETATM   31  C20 UNL     1      -6.727   2.869  16.364  1.00  0.00     0.029 C 
HETATM   32  C21 UNL     1      -5.718   2.667  15.283  1.00  0.00     0.237 C 
ENDBRANCH  26  27
ENDBRANCH  25  26
ENDBRANCH  24  25
ENDBRANCH  22  24
ENDBRANCH  10  20
BRANCH   1  33
HETATM   33  O2  UNL     1      -6.115   9.171   7.381  1.00  0.00    -0.316 OA
BRANCH  33  34
HETATM   34  C2  UNL     1      -6.573   9.155   6.086  1.00  0.00     0.255 C 
HETATM   35  C1  UNL     1      -7.882   9.786   5.690  1.00  0.00     0.126 C 
HETATM   36  O1  UNL     1      -5.863   8.591   5.213  1.00  0.00    -0.266 OA
ENDBRANCH  33  34
ENDBRANCH   1  33
TORSDOF 7
ENDMDL
MODEL 5
REMARK VINA RESULT: -8.065514699      5.716      9.204
REMARK  7 active torsions:
REMARK  status: ('A' for Active; 'I' for Inactive)
REMARK    1  A    between atoms: C2_2  and  O2_4 
REMARK    2  A    between atoms: O2_4  and  C3_5 
REMARK    3  A    between atoms: C12_14  and  C13_15 
REMARK       I    between atoms: C13_15  and  N1_17 
REMARK    4  A    between atoms: N1_17  and  C14_19 
REMARK    5  A    between atoms: C14_19  and  C15_20 
REMARK    6  A    between atoms: C15_20  and  C16_21 
REMARK    7  A    between atoms: C16_21  and  N2_22 
ROOT
HETATM    1  C3  UNL     1      -3.453   3.743  12.776  1.00  0.00     0.140 C 
HETATM    2  C4  UNL     1      -3.352   4.512  14.099  1.00  0.00     0.034 C 
HETATM    3  C5  UNL     1      -4.027   5.858  13.854  1.00  0.00     0.008 C 
HETATM    4  C6  UNL     1      -4.542   5.721  12.455  1.00  0.00     0.001 C 
HETATM    5  C7  UNL     1      -4.914   6.991  11.778  1.00  0.00    -0.005 C 
HETATM    6  C8  UNL     1      -6.450   7.022  11.758  1.00  0.00     0.006 C 
HETATM    7  C9  UNL     1      -6.977   8.252  11.125  1.00  0.00     0.011 C 
HETATM    8  C10 UNL     1      -6.509   8.353   9.697  1.00  0.00    -0.028 C 
HETATM    9  C11 UNL     1      -7.429   7.425   8.890  1.00  0.00     0.016 C 
HETATM   10  C12 UNL     1      -6.850   9.759   9.252  1.00  0.00     0.086 C 
HETATM   11  C22 UNL     1      -6.103  10.819  10.024  1.00  0.00     0.015 C 
HETATM   12  C23 UNL     1      -4.724  10.378  10.371  1.00  0.00     0.001 C 
HETATM   13  C24 UNL     1      -4.190   9.305   9.457  1.00  0.00     0.006 C 
HETATM   14  C25 UNL     1      -5.080   8.059   9.484  1.00  0.00    -0.001 C 
HETATM   15  C26 UNL     1      -4.469   7.009  10.349  1.00  0.00    -0.005 C 
HETATM   16  C27 UNL     1      -4.568   5.649   9.690  1.00  0.00     0.006 C 
HETATM   17  C28 UNL     1      -3.806   4.588  10.431  1.00  0.00     0.012 C 
HETATM   18  C29 UNL     1      -3.426   4.940  11.810  1.00  0.00    -0.013 C 
HETATM   19  C30 UNL     1      -2.071   5.558  11.980  1.00  0.00     0.018 C 
ENDROOT
BRANCH  10  20
HETATM   20  C13 UNL     1      -6.801   9.960   7.803  1.00  0.00     0.222 C 
HETATM   21  O3  UNL     1      -7.060   9.012   7.033  1.00  0.00    -0.273 OA
HETATM   22  N1  UNL     1      -6.464  11.205   7.272  1.00  0.00    -0.361 N 
ATOM     23  H1  UNL     1      -6.268  11.946   7.946  1.00  0.00     0.162 HD
BRANCH  22  24
HETATM   24  C14 UNL     1      -6.362  11.567   5.882  1.00  0.00     0.124 C 
BRANCH  24  25
HETATM   25  C15 UNL     1      -7.397  12.593   5.551  1.00  0.00     0.048 C 
BRANCH  25  26
HETATM   26  C16 UNL     1      -8.626  12.071   4.901  1.00  0.00     0.238 C 
BRANCH  26  27
HETATM   27  N2  UNL     1      -9.745  11.749   5.701  1.00  0.00    -0.071 N 
HETATM   28  C17 UNL     1     -10.920  12.338   4.980  1.00  0.00     0.272 C 
HETATM   29  C18 UNL     1      -9.810  12.325   7.005  1.00  0.00     0.237 C 
HETATM   30  C19 UNL     1     -10.907  11.478   7.668  1.00  0.00     0.029 C 
HETATM   31  C20 UNL     1     -10.492  10.092   7.220  1.00  0.00     0.029 C 
HETATM   32  C21 UNL     1     -10.016  10.322   5.824  1.00  0.00     0.237 C 
ENDBRANCH  26  27
ENDBRANCH  25  26
ENDBRANCH  24  25
ENDBRANCH  22  24
ENDBRANCH  10  20
BRANCH   1  33
HETATM   33  O2  UNL     1      -4.708   3.086  12.721  1.00  0.00    -0.316 OA
BRANCH  33  34
HETATM   34  C2  UNL     1      -4.893   1.858  12.136  1.00  0.00     0.255 C 
HETATM   35  C1  UNL     1      -4.183   0.622  12.623  1.00  0.00     0.126 C 
HETATM   36  O1  UNL     1      -5.685   1.779  11.160  1.00  0.00    -0.266 OA
ENDBRANCH  33  34
ENDBRANCH   1  33
TORSDOF 7
ENDMDL
