MODEL 1
REMARK VINA RESULT: -6.303224650      0.000      0.000
REMARK  11 active torsions:
REMARK  status: ('A' for Active; 'I' for Inactive)
REMARK    1  A    between atoms: C6_7  and  C7_8 
REMARK    2  A    between atoms: C12_13  and  O2_14 
REMARK    3  A    between atoms: O2_14  and  C13_15 
REMARK    4  A    between atoms: C13_15  and  C14_16 
REMARK    5  A    between atoms: C14_16  and  O3_17 
REMARK    6  A    between atoms: C14_16  and  C15_19 
REMARK    7  A    between atoms: C15_19  and  C16_20 
REMARK    8  A    between atoms: C16_20  and  O4_21 
REMARK    9  A    between atoms: C16_20  and  N1_23 
REMARK   10  A    between atoms: C17_26  and  N2_27 
REMARK   11  A    between atoms: N2_27  and  C18_29 
ROOT
HETATM    1  N1  UNL     1       1.480 -13.302  -2.437  1.00  0.00    -0.262 NA
HETATM    2  O5  UNL     1       2.045 -13.139  -3.517  1.00  0.00    -0.217 OA
ATOM      3  H5  UNL     1       2.519 -13.013  -4.331  1.00  0.00     0.261 HD
ENDROOT
BRANCH   1   4
HETATM    4  C16 UNL     1       0.829 -13.475  -1.321  1.00  0.00     0.225 C 
BRANCH   4   5
HETATM    5  C15 UNL     1       1.118 -12.584  -0.287  1.00  0.00     0.137 C 
BRANCH   5   6
HETATM    6  C14 UNL     1       0.898 -13.515   1.115  1.00  0.00     0.151 C 
BRANCH   6   7
HETATM    7  C13 UNL     1       1.374 -12.465   2.052  1.00  0.00     0.207 C 
BRANCH   7   8
HETATM    8  O2  UNL     1       2.776 -12.212   2.323  1.00  0.00    -0.348 OA
BRANCH   8   9
HETATM    9  C12 UNL     1       3.716 -13.184   2.570  1.00  0.00     0.075 A 
HETATM   10  C7  UNL     1       4.995 -12.731   1.986  1.00  0.00    -0.016 A 
HETATM   11  C8  UNL     1       6.110 -13.555   2.140  1.00  0.00     0.010 A 
HETATM   12  C9  UNL     1       5.958 -14.769   2.814  1.00  0.00     0.001 A 
HETATM   13  C10 UNL     1       4.847 -15.203   3.310  1.00  0.00     0.003 A 
HETATM   14  C11 UNL     1       3.691 -14.393   3.196  1.00  0.00     0.037 A 
BRANCH  10  15
HETATM   15  C6  UNL     1       4.909 -11.641   0.955  1.00  0.00     0.073 C 
HETATM   16  C5  UNL     1       4.340 -12.424  -0.293  1.00  0.00     0.137 C 
HETATM   17  O1  UNL     1       4.444 -13.787  -0.076  1.00  0.00    -0.384 OA
HETATM   18  C25 UNL     1       5.168 -12.041  -1.447  1.00  0.00     0.027 C 
HETATM   19  C4  UNL     1       4.664 -14.340  -1.366  1.00  0.00     0.177 C 
HETATM   20  C2  UNL     1       5.617 -13.341  -1.999  1.00  0.00    -0.020 C 
HETATM   21  C1  UNL     1       5.359 -13.515  -3.495  1.00  0.00     0.017 C 
HETATM   22  C3  UNL     1       6.992 -13.764  -1.697  1.00  0.00     0.017 C 
HETATM   23  C24 UNL     1       6.158 -11.040  -1.030  1.00  0.00     0.033 C 
HETATM   24  C17 UNL     1       6.194 -11.015   0.582  1.00  0.00     0.088 C 
BRANCH  24  25
HETATM   25  N2  UNL     1       6.196  -9.696   1.017  1.00  0.00    -0.412 N 
ATOM     26  H2  UNL     1       5.328  -9.160   1.026  1.00  0.00     0.154 HD
BRANCH  25  27
HETATM   27  C18 UNL     1       7.397  -9.098   1.446  1.00  0.00     0.081 C 
HETATM   28  C19 UNL     1       8.070 -10.015   2.447  1.00  0.00     0.025 C 
HETATM   29  C20 UNL     1       9.473  -9.463   2.807  1.00  0.00     0.006 C 
HETATM   30  C21 UNL     1       9.534  -7.966   2.577  1.00  0.00     0.060 C 
HETATM   31  C22 UNL     1       8.277  -7.238   2.873  1.00  0.00     0.180 C 
HETATM   32  F1  UNL     1       8.114  -7.128   4.234  1.00  0.00    -0.226 F 
HETATM   33 CL1  UNL     1       8.463  -5.551   2.183  1.00  0.00    -0.083 Cl
HETATM   34  C23 UNL     1       7.068  -7.819   2.156  1.00  0.00     0.085 C 
ENDBRANCH  25  27
ENDBRANCH  24  25
ENDBRANCH  10  15
ENDBRANCH   8   9
ENDBRANCH   7   8
ENDBRANCH   6   7
BRANCH   6  35
HETATM   35  O3  UNL     1       1.665 -14.567   0.831  1.00  0.00    -0.393 OA
ATOM     36  H3  UNL     1       1.943 -14.736  -0.063  1.00  0.00     0.210 HD
ENDBRANCH   6  35
ENDBRANCH   5   6
ENDBRANCH   4   5
BRANCH   4  37
HETATM   37  O4  UNL     1      -0.006 -14.619  -1.514  1.00  0.00    -0.337 OA
ATOM     38  H4  UNL     1       0.113 -15.552  -1.654  1.00  0.00     0.220 HD
ENDBRANCH   4  37
ENDBRANCH   1   4
TORSDOF 11
ENDMDL
MODEL 2
REMARK VINA RESULT: -6.299646139      2.017      4.908
REMARK  11 active torsions:
REMARK  status: ('A' for Active; 'I' for Inactive)
REMARK    1  A    between atoms: C6_7  and  C7_8 
REMARK    2  A    between atoms: C12_13  and  O2_14 
REMARK    3  A    between atoms: O2_14  and  C13_15 
REMARK    4  A    between atoms: C13_15  and  C14_16 
REMARK    5  A    between atoms: C14_16  and  O3_17 
REMARK    6  A    between atoms: C14_16  and  C15_19 
REMARK    7  A    between atoms: C15_19  and  C16_20 
REMARK    8  A    between atoms: C16_20  and  O4_21 
REMARK    9  A    between atoms: C16_20  and  N1_23 
REMARK   10  A    between atoms: C17_26  and  N2_27 
REMARK   11  A    between atoms: N2_27  and  C18_29 
ROOT
HETATM    1  N1  UNL     1       6.360 -14.252  -1.114  1.00  0.00    -0.262 NA
HETATM    2  O5  UNL     1       6.594 -14.728  -0.003  1.00  0.00    -0.217 OA
ATOM      3  H5  UNL     1       6.749 -15.066   0.871  1.00  0.00     0.261 HD
ENDROOT
BRANCH   1   4
HETATM    4  C16 UNL     1       6.148 -13.790  -2.313  1.00  0.00     0.225 C 
BRANCH   4   5
HETATM    5  C15 UNL     1       5.224 -14.484  -3.094  1.00  0.00     0.137 C 
BRANCH   5   6
HETATM    6  C14 UNL     1       4.119 -13.285  -3.566  1.00  0.00     0.151 C 
BRANCH   6   7
HETATM    7  C13 UNL     1       2.962 -13.873  -2.845  1.00  0.00     0.207 C 
BRANCH   7   8
HETATM    8  O2  UNL     1       2.835 -13.867  -1.400  1.00  0.00    -0.348 OA
BRANCH   8   9
HETATM    9  C12 UNL     1       1.857 -13.202  -0.700  1.00  0.00     0.075 A 
HETATM   10  C7  UNL     1       2.500 -12.544   0.455  1.00  0.00    -0.016 A 
HETATM   11  C8  UNL     1       1.695 -11.780   1.301  1.00  0.00     0.010 A 
HETATM   12  C9  UNL     1       0.328 -11.696   1.030  1.00  0.00     0.001 A 
HETATM   13  C10 UNL     1      -0.266 -12.282   0.044  1.00  0.00     0.003 A 
HETATM   14  C11 UNL     1       0.512 -13.053  -0.854  1.00  0.00     0.037 A 
BRANCH  10  15
HETATM   15  C6  UNL     1       3.856 -13.058   0.847  1.00  0.00     0.073 C 
HETATM   16  C5  UNL     1       3.482 -14.228   1.839  1.00  0.00     0.137 C 
HETATM   17  O1  UNL     1       2.150 -14.125   2.200  1.00  0.00    -0.384 OA
HETATM   18  C25 UNL     1       4.333 -14.066   3.028  1.00  0.00     0.027 C 
HETATM   19  C4  UNL     1       2.099 -14.620   3.531  1.00  0.00     0.177 C 
HETATM   20  C2  UNL     1       3.363 -14.045   4.149  1.00  0.00    -0.020 C 
HETATM   21  C1  UNL     1       3.679 -15.029   5.274  1.00  0.00     0.017 C 
HETATM   22  C3  UNL     1       3.035 -12.737   4.733  1.00  0.00     0.017 C 
HETATM   23  C24 UNL     1       5.245 -12.934   2.826  1.00  0.00     0.033 C 
HETATM   24  C17 UNL     1       4.724 -12.093   1.552  1.00  0.00     0.088 C 
BRANCH  24  25
HETATM   25  N2  UNL     1       5.807 -11.781   0.739  1.00  0.00    -0.412 N 
ATOM     26  H2  UNL     1       6.123 -12.447   0.033  1.00  0.00     0.154 HD
BRANCH  25  27
HETATM   27  C18 UNL     1       6.468 -10.547   0.889  1.00  0.00     0.081 C 
HETATM   28  C19 UNL     1       7.179 -10.212  -0.407  1.00  0.00     0.025 C 
HETATM   29  C20 UNL     1       7.773  -8.782  -0.328  1.00  0.00     0.006 C 
HETATM   30  C21 UNL     1       8.015  -8.383   1.114  1.00  0.00     0.060 C 
HETATM   31  C22 UNL     1       8.444  -9.489   2.003  1.00  0.00     0.180 C 
HETATM   32  F1  UNL     1       9.762  -9.796   1.758  1.00  0.00    -0.226 F 
HETATM   33 CL1  UNL     1       8.316  -8.870   3.723  1.00  0.00    -0.083 Cl
HETATM   34  C23 UNL     1       7.515 -10.691   1.953  1.00  0.00     0.085 C 
ENDBRANCH  25  27
ENDBRANCH  24  25
ENDBRANCH  10  15
ENDBRANCH   8   9
ENDBRANCH   7   8
ENDBRANCH   6   7
BRANCH   6  35
HETATM   35  O3  UNL     1       4.210 -13.380  -4.893  1.00  0.00    -0.393 OA
ATOM     36  H3  UNL     1       3.472 -13.685  -5.408  1.00  0.00     0.210 HD
ENDBRANCH   6  35
ENDBRANCH   5   6
ENDBRANCH   4   5
BRANCH   4  37
HETATM   37  O4  UNL     1       7.011 -12.661  -2.469  1.00  0.00    -0.337 OA
ATOM     38  H4  UNL     1       7.177 -11.844  -2.012  1.00  0.00     0.220 HD
ENDBRANCH   4  37
ENDBRANCH   1   4
TORSDOF 11
ENDMDL
MODEL 3
REMARK VINA RESULT: -5.861206371      4.576      7.758
REMARK  11 active torsions:
REMARK  status: ('A' for Active; 'I' for Inactive)
REMARK    1  A    between atoms: C6_7  and  C7_8 
REMARK    2  A    between atoms: C12_13  and  O2_14 
REMARK    3  A    between atoms: O2_14  and  C13_15 
REMARK    4  A    between atoms: C13_15  and  C14_16 
REMARK    5  A    between atoms: C14_16  and  O3_17 
REMARK    6  A    between atoms: C14_16  and  C15_19 
REMARK    7  A    between atoms: C15_19  and  C16_20 
REMARK    8  A    between atoms: C16_20  and  O4_21 
REMARK    9  A    between atoms: C16_20  and  N1_23 
REMARK   10  A    between atoms: C17_26  and  N2_27 
REMARK   11  A    between atoms: N2_27  and  C18_29 
ROOT
HETATM    1  N1  UNL     1       9.689  -6.658   0.591  1.00  0.00    -0.262 NA
HETATM    2  O5  UNL     1      10.689  -6.021   0.262  1.00  0.00    -0.217 OA
ATOM      3  H5  UNL     1      11.437  -5.505  -0.017  1.00  0.00     0.261 HD
ENDROOT
BRANCH   1   4
HETATM    4  C16 UNL     1       8.664  -7.365   0.973  1.00  0.00     0.225 C 
BRANCH   4   5
HETATM    5  C15 UNL     1       8.787  -8.750   0.864  1.00  0.00     0.137 C 
BRANCH   5   6
HETATM    6  C14 UNL     1       7.513  -9.184  -0.170  1.00  0.00     0.151 C 
BRANCH   6   7
HETATM    7  C13 UNL     1       6.946 -10.215   0.735  1.00  0.00     0.207 C 
BRANCH   7   8
HETATM    8  O2  UNL     1       6.035 -11.253   0.292  1.00  0.00    -0.348 OA
BRANCH   8   9
HETATM    9  C12 UNL     1       5.933 -12.503   0.855  1.00  0.00     0.075 A 
HETATM   10  C7  UNL     1       5.322 -13.399  -0.147  1.00  0.00    -0.016 A 
HETATM   11  C8  UNL     1       5.145 -14.738   0.198  1.00  0.00     0.010 A 
HETATM   12  C9  UNL     1       5.529 -15.158   1.474  1.00  0.00     0.001 A 
HETATM   13  C10 UNL     1       6.040 -14.392   2.379  1.00  0.00     0.003 A 
HETATM   14  C11 UNL     1       6.258 -13.027   2.069  1.00  0.00     0.037 A 
BRANCH  10  15
HETATM   15  C6  UNL     1       4.592 -12.734  -1.280  1.00  0.00     0.073 C 
HETATM   16  C5  UNL     1       3.195 -12.414  -0.618  1.00  0.00     0.137 C 
HETATM   17  O1  UNL     1       3.069 -13.116   0.568  1.00  0.00    -0.384 OA
HETATM   18  C25 UNL     1       2.163 -12.856  -1.570  1.00  0.00     0.027 C 
HETATM   19  C4  UNL     1       1.680 -13.400   0.671  1.00  0.00     0.177 C 
HETATM   20  C2  UNL     1       1.304 -13.751  -0.759  1.00  0.00    -0.020 C 
HETATM   21  C1  UNL     1      -0.185 -13.420  -0.818  1.00  0.00     0.017 C 
HETATM   22  C3  UNL     1       1.481 -15.200  -0.937  1.00  0.00     0.017 C 
HETATM   23  C24 UNL     1       2.806 -13.362  -2.789  1.00  0.00     0.033 C 
HETATM   24  C17 UNL     1       4.375 -13.573  -2.476  1.00  0.00     0.088 C 
BRANCH  24  25
HETATM   25  N2  UNL     1       5.121 -13.060  -3.530  1.00  0.00    -0.412 N 
ATOM     26  H2  UNL     1       5.667 -12.207  -3.401  1.00  0.00     0.154 HD
BRANCH  25  27
HETATM   27  C18 UNL     1       5.124 -13.716  -4.776  1.00  0.00     0.081 C 
HETATM   28  C19 UNL     1       6.558 -13.963  -5.196  1.00  0.00     0.025 C 
HETATM   29  C20 UNL     1       6.591 -14.833  -6.479  1.00  0.00     0.006 C 
HETATM   30  C21 UNL     1       5.299 -14.682  -7.259  1.00  0.00     0.060 C 
HETATM   31  C22 UNL     1       4.698 -13.328  -7.212  1.00  0.00     0.180 C 
HETATM   32  F1  UNL     1       5.410 -12.477  -8.024  1.00  0.00    -0.226 F 
HETATM   33 CL1  UNL     1       3.002 -13.475  -7.890  1.00  0.00    -0.083 Cl
HETATM   34  C23 UNL     1       4.506 -12.808  -5.797  1.00  0.00     0.085 C 
ENDBRANCH  25  27
ENDBRANCH  24  25
ENDBRANCH  10  15
ENDBRANCH   8   9
ENDBRANCH   7   8
ENDBRANCH   6   7
BRANCH   6  35
HETATM   35  O3  UNL     1       8.194  -9.539  -1.260  1.00  0.00    -0.393 OA
ATOM     36  H3  UNL     1       9.117  -9.762  -1.202  1.00  0.00     0.210 HD
ENDBRANCH   6  35
ENDBRANCH   5   6
ENDBRANCH   4   5
BRANCH   4  37
HETATM   37  O4  UNL     1       7.660  -6.433   1.382  1.00  0.00    -0.337 OA
ATOM     38  H4  UNL     1       7.176  -6.235   2.176  1.00  0.00     0.220 HD
ENDBRANCH   4  37
ENDBRANCH   1   4
TORSDOF 11
ENDMDL
MODEL 4
REMARK VINA RESULT: -5.641713161      4.546      7.857
REMARK  11 active torsions:
REMARK  status: ('A' for Active; 'I' for Inactive)
REMARK    1  A    between atoms: C6_7  and  C7_8 
REMARK    2  A    between atoms: C12_13  and  O2_14 
REMARK    3  A    between atoms: O2_14  and  C13_15 
REMARK    4  A    between atoms: C13_15  and  C14_16 
REMARK    5  A    between atoms: C14_16  and  O3_17 
REMARK    6  A    between atoms: C14_16  and  C15_19 
REMARK    7  A    between atoms: C15_19  and  C16_20 
REMARK    8  A    between atoms: C16_20  and  O4_21 
REMARK    9  A    between atoms: C16_20  and  N1_23 
REMARK   10  A    between atoms: C17_26  and  N2_27 
REMARK   11  A    between atoms: N2_27  and  C18_29 
ROOT
HETATM    1  N1  UNL     1       9.858  -7.798   2.183  1.00  0.00    -0.262 NA
HETATM    2  O5  UNL     1      10.762  -6.964   2.188  1.00  0.00    -0.217 OA
ATOM      3  H5  UNL     1      11.456  -6.316   2.150  1.00  0.00     0.261 HD
ENDROOT
BRANCH   1   4
HETATM    4  C16 UNL     1       8.906  -8.686   2.236  1.00  0.00     0.225 C 
BRANCH   4   5
HETATM    5  C15 UNL     1       8.806  -9.559   1.152  1.00  0.00     0.137 C 
BRANCH   5   6
HETATM    6  C14 UNL     1       7.620  -8.843   0.172  1.00  0.00     0.151 C 
BRANCH   6   7
HETATM    7  C13 UNL     1       7.255 -10.095  -0.539  1.00  0.00     0.207 C 
BRANCH   7   8
HETATM    8  O2  UNL     1       6.030 -10.830  -0.284  1.00  0.00    -0.348 OA
BRANCH   8   9
HETATM    9  C12 UNL     1       5.940 -11.964   0.486  1.00  0.00     0.075 A 
HETATM   10  C7  UNL     1       5.479 -13.064  -0.385  1.00  0.00    -0.016 A 
HETATM   11  C8  UNL     1       5.339 -14.330   0.182  1.00  0.00     0.010 A 
HETATM   12  C9  UNL     1       5.617 -14.491   1.541  1.00  0.00     0.001 A 
HETATM   13  C10 UNL     1       5.995 -13.543   2.333  1.00  0.00     0.003 A 
HETATM   14  C11 UNL     1       6.170 -12.243   1.799  1.00  0.00     0.037 A 
BRANCH  10  15
HETATM   15  C6  UNL     1       4.830 -12.662  -1.680  1.00  0.00     0.073 C 
HETATM   16  C5  UNL     1       3.365 -12.309  -1.210  1.00  0.00     0.137 C 
HETATM   17  O1  UNL     1       3.158 -12.789   0.072  1.00  0.00    -0.384 OA
HETATM   18  C25 UNL     1       2.447 -12.979  -2.144  1.00  0.00     0.027 C 
HETATM   19  C4  UNL     1       1.780 -13.130   0.110  1.00  0.00     0.177 C 
HETATM   20  C2  UNL     1       1.554 -13.759  -1.255  1.00  0.00    -0.020 C 
HETATM   21  C1  UNL     1       0.064 -13.533  -1.500  1.00  0.00     0.017 C 
HETATM   22  C3  UNL     1       1.808 -15.203  -1.143  1.00  0.00     0.017 C 
HETATM   23  C24 UNL     1       3.221 -13.660  -3.188  1.00  0.00     0.033 C 
HETATM   24  C17 UNL     1       4.761 -13.717  -2.712  1.00  0.00     0.088 C 
BRANCH  24  25
HETATM   25  N2  UNL     1       5.580 -13.362  -3.777  1.00  0.00    -0.412 N 
ATOM     26  H2  UNL     1       6.392 -12.765  -3.619  1.00  0.00     0.154 HD
BRANCH  25  27
HETATM   27  C18 UNL     1       5.290 -13.828  -5.074  1.00  0.00     0.081 C 
HETATM   28  C19 UNL     1       6.512 -14.533  -5.625  1.00  0.00     0.025 C 
HETATM   29  C20 UNL     1       6.168 -15.203  -6.980  1.00  0.00     0.006 C 
HETATM   30  C21 UNL     1       4.996 -14.502  -7.640  1.00  0.00     0.060 C 
HETATM   31  C22 UNL     1       4.944 -13.037  -7.423  1.00  0.00     0.180 C 
HETATM   32  F1  UNL     1       5.890 -12.419  -8.208  1.00  0.00    -0.226 F 
HETATM   33 CL1  UNL     1       3.290 -12.475  -7.977  1.00  0.00    -0.083 Cl
HETATM   34  C23 UNL     1       5.015 -12.647  -5.955  1.00  0.00     0.085 C 
ENDBRANCH  25  27
ENDBRANCH  24  25
ENDBRANCH  10  15
ENDBRANCH   8   9
ENDBRANCH   7   8
ENDBRANCH   6   7
BRANCH   6  35
HETATM   35  O3  UNL     1       8.342  -7.903  -0.438  1.00  0.00    -0.393 OA
ATOM     36  H3  UNL     1       7.937  -7.311  -1.062  1.00  0.00     0.210 HD
ENDBRANCH   6  35
ENDBRANCH   5   6
ENDBRANCH   4   5
BRANCH   4  37
HETATM   37  O4  UNL     1       8.200  -8.448   3.456  1.00  0.00    -0.337 OA
ATOM     38  H4  UNL     1       8.409  -8.391   4.381  1.00  0.00     0.220 HD
ENDBRANCH   4  37
ENDBRANCH   1   4
TORSDOF 11
ENDMDL
MODEL 5
REMARK VINA RESULT: -5.640436917      4.534      7.821
REMARK  11 active torsions:
REMARK  status: ('A' for Active; 'I' for Inactive)
REMARK    1  A    between atoms: C6_7  and  C7_8 
REMARK    2  A    between atoms: C12_13  and  O2_14 
REMARK    3  A    between atoms: O2_14  and  C13_15 
REMARK    4  A    between atoms: C13_15  and  C14_16 
REMARK    5  A    between atoms: C14_16  and  O3_17 
REMARK    6  A    between atoms: C14_16  and  C15_19 
REMARK    7  A    between atoms: C15_19  and  C16_20 
REMARK    8  A    between atoms: C16_20  and  O4_21 
REMARK    9  A    between atoms: C16_20  and  N1_23 
REMARK   10  A    between atoms: C17_26  and  N2_27 
REMARK   11  A    between atoms: N2_27  and  C18_29 
ROOT
HETATM    1  N1  UNL     1       9.695  -6.704   0.824  1.00  0.00    -0.262 NA
HETATM    2  O5  UNL     1      10.591  -5.961   0.425  1.00  0.00    -0.217 OA
ATOM      3  H5  UNL     1      11.306  -5.397   0.152  1.00  0.00     0.261 HD
ENDROOT
BRANCH   1   4
HETATM    4  C16 UNL     1       8.716  -7.477   1.198  1.00  0.00     0.225 C 
BRANCH   4   5
HETATM    5  C15 UNL     1       8.863  -8.840   0.937  1.00  0.00     0.137 C 
BRANCH   5   6
HETATM    6  C14 UNL     1       7.555  -9.195  -0.084  1.00  0.00     0.151 C 
BRANCH   6   7
HETATM    7  C13 UNL     1       7.005 -10.279   0.769  1.00  0.00     0.207 C 
BRANCH   7   8
HETATM    8  O2  UNL     1       6.110 -11.308   0.274  1.00  0.00    -0.348 OA
BRANCH   8   9
HETATM    9  C12 UNL     1       5.959 -12.554   0.834  1.00  0.00     0.075 A 
HETATM   10  C7  UNL     1       5.397 -13.446  -0.200  1.00  0.00    -0.016 A 
HETATM   11  C8  UNL     1       5.181 -14.781   0.139  1.00  0.00     0.010 A 
HETATM   12  C9  UNL     1       5.483 -15.201   1.437  1.00  0.00     0.001 A 
HETATM   13  C10 UNL     1       5.950 -14.438   2.368  1.00  0.00     0.003 A 
HETATM   14  C11 UNL     1       6.203 -13.077   2.067  1.00  0.00     0.037 A 
BRANCH  10  15
HETATM   15  C6  UNL     1       4.745 -12.776  -1.377  1.00  0.00     0.073 C 
HETATM   16  C5  UNL     1       3.342 -12.369  -0.777  1.00  0.00     0.137 C 
HETATM   17  O1  UNL     1       3.135 -13.032   0.420  1.00  0.00    -0.384 OA
HETATM   18  C25 UNL     1       2.325 -12.785  -1.756  1.00  0.00     0.027 C 
HETATM   19  C4  UNL     1       1.732 -13.243   0.476  1.00  0.00     0.177 C 
HETATM   20  C2  UNL     1       1.392 -13.614  -0.957  1.00  0.00    -0.020 C 
HETATM   21  C1  UNL     1      -0.076 -13.210  -1.083  1.00  0.00     0.017 C 
HETATM   22  C3  UNL     1       1.501 -15.073  -1.092  1.00  0.00     0.017 C 
HETATM   23  C24 UNL     1       2.987 -13.355  -2.937  1.00  0.00     0.033 C 
HETATM   24  C17 UNL     1       4.529 -13.635  -2.559  1.00  0.00     0.088 C 
BRANCH  24  25
HETATM   25  N2  UNL     1       5.340 -13.189  -3.595  1.00  0.00    -0.412 N 
ATOM     26  H2  UNL     1       6.175 -12.639  -3.390  1.00  0.00     0.154 HD
BRANCH  25  27
HETATM   27  C18 UNL     1       5.009 -13.496  -4.930  1.00  0.00     0.081 C 
HETATM   28  C19 UNL     1       4.437 -14.898  -4.982  1.00  0.00     0.025 C 
HETATM   29  C20 UNL     1       3.908 -15.199  -6.407  1.00  0.00     0.006 C 
HETATM   30  C21 UNL     1       4.615 -14.334  -7.433  1.00  0.00     0.060 C 
HETATM   31  C22 UNL     1       6.042 -14.059  -7.139  1.00  0.00     0.180 C 
HETATM   32  F1  UNL     1       6.795 -15.178  -7.410  1.00  0.00    -0.226 F 
HETATM   33 CL1  UNL     1       6.574 -12.727  -8.279  1.00  0.00    -0.083 Cl
HETATM   34  C23 UNL     1       6.266 -13.491  -5.747  1.00  0.00     0.085 C 
ENDBRANCH  25  27
ENDBRANCH  24  25
ENDBRANCH  10  15
ENDBRANCH   8   9
ENDBRANCH   7   8
ENDBRANCH   6   7
BRANCH   6  35
HETATM   35  O3  UNL     1       8.200  -9.483  -1.214  1.00  0.00    -0.393 OA
ATOM     36  H3  UNL     1       9.125  -9.284  -1.308  1.00  0.00     0.210 HD
ENDBRANCH   6  35
ENDBRANCH   5   6
ENDBRANCH   4   5
BRANCH   4  37
HETATM   37  O4  UNL     1       7.721  -6.622   1.766  1.00  0.00    -0.337 OA
ATOM     38  H4  UNL     1       6.946  -6.722   2.307  1.00  0.00     0.220 HD
ENDBRANCH   4  37
ENDBRANCH   1   4
TORSDOF 11
ENDMDL
