MODEL 1
REMARK VINA RESULT: -6.681278473      0.000      0.000
REMARK  9 active torsions:
REMARK  status: ('A' for Active; 'I' for Inactive)
REMARK    1  A    between atoms: C2_2  and  C3_3 
REMARK    2  A    between atoms: C2_2  and  C17_26 
REMARK    3  A    between atoms: C3_3  and  O1_4 
REMARK    4  A    between atoms: C3_3  and  N1_6 
REMARK    5  A    between atoms: N1_6  and  C4_7 
REMARK    6  A    between atoms: C8_12  and  C9_13 
REMARK    7  A    between atoms: C8_12  and  N4_19 
REMARK    8  A    between atoms: C10_14  and  C11_15 
REMARK    9  A    between atoms: C11_15  and  N3_16 
ROOT
HETATM    1  C4  UNL     1      10.920  34.947  16.512  1.00  0.00     0.181 C 
HETATM    2  C5  UNL     1       9.400  34.484  16.448  1.00  0.00     0.321 C 
HETATM    3  N2  UNL     1       9.290  33.936  15.076  1.00  0.00    -0.002 N 
HETATM    4  C6  UNL     1      10.042  32.678  15.160  1.00  0.00     0.279 C 
HETATM    5  C7  UNL     1       7.861  33.573  15.014  1.00  0.00     0.279 C 
HETATM    6  C8  UNL     1       9.697  34.826  14.066  1.00  0.00     0.466 C 
HETATM    7  N5  UNL     1      10.155  36.143  14.538  1.00  0.00    -0.286 N 
ATOM      8  H5  UNL     1       9.860  37.013  14.093  1.00  0.00     0.168 HD
HETATM    9  C16 UNL     1      11.036  36.124  15.658  1.00  0.00     0.283 C 
HETATM   10  O2  UNL     1      11.859  37.039  15.925  1.00  0.00    -0.265 OA
ENDROOT
BRANCH   1  11
HETATM   11  N1  UNL     1      11.645  34.273  17.141  1.00  0.00    -0.378 NA
BRANCH  11  12
HETATM   12  C3  UNL     1      12.482  33.521  17.859  1.00  0.00     0.217 C 
BRANCH  12  13
HETATM   13  C2  UNL     1      12.709  33.539  19.327  1.00  0.00    -0.014 C 
HETATM   14  C1  UNL     1      11.445  33.577  20.148  1.00  0.00     0.049 C 
BRANCH  13  15
HETATM   15  C17 UNL     1      13.855  34.295  19.858  1.00  0.00     0.019 C 
HETATM   16  C18 UNL     1      14.275  35.538  19.152  1.00  0.00     0.009 C 
HETATM   17  C19 UNL     1      13.701  36.793  19.819  1.00  0.00     0.001 C 
HETATM   18  C20 UNL     1      14.160  36.945  21.235  1.00  0.00     0.000 C 
HETATM   19  C21 UNL     1      14.693  35.660  21.770  1.00  0.00     0.001 C 
HETATM   20  C22 UNL     1      13.741  34.566  21.355  1.00  0.00     0.009 C 
ENDBRANCH  13  15
ENDBRANCH  12  13
BRANCH  12  21
HETATM   21  O1  UNL     1      13.169  32.654  17.145  1.00  0.00    -0.335 OA
ATOM     22  H1  UNL     1      13.728  32.994  16.456  1.00  0.00     0.220 HD
ENDBRANCH  12  21
ENDBRANCH  11  12
ENDBRANCH   1  11
BRANCH   6  23
HETATM   23  C9  UNL     1       8.527  35.125  13.161  1.00  0.00    -0.010 C 
HETATM   24  C10 UNL     1       7.579  35.428  12.441  1.00  0.00    -0.070 C 
BRANCH  24  25
HETATM   25  C11 UNL     1       6.448  35.856  11.590  1.00  0.00     0.364 C 
BRANCH  25  26
HETATM   26  N3  UNL     1       5.743  36.969  12.235  1.00  0.00     0.090 N 
HETATM   27  C12 UNL     1       4.302  36.855  12.015  1.00  0.00     0.310 C 
HETATM   28  C13 UNL     1       6.203  38.226  11.591  1.00  0.00     0.310 C 
ENDBRANCH  25  26
ENDBRANCH  24  25
ENDBRANCH   6  23
BRANCH   6  29
HETATM   29  N4  UNL     1      10.727  34.316  13.179  1.00  0.00     0.151 N 
HETATM   30  C14 UNL     1      10.238  33.454  12.151  1.00  0.00     0.316 C 
HETATM   31  C15 UNL     1      11.576  35.281  12.572  1.00  0.00     0.316 C 
ENDBRANCH   6  29
TORSDOF 9
ENDMDL
MODEL 2
REMARK VINA RESULT: -6.655175464      0.914      1.088
REMARK  9 active torsions:
REMARK  status: ('A' for Active; 'I' for Inactive)
REMARK    1  A    between atoms: C2_2  and  C3_3 
REMARK    2  A    between atoms: C2_2  and  C17_26 
REMARK    3  A    between atoms: C3_3  and  O1_4 
REMARK    4  A    between atoms: C3_3  and  N1_6 
REMARK    5  A    between atoms: N1_6  and  C4_7 
REMARK    6  A    between atoms: C8_12  and  C9_13 
REMARK    7  A    between atoms: C8_12  and  N4_19 
REMARK    8  A    between atoms: C10_14  and  C11_15 
REMARK    9  A    between atoms: C11_15  and  N3_16 
ROOT
HETATM    1  C4  UNL     1      10.894  34.861  16.459  1.00  0.00     0.181 C 
HETATM    2  C5  UNL     1       9.403  34.308  16.439  1.00  0.00     0.321 C 
HETATM    3  N2  UNL     1       9.307  33.698  15.093  1.00  0.00    -0.002 N 
HETATM    4  C6  UNL     1      10.132  32.491  15.216  1.00  0.00     0.279 C 
HETATM    5  C7  UNL     1       7.901  33.251  15.070  1.00  0.00     0.279 C 
HETATM    6  C8  UNL     1       9.647  34.567  14.040  1.00  0.00     0.466 C 
HETATM    7  N5  UNL     1      10.033  35.927  14.450  1.00  0.00    -0.286 N 
ATOM      8  H5  UNL     1       9.682  36.759  13.975  1.00  0.00     0.168 HD
HETATM    9  C16 UNL     1      10.930  36.006  15.555  1.00  0.00     0.283 C 
HETATM   10  O2  UNL     1      11.701  36.977  15.771  1.00  0.00    -0.265 OA
ENDROOT
BRANCH   1  11
HETATM   11  N1  UNL     1      11.667  34.257  17.102  1.00  0.00    -0.378 NA
BRANCH  11  12
HETATM   12  C3  UNL     1      12.534  33.557  17.837  1.00  0.00     0.217 C 
BRANCH  12  13
HETATM   13  C2  UNL     1      12.738  33.595  19.308  1.00  0.00    -0.014 C 
HETATM   14  C1  UNL     1      11.462  33.658  20.109  1.00  0.00     0.049 C 
BRANCH  13  15
HETATM   15  C17 UNL     1      13.883  34.349  19.845  1.00  0.00     0.019 C 
HETATM   16  C18 UNL     1      14.298  35.600  19.152  1.00  0.00     0.009 C 
HETATM   17  C19 UNL     1      13.721  36.847  19.834  1.00  0.00     0.001 C 
HETATM   18  C20 UNL     1      14.183  36.984  21.251  1.00  0.00     0.000 C 
HETATM   19  C21 UNL     1      14.722  35.694  21.770  1.00  0.00     0.001 C 
HETATM   20  C22 UNL     1      13.772  34.603  21.345  1.00  0.00     0.009 C 
ENDBRANCH  13  15
ENDBRANCH  12  13
BRANCH  12  21
HETATM   21  O1  UNL     1      13.277  32.724  17.138  1.00  0.00    -0.335 OA
ATOM     22  H1  UNL     1      13.108  32.658  16.206  1.00  0.00     0.220 HD
ENDBRANCH  12  21
ENDBRANCH  11  12
ENDBRANCH   1  11
BRANCH   6  23
HETATM   23  C9  UNL     1       8.448  34.759  13.144  1.00  0.00    -0.010 C 
HETATM   24  C10 UNL     1       7.457  34.966  12.449  1.00  0.00    -0.070 C 
BRANCH  24  25
HETATM   25  C11 UNL     1       6.250  35.267  11.648  1.00  0.00     0.364 C 
BRANCH  25  26
HETATM   26  N3  UNL     1       5.198  34.294  11.963  1.00  0.00     0.090 N 
HETATM   27  C12 UNL     1       4.104  34.396  10.999  1.00  0.00     0.310 C 
HETATM   28  C13 UNL     1       4.656  34.636  13.303  1.00  0.00     0.310 C 
ENDBRANCH  25  26
ENDBRANCH  24  25
ENDBRANCH   6  23
BRANCH   6  29
HETATM   29  N4  UNL     1      10.692  34.080  13.158  1.00  0.00     0.151 N 
HETATM   30  C14 UNL     1      10.238  33.153  12.171  1.00  0.00     0.316 C 
HETATM   31  C15 UNL     1      11.478  35.067  12.502  1.00  0.00     0.316 C 
ENDBRANCH   6  29
TORSDOF 9
ENDMDL
MODEL 3
REMARK VINA RESULT: -6.452503817      1.298      1.458
REMARK  9 active torsions:
REMARK  status: ('A' for Active; 'I' for Inactive)
REMARK    1  A    between atoms: C2_2  and  C3_3 
REMARK    2  A    between atoms: C2_2  and  C17_26 
REMARK    3  A    between atoms: C3_3  and  O1_4 
REMARK    4  A    between atoms: C3_3  and  N1_6 
REMARK    5  A    between atoms: N1_6  and  C4_7 
REMARK    6  A    between atoms: C8_12  and  C9_13 
REMARK    7  A    between atoms: C8_12  and  N4_19 
REMARK    8  A    between atoms: C10_14  and  C11_15 
REMARK    9  A    between atoms: C11_15  and  N3_16 
ROOT
HETATM    1  C4  UNL     1      11.372  35.276  16.421  1.00  0.00     0.181 C 
HETATM    2  C5  UNL     1       9.917  34.880  15.916  1.00  0.00     0.321 C 
HETATM    3  N2  UNL     1      10.144  34.589  14.482  1.00  0.00    -0.002 N 
HETATM    4  C6  UNL     1      10.869  33.314  14.512  1.00  0.00     0.279 C 
HETATM    5  C7  UNL     1       8.775  34.289  14.019  1.00  0.00     0.279 C 
HETATM    6  C8  UNL     1      10.770  35.632  13.775  1.00  0.00     0.466 C 
HETATM    7  N5  UNL     1      11.086  36.829  14.572  1.00  0.00    -0.286 N 
ATOM      8  H5  UNL     1      10.895  37.772  14.235  1.00  0.00     0.168 HD
HETATM    9  C16 UNL     1      11.675  36.582  15.846  1.00  0.00     0.283 C 
HETATM   10  O2  UNL     1      12.398  37.407  16.462  1.00  0.00    -0.265 OA
ENDROOT
BRANCH   1  11
HETATM   11  N1  UNL     1      11.935  34.477  17.071  1.00  0.00    -0.378 NA
BRANCH  11  12
HETATM   12  C3  UNL     1      12.583  33.583  17.820  1.00  0.00     0.217 C 
BRANCH  12  13
HETATM   13  C2  UNL     1      12.762  33.572  19.295  1.00  0.00    -0.014 C 
HETATM   14  C1  UNL     1      11.472  33.597  20.075  1.00  0.00     0.049 C 
BRANCH  13  15
HETATM   15  C17 UNL     1      13.892  34.316  19.877  1.00  0.00     0.019 C 
HETATM   16  C18 UNL     1      14.319  35.584  19.224  1.00  0.00     0.009 C 
HETATM   17  C19 UNL     1      13.723  36.813  19.920  1.00  0.00     0.001 C 
HETATM   18  C20 UNL     1      14.149  36.918  21.350  1.00  0.00     0.000 C 
HETATM   19  C21 UNL     1      14.679  35.618  21.852  1.00  0.00     0.001 C 
HETATM   20  C22 UNL     1      13.743  34.535  21.379  1.00  0.00     0.009 C 
ENDBRANCH  13  15
ENDBRANCH  12  13
BRANCH  12  21
HETATM   21  O1  UNL     1      13.107  32.588  17.133  1.00  0.00    -0.335 OA
ATOM     22  H1  UNL     1      13.500  32.792  16.293  1.00  0.00     0.220 HD
ENDBRANCH  12  21
ENDBRANCH  11  12
ENDBRANCH   1  11
BRANCH   6  23
HETATM   23  C9  UNL     1       9.845  36.125  12.689  1.00  0.00    -0.010 C 
HETATM   24  C10 UNL     1       9.110  36.585  11.818  1.00  0.00    -0.070 C 
BRANCH  24  25
HETATM   25  C11 UNL     1       8.246  37.197  10.786  1.00  0.00     0.364 C 
BRANCH  25  26
HETATM   26  N3  UNL     1       7.879  38.556  11.198  1.00  0.00     0.090 N 
HETATM   27  C12 UNL     1       6.538  38.888  10.720  1.00  0.00     0.310 C 
HETATM   28  C13 UNL     1       8.835  39.494  10.558  1.00  0.00     0.310 C 
ENDBRANCH  25  26
ENDBRANCH  24  25
ENDBRANCH   6  23
BRANCH   6  29
HETATM   29  N4  UNL     1      11.987  35.256  13.080  1.00  0.00     0.151 N 
HETATM   30  C14 UNL     1      11.767  34.595  11.833  1.00  0.00     0.316 C 
HETATM   31  C15 UNL     1      12.939  36.290  12.863  1.00  0.00     0.316 C 
ENDBRANCH   6  29
TORSDOF 9
ENDMDL
MODEL 4
REMARK VINA RESULT: -6.439161081      1.715      2.255
REMARK  9 active torsions:
REMARK  status: ('A' for Active; 'I' for Inactive)
REMARK    1  A    between atoms: C2_2  and  C3_3 
REMARK    2  A    between atoms: C2_2  and  C17_26 
REMARK    3  A    between atoms: C3_3  and  O1_4 
REMARK    4  A    between atoms: C3_3  and  N1_6 
REMARK    5  A    between atoms: N1_6  and  C4_7 
REMARK    6  A    between atoms: C8_12  and  C9_13 
REMARK    7  A    between atoms: C8_12  and  N4_19 
REMARK    8  A    between atoms: C10_14  and  C11_15 
REMARK    9  A    between atoms: C11_15  and  N3_16 
ROOT
HETATM    1  C4  UNL     1      12.726  35.328  15.346  1.00  0.00     0.181 C 
HETATM    2  C5  UNL     1      11.274  35.822  15.767  1.00  0.00     0.321 C 
HETATM    3  N2  UNL     1      10.411  34.709  15.307  1.00  0.00    -0.002 N 
HETATM    4  C6  UNL     1      10.713  33.638  16.264  1.00  0.00     0.279 C 
HETATM    5  C7  UNL     1       9.068  35.215  15.647  1.00  0.00     0.279 C 
HETATM    6  C8  UNL     1      10.571  34.379  13.949  1.00  0.00     0.466 C 
HETATM    7  N5  UNL     1      11.557  35.193  13.218  1.00  0.00    -0.286 N 
ATOM      8  H5  UNL     1      11.367  35.574  12.291  1.00  0.00     0.168 HD
HETATM    9  C16 UNL     1      12.793  35.414  13.891  1.00  0.00     0.283 C 
HETATM   10  O2  UNL     1      13.878  35.675  13.308  1.00  0.00    -0.265 OA
ENDROOT
BRANCH   1  11
HETATM   11  N1  UNL     1      13.420  34.947  16.212  1.00  0.00    -0.378 NA
BRANCH  11  12
HETATM   12  C3  UNL     1      14.224  34.514  17.185  1.00  0.00     0.217 C 
BRANCH  12  13
HETATM   13  C2  UNL     1      13.864  34.114  18.569  1.00  0.00    -0.014 C 
HETATM   14  C1  UNL     1      13.127  32.802  18.663  1.00  0.00     0.049 C 
BRANCH  13  15
HETATM   15  C17 UNL     1      13.462  35.158  19.527  1.00  0.00     0.019 C 
HETATM   16  C18 UNL     1      13.301  34.785  20.960  1.00  0.00     0.009 C 
HETATM   17  C19 UNL     1      14.549  35.132  21.781  1.00  0.00     0.001 C 
HETATM   18  C20 UNL     1      14.851  36.597  21.765  1.00  0.00     0.000 C 
HETATM   19  C21 UNL     1      14.147  37.280  20.643  1.00  0.00     0.001 C 
HETATM   20  C22 UNL     1      14.310  36.421  19.415  1.00  0.00     0.009 C 
ENDBRANCH  13  15
ENDBRANCH  12  13
BRANCH  12  21
HETATM   21  O1  UNL     1      15.491  34.430  16.834  1.00  0.00    -0.335 OA
ATOM     22  H1  UNL     1      15.951  35.240  16.649  1.00  0.00     0.220 HD
ENDBRANCH  12  21
ENDBRANCH  11  12
ENDBRANCH   1  11
BRANCH   6  23
HETATM   23  C9  UNL     1       9.268  34.607  13.223  1.00  0.00    -0.010 C 
HETATM   24  C10 UNL     1       8.239  34.795  12.578  1.00  0.00    -0.070 C 
BRANCH  24  25
HETATM   25  C11 UNL     1       7.037  35.023  11.748  1.00  0.00     0.364 C 
BRANCH  25  26
HETATM   26  N3  UNL     1       5.834  34.866  12.573  1.00  0.00     0.090 N 
HETATM   27  C12 UNL     1       5.882  35.770  13.720  1.00  0.00     0.310 C 
HETATM   28  C13 UNL     1       5.824  33.474  13.091  1.00  0.00     0.310 C 
ENDBRANCH  25  26
ENDBRANCH  24  25
ENDBRANCH   6  23
BRANCH   6  29
HETATM   29  N4  UNL     1      10.899  32.989  13.691  1.00  0.00     0.151 N 
HETATM   30  C14 UNL     1       9.766  32.122  13.642  1.00  0.00     0.316 C 
HETATM   31  C15 UNL     1      11.698  32.728  12.545  1.00  0.00     0.316 C 
ENDBRANCH   6  29
TORSDOF 9
ENDMDL
MODEL 5
REMARK VINA RESULT: -6.318007668      1.076      1.514
REMARK  9 active torsions:
REMARK  status: ('A' for Active; 'I' for Inactive)
REMARK    1  A    between atoms: C2_2  and  C3_3 
REMARK    2  A    between atoms: C2_2  and  C17_26 
REMARK    3  A    between atoms: C3_3  and  O1_4 
REMARK    4  A    between atoms: C3_3  and  N1_6 
REMARK    5  A    between atoms: N1_6  and  C4_7 
REMARK    6  A    between atoms: C8_12  and  C9_13 
REMARK    7  A    between atoms: C8_12  and  N4_19 
REMARK    8  A    between atoms: C10_14  and  C11_15 
REMARK    9  A    between atoms: C11_15  and  N3_16 
ROOT
HETATM    1  C4  UNL     1      11.121  34.974  16.274  1.00  0.00     0.181 C 
HETATM    2  C5  UNL     1       9.673  34.344  16.462  1.00  0.00     0.321 C 
HETATM    3  N2  UNL     1       9.378  33.811  15.113  1.00  0.00    -0.002 N 
HETATM    4  C6  UNL     1      10.262  32.644  15.016  1.00  0.00     0.279 C 
HETATM    5  C7  UNL     1       8.008  33.291  15.291  1.00  0.00     0.279 C 
HETATM    6  C8  UNL     1       9.499  34.757  14.079  1.00  0.00     0.466 C 
HETATM    7  N5  UNL     1       9.890  36.110  14.511  1.00  0.00    -0.286 N 
ATOM      8  H5  UNL     1       9.429  36.948  14.157  1.00  0.00     0.168 HD
HETATM    9  C16 UNL     1      10.955  36.171  15.456  1.00  0.00     0.283 C 
HETATM   10  O2  UNL     1      11.710  37.167  15.607  1.00  0.00    -0.265 OA
ENDROOT
BRANCH   1  11
HETATM   11  N1  UNL     1      12.016  34.375  16.739  1.00  0.00    -0.378 NA
BRANCH  11  12
HETATM   12  C3  UNL     1      13.036  33.684  17.251  1.00  0.00     0.217 C 
BRANCH  12  13
HETATM   13  C2  UNL     1      13.574  33.722  18.636  1.00  0.00    -0.014 C 
HETATM   14  C1  UNL     1      13.585  32.385  19.333  1.00  0.00     0.049 C 
BRANCH  13  15
HETATM   15  C17 UNL     1      13.280  34.894  19.477  1.00  0.00     0.019 C 
HETATM   16  C18 UNL     1      13.131  34.696  20.946  1.00  0.00     0.009 C 
HETATM   17  C19 UNL     1      14.424  35.029  21.700  1.00  0.00     0.001 C 
HETATM   18  C20 UNL     1      14.839  36.455  21.514  1.00  0.00     0.000 C 
HETATM   19  C21 UNL     1      14.159  37.065  20.335  1.00  0.00     0.001 C 
HETATM   20  C22 UNL     1      14.221  36.064  19.209  1.00  0.00     0.009 C 
ENDBRANCH  13  15
ENDBRANCH  12  13
BRANCH  12  21
HETATM   21  O1  UNL     1      13.609  32.861  16.396  1.00  0.00    -0.335 OA
ATOM     22  H1  UNL     1      14.134  33.242  15.703  1.00  0.00     0.220 HD
ENDBRANCH  12  21
ENDBRANCH  11  12
ENDBRANCH   1  11
BRANCH   6  23
HETATM   23  C9  UNL     1       8.160  34.939  13.408  1.00  0.00    -0.010 C 
HETATM   24  C10 UNL     1       7.096  35.129  12.823  1.00  0.00    -0.070 C 
BRANCH  24  25
HETATM   25  C11 UNL     1       5.846  35.400  12.081  1.00  0.00     0.364 C 
BRANCH  25  26
HETATM   26  N3  UNL     1       4.729  34.706  12.732  1.00  0.00     0.090 N 
HETATM   27  C12 UNL     1       3.630  34.514  11.788  1.00  0.00     0.310 C 
HETATM   28  C13 UNL     1       4.238  35.576  13.830  1.00  0.00     0.310 C 
ENDBRANCH  25  26
ENDBRANCH  24  25
ENDBRANCH   6  23
BRANCH   6  29
HETATM   29  N4  UNL     1      10.401  34.381  13.006  1.00  0.00     0.151 N 
HETATM   30  C14 UNL     1       9.839  33.465  12.066  1.00  0.00     0.316 C 
HETATM   31  C15 UNL     1      10.997  35.445  12.277  1.00  0.00     0.316 C 
ENDBRANCH   6  29
TORSDOF 9
ENDMDL
