MODEL 1
REMARK VINA RESULT: -6.041807561      0.000      0.000
REMARK  6 active torsions:
REMARK  status: ('A' for Active; 'I' for Inactive)
REMARK    1  A    between atoms: C4_5  and  N2_6 
REMARK    2  A    between atoms: N2_6  and  C5_8 
REMARK    3  A    between atoms: C5_8  and  N3_10 
REMARK    4  A    between atoms: N4_13  and  C8_14 
REMARK    5  A    between atoms: C8_14  and  C9_15 
REMARK    6  A    between atoms: C9_15  and  N5_16 
ROOT
HETATM    1  N3  UNL     1      12.152  33.953  15.035  1.00  0.00    -0.331 N 
HETATM    2  C6  UNL     1      11.039  33.289  15.665  1.00  0.00     0.157 C 
HETATM    3  C7  UNL     1      10.676  34.274  16.774  1.00  0.00     0.294 C 
HETATM    4  N4  UNL     1      11.983  34.786  17.190  1.00  0.00     0.109 N 
HETATM    5  C15 UNL     1      12.846  34.697  16.055  1.00  0.00     0.400 C 
ENDROOT
BRANCH   1   6
HETATM    6  C5  UNL     1      12.485  33.872  13.661  1.00  0.00     0.172 C 
HETATM    7  S1  UNL     1      11.687  34.845  12.625  1.00  0.00    -0.041 SA
BRANCH   6   8
HETATM    8  N2  UNL     1      13.449  32.989  13.185  1.00  0.00    -0.353 N 
ATOM      9  H2  UNL     1      14.350  33.390  12.927  1.00  0.00     0.163 HD
BRANCH   8  10
HETATM   10  C4  UNL     1      13.306  31.612  13.027  1.00  0.00     0.078 C 
HETATM   11  C3  UNL     1      13.628  30.745  14.186  1.00  0.00     0.031 C 
HETATM   12  C2  UNL     1      13.041  29.584  13.907  1.00  0.00     0.201 C 
HETATM   13  N1  UNL     1      12.366  29.660  12.644  1.00  0.00    -0.048 N 
HETATM   14  C1  UNL     1      11.312  28.765  12.447  1.00  0.00     0.278 C 
HETATM   15  C17 UNL     1      13.343  29.751  11.584  1.00  0.00     0.245 C 
HETATM   16  C18 UNL     1      11.930  31.078  12.687  1.00  0.00     0.277 C 
HETATM   17  C16 UNL     1      14.098  31.038  11.858  1.00  0.00     0.065 C 
ENDBRANCH   8  10
ENDBRANCH   6   8
ENDBRANCH   1   6
BRANCH   4  18
HETATM   18  C8  UNL     1      12.524  34.039  18.278  1.00  0.00     0.302 C 
BRANCH  18  19
HETATM   19  C9  UNL     1      12.590  34.677  19.607  1.00  0.00     0.267 C 
BRANCH  19  20
HETATM   20  N5  UNL     1      13.798  35.243  20.060  1.00  0.00    -0.065 N 
HETATM   21  C10 UNL     1      14.581  34.275  20.854  1.00  0.00     0.272 C 
HETATM   22  C11 UNL     1      14.668  35.854  19.111  1.00  0.00     0.263 C 
HETATM   23  C12 UNL     1      14.231  37.288  18.877  1.00  0.00     0.195 C 
HETATM   24  O1  UNL     1      14.715  38.056  19.928  1.00  0.00    -0.388 OA
HETATM   25  C13 UNL     1      14.533  37.350  21.117  1.00  0.00     0.195 C 
HETATM   26  C14 UNL     1      13.445  36.309  21.022  1.00  0.00     0.263 C 
ENDBRANCH  19  20
ENDBRANCH  18  19
ENDBRANCH   4  18
TORSDOF 6
ENDMDL
MODEL 2
REMARK VINA RESULT: -5.848006349      2.865      4.329
REMARK  6 active torsions:
REMARK  status: ('A' for Active; 'I' for Inactive)
REMARK    1  A    between atoms: C4_5  and  N2_6 
REMARK    2  A    between atoms: N2_6  and  C5_8 
REMARK    3  A    between atoms: C5_8  and  N3_10 
REMARK    4  A    between atoms: N4_13  and  C8_14 
REMARK    5  A    between atoms: C8_14  and  C9_15 
REMARK    6  A    between atoms: C9_15  and  N5_16 
ROOT
HETATM    1  N3  UNL     1      11.832  34.705  15.171  1.00  0.00    -0.331 N 
HETATM    2  C6  UNL     1      11.216  33.470  15.584  1.00  0.00     0.157 C 
HETATM    3  C7  UNL     1      10.568  33.873  16.908  1.00  0.00     0.294 C 
HETATM    4  N4  UNL     1      11.540  34.816  17.466  1.00  0.00     0.109 N 
HETATM    5  C15 UNL     1      12.221  35.415  16.362  1.00  0.00     0.400 C 
ENDROOT
BRANCH   1   6
HETATM    6  C5  UNL     1      12.015  35.122  13.830  1.00  0.00     0.172 C 
HETATM    7  S1  UNL     1      13.280  34.508  13.007  1.00  0.00    -0.041 SA
BRANCH   6   8
HETATM    8  N2  UNL     1      11.162  36.034  13.217  1.00  0.00    -0.353 N 
ATOM      9  H2  UNL     1      11.593  36.861  12.806  1.00  0.00     0.163 HD
BRANCH   8  10
HETATM   10  C4  UNL     1       9.776  35.931  13.109  1.00  0.00     0.078 C 
HETATM   11  C3  UNL     1       8.964  36.217  14.316  1.00  0.00     0.031 C 
HETATM   12  C2  UNL     1       7.738  36.436  13.849  1.00  0.00     0.201 C 
HETATM   13  N1  UNL     1       7.722  36.308  12.420  1.00  0.00    -0.048 N 
HETATM   14  C1  UNL     1       6.703  36.986  11.747  1.00  0.00     0.278 C 
HETATM   15  C17 UNL     1       7.922  34.924  12.061  1.00  0.00     0.245 C 
HETATM   16  C18 UNL     1       9.075  36.833  12.114  1.00  0.00     0.277 C 
HETATM   17  C16 UNL     1       9.294  34.574  12.607  1.00  0.00     0.065 C 
ENDBRANCH   8  10
ENDBRANCH   6   8
ENDBRANCH   1   6
BRANCH   4  18
HETATM   18  C8  UNL     1      12.474  34.168  18.327  1.00  0.00     0.302 C 
BRANCH  18  19
HETATM   19  C9  UNL     1      12.629  34.672  19.706  1.00  0.00     0.267 C 
BRANCH  19  20
HETATM   20  N5  UNL     1      13.848  35.248  20.115  1.00  0.00    -0.065 N 
HETATM   21  C10 UNL     1      14.666  34.288  20.881  1.00  0.00     0.272 C 
HETATM   22  C11 UNL     1      14.678  35.866  19.134  1.00  0.00     0.263 C 
HETATM   23  C12 UNL     1      14.221  37.295  18.914  1.00  0.00     0.195 C 
HETATM   24  O1  UNL     1      14.737  38.069  19.947  1.00  0.00    -0.388 OA
HETATM   25  C13 UNL     1      14.603  37.363  21.143  1.00  0.00     0.195 C 
HETATM   26  C14 UNL     1      13.521  36.313  21.088  1.00  0.00     0.263 C 
ENDBRANCH  19  20
ENDBRANCH  18  19
ENDBRANCH   4  18
TORSDOF 6
ENDMDL
MODEL 3
REMARK VINA RESULT: -5.710686973      2.259      3.900
REMARK  6 active torsions:
REMARK  status: ('A' for Active; 'I' for Inactive)
REMARK    1  A    between atoms: C4_5  and  N2_6 
REMARK    2  A    between atoms: N2_6  and  C5_8 
REMARK    3  A    between atoms: C5_8  and  N3_10 
REMARK    4  A    between atoms: N4_13  and  C8_14 
REMARK    5  A    between atoms: C8_14  and  C9_15 
REMARK    6  A    between atoms: C9_15  and  N5_16 
ROOT
HETATM    1  N3  UNL     1      12.057  33.689  15.172  1.00  0.00    -0.331 N 
HETATM    2  C6  UNL     1      10.815  33.385  15.838  1.00  0.00     0.157 C 
HETATM    3  C7  UNL     1      10.701  34.541  16.829  1.00  0.00     0.294 C 
HETATM    4  N4  UNL     1      12.094  34.762  17.225  1.00  0.00     0.109 N 
HETATM    5  C15 UNL     1      12.910  34.347  16.128  1.00  0.00     0.400 C 
ENDROOT
BRANCH   1   6
HETATM    6  C5  UNL     1      12.360  33.383  13.823  1.00  0.00     0.172 C 
HETATM    7  S1  UNL     1      13.138  31.985  13.516  1.00  0.00    -0.041 SA
BRANCH   6   8
HETATM    8  N2  UNL     1      12.027  34.240  12.779  1.00  0.00    -0.353 N 
ATOM      9  H2  UNL     1      11.186  34.011  12.249  1.00  0.00     0.163 HD
BRANCH   8  10
HETATM   10  C4  UNL     1      12.727  35.378  12.384  1.00  0.00     0.078 C 
HETATM   11  C3  UNL     1      14.166  35.460  12.730  1.00  0.00     0.031 C 
HETATM   12  C2  UNL     1      14.650  36.399  11.921  1.00  0.00     0.201 C 
HETATM   13  N1  UNL     1      13.608  36.917  11.083  1.00  0.00    -0.048 N 
HETATM   14  C1  UNL     1      14.010  37.494   9.876  1.00  0.00     0.278 C 
HETATM   15  C17 UNL     1      12.682  37.680  11.886  1.00  0.00     0.245 C 
HETATM   16  C18 UNL     1      12.806  35.682  10.902  1.00  0.00     0.277 C 
HETATM   17  C16 UNL     1      12.115  36.684  12.880  1.00  0.00     0.065 C 
ENDBRANCH   8  10
ENDBRANCH   6   8
ENDBRANCH   1   6
BRANCH   4  18
HETATM   18  C8  UNL     1      12.436  34.027  18.398  1.00  0.00     0.302 C 
BRANCH  18  19
HETATM   19  C9  UNL     1      12.542  34.753  19.679  1.00  0.00     0.267 C 
BRANCH  19  20
HETATM   20  N5  UNL     1      13.782  35.281  20.091  1.00  0.00    -0.065 N 
HETATM   21  C10 UNL     1      14.556  34.291  20.866  1.00  0.00     0.272 C 
HETATM   22  C11 UNL     1      14.641  35.858  19.111  1.00  0.00     0.263 C 
HETATM   23  C12 UNL     1      14.245  37.305  18.882  1.00  0.00     0.195 C 
HETATM   24  O1  UNL     1      14.787  38.062  19.914  1.00  0.00    -0.388 OA
HETATM   25  C13 UNL     1      14.618  37.368  21.112  1.00  0.00     0.195 C 
HETATM   26  C14 UNL     1      13.494  36.363  21.057  1.00  0.00     0.263 C 
ENDBRANCH  19  20
ENDBRANCH  18  19
ENDBRANCH   4  18
TORSDOF 6
ENDMDL
MODEL 4
REMARK VINA RESULT: -5.661207399      4.952      8.464
REMARK  6 active torsions:
REMARK  status: ('A' for Active; 'I' for Inactive)
REMARK    1  A    between atoms: C4_5  and  N2_6 
REMARK    2  A    between atoms: N2_6  and  C5_8 
REMARK    3  A    between atoms: C5_8  and  N3_10 
REMARK    4  A    between atoms: N4_13  and  C8_14 
REMARK    5  A    between atoms: C8_14  and  C9_15 
REMARK    6  A    between atoms: C9_15  and  N5_16 
ROOT
HETATM    1  N3  UNL     1      12.440  35.659  13.488  1.00  0.00    -0.331 N 
HETATM    2  C6  UNL     1      13.218  34.948  12.505  1.00  0.00     0.157 C 
HETATM    3  C7  UNL     1      14.198  36.026  12.045  1.00  0.00     0.294 C 
HETATM    4  N4  UNL     1      13.380  37.240  12.080  1.00  0.00     0.109 N 
HETATM    5  C15 UNL     1      12.376  37.038  13.076  1.00  0.00     0.400 C 
ENDROOT
BRANCH   1   6
HETATM    6  C5  UNL     1      11.853  35.083  14.641  1.00  0.00     0.172 C 
HETATM    7  S1  UNL     1      11.008  33.703  14.457  1.00  0.00    -0.041 SA
BRANCH   6   8
HETATM    8  N2  UNL     1      11.969  35.667  15.899  1.00  0.00    -0.353 N 
ATOM      9  H2  UNL     1      11.184  36.235  16.215  1.00  0.00     0.163 HD
BRANCH   8  10
HETATM   10  C4  UNL     1      13.050  35.551  16.770  1.00  0.00     0.078 C 
HETATM   11  C3  UNL     1      14.345  35.095  16.208  1.00  0.00     0.031 C 
HETATM   12  C2  UNL     1      15.247  35.454  17.118  1.00  0.00     0.201 C 
HETATM   13  N1  UNL     1      14.606  36.109  18.221  1.00  0.00    -0.048 N 
HETATM   14  C1  UNL     1      15.399  36.977  18.975  1.00  0.00     0.278 C 
HETATM   15  C17 UNL     1      13.821  35.148  18.959  1.00  0.00     0.245 C 
HETATM   16  C18 UNL     1      13.514  36.799  17.491  1.00  0.00     0.277 C 
HETATM   17  C16 UNL     1      12.787  34.646  17.968  1.00  0.00     0.065 C 
ENDBRANCH   8  10
ENDBRANCH   6   8
ENDBRANCH   1   6
BRANCH   4  18
HETATM   18  C8  UNL     1      12.774  37.508  10.817  1.00  0.00     0.302 C 
BRANCH  18  19
HETATM   19  C9  UNL     1      11.410  38.071  10.795  1.00  0.00     0.267 C 
BRANCH  19  20
HETATM   20  N5  UNL     1      11.010  38.913   9.739  1.00  0.00    -0.065 N 
HETATM   21  C10 UNL     1      10.243  38.169   8.719  1.00  0.00     0.272 C 
HETATM   22  C11 UNL     1      10.303  40.112  10.048  1.00  0.00     0.263 C 
HETATM   23  C12 UNL     1      11.296  41.210  10.381  1.00  0.00     0.195 C 
HETATM   24  O1  UNL     1      11.784  41.717   9.183  1.00  0.00    -0.388 OA
HETATM   25  C13 UNL     1      12.032  40.652   8.316  1.00  0.00     0.195 C 
HETATM   26  C14 UNL     1      12.238  39.343   9.037  1.00  0.00     0.263 C 
ENDBRANCH  19  20
ENDBRANCH  18  19
ENDBRANCH   4  18
TORSDOF 6
ENDMDL
MODEL 5
REMARK VINA RESULT: -5.594863941      3.424      4.737
REMARK  6 active torsions:
REMARK  status: ('A' for Active; 'I' for Inactive)
REMARK    1  A    between atoms: C4_5  and  N2_6 
REMARK    2  A    between atoms: N2_6  and  C5_8 
REMARK    3  A    between atoms: C5_8  and  N3_10 
REMARK    4  A    between atoms: N4_13  and  C8_14 
REMARK    5  A    between atoms: C8_14  and  C9_15 
REMARK    6  A    between atoms: C9_15  and  N5_16 
ROOT
HETATM    1  N3  UNL     1      11.351  35.343  15.552  1.00  0.00    -0.331 N 
HETATM    2  C6  UNL     1      12.159  36.199  14.720  1.00  0.00     0.157 C 
HETATM    3  C7  UNL     1      13.351  35.295  14.408  1.00  0.00     0.294 C 
HETATM    4  N4  UNL     1      13.526  34.553  15.658  1.00  0.00     0.109 N 
HETATM    5  C15 UNL     1      12.245  34.484  16.286  1.00  0.00     0.400 C 
ENDROOT
BRANCH   1   6
HETATM    6  C5  UNL     1       9.937  35.364  15.622  1.00  0.00     0.172 C 
HETATM    7  S1  UNL     1       9.214  34.397  16.715  1.00  0.00    -0.041 SA
BRANCH   6   8
HETATM    8  N2  UNL     1       9.168  36.167  14.785  1.00  0.00    -0.353 N 
ATOM      9  H2  UNL     1       8.917  37.090  15.138  1.00  0.00     0.163 HD
BRANCH   8  10
HETATM   10  C4  UNL     1       8.708  35.836  13.512  1.00  0.00     0.078 C 
HETATM   11  C3  UNL     1       9.304  36.546  12.354  1.00  0.00     0.031 C 
HETATM   12  C2  UNL     1       8.999  35.787  11.305  1.00  0.00     0.201 C 
HETATM   13  N1  UNL     1       8.249  34.639  11.725  1.00  0.00    -0.048 N 
HETATM   14  C1  UNL     1       8.298  33.523  10.886  1.00  0.00     0.278 C 
HETATM   15  C17 UNL     1       6.939  35.058  12.165  1.00  0.00     0.245 C 
HETATM   16  C18 UNL     1       8.881  34.405  13.046  1.00  0.00     0.277 C 
HETATM   17  C16 UNL     1       7.199  35.978  13.343  1.00  0.00     0.065 C 
ENDBRANCH   8  10
ENDBRANCH   6   8
ENDBRANCH   1   6
BRANCH   4  18
HETATM   18  C8  UNL     1      14.465  35.187  16.525  1.00  0.00     0.302 C 
BRANCH  18  19
HETATM   19  C9  UNL     1      14.139  35.294  17.960  1.00  0.00     0.267 C 
BRANCH  19  20
HETATM   20  N5  UNL     1      14.235  36.537  18.615  1.00  0.00    -0.065 N 
HETATM   21  C10 UNL     1      13.627  37.617  17.812  1.00  0.00     0.272 C 
HETATM   22  C11 UNL     1      13.755  36.646  19.953  1.00  0.00     0.263 C 
HETATM   23  C12 UNL     1      14.838  36.197  20.916  1.00  0.00     0.195 C 
HETATM   24  O1  UNL     1      15.731  37.251  21.070  1.00  0.00    -0.388 OA
HETATM   25  C13 UNL     1      15.961  37.828  19.821  1.00  0.00     0.195 C 
HETATM   26  C14 UNL     1      15.670  36.887  18.677  1.00  0.00     0.263 C 
ENDBRANCH  19  20
ENDBRANCH  18  19
ENDBRANCH   4  18
TORSDOF 6
ENDMDL
