MODEL 1
REMARK VINA RESULT: -8.297264766      0.000      0.000
REMARK  4 active torsions:
REMARK  status: ('A' for Active; 'I' for Inactive)
REMARK    1  A    between atoms: N3_13  and  O3_14 
REMARK    2  A    between atoms: C6_16  and  N4_17 
REMARK    3  A    between atoms: N4_17  and  N5_19 
REMARK    4  A    between atoms: C7_21  and  C8_22 
ROOT
HETATM    1  N1  UNL     1     -15.259  69.980  18.741  1.00  0.00    -0.383 N 
ATOM      2  H11 UNL     1     -16.098  69.927  19.317  1.00  0.00     0.158 HD
ATOM      3  H12 UNL     1     -15.225  70.681  18.001  1.00  0.00     0.158 HD
HETATM    4  C1  UNL     1     -14.298  69.159  18.987  1.00  0.00     0.125 C 
HETATM    5  C2  UNL     1     -13.076  69.237  18.148  1.00  0.00     0.169 C 
HETATM    6  C3  UNL     1     -12.678  67.840  17.845  1.00  0.00     0.186 C 
HETATM    7  O1  UNL     1     -12.293  67.491  16.702  1.00  0.00    -0.290 OA
HETATM    8  C4  UNL     1     -12.739  66.848  18.911  1.00  0.00     0.121 A 
HETATM    9  N2  UNL     1     -11.964  65.725  18.849  1.00  0.00    -0.301 N 
ATOM     10  H2  UNL     1     -11.340  65.579  18.055  1.00  0.00     0.171 HD
HETATM   11  C5  UNL     1     -12.022  64.812  19.835  1.00  0.00     0.353 A 
HETATM   12  O2  UNL     1     -11.312  63.755  19.805  1.00  0.00    -0.244 OA
HETATM   13  N3  UNL     1     -12.843  65.001  20.885  1.00  0.00    -0.151 N 
HETATM   14  C6  UNL     1     -13.622  66.105  20.973  1.00  0.00     0.189 A 
HETATM   15  C9  UNL     1     -13.583  67.056  19.977  1.00  0.00     0.155 A 
HETATM   16  O5  UNL     1     -14.343  68.209  19.989  1.00  0.00    -0.291 OA
ENDROOT
BRANCH  14  17
HETATM   17  N4  UNL     1     -14.405  66.263  21.997  1.00  0.00    -0.281 N 
ATOM     18  H4  UNL     1     -14.939  65.457  22.323  1.00  0.00     0.188 HD
BRANCH  17  19
HETATM   19  N5  UNL     1     -14.555  67.457  22.668  1.00  0.00    -0.307 N 
HETATM   20  C7  UNL     1     -15.666  67.972  23.015  1.00  0.00     0.148 C 
ATOM     21  H5  UNL     1     -13.706  67.970  22.907  1.00  0.00     0.186 HD
BRANCH  20  22
HETATM   22  C8  UNL     1     -15.670  69.244  23.723  1.00  0.00     0.277 C 
HETATM   23  O4  UNL     1     -16.260  69.365  24.825  1.00  0.00    -0.301 OA
ENDBRANCH  20  22
ENDBRANCH  17  19
ENDBRANCH  14  17
BRANCH  13  24
HETATM   24  O3  UNL     1     -12.872  64.037  21.878  1.00  0.00    -0.277 OA
ATOM     25  H3  UNL     1     -13.681  63.912  22.360  1.00  0.00     0.245 HD
ENDBRANCH  13  24
TORSDOF 4
ENDMDL
MODEL 2
REMARK VINA RESULT: -8.032946172      2.023      5.209
REMARK  4 active torsions:
REMARK  status: ('A' for Active; 'I' for Inactive)
REMARK    1  A    between atoms: N3_13  and  O3_14 
REMARK    2  A    between atoms: C6_16  and  N4_17 
REMARK    3  A    between atoms: N4_17  and  N5_19 
REMARK    4  A    between atoms: C7_21  and  C8_22 
ROOT
HETATM    1  N1  UNL     1     -13.224  70.224  18.687  1.00  0.00    -0.383 N 
ATOM      2  H11 UNL     1     -12.264  70.483  18.463  1.00  0.00     0.158 HD
ATOM      3  H12 UNL     1     -13.937  70.953  18.671  1.00  0.00     0.158 HD
HETATM    4  C1  UNL     1     -13.473  68.993  18.973  1.00  0.00     0.125 C 
HETATM    5  C2  UNL     1     -14.870  68.617  19.298  1.00  0.00     0.169 C 
HETATM    6  C3  UNL     1     -14.803  67.690  20.455  1.00  0.00     0.186 C 
HETATM    7  O1  UNL     1     -15.603  67.770  21.420  1.00  0.00    -0.290 OA
HETATM    8  C4  UNL     1     -13.774  66.658  20.467  1.00  0.00     0.121 A 
HETATM    9  N2  UNL     1     -13.948  65.523  21.208  1.00  0.00    -0.301 N 
ATOM     10  H2  UNL     1     -14.800  65.397  21.754  1.00  0.00     0.171 HD
HETATM   11  C5  UNL     1     -12.997  64.572  21.215  1.00  0.00     0.353 A 
HETATM   12  O2  UNL     1     -13.130  63.504  21.896  1.00  0.00    -0.244 OA
HETATM   13  N3  UNL     1     -11.871  64.735  20.495  1.00  0.00    -0.151 N 
HETATM   14  C6  UNL     1     -11.672  65.850  19.752  1.00  0.00     0.189 A 
HETATM   15  C9  UNL     1     -12.630  66.839  19.726  1.00  0.00     0.155 A 
HETATM   16  O5  UNL     1     -12.507  68.005  18.995  1.00  0.00    -0.291 OA
ENDROOT
BRANCH  14  17
HETATM   17  N4  UNL     1     -10.578  65.981  19.066  1.00  0.00    -0.281 N 
ATOM     18  H4  UNL     1      -9.750  66.339  19.543  1.00  0.00     0.188 HD
BRANCH  17  19
HETATM   19  N5  UNL     1     -10.470  65.664  17.729  1.00  0.00    -0.307 N 
HETATM   20  C7  UNL     1      -9.547  64.957  17.212  1.00  0.00     0.148 C 
ATOM     21  H5  UNL     1     -11.189  66.026  17.103  1.00  0.00     0.186 HD
BRANCH  20  22
HETATM   22  C8  UNL     1      -9.563  64.704  15.778  1.00  0.00     0.277 C 
HETATM   23  O4  UNL     1      -9.984  65.574  14.976  1.00  0.00    -0.301 OA
ENDBRANCH  20  22
ENDBRANCH  17  19
ENDBRANCH  14  17
BRANCH  13  24
HETATM   24  O3  UNL     1     -10.917  63.733  20.531  1.00  0.00    -0.277 OA
ATOM     25  H3  UNL     1     -11.204  62.844  20.703  1.00  0.00     0.245 HD
ENDBRANCH  13  24
TORSDOF 4
ENDMDL
MODEL 3
REMARK VINA RESULT: -7.920375598      2.014      4.966
REMARK  4 active torsions:
REMARK  status: ('A' for Active; 'I' for Inactive)
REMARK    1  A    between atoms: N3_13  and  O3_14 
REMARK    2  A    between atoms: C6_16  and  N4_17 
REMARK    3  A    between atoms: N4_17  and  N5_19 
REMARK    4  A    between atoms: C7_21  and  C8_22 
ROOT
HETATM    1  N1  UNL     1     -15.381  70.813  18.172  1.00  0.00    -0.383 N 
ATOM      2  H11 UNL     1     -14.589  70.649  17.551  1.00  0.00     0.158 HD
ATOM      3  H12 UNL     1     -15.937  71.656  18.032  1.00  0.00     0.158 HD
HETATM    4  C1  UNL     1     -15.624  69.943  19.090  1.00  0.00     0.125 C 
HETATM    5  C2  UNL     1     -16.777  70.181  19.994  1.00  0.00     0.169 C 
HETATM    6  C3  UNL     1     -16.325  69.825  21.362  1.00  0.00     0.186 C 
HETATM    7  O1  UNL     1     -16.612  70.529  22.361  1.00  0.00    -0.290 OA
HETATM    8  C4  UNL     1     -15.523  68.622  21.544  1.00  0.00     0.121 A 
HETATM    9  N2  UNL     1     -15.493  67.995  22.757  1.00  0.00    -0.301 N 
ATOM     10  H2  UNL     1     -16.031  68.368  23.538  1.00  0.00     0.171 HD
HETATM   11  C5  UNL     1     -14.752  66.883  22.921  1.00  0.00     0.353 A 
HETATM   12  O2  UNL     1     -14.703  66.277  24.040  1.00  0.00    -0.244 OA
HETATM   13  N3  UNL     1     -14.040  66.387  21.893  1.00  0.00    -0.151 N 
HETATM   14  C6  UNL     1     -14.052  66.988  20.679  1.00  0.00     0.189 A 
HETATM   15  C9  UNL     1     -14.802  68.127  20.483  1.00  0.00     0.155 A 
HETATM   16  O5  UNL     1     -14.870  68.801  19.279  1.00  0.00    -0.291 OA
ENDROOT
BRANCH  14  17
HETATM   17  N4  UNL     1     -13.356  66.488  19.704  1.00  0.00    -0.281 N 
ATOM     18  H4  UNL     1     -13.857  66.067  18.921  1.00  0.00     0.188 HD
BRANCH  17  19
HETATM   19  N5  UNL     1     -11.979  66.491  19.666  1.00  0.00    -0.307 N 
HETATM   20  C7  UNL     1     -11.261  65.789  18.884  1.00  0.00     0.148 C 
ATOM     21  H5  UNL     1     -11.494  67.107  20.319  1.00  0.00     0.186 HD
BRANCH  20  22
HETATM   22  C8  UNL     1      -9.811  65.898  18.959  1.00  0.00     0.277 C 
HETATM   23  O4  UNL     1      -9.150  66.351  17.992  1.00  0.00    -0.301 OA
ENDBRANCH  20  22
ENDBRANCH  17  19
ENDBRANCH  14  17
BRANCH  13  24
HETATM   24  O3  UNL     1     -13.291  65.242  22.104  1.00  0.00    -0.277 OA
ATOM     25  H3  UNL     1     -12.530  65.299  22.668  1.00  0.00     0.245 HD
ENDBRANCH  13  24
TORSDOF 4
ENDMDL
MODEL 4
REMARK VINA RESULT: -7.480173305      2.167      5.676
REMARK  4 active torsions:
REMARK  status: ('A' for Active; 'I' for Inactive)
REMARK    1  A    between atoms: N3_13  and  O3_14 
REMARK    2  A    between atoms: C6_16  and  N4_17 
REMARK    3  A    between atoms: N4_17  and  N5_19 
REMARK    4  A    between atoms: C7_21  and  C8_22 
ROOT
HETATM    1  N1  UNL     1     -17.167  69.259  25.631  1.00  0.00    -0.383 N 
ATOM      2  H11 UNL     1     -16.975  68.337  26.020  1.00  0.00     0.158 HD
ATOM      3  H12 UNL     1     -17.761  69.894  26.164  1.00  0.00     0.158 HD
HETATM    4  C1  UNL     1     -16.644  69.561  24.493  1.00  0.00     0.125 C 
HETATM    5  C2  UNL     1     -16.923  70.904  23.927  1.00  0.00     0.169 C 
HETATM    6  C3  UNL     1     -17.180  70.709  22.478  1.00  0.00     0.186 C 
HETATM    7  O1  UNL     1     -18.108  71.309  21.881  1.00  0.00    -0.290 OA
HETATM    8  C4  UNL     1     -16.327  69.793  21.732  1.00  0.00     0.121 A 
HETATM    9  N2  UNL     1     -16.190  69.930  20.380  1.00  0.00    -0.301 N 
ATOM     10  H2  UNL     1     -16.684  70.675  19.890  1.00  0.00     0.171 HD
HETATM   11  C5  UNL     1     -15.401  69.083  19.695  1.00  0.00     0.353 A 
HETATM   12  O2  UNL     1     -15.253  69.185  18.434  1.00  0.00    -0.244 OA
HETATM   13  N3  UNL     1     -14.746  68.098  20.338  1.00  0.00    -0.151 N 
HETATM   14  C6  UNL     1     -14.864  67.939  21.678  1.00  0.00     0.189 A 
HETATM   15  C9  UNL     1     -15.665  68.793  22.404  1.00  0.00     0.155 A 
HETATM   16  O5  UNL     1     -15.839  68.701  23.771  1.00  0.00    -0.291 OA
ENDROOT
BRANCH  14  17
HETATM   17  N4  UNL     1     -14.220  66.981  22.273  1.00  0.00    -0.281 N 
ATOM     18  H4  UNL     1     -13.646  67.217  23.083  1.00  0.00     0.188 HD
BRANCH  17  19
HETATM   19  N5  UNL     1     -14.268  65.663  21.872  1.00  0.00    -0.307 N 
HETATM   20  C7  UNL     1     -13.277  64.986  21.448  1.00  0.00     0.148 C 
ATOM     21  H5  UNL     1     -15.171  65.192  21.921  1.00  0.00     0.186 HD
BRANCH  20  22
HETATM   22  C8  UNL     1     -13.479  63.598  21.059  1.00  0.00     0.277 C 
HETATM   23  O4  UNL     1     -12.830  63.095  20.109  1.00  0.00    -0.301 OA
ENDBRANCH  20  22
ENDBRANCH  17  19
ENDBRANCH  14  17
BRANCH  13  24
HETATM   24  O3  UNL     1     -13.944  67.248  19.595  1.00  0.00    -0.277 OA
ATOM     25  H3  UNL     1     -13.599  66.471  20.018  1.00  0.00     0.245 HD
ENDBRANCH  13  24
TORSDOF 4
ENDMDL
MODEL 5
REMARK VINA RESULT: -7.436942324      1.492      3.920
REMARK  4 active torsions:
REMARK  status: ('A' for Active; 'I' for Inactive)
REMARK    1  A    between atoms: N3_13  and  O3_14 
REMARK    2  A    between atoms: C6_16  and  N4_17 
REMARK    3  A    between atoms: N4_17  and  N5_19 
REMARK    4  A    between atoms: C7_21  and  C8_22 
ROOT
HETATM    1  N1  UNL     1     -12.243  63.341  22.125  1.00  0.00    -0.383 N 
ATOM      2  H11 UNL     1     -12.847  63.511  22.928  1.00  0.00     0.158 HD
ATOM      3  H12 UNL     1     -11.571  62.575  22.180  1.00  0.00     0.158 HD
HETATM    4  C1  UNL     1     -12.369  64.103  21.095  1.00  0.00     0.125 C 
HETATM    5  C2  UNL     1     -11.490  63.855  19.925  1.00  0.00     0.169 C 
HETATM    6  C3  UNL     1     -11.042  65.184  19.441  1.00  0.00     0.186 C 
HETATM    7  O1  UNL     1      -9.856  65.398  19.088  1.00  0.00    -0.290 OA
HETATM    8  C4  UNL     1     -12.012  66.269  19.376  1.00  0.00     0.121 A 
HETATM    9  N2  UNL     1     -11.812  67.318  18.524  1.00  0.00    -0.301 N 
ATOM     10  H2  UNL     1     -10.982  67.343  17.931  1.00  0.00     0.171 HD
HETATM   11  C5  UNL     1     -12.710  68.318  18.465  1.00  0.00     0.353 A 
HETATM   12  O2  UNL     1     -12.550  69.310  17.681  1.00  0.00    -0.244 OA
HETATM   13  N3  UNL     1     -13.806  68.289  19.245  1.00  0.00    -0.151 N 
HETATM   14  C6  UNL     1     -14.031  67.261  20.099  1.00  0.00     0.189 A 
HETATM   15  C9  UNL     1     -13.127  66.224  20.178  1.00  0.00     0.155 A 
HETATM   16  O5  UNL     1     -13.279  65.140  21.020  1.00  0.00    -0.291 OA
ENDROOT
BRANCH  14  17
HETATM   17  N4  UNL     1     -15.097  67.258  20.839  1.00  0.00    -0.281 N 
ATOM     18  H4  UNL     1     -15.845  66.606  20.603  1.00  0.00     0.188 HD
BRANCH  17  19
HETATM   19  N5  UNL     1     -15.277  68.087  21.925  1.00  0.00    -0.307 N 
HETATM   20  C7  UNL     1     -16.347  68.719  22.200  1.00  0.00     0.148 C 
ATOM     21  H5  UNL     1     -14.488  68.202  22.561  1.00  0.00     0.186 HD
BRANCH  20  22
HETATM   22  C8  UNL     1     -16.390  69.561  23.387  1.00  0.00     0.277 C 
HETATM   23  O4  UNL     1     -15.681  69.297  24.389  1.00  0.00    -0.301 OA
ENDBRANCH  20  22
ENDBRANCH  17  19
ENDBRANCH  14  17
BRANCH  13  24
HETATM   24  O3  UNL     1     -14.705  69.338  19.154  1.00  0.00    -0.277 OA
ATOM     25  H3  UNL     1     -14.472  70.167  19.554  1.00  0.00     0.245 HD
ENDBRANCH  13  24
TORSDOF 4
ENDMDL
