MODEL 1
REMARK VINA RESULT: -8.411676149      0.000      0.000
REMARK  3 active torsions:
REMARK  status: ('A' for Active; 'I' for Inactive)
REMARK    1  A    between atoms: N1_2  and  N2_3 
REMARK    2  A    between atoms: N1_2  and  C4_13 
REMARK    3  A    between atoms: N2_3  and  C2_5 
ROOT
HETATM    1  C4  UNL     1     -14.411  67.565  20.288  1.00  0.00     0.145 A 
HETATM    2  C5  UNL     1     -15.044  67.920  21.453  1.00  0.00     0.131 A 
HETATM    3  C6  UNL     1     -14.864  67.242  22.683  1.00  0.00     0.106 C 
HETATM    4  N5  UNL     1     -14.710  66.694  23.687  1.00  0.00    -0.191 NA
HETATM    5  C7  UNL     1     -15.918  69.007  21.451  1.00  0.00     0.187 A 
HETATM    6  N6  UNL     1     -16.534  69.375  22.527  1.00  0.00    -0.377 N 
ATOM      7  H61 UNL     1     -17.173  70.170  22.526  1.00  0.00     0.158 HD
ATOM      8  H62 UNL     1     -16.369  68.851  23.387  1.00  0.00     0.158 HD
HETATM    9  O3  UNL     1     -16.129  69.681  20.345  1.00  0.00    -0.216 OA
HETATM   10  N7  UNL     1     -15.525  69.334  19.252  1.00  0.00    -0.222 N 
ATOM     11  H7  UNL     1     -15.714  69.878  18.411  1.00  0.00     0.198 HD
HETATM   12  C8  UNL     1     -14.666  68.302  19.154  1.00  0.00     0.295 A 
HETATM   13  O4  UNL     1     -14.129  68.045  18.043  1.00  0.00    -0.264 OA
ENDROOT
BRANCH   1  14
HETATM   14  N1  UNL     1     -13.531  66.475  20.282  1.00  0.00    -0.276 N 
HETATM   15  C1  UNL     1     -14.126  65.148  20.253  1.00  0.00     0.179 C 
BRANCH  14  16
HETATM   16  N2  UNL     1     -12.139  66.560  20.302  1.00  0.00    -0.128 N 
ATOM     17  H2  UNL     1     -11.674  66.866  21.156  1.00  0.00     0.206 HD
BRANCH  16  18
HETATM   18  C2  UNL     1     -11.348  66.230  19.159  1.00  0.00     0.721 A 
HETATM   19  N3  UNL     1     -10.079  65.783  19.118  1.00  0.00    -0.130 N 
HETATM   20  C3  UNL     1      -9.706  65.593  17.838  1.00  0.00     0.401 A 
ATOM     21  H3  UNL     1      -9.489  65.614  19.934  1.00  0.00     0.190 HD
HETATM   22  O1  UNL     1      -8.606  65.186  17.374  1.00  0.00    -0.236 OA
HETATM   23  O2  UNL     1     -10.733  65.921  17.106  1.00  0.00    -0.165 OA
HETATM   24  N4  UNL     1     -11.715  66.300  17.866  1.00  0.00    -0.085 N 
ATOM     25  H4  UNL     1     -12.628  66.606  17.533  1.00  0.00     0.214 HD
ENDBRANCH  16  18
ENDBRANCH  14  16
ENDBRANCH   1  14
TORSDOF 3
ENDMDL
MODEL 2
REMARK VINA RESULT: -8.316810844      2.349      6.324
REMARK  3 active torsions:
REMARK  status: ('A' for Active; 'I' for Inactive)
REMARK    1  A    between atoms: N1_2  and  N2_3 
REMARK    2  A    between atoms: N1_2  and  C4_13 
REMARK    3  A    between atoms: N2_3  and  C2_5 
ROOT
HETATM    1  C4  UNL     1     -12.702  65.545  19.916  1.00  0.00     0.145 A 
HETATM    2  C5  UNL     1     -11.813  65.931  18.944  1.00  0.00     0.131 A 
HETATM    3  C6  UNL     1     -12.149  66.787  17.867  1.00  0.00     0.106 C 
HETATM    4  N5  UNL     1     -12.421  67.492  16.995  1.00  0.00    -0.191 NA
HETATM    5  C7  UNL     1     -10.498  65.468  18.998  1.00  0.00     0.187 A 
HETATM    6  N6  UNL     1      -9.629  65.808  18.103  1.00  0.00    -0.377 N 
ATOM      7  H61 UNL     1      -8.668  65.469  18.142  1.00  0.00     0.158 HD
ATOM      8  H62 UNL     1      -9.923  66.427  17.347  1.00  0.00     0.158 HD
HETATM    9  O3  UNL     1     -10.120  64.672  19.970  1.00  0.00    -0.216 OA
HETATM   10  N7  UNL     1     -10.970  64.315  20.881  1.00  0.00    -0.222 N 
ATOM     11  H7  UNL     1     -10.643  63.695  21.621  1.00  0.00     0.198 HD
HETATM   12  C8  UNL     1     -12.258  64.709  20.914  1.00  0.00     0.295 A 
HETATM   13  O4  UNL     1     -13.006  64.306  21.844  1.00  0.00    -0.264 OA
ENDROOT
BRANCH   1  14
HETATM   14  N1  UNL     1     -14.024  66.007  19.868  1.00  0.00    -0.276 N 
HETATM   15  C1  UNL     1     -15.022  65.093  19.336  1.00  0.00     0.179 C 
BRANCH  14  16
HETATM   16  N2  UNL     1     -14.456  67.265  20.287  1.00  0.00    -0.128 N 
ATOM     17  H2  UNL     1     -14.552  68.011  19.598  1.00  0.00     0.206 HD
BRANCH  16  18
HETATM   18  C2  UNL     1     -14.766  67.538  21.655  1.00  0.00     0.721 A 
HETATM   19  N3  UNL     1     -15.267  68.666  22.192  1.00  0.00    -0.130 N 
HETATM   20  C3  UNL     1     -15.412  68.509  23.522  1.00  0.00     0.401 A 
ATOM     21  H3  UNL     1     -15.500  69.511  21.671  1.00  0.00     0.190 HD
HETATM   22  O1  UNL     1     -15.846  69.321  24.384  1.00  0.00    -0.236 OA
HETATM   23  O2  UNL     1     -15.004  67.302  23.794  1.00  0.00    -0.165 OA
HETATM   24  N4  UNL     1     -14.618  66.710  22.705  1.00  0.00    -0.085 N 
ATOM     25  H4  UNL     1     -14.256  65.758  22.653  1.00  0.00     0.214 HD
ENDBRANCH  16  18
ENDBRANCH  14  16
ENDBRANCH   1  14
TORSDOF 3
ENDMDL
MODEL 3
REMARK VINA RESULT: -8.262770937      1.974      3.261
REMARK  3 active torsions:
REMARK  status: ('A' for Active; 'I' for Inactive)
REMARK    1  A    between atoms: N1_2  and  N2_3 
REMARK    2  A    between atoms: N1_2  and  C4_13 
REMARK    3  A    between atoms: N2_3  and  C2_5 
ROOT
HETATM    1  C4  UNL     1     -15.249  68.208  21.902  1.00  0.00     0.145 A 
HETATM    2  C5  UNL     1     -16.013  69.257  21.456  1.00  0.00     0.131 A 
HETATM    3  C6  UNL     1     -16.035  69.696  20.109  1.00  0.00     0.106 C 
HETATM    4  N5  UNL     1     -16.059  70.048  19.011  1.00  0.00    -0.191 NA
HETATM    5  C7  UNL     1     -16.824  69.943  22.359  1.00  0.00     0.187 A 
HETATM    6  N6  UNL     1     -17.560  70.937  21.979  1.00  0.00    -0.377 N 
ATOM      7  H61 UNL     1     -18.153  71.439  22.640  1.00  0.00     0.158 HD
ATOM      8  H62 UNL     1     -17.538  71.214  20.998  1.00  0.00     0.158 HD
HETATM    9  O3  UNL     1     -16.853  69.587  23.621  1.00  0.00    -0.216 OA
HETATM   10  N7  UNL     1     -16.125  68.595  24.029  1.00  0.00    -0.222 N 
ATOM     11  H7  UNL     1     -16.170  68.346  25.017  1.00  0.00     0.198 HD
HETATM   12  C8  UNL     1     -15.312  67.872  23.235  1.00  0.00     0.295 A 
HETATM   13  O4  UNL     1     -14.644  66.925  23.729  1.00  0.00    -0.264 OA
ENDROOT
BRANCH   1  14
HETATM   14  N1  UNL     1     -14.432  67.512  21.000  1.00  0.00    -0.276 N 
HETATM   15  C1  UNL     1     -14.884  66.194  20.585  1.00  0.00     0.179 C 
BRANCH  14  16
HETATM   16  N2  UNL     1     -13.229  67.981  20.473  1.00  0.00    -0.128 N 
ATOM     17  H2  UNL     1     -12.570  68.456  21.089  1.00  0.00     0.206 HD
BRANCH  16  18
HETATM   18  C2  UNL     1     -12.895  67.812  19.094  1.00  0.00     0.721 A 
HETATM   19  N3  UNL     1     -12.191  66.819  18.518  1.00  0.00    -0.130 N 
HETATM   20  C3  UNL     1     -12.103  67.037  17.192  1.00  0.00     0.401 A 
ATOM     21  H3  UNL     1     -11.786  66.023  19.011  1.00  0.00     0.190 HD
HETATM   22  O1  UNL     1     -11.534  66.349  16.301  1.00  0.00    -0.236 OA
HETATM   23  O2  UNL     1     -12.743  68.148  16.961  1.00  0.00    -0.165 OA
HETATM   24  N4  UNL     1     -13.219  68.623  18.071  1.00  0.00    -0.085 N 
ATOM     25  H4  UNL     1     -13.759  69.484  18.156  1.00  0.00     0.214 HD
ENDBRANCH  16  18
ENDBRANCH  14  16
ENDBRANCH   1  14
TORSDOF 3
ENDMDL
MODEL 4
REMARK VINA RESULT: -8.247534865      1.572      1.892
REMARK  3 active torsions:
REMARK  status: ('A' for Active; 'I' for Inactive)
REMARK    1  A    between atoms: N1_2  and  N2_3 
REMARK    2  A    between atoms: N1_2  and  C4_13 
REMARK    3  A    between atoms: N2_3  and  C2_5 
ROOT
HETATM    1  C4  UNL     1     -15.403  68.675  21.025  1.00  0.00     0.145 A 
HETATM    2  C5  UNL     1     -15.671  68.505  22.360  1.00  0.00     0.131 A 
HETATM    3  C6  UNL     1     -15.075  67.498  23.158  1.00  0.00     0.106 C 
HETATM    4  N5  UNL     1     -14.582  66.683  23.810  1.00  0.00    -0.191 NA
HETATM    5  C7  UNL     1     -16.575  69.359  22.990  1.00  0.00     0.187 A 
HETATM    6  N6  UNL     1     -16.854  69.233  24.247  1.00  0.00    -0.377 N 
ATOM      7  H61 UNL     1     -17.515  69.858  24.707  1.00  0.00     0.158 HD
ATOM      8  H62 UNL     1     -16.398  68.491  24.776  1.00  0.00     0.158 HD
HETATM    9  O3  UNL     1     -17.162  70.315  22.309  1.00  0.00    -0.216 OA
HETATM   10  N7  UNL     1     -16.901  70.464  21.048  1.00  0.00    -0.222 N 
ATOM     11  H7  UNL     1     -17.376  71.215  20.549  1.00  0.00     0.198 HD
HETATM   12  C8  UNL     1     -16.044  69.691  20.354  1.00  0.00     0.295 A 
HETATM   13  O4  UNL     1     -15.859  69.918  19.128  1.00  0.00    -0.264 OA
ENDROOT
BRANCH   1  14
HETATM   14  N1  UNL     1     -14.495  67.821  20.385  1.00  0.00    -0.276 N 
HETATM   15  C1  UNL     1     -14.900  66.434  20.218  1.00  0.00     0.179 C 
BRANCH  14  16
HETATM   16  N2  UNL     1     -13.241  68.192  19.901  1.00  0.00    -0.128 N 
ATOM     17  H2  UNL     1     -12.715  68.916  20.389  1.00  0.00     0.206 HD
BRANCH  16  18
HETATM   18  C2  UNL     1     -12.673  67.585  18.738  1.00  0.00     0.721 A 
HETATM   19  N3  UNL     1     -11.685  66.674  18.667  1.00  0.00    -0.130 N 
HETATM   20  C3  UNL     1     -11.449  66.361  17.378  1.00  0.00     0.401 A 
ATOM     21  H3  UNL     1     -11.189  66.280  19.467  1.00  0.00     0.190 HD
HETATM   22  O1  UNL     1     -10.611  65.556  16.887  1.00  0.00    -0.236 OA
HETATM   23  O2  UNL     1     -12.282  67.072  16.672  1.00  0.00    -0.165 OA
HETATM   24  N4  UNL     1     -13.015  67.802  17.455  1.00  0.00    -0.085 N 
ATOM     25  H4  UNL     1     -13.742  68.446  17.145  1.00  0.00     0.214 HD
ENDBRANCH  16  18
ENDBRANCH  14  16
ENDBRANCH   1  14
TORSDOF 3
ENDMDL
MODEL 5
REMARK VINA RESULT: -8.191315983      2.894      3.907
REMARK  3 active torsions:
REMARK  status: ('A' for Active; 'I' for Inactive)
REMARK    1  A    between atoms: N1_2  and  N2_3 
REMARK    2  A    between atoms: N1_2  and  C4_13 
REMARK    3  A    between atoms: N2_3  and  C2_5 
ROOT
HETATM    1  C4  UNL     1     -15.291  68.208  21.846  1.00  0.00     0.145 A 
HETATM    2  C5  UNL     1     -16.069  69.270  21.455  1.00  0.00     0.131 A 
HETATM    3  C6  UNL     1     -16.117  69.761  20.128  1.00  0.00     0.106 C 
HETATM    4  N5  UNL     1     -16.164  70.155  19.045  1.00  0.00    -0.191 NA
HETATM    5  C7  UNL     1     -16.865  69.916  22.399  1.00  0.00     0.187 A 
HETATM    6  N6  UNL     1     -17.613  70.920  22.073  1.00  0.00    -0.377 N 
ATOM      7  H61 UNL     1     -18.196  71.392  22.764  1.00  0.00     0.158 HD
ATOM      8  H62 UNL     1     -17.611  71.235  21.103  1.00  0.00     0.158 HD
HETATM    9  O3  UNL     1     -16.869  69.510  23.647  1.00  0.00    -0.216 OA
HETATM   10  N7  UNL     1     -16.129  68.507  24.002  1.00  0.00    -0.222 N 
ATOM     11  H7  UNL     1     -16.154  68.219  24.980  1.00  0.00     0.198 HD
HETATM   12  C8  UNL     1     -15.328  67.820  23.165  1.00  0.00     0.295 A 
HETATM   13  O4  UNL     1     -14.646  66.858  23.609  1.00  0.00    -0.264 OA
ENDROOT
BRANCH   1  14
HETATM   14  N1  UNL     1     -14.488  67.553  20.902  1.00  0.00    -0.276 N 
HETATM   15  C1  UNL     1     -13.289  68.247  20.462  1.00  0.00     0.179 C 
BRANCH  14  16
HETATM   16  N2  UNL     1     -14.748  66.296  20.355  1.00  0.00    -0.128 N 
ATOM     17  H2  UNL     1     -15.509  66.195  19.685  1.00  0.00     0.206 HD
BRANCH  16  18
HETATM   18  C2  UNL     1     -13.974  65.148  20.708  1.00  0.00     0.721 A 
HETATM   19  N3  UNL     1     -12.786  64.753  20.212  1.00  0.00    -0.130 N 
HETATM   20  C3  UNL     1     -12.399  63.613  20.817  1.00  0.00     0.401 A 
ATOM     21  H3  UNL     1     -12.260  65.242  19.488  1.00  0.00     0.190 HD
HETATM   22  O1  UNL     1     -11.357  62.925  20.642  1.00  0.00    -0.236 OA
HETATM   23  O2  UNL     1     -13.339  63.316  21.670  1.00  0.00    -0.165 OA
HETATM   24  N4  UNL     1     -14.279  64.209  21.622  1.00  0.00    -0.085 N 
ATOM     25  H4  UNL     1     -15.124  64.200  22.192  1.00  0.00     0.214 HD
ENDBRANCH  16  18
ENDBRANCH  14  16
ENDBRANCH   1  14
TORSDOF 3
ENDMDL
