MODEL 1
REMARK VINA RESULT: -7.182247124      0.000      0.000
REMARK  11 active torsions:
REMARK  status: ('A' for Active; 'I' for Inactive)
REMARK    1  A    between atoms: C2_2  and  C3_3 
REMARK    2  A    between atoms: C3_3  and  C4_4 
REMARK    3  A    between atoms: C4_4  and  N1_5 
REMARK    4  A    between atoms: N1_5  and  C5_8 
REMARK    5  A    between atoms: C5_8  and  C6_9 
REMARK    6  A    between atoms: C6_9  and  N2_10 
REMARK    7  A    between atoms: N2_10  and  C7_12 
REMARK    8  A    between atoms: N4_16  and  C9_18 
REMARK    9  A    between atoms: C9_18  and  C10_19 
REMARK   10  A    between atoms: N6_24  and  C13_26 
REMARK   11  A    between atoms: C13_26  and  C14_27 
ROOT
HETATM    1  C7  UNL     1      23.421   5.039  31.974  1.00  0.00     0.707 A 
HETATM    2  N3  UNL     1      23.038   4.501  30.808  1.00  0.00    -0.021 N 
ATOM      3  H3  UNL     1      23.711   4.448  30.044  1.00  0.00     0.203 HD
HETATM    4  C8  UNL     1      21.790   4.029  30.611  1.00  0.00     0.711 A 
HETATM    5  N4  UNL     1      21.326   3.497  29.593  1.00  0.00    -0.201 N 
ATOM      6  H4  UNL     1      20.350   3.253  29.763  1.00  0.00     0.183 HD
HETATM    7  N5  UNL     1      20.935   4.136  31.683  1.00  0.00    -0.021 N 
ATOM      8  H5  UNL     1      19.982   3.788  31.567  1.00  0.00     0.203 HD
HETATM    9  C12 UNL     1      21.260   4.658  32.855  1.00  0.00     0.707 A 
HETATM   10  N6  UNL     1      20.488   4.780  33.869  1.00  0.00    -0.222 N 
ATOM     11  H6  UNL     1      20.867   5.199  34.718  1.00  0.00     0.178 HD
HETATM   12  N7  UNL     1      22.549   5.120  32.992  1.00  0.00    -0.022 N 
ATOM     13  H7  UNL     1      22.846   5.530  33.878  1.00  0.00     0.203 HD
ENDROOT
BRANCH   1  14
HETATM   14  N2  UNL     1      24.591   5.461  32.176  1.00  0.00    -0.223 N 
ATOM     15  H2  UNL     1      25.312   4.774  32.399  1.00  0.00     0.177 HD
BRANCH  14  16
HETATM   16  C6  UNL     1      24.980   6.835  32.114  1.00  0.00     0.165 C 
BRANCH  16  17
HETATM   17  C5  UNL     1      25.132   7.263  33.589  1.00  0.00     0.252 C 
BRANCH  17  18
HETATM   18  N1  UNL     1      25.072   8.699  33.624  1.00  0.00    -0.073 N 
ATOM     19  H12 UNL     1      24.771   9.095  32.734  1.00  0.00     0.277 HD
ATOM     20  H11 UNL     1      25.999   9.123  33.666  1.00  0.00     0.277 HD
BRANCH  18  21
HETATM   21  C4  UNL     1      24.232   9.118  34.718  1.00  0.00     0.236 C 
BRANCH  21  22
HETATM   22  C3  UNL     1      23.997  10.622  34.515  1.00  0.00     0.054 C 
BRANCH  22  23
HETATM   23  C2  UNL     1      25.272  11.143  33.919  1.00  0.00    -0.035 C 
HETATM   24  C1  UNL     1      25.827  12.205  34.473  1.00  0.00     0.007 C 
ENDBRANCH  22  23
ENDBRANCH  21  22
ENDBRANCH  18  21
ENDBRANCH  17  18
ENDBRANCH  16  17
ENDBRANCH  14  16
ENDBRANCH   1  14
BRANCH   5  25
HETATM   25  C9  UNL     1      21.666   3.118  28.310  1.00  0.00     0.105 C 
BRANCH  25  26
HETATM   26  C10 UNL     1      22.949   2.404  28.113  1.00  0.00     0.007 C 
HETATM   27  C11 UNL     1      23.543   2.455  26.945  1.00  0.00     0.012 C 
ENDBRANCH  25  26
ENDBRANCH   5  25
BRANCH  10  28
HETATM   28  C13 UNL     1      19.124   4.357  33.872  1.00  0.00     0.164 C 
BRANCH  28  29
HETATM   29  C14 UNL     1      19.081   2.899  34.169  1.00  0.00    -0.017 C 
HETATM   30  C15 UNL     1      18.247   2.149  33.453  1.00  0.00     0.008 C 
ENDBRANCH  28  29
ENDBRANCH  10  28
TORSDOF 11
ENDMDL
MODEL 2
REMARK VINA RESULT: -7.173533335      2.807      4.170
REMARK  11 active torsions:
REMARK  status: ('A' for Active; 'I' for Inactive)
REMARK    1  A    between atoms: C2_2  and  C3_3 
REMARK    2  A    between atoms: C3_3  and  C4_4 
REMARK    3  A    between atoms: C4_4  and  N1_5 
REMARK    4  A    between atoms: N1_5  and  C5_8 
REMARK    5  A    between atoms: C5_8  and  C6_9 
REMARK    6  A    between atoms: C6_9  and  N2_10 
REMARK    7  A    between atoms: N2_10  and  C7_12 
REMARK    8  A    between atoms: N4_16  and  C9_18 
REMARK    9  A    between atoms: C9_18  and  C10_19 
REMARK   10  A    between atoms: N6_24  and  C13_26 
REMARK   11  A    between atoms: C13_26  and  C14_27 
ROOT
HETATM    1  C7  UNL     1      22.363   5.252  31.106  1.00  0.00     0.707 A 
HETATM    2  N3  UNL     1      22.422   4.270  30.196  1.00  0.00    -0.021 N 
ATOM      3  H3  UNL     1      23.334   3.899  29.930  1.00  0.00     0.203 HD
HETATM    4  C8  UNL     1      21.316   3.755  29.622  1.00  0.00     0.711 A 
HETATM    5  N4  UNL     1      21.242   2.840  28.790  1.00  0.00    -0.201 N 
ATOM      6  H4  UNL     1      20.262   2.688  28.553  1.00  0.00     0.183 HD
HETATM    7  N5  UNL     1      20.122   4.304  30.028  1.00  0.00    -0.021 N 
ATOM      8  H5  UNL     1      19.265   3.937  29.612  1.00  0.00     0.203 HD
HETATM    9  C12 UNL     1      20.006   5.275  30.921  1.00  0.00     0.707 A 
HETATM   10  N6  UNL     1      18.913   5.812  31.314  1.00  0.00    -0.222 N 
ATOM     11  H6  UNL     1      18.962   6.554  32.013  1.00  0.00     0.178 HD
HETATM   12  N7  UNL     1      21.172   5.755  31.470  1.00  0.00    -0.022 N 
ATOM     13  H7  UNL     1      21.132   6.503  32.163  1.00  0.00     0.203 HD
ENDROOT
BRANCH   1  14
HETATM   14  N2  UNL     1      23.389   5.724  31.665  1.00  0.00    -0.223 N 
ATOM     15  H2  UNL     1      23.628   6.697  31.475  1.00  0.00     0.177 HD
BRANCH  14  16
HETATM   16  C6  UNL     1      24.241   4.991  32.547  1.00  0.00     0.165 C 
BRANCH  16  17
HETATM   17  C5  UNL     1      24.001   5.622  33.935  1.00  0.00     0.252 C 
BRANCH  17  18
HETATM   18  N1  UNL     1      23.540   4.575  34.806  1.00  0.00    -0.073 N 
ATOM     19  H12 UNL     1      23.866   4.700  35.765  1.00  0.00     0.277 HD
ATOM     20  H11 UNL     1      23.996   3.684  34.612  1.00  0.00     0.277 HD
BRANCH  18  21
HETATM   21  C4  UNL     1      22.104   4.481  34.727  1.00  0.00     0.236 C 
BRANCH  21  22
HETATM   22  C3  UNL     1      21.798   3.020  34.372  1.00  0.00     0.054 C 
BRANCH  22  23
HETATM   23  C2  UNL     1      20.406   3.034  33.812  1.00  0.00    -0.035 C 
HETATM   24  C1  UNL     1      19.507   3.801  34.401  1.00  0.00     0.007 C 
ENDBRANCH  22  23
ENDBRANCH  21  22
ENDBRANCH  18  21
ENDBRANCH  17  18
ENDBRANCH  16  17
ENDBRANCH  14  16
ENDBRANCH   1  14
BRANCH   5  25
HETATM   25  C9  UNL     1      22.020   1.954  28.073  1.00  0.00     0.105 C 
BRANCH  25  26
HETATM   26  C10 UNL     1      23.292   2.452  27.499  1.00  0.00     0.007 C 
HETATM   27  C11 UNL     1      23.337   2.803  26.237  1.00  0.00     0.012 C 
ENDBRANCH  25  26
ENDBRANCH   5  25
BRANCH  10  28
HETATM   28  C13 UNL     1      17.627   5.427  30.825  1.00  0.00     0.164 C 
BRANCH  28  29
HETATM   29  C14 UNL     1      16.950   4.609  31.869  1.00  0.00    -0.017 C 
HETATM   30  C15 UNL     1      16.926   3.290  31.697  1.00  0.00     0.008 C 
ENDBRANCH  28  29
ENDBRANCH  10  28
TORSDOF 11
ENDMDL
MODEL 3
REMARK VINA RESULT: -7.092575204      2.498      4.270
REMARK  11 active torsions:
REMARK  status: ('A' for Active; 'I' for Inactive)
REMARK    1  A    between atoms: C2_2  and  C3_3 
REMARK    2  A    between atoms: C3_3  and  C4_4 
REMARK    3  A    between atoms: C4_4  and  N1_5 
REMARK    4  A    between atoms: N1_5  and  C5_8 
REMARK    5  A    between atoms: C5_8  and  C6_9 
REMARK    6  A    between atoms: C6_9  and  N2_10 
REMARK    7  A    between atoms: N2_10  and  C7_12 
REMARK    8  A    between atoms: N4_16  and  C9_18 
REMARK    9  A    between atoms: C9_18  and  C10_19 
REMARK   10  A    between atoms: N6_24  and  C13_26 
REMARK   11  A    between atoms: C13_26  and  C14_27 
ROOT
HETATM    1  C7  UNL     1      22.015   5.431  31.033  1.00  0.00     0.707 A 
HETATM    2  N3  UNL     1      21.557   4.605  31.985  1.00  0.00    -0.021 N 
ATOM      3  H3  UNL     1      22.189   4.316  32.731  1.00  0.00     0.203 HD
HETATM    4  C8  UNL     1      20.290   4.145  31.988  1.00  0.00     0.711 A 
HETATM    5  N4  UNL     1      19.749   3.399  32.816  1.00  0.00    -0.201 N 
ATOM      6  H4  UNL     1      18.784   3.235  32.532  1.00  0.00     0.183 HD
HETATM    7  N5  UNL     1      19.496   4.575  30.950  1.00  0.00    -0.021 N 
ATOM      8  H5  UNL     1      18.531   4.244  30.922  1.00  0.00     0.203 HD
HETATM    9  C12 UNL     1      19.896   5.387  29.984  1.00  0.00     0.707 A 
HETATM   10  N6  UNL     1      19.187   5.800  29.002  1.00  0.00    -0.222 N 
ATOM     11  H6  UNL     1      19.617   6.429  28.324  1.00  0.00     0.178 HD
HETATM   12  N7  UNL     1      21.200   5.823  30.040  1.00  0.00    -0.022 N 
ATOM     13  H7  UNL     1      21.553   6.451  29.318  1.00  0.00     0.203 HD
ENDROOT
BRANCH   1  14
HETATM   14  N2  UNL     1      23.190   5.885  31.035  1.00  0.00    -0.223 N 
ATOM     15  H2  UNL     1      23.437   6.564  30.315  1.00  0.00     0.177 HD
BRANCH  14  16
HETATM   16  C6  UNL     1      24.202   5.516  31.974  1.00  0.00     0.165 C 
BRANCH  16  17
HETATM   17  C5  UNL     1      25.323   6.557  31.769  1.00  0.00     0.252 C 
BRANCH  17  18
HETATM   18  N1  UNL     1      25.095   7.620  32.708  1.00  0.00    -0.073 N 
ATOM     19  H12 UNL     1      24.211   8.100  32.542  1.00  0.00     0.277 HD
ATOM     20  H11 UNL     1      25.721   8.411  32.555  1.00  0.00     0.277 HD
BRANCH  18  21
HETATM   21  C4  UNL     1      25.189   7.103  34.051  1.00  0.00     0.236 C 
BRANCH  21  22
HETATM   22  C3  UNL     1      24.409   8.087  34.935  1.00  0.00     0.054 C 
BRANCH  22  23
HETATM   23  C2  UNL     1      24.584   9.427  34.283  1.00  0.00    -0.035 C 
HETATM   24  C1  UNL     1      23.854  10.433  34.727  1.00  0.00     0.007 C 
ENDBRANCH  22  23
ENDBRANCH  21  22
ENDBRANCH  18  21
ENDBRANCH  17  18
ENDBRANCH  16  17
ENDBRANCH  14  16
ENDBRANCH   1  14
BRANCH   5  25
HETATM   25  C9  UNL     1      19.995   2.713  33.988  1.00  0.00     0.105 C 
BRANCH  25  26
HETATM   26  C10 UNL     1      21.160   3.127  34.805  1.00  0.00     0.007 C 
HETATM   27  C11 UNL     1      22.278   2.445  34.728  1.00  0.00     0.012 C 
ENDBRANCH  25  26
ENDBRANCH   5  25
BRANCH  10  28
HETATM   28  C13 UNL     1      17.822   5.424  28.806  1.00  0.00     0.164 C 
BRANCH  28  29
HETATM   29  C14 UNL     1      17.515   5.501  27.351  1.00  0.00    -0.017 C 
HETATM   30  C15 UNL     1      16.499   6.273  26.977  1.00  0.00     0.008 C 
ENDBRANCH  28  29
ENDBRANCH  10  28
TORSDOF 11
ENDMDL
MODEL 4
REMARK VINA RESULT: -7.068353197      1.031      4.337
REMARK  11 active torsions:
REMARK  status: ('A' for Active; 'I' for Inactive)
REMARK    1  A    between atoms: C2_2  and  C3_3 
REMARK    2  A    between atoms: C3_3  and  C4_4 
REMARK    3  A    between atoms: C4_4  and  N1_5 
REMARK    4  A    between atoms: N1_5  and  C5_8 
REMARK    5  A    between atoms: C5_8  and  C6_9 
REMARK    6  A    between atoms: C6_9  and  N2_10 
REMARK    7  A    between atoms: N2_10  and  C7_12 
REMARK    8  A    between atoms: N4_16  and  C9_18 
REMARK    9  A    between atoms: C9_18  and  C10_19 
REMARK   10  A    between atoms: N6_24  and  C13_26 
REMARK   11  A    between atoms: C13_26  and  C14_27 
ROOT
HETATM    1  C7  UNL     1      23.960   5.591  32.070  1.00  0.00     0.707 A 
HETATM    2  N3  UNL     1      22.839   5.287  32.739  1.00  0.00    -0.021 N 
ATOM      3  H3  UNL     1      22.597   5.831  33.567  1.00  0.00     0.203 HD
HETATM    4  C8  UNL     1      22.023   4.286  32.354  1.00  0.00     0.711 A 
HETATM    5  N4  UNL     1      20.958   3.924  32.875  1.00  0.00    -0.201 N 
ATOM      6  H4  UNL     1      20.583   3.136  32.347  1.00  0.00     0.183 HD
HETATM    7  N5  UNL     1      22.414   3.594  31.231  1.00  0.00    -0.021 N 
ATOM      8  H5  UNL     1      21.818   2.829  30.913  1.00  0.00     0.203 HD
HETATM    9  C12 UNL     1      23.509   3.851  30.533  1.00  0.00     0.707 A 
HETATM   10  N6  UNL     1      23.906   3.224  29.490  1.00  0.00    -0.222 N 
ATOM     11  H6  UNL     1      24.772   3.527  29.043  1.00  0.00     0.178 HD
HETATM   12  N7  UNL     1      24.299   4.887  30.978  1.00  0.00    -0.022 N 
ATOM     13  H7  UNL     1      25.153   5.122  30.472  1.00  0.00     0.203 HD
ENDROOT
BRANCH   1  14
HETATM   14  N2  UNL     1      24.717   6.540  32.408  1.00  0.00    -0.223 N 
ATOM     15  H2  UNL     1      24.741   7.365  31.808  1.00  0.00     0.177 HD
BRANCH  14  16
HETATM   16  C6  UNL     1      25.546   6.542  33.572  1.00  0.00     0.165 C 
BRANCH  16  17
HETATM   17  C5  UNL     1      24.839   7.503  34.552  1.00  0.00     0.252 C 
BRANCH  17  18
HETATM   18  N1  UNL     1      24.867   8.813  33.960  1.00  0.00    -0.073 N 
ATOM     19  H12 UNL     1      24.552   8.804  32.989  1.00  0.00     0.277 HD
ATOM     20  H11 UNL     1      25.818   9.144  33.801  1.00  0.00     0.277 HD
BRANCH  18  21
HETATM   21  C4  UNL     1      24.100   9.724  34.772  1.00  0.00     0.236 C 
BRANCH  21  22
HETATM   22  C3  UNL     1      24.210  11.093  34.086  1.00  0.00     0.054 C 
BRANCH  22  23
HETATM   23  C2  UNL     1      25.672  11.430  34.111  1.00  0.00    -0.035 C 
HETATM   24  C1  UNL     1      26.084  12.460  33.395  1.00  0.00     0.007 C 
ENDBRANCH  22  23
ENDBRANCH  21  22
ENDBRANCH  18  21
ENDBRANCH  17  18
ENDBRANCH  16  17
ENDBRANCH  14  16
ENDBRANCH   1  14
BRANCH   5  25
HETATM   25  C9  UNL     1      20.102   4.213  33.918  1.00  0.00     0.105 C 
BRANCH  25  26
HETATM   26  C10 UNL     1      19.213   3.134  34.408  1.00  0.00     0.007 C 
HETATM   27  C11 UNL     1      18.523   2.425  33.548  1.00  0.00     0.012 C 
ENDBRANCH  25  26
ENDBRANCH   5  25
BRANCH  10  28
HETATM   28  C13 UNL     1      23.198   2.122  28.920  1.00  0.00     0.164 C 
BRANCH  28  29
HETATM   29  C14 UNL     1      22.581   2.568  27.641  1.00  0.00    -0.017 C 
HETATM   30  C15 UNL     1      23.373   2.665  26.577  1.00  0.00     0.008 C 
ENDBRANCH  28  29
ENDBRANCH  10  28
TORSDOF 11
ENDMDL
MODEL 5
REMARK VINA RESULT: -7.023788385      2.169      2.716
REMARK  11 active torsions:
REMARK  status: ('A' for Active; 'I' for Inactive)
REMARK    1  A    between atoms: C2_2  and  C3_3 
REMARK    2  A    between atoms: C3_3  and  C4_4 
REMARK    3  A    between atoms: C4_4  and  N1_5 
REMARK    4  A    between atoms: N1_5  and  C5_8 
REMARK    5  A    between atoms: C5_8  and  C6_9 
REMARK    6  A    between atoms: C6_9  and  N2_10 
REMARK    7  A    between atoms: N2_10  and  C7_12 
REMARK    8  A    between atoms: N4_16  and  C9_18 
REMARK    9  A    between atoms: C9_18  and  C10_19 
REMARK   10  A    between atoms: N6_24  and  C13_26 
REMARK   11  A    between atoms: C13_26  and  C14_27 
ROOT
HETATM    1  C7  UNL     1      22.373   5.572  31.320  1.00  0.00     0.707 A 
HETATM    2  N3  UNL     1      21.422   5.645  30.379  1.00  0.00    -0.021 N 
ATOM      3  H3  UNL     1      21.676   5.973  29.447  1.00  0.00     0.203 HD
HETATM    4  C8  UNL     1      20.142   5.301  30.623  1.00  0.00     0.711 A 
HETATM    5  N4  UNL     1      19.185   5.308  29.836  1.00  0.00    -0.201 N 
ATOM      6  H4  UNL     1      18.349   4.995  30.329  1.00  0.00     0.183 HD
HETATM    7  N5  UNL     1      19.872   4.871  31.902  1.00  0.00    -0.021 N 
ATOM      8  H5  UNL     1      18.912   4.604  32.120  1.00  0.00     0.203 HD
HETATM    9  C12 UNL     1      20.771   4.780  32.869  1.00  0.00     0.707 A 
HETATM   10  N6  UNL     1      20.553   4.392  34.069  1.00  0.00    -0.222 N 
ATOM     11  H6  UNL     1      21.339   4.365  34.720  1.00  0.00     0.178 HD
HETATM   12  N7  UNL     1      22.060   5.145  32.554  1.00  0.00    -0.022 N 
ATOM     13  H7  UNL     1      22.788   5.091  33.268  1.00  0.00     0.203 HD
ENDROOT
BRANCH   1  14
HETATM   14  N2  UNL     1      23.577   5.869  31.096  1.00  0.00    -0.223 N 
ATOM     15  H2  UNL     1      23.775   6.474  30.299  1.00  0.00     0.177 HD
BRANCH  14  16
HETATM   16  C6  UNL     1      24.684   5.416  31.877  1.00  0.00     0.165 C 
BRANCH  16  17
HETATM   17  C5  UNL     1      25.183   6.677  32.613  1.00  0.00     0.252 C 
BRANCH  17  18
HETATM   18  N1  UNL     1      25.373   6.320  33.992  1.00  0.00    -0.073 N 
ATOM     19  H12 UNL     1      26.358   6.201  34.229  1.00  0.00     0.277 HD
ATOM     20  H11 UNL     1      25.060   5.370  34.191  1.00  0.00     0.277 HD
BRANCH  18  21
HETATM   21  C4  UNL     1      24.725   7.294  34.835  1.00  0.00     0.236 C 
BRANCH  21  22
HETATM   22  C3  UNL     1      24.878   8.641  34.114  1.00  0.00     0.054 C 
BRANCH  22  23
HETATM   23  C2  UNL     1      23.993   9.592  34.865  1.00  0.00    -0.035 C 
HETATM   24  C1  UNL     1      23.957  10.851  34.466  1.00  0.00     0.007 C 
ENDBRANCH  22  23
ENDBRANCH  21  22
ENDBRANCH  18  21
ENDBRANCH  17  18
ENDBRANCH  16  17
ENDBRANCH  14  16
ENDBRANCH   1  14
BRANCH   5  25
HETATM   25  C9  UNL     1      18.854   5.589  28.526  1.00  0.00     0.105 C 
BRANCH  25  26
HETATM   26  C10 UNL     1      17.431   5.474  28.128  1.00  0.00     0.007 C 
HETATM   27  C11 UNL     1      16.996   6.138  27.085  1.00  0.00     0.012 C 
ENDBRANCH  25  26
ENDBRANCH   5  25
BRANCH  10  28
HETATM   28  C13 UNL     1      19.266   3.995  34.544  1.00  0.00     0.164 C 
BRANCH  28  29
HETATM   29  C14 UNL     1      19.088   2.543  34.268  1.00  0.00    -0.017 C 
HETATM   30  C15 UNL     1      18.125   2.191  33.420  1.00  0.00     0.008 C 
ENDBRANCH  28  29
ENDBRANCH  10  28
TORSDOF 11
ENDMDL
