MODEL 1
REMARK VINA RESULT: -7.026202345      0.000      0.000
REMARK  12 active torsions:
REMARK  status: ('A' for Active; 'I' for Inactive)
REMARK    1  A    between atoms: N3_4  and  C2_6 
REMARK    2  A    between atoms: C2_6  and  C3_7 
REMARK    3  A    between atoms: C3_7  and  C4_8 
REMARK    4  A    between atoms: C4_8  and  C5_9 
REMARK    5  A    between atoms: C5_9  and  C6_10 
REMARK    6  A    between atoms: C6_10  and  C7_11 
REMARK    7  A    between atoms: C7_11  and  C8_12 
REMARK    8  A    between atoms: C8_12  and  O1_13 
REMARK    9  A    between atoms: O1_13  and  C9_14 
REMARK   10  A    between atoms: C9_14  and  C10_15 
REMARK   11  A    between atoms: C11_16  and  O2_17 
REMARK   12  A    between atoms: C15_22  and  N4_23 
ROOT
HETATM    1  O1  UNL     1      22.319   4.863  31.168  1.00  0.00    -0.391 OA
ENDROOT
BRANCH   1   2
HETATM    2  C8  UNL     1      23.433   4.932  31.898  1.00  0.00     0.167 C 
BRANCH   2   3
HETATM    3  C7  UNL     1      23.842   3.619  32.592  1.00  0.00     0.026 C 
BRANCH   3   4
HETATM    4  C6  UNL     1      23.579   3.805  34.048  1.00  0.00     0.002 C 
BRANCH   4   5
HETATM    5  C5  UNL     1      23.438   5.277  34.458  1.00  0.00     0.000 C 
BRANCH   5   6
HETATM    6  C4  UNL     1      24.673   5.738  35.153  1.00  0.00     0.002 C 
BRANCH   6   7
HETATM    7  C3  UNL     1      25.283   6.977  34.601  1.00  0.00     0.020 C 
BRANCH   7   8
HETATM    8  C2  UNL     1      24.369   8.137  34.456  1.00  0.00     0.122 C 
BRANCH   8   9
HETATM    9  N3  UNL     1      25.012   9.350  34.033  1.00  0.00    -0.367 N 
HETATM   10  C1  UNL     1      24.469  10.502  34.173  1.00  0.00     0.196 C 
HETATM   11  N1  UNL     1      23.193  10.608  34.761  1.00  0.00    -0.067 NA
HETATM   12  N2  UNL     1      25.134  11.677  33.744  1.00  0.00    -0.067 NA
ATOM     13  H3  UNL     1      25.936   9.292  33.605  1.00  0.00     0.161 HD
ENDBRANCH   8   9
ENDBRANCH   7   8
ENDBRANCH   6   7
ENDBRANCH   5   6
ENDBRANCH   4   5
ENDBRANCH   3   4
ENDBRANCH   2   3
ENDBRANCH   1   2
BRANCH   1  14
HETATM   14  C9  UNL     1      21.129   5.378  31.480  1.00  0.00     0.175 C 
BRANCH  14  15
HETATM   15  C10 UNL     1      19.956   4.485  31.734  1.00  0.00     0.045 C 
HETATM   16  C11 UNL     1      18.789   5.347  32.312  1.00  0.00     0.130 C 
HETATM   17  C12 UNL     1      18.476   4.549  33.522  1.00  0.00     0.046 C 
HETATM   18  C13 UNL     1      19.886   4.349  34.094  1.00  0.00     0.016 C 
HETATM   19  C15 UNL     1      18.581   3.110  33.098  1.00  0.00     0.194 C 
HETATM   20  C14 UNL     1      20.058   3.509  32.822  1.00  0.00     0.025 C 
BRANCH  16  21
HETATM   21  O2  UNL     1      19.264   6.604  32.638  1.00  0.00    -0.395 OA
ATOM     22  H2  UNL     1      18.853   6.899  33.443  1.00  0.00     0.210 HD
ENDBRANCH  16  21
BRANCH  19  23
HETATM   23  N4  UNL     1      17.863   2.745  31.914  1.00  0.00    -0.074 N 
ATOM     24  H43 UNL     1      16.897   2.524  32.152  1.00  0.00     0.274 HD
ATOM     25  H42 UNL     1      17.725   3.568  31.327  1.00  0.00     0.274 HD
ATOM     26  H41 UNL     1      18.264   1.989  31.360  1.00  0.00     0.274 HD
ENDBRANCH  19  23
ENDBRANCH  14  15
ENDBRANCH   1  14
TORSDOF 12
ENDMDL
MODEL 2
REMARK VINA RESULT: -6.899183462      1.975      2.864
REMARK  12 active torsions:
REMARK  status: ('A' for Active; 'I' for Inactive)
REMARK    1  A    between atoms: N3_4  and  C2_6 
REMARK    2  A    between atoms: C2_6  and  C3_7 
REMARK    3  A    between atoms: C3_7  and  C4_8 
REMARK    4  A    between atoms: C4_8  and  C5_9 
REMARK    5  A    between atoms: C5_9  and  C6_10 
REMARK    6  A    between atoms: C6_10  and  C7_11 
REMARK    7  A    between atoms: C7_11  and  C8_12 
REMARK    8  A    between atoms: C8_12  and  O1_13 
REMARK    9  A    between atoms: O1_13  and  C9_14 
REMARK   10  A    between atoms: C9_14  and  C10_15 
REMARK   11  A    between atoms: C11_16  and  O2_17 
REMARK   12  A    between atoms: C15_22  and  N4_23 
ROOT
HETATM    1  O1  UNL     1      24.537   4.268  32.520  1.00  0.00    -0.391 OA
ENDROOT
BRANCH   1   2
HETATM    2  C8  UNL     1      24.747   5.289  31.688  1.00  0.00     0.167 C 
BRANCH   2   3
HETATM    3  C7  UNL     1      25.193   6.600  32.363  1.00  0.00     0.026 C 
BRANCH   3   4
HETATM    4  C6  UNL     1      25.419   6.285  33.802  1.00  0.00     0.002 C 
BRANCH   4   5
HETATM    5  C5  UNL     1      24.761   7.291  34.757  1.00  0.00     0.000 C 
BRANCH   5   6
HETATM    6  C4  UNL     1      24.750   8.650  34.143  1.00  0.00     0.002 C 
BRANCH   6   7
HETATM    7  C3  UNL     1      24.047   9.693  34.936  1.00  0.00     0.020 C 
BRANCH   7   8
HETATM    8  C2  UNL     1      24.182  11.084  34.436  1.00  0.00     0.122 C 
BRANCH   8   9
HETATM    9  N3  UNL     1      25.338  11.309  33.613  1.00  0.00    -0.367 N 
HETATM   10  C1  UNL     1      26.164  12.264  33.834  1.00  0.00     0.196 C 
HETATM   11  N1  UNL     1      25.951  13.138  34.918  1.00  0.00    -0.067 NA
HETATM   12  N2  UNL     1      27.294  12.454  33.001  1.00  0.00    -0.067 NA
ATOM     13  H3  UNL     1      25.507  10.686  32.824  1.00  0.00     0.161 HD
ENDBRANCH   8   9
ENDBRANCH   7   8
ENDBRANCH   6   7
ENDBRANCH   5   6
ENDBRANCH   4   5
ENDBRANCH   3   4
ENDBRANCH   2   3
ENDBRANCH   1   2
BRANCH   1  14
HETATM   14  C9  UNL     1      23.380   3.643  32.737  1.00  0.00     0.175 C 
BRANCH  14  15
HETATM   15  C10 UNL     1      22.099   4.413  32.796  1.00  0.00     0.045 C 
HETATM   16  C11 UNL     1      21.880   4.907  34.261  1.00  0.00     0.130 C 
HETATM   17  C12 UNL     1      20.504   4.402  34.484  1.00  0.00     0.046 C 
HETATM   18  C13 UNL     1      20.654   2.961  33.978  1.00  0.00     0.016 C 
HETATM   19  C15 UNL     1      19.769   4.644  33.195  1.00  0.00     0.194 C 
HETATM   20  C14 UNL     1      20.844   3.673  32.632  1.00  0.00     0.025 C 
BRANCH  16  21
HETATM   21  O2  UNL     1      22.793   4.289  35.096  1.00  0.00    -0.395 OA
ATOM     22  H2  UNL     1      22.335   3.892  35.828  1.00  0.00     0.210 HD
ENDBRANCH  16  21
BRANCH  19  23
HETATM   23  N4  UNL     1      19.861   5.966  32.653  1.00  0.00    -0.074 N 
ATOM     24  H43 UNL     1      20.062   6.631  33.400  1.00  0.00     0.274 HD
ATOM     25  H42 UNL     1      20.711   6.052  32.096  1.00  0.00     0.274 HD
ATOM     26  H41 UNL     1      19.059   6.287  32.111  1.00  0.00     0.274 HD
ENDBRANCH  19  23
ENDBRANCH  14  15
ENDBRANCH   1  14
TORSDOF 12
ENDMDL
MODEL 3
REMARK VINA RESULT: -6.883305225      3.930      5.270
REMARK  12 active torsions:
REMARK  status: ('A' for Active; 'I' for Inactive)
REMARK    1  A    between atoms: N3_4  and  C2_6 
REMARK    2  A    between atoms: C2_6  and  C3_7 
REMARK    3  A    between atoms: C3_7  and  C4_8 
REMARK    4  A    between atoms: C4_8  and  C5_9 
REMARK    5  A    between atoms: C5_9  and  C6_10 
REMARK    6  A    between atoms: C6_10  and  C7_11 
REMARK    7  A    between atoms: C7_11  and  C8_12 
REMARK    8  A    between atoms: C8_12  and  O1_13 
REMARK    9  A    between atoms: O1_13  and  C9_14 
REMARK   10  A    between atoms: C9_14  and  C10_15 
REMARK   11  A    between atoms: C11_16  and  O2_17 
REMARK   12  A    between atoms: C15_22  and  N4_23 
ROOT
HETATM    1  O1  UNL     1      19.861   3.970  34.332  1.00  0.00    -0.391 OA
ENDROOT
BRANCH   1   2
HETATM    2  C8  UNL     1      20.618   2.892  34.126  1.00  0.00     0.167 C 
BRANCH   2   3
HETATM    3  C7  UNL     1      22.099   3.049  34.520  1.00  0.00     0.026 C 
BRANCH   3   4
HETATM    4  C6  UNL     1      22.369   4.514  34.593  1.00  0.00     0.002 C 
BRANCH   4   5
HETATM    5  C5  UNL     1      23.652   4.935  33.864  1.00  0.00     0.000 C 
BRANCH   5   6
HETATM    6  C4  UNL     1      23.757   4.226  32.557  1.00  0.00     0.002 C 
BRANCH   6   7
HETATM    7  C3  UNL     1      22.932   4.801  31.461  1.00  0.00     0.020 C 
BRANCH   7   8
HETATM    8  C2  UNL     1      22.289   3.819  30.553  1.00  0.00     0.122 C 
BRANCH   8   9
HETATM    9  N3  UNL     1      23.169   3.263  29.562  1.00  0.00    -0.367 N 
HETATM   10  C1  UNL     1      22.738   2.595  28.557  1.00  0.00     0.196 C 
HETATM   11  N1  UNL     1      21.354   2.384  28.396  1.00  0.00    -0.067 NA
HETATM   12  N2  UNL     1      23.636   2.062  27.599  1.00  0.00    -0.067 NA
ATOM     13  H3  UNL     1      24.174   3.405  29.663  1.00  0.00     0.161 HD
ENDBRANCH   8   9
ENDBRANCH   7   8
ENDBRANCH   6   7
ENDBRANCH   5   6
ENDBRANCH   4   5
ENDBRANCH   3   4
ENDBRANCH   2   3
ENDBRANCH   1   2
BRANCH   1  14
HETATM   14  C9  UNL     1      18.788   4.336  33.629  1.00  0.00     0.175 C 
BRANCH  14  15
HETATM   15  C10 UNL     1      18.775   4.205  32.139  1.00  0.00     0.045 C 
HETATM   16  C11 UNL     1      19.172   5.580  31.514  1.00  0.00     0.130 C 
HETATM   17  C12 UNL     1      18.035   5.757  30.578  1.00  0.00     0.046 C 
HETATM   18  C13 UNL     1      16.858   5.439  31.510  1.00  0.00     0.016 C 
HETATM   19  C15 UNL     1      17.775   4.397  29.993  1.00  0.00     0.194 C 
HETATM   20  C14 UNL     1      17.479   4.037  31.476  1.00  0.00     0.025 C 
BRANCH  16  21
HETATM   21  O2  UNL     1      19.177   6.549  32.501  1.00  0.00    -0.395 OA
ATOM     22  H2  UNL     1      18.308   6.623  32.877  1.00  0.00     0.210 HD
ENDBRANCH  16  21
BRANCH  19  23
HETATM   23  N4  UNL     1      18.913   3.709  29.461  1.00  0.00    -0.074 N 
ATOM     24  H43 UNL     1      19.244   4.189  28.624  1.00  0.00     0.274 HD
ATOM     25  H42 UNL     1      19.714   3.839  30.078  1.00  0.00     0.274 HD
ATOM     26  H41 UNL     1      18.787   2.717  29.263  1.00  0.00     0.274 HD
ENDBRANCH  19  23
ENDBRANCH  14  15
ENDBRANCH   1  14
TORSDOF 12
ENDMDL
MODEL 4
REMARK VINA RESULT: -6.836653579      1.538      2.315
REMARK  12 active torsions:
REMARK  status: ('A' for Active; 'I' for Inactive)
REMARK    1  A    between atoms: N3_4  and  C2_6 
REMARK    2  A    between atoms: C2_6  and  C3_7 
REMARK    3  A    between atoms: C3_7  and  C4_8 
REMARK    4  A    between atoms: C4_8  and  C5_9 
REMARK    5  A    between atoms: C5_9  and  C6_10 
REMARK    6  A    between atoms: C6_10  and  C7_11 
REMARK    7  A    between atoms: C7_11  and  C8_12 
REMARK    8  A    between atoms: C8_12  and  O1_13 
REMARK    9  A    between atoms: O1_13  and  C9_14 
REMARK   10  A    between atoms: C9_14  and  C10_15 
REMARK   11  A    between atoms: C11_16  and  O2_17 
REMARK   12  A    between atoms: C15_22  and  N4_23 
ROOT
HETATM    1  O1  UNL     1      20.042   3.900  34.269  1.00  0.00    -0.391 OA
ENDROOT
BRANCH   1   2
HETATM    2  C8  UNL     1      20.906   2.893  34.138  1.00  0.00     0.167 C 
BRANCH   2   3
HETATM    3  C7  UNL     1      22.365   3.234  34.495  1.00  0.00     0.026 C 
BRANCH   3   4
HETATM    4  C6  UNL     1      22.820   4.253  33.506  1.00  0.00     0.002 C 
BRANCH   4   5
HETATM    5  C5  UNL     1      23.104   5.625  34.133  1.00  0.00     0.000 C 
BRANCH   5   6
HETATM    6  C4  UNL     1      24.467   5.642  34.738  1.00  0.00     0.002 C 
BRANCH   6   7
HETATM    7  C3  UNL     1      25.172   6.950  34.667  1.00  0.00     0.020 C 
BRANCH   7   8
HETATM    8  C2  UNL     1      24.303   8.146  34.542  1.00  0.00     0.122 C 
BRANCH   8   9
HETATM    9  N3  UNL     1      24.988   9.335  34.116  1.00  0.00    -0.367 N 
HETATM   10  C1  UNL     1      24.472  10.503  34.225  1.00  0.00     0.196 C 
HETATM   11  N1  UNL     1      23.185  10.652  34.780  1.00  0.00    -0.067 NA
HETATM   12  N2  UNL     1      25.178  11.653  33.795  1.00  0.00    -0.067 NA
ATOM     13  H3  UNL     1      25.920   9.247  33.712  1.00  0.00     0.161 HD
ENDBRANCH   8   9
ENDBRANCH   7   8
ENDBRANCH   6   7
ENDBRANCH   5   6
ENDBRANCH   4   5
ENDBRANCH   3   4
ENDBRANCH   2   3
ENDBRANCH   1   2
BRANCH   1  14
HETATM   14  C9  UNL     1      19.104   4.263  33.393  1.00  0.00     0.175 C 
BRANCH  14  15
HETATM   15  C10 UNL     1      19.393   4.262  31.926  1.00  0.00     0.045 C 
HETATM   16  C11 UNL     1      19.780   5.712  31.493  1.00  0.00     0.130 C 
HETATM   17  C12 UNL     1      18.837   5.887  30.362  1.00  0.00     0.046 C 
HETATM   18  C13 UNL     1      17.534   5.403  31.012  1.00  0.00     0.016 C 
HETATM   19  C15 UNL     1      18.819   4.568  29.641  1.00  0.00     0.194 C 
HETATM   20  C14 UNL     1      18.272   4.058  31.004  1.00  0.00     0.025 C 
BRANCH  16  21
HETATM   21  O2  UNL     1      19.507   6.590  32.527  1.00  0.00    -0.395 OA
ATOM     22  H2  UNL     1      18.581   6.802  32.524  1.00  0.00     0.210 HD
ENDBRANCH  16  21
BRANCH  19  23
HETATM   23  N4  UNL     1      20.095   4.015  29.301  1.00  0.00    -0.074 N 
ATOM     24  H43 UNL     1      20.362   4.315  28.364  1.00  0.00     0.274 HD
ATOM     25  H42 UNL     1      20.824   4.464  29.855  1.00  0.00     0.274 HD
ATOM     26  H41 UNL     1      20.181   3.001  29.377  1.00  0.00     0.274 HD
ENDBRANCH  19  23
ENDBRANCH  14  15
ENDBRANCH   1  14
TORSDOF 12
ENDMDL
MODEL 5
REMARK VINA RESULT: -6.783918267      1.480      2.342
REMARK  12 active torsions:
REMARK  status: ('A' for Active; 'I' for Inactive)
REMARK    1  A    between atoms: N3_4  and  C2_6 
REMARK    2  A    between atoms: C2_6  and  C3_7 
REMARK    3  A    between atoms: C3_7  and  C4_8 
REMARK    4  A    between atoms: C4_8  and  C5_9 
REMARK    5  A    between atoms: C5_9  and  C6_10 
REMARK    6  A    between atoms: C6_10  and  C7_11 
REMARK    7  A    between atoms: C7_11  and  C8_12 
REMARK    8  A    between atoms: C8_12  and  O1_13 
REMARK    9  A    between atoms: O1_13  and  C9_14 
REMARK   10  A    between atoms: C9_14  and  C10_15 
REMARK   11  A    between atoms: C11_16  and  O2_17 
REMARK   12  A    between atoms: C15_22  and  N4_23 
ROOT
HETATM    1  O1  UNL     1      21.715   5.044  33.502  1.00  0.00    -0.391 OA
ENDROOT
BRANCH   1   2
HETATM    2  C8  UNL     1      22.537   5.017  34.552  1.00  0.00     0.167 C 
BRANCH   2   3
HETATM    3  C7  UNL     1      24.027   5.222  34.221  1.00  0.00     0.026 C 
BRANCH   3   4
HETATM    4  C6  UNL     1      24.585   6.104  35.286  1.00  0.00     0.002 C 
BRANCH   4   5
HETATM    5  C5  UNL     1      25.597   7.131  34.759  1.00  0.00     0.000 C 
BRANCH   5   6
HETATM    6  C4  UNL     1      24.890   8.224  34.034  1.00  0.00     0.002 C 
BRANCH   6   7
HETATM    7  C3  UNL     1      24.143   9.175  34.900  1.00  0.00     0.020 C 
BRANCH   7   8
HETATM    8  C2  UNL     1      24.138  10.590  34.452  1.00  0.00     0.122 C 
BRANCH   8   9
HETATM    9  N3  UNL     1      25.249  10.950  33.615  1.00  0.00    -0.367 N 
HETATM   10  C1  UNL     1      26.007  11.951  33.872  1.00  0.00     0.196 C 
HETATM   11  N1  UNL     1      25.762  12.741  35.012  1.00  0.00    -0.067 NA
HETATM   12  N2  UNL     1      27.094  12.276  33.023  1.00  0.00    -0.067 NA
ATOM     13  H3  UNL     1      25.440  10.390  32.784  1.00  0.00     0.161 HD
ENDBRANCH   8   9
ENDBRANCH   7   8
ENDBRANCH   6   7
ENDBRANCH   5   6
ENDBRANCH   4   5
ENDBRANCH   3   4
ENDBRANCH   2   3
ENDBRANCH   1   2
BRANCH   1  14
HETATM   14  C9  UNL     1      20.460   4.595  33.462  1.00  0.00     0.175 C 
BRANCH  14  15
HETATM   15  C10 UNL     1      19.779   4.355  32.152  1.00  0.00     0.045 C 
HETATM   16  C11 UNL     1      19.364   5.734  31.547  1.00  0.00     0.130 C 
HETATM   17  C12 UNL     1      17.930   5.459  31.283  1.00  0.00     0.046 C 
HETATM   18  C13 UNL     1      17.515   4.845  32.627  1.00  0.00     0.016 C 
HETATM   19  C15 UNL     1      17.875   4.048  30.766  1.00  0.00     0.194 C 
HETATM   20  C14 UNL     1      18.457   3.724  32.170  1.00  0.00     0.025 C 
BRANCH  16  21
HETATM   21  O2  UNL     1      19.527   6.723  32.499  1.00  0.00    -0.395 OA
ATOM     22  H2  UNL     1      20.426   7.032  32.484  1.00  0.00     0.210 HD
ENDBRANCH  16  21
BRANCH  19  23
HETATM   23  N4  UNL     1      18.772   3.732  29.695  1.00  0.00    -0.074 N 
ATOM     24  H43 UNL     1      18.691   4.433  28.960  1.00  0.00     0.274 HD
ATOM     25  H42 UNL     1      19.735   3.888  29.994  1.00  0.00     0.274 HD
ATOM     26  H41 UNL     1      18.682   2.799  29.294  1.00  0.00     0.274 HD
ENDBRANCH  19  23
ENDBRANCH  14  15
ENDBRANCH   1  14
TORSDOF 12
ENDMDL
