MODEL 1
REMARK VINA RESULT: -9.817399995      0.000      0.000
REMARK  8 active torsions:
REMARK  status: ('A' for Active; 'I' for Inactive)
REMARK    1  A    between atoms: C2_2  and  C3_3 
REMARK    2  A    between atoms: C6_6  and  O1_7 
REMARK    3  A    between atoms: O1_7  and  C7_8 
REMARK    4  A    between atoms: C7_8  and  C8_10 
REMARK    5  A    between atoms: C8_10  and  C9_11 
REMARK    6  A    between atoms: C9_11  and  C10_12 
REMARK    7  A    between atoms: C10_12  and  O4_14 
REMARK    8  A    between atoms: C20_24  and  O5_25 
ROOT
HETATM    1  C3  UNL     1      69.784  33.481  25.978  1.00  0.00    -0.027 C 
HETATM    2  C4  UNL     1      69.529  33.987  24.542  1.00  0.00     0.013 C 
HETATM    3  C5  UNL     1      68.155  34.602  24.715  1.00  0.00     0.034 C 
HETATM    4  C6  UNL     1      67.481  33.876  25.861  1.00  0.00     0.141 C 
HETATM    5  C12 UNL     1      68.497  32.783  26.225  1.00  0.00    -0.009 C 
HETATM    6  C13 UNL     1      68.218  32.344  27.612  1.00  0.00     0.018 C 
HETATM    7  C14 UNL     1      68.240  31.654  25.257  1.00  0.00     0.013 C 
HETATM    8  C15 UNL     1      69.421  30.770  25.042  1.00  0.00     0.006 C 
HETATM    9  C16 UNL     1      70.728  31.463  24.910  1.00  0.00    -0.005 C 
HETATM   10  C17 UNL     1      71.823  30.418  25.173  1.00  0.00     0.001 C 
HETATM   11  C18 UNL     1      71.795  29.310  24.170  1.00  0.00     0.008 C 
HETATM   12  C19 UNL     1      72.545  29.860  22.978  1.00  0.00     0.033 C 
HETATM   13  C20 UNL     1      73.282  31.092  23.460  1.00  0.00     0.126 C 
HETATM   14  C21 UNL     1      73.192  31.025  24.948  1.00  0.00    -0.014 C 
HETATM   15  C22 UNL     1      74.206  30.019  25.462  1.00  0.00     0.018 C 
HETATM   16  C23 UNL     1      73.392  32.321  25.649  1.00  0.00     0.012 C 
HETATM   17  C24 UNL     1      72.216  33.270  25.551  1.00  0.00     0.007 C 
HETATM   18  C25 UNL     1      70.963  32.558  25.925  1.00  0.00    -0.001 C 
ENDROOT
BRANCH   4  19
HETATM   19  O1  UNL     1      66.293  33.257  25.422  1.00  0.00    -0.315 OA
BRANCH  19  20
HETATM   20  C7  UNL     1      65.053  33.880  25.465  1.00  0.00     0.259 C 
HETATM   21  O2  UNL     1      64.391  33.745  26.524  1.00  0.00    -0.265 OA
BRANCH  20  22
HETATM   22  C8  UNL     1      64.513  34.670  24.331  1.00  0.00     0.121 C 
BRANCH  22  23
HETATM   23  C9  UNL     1      65.410  34.486  23.150  1.00  0.00     0.121 C 
BRANCH  23  24
HETATM   24  C10 UNL     1      64.869  35.066  21.910  1.00  0.00     0.258 C 
HETATM   25  O3  UNL     1      63.753  34.688  21.478  1.00  0.00    -0.265 OA
BRANCH  24  26
HETATM   26  O4  UNL     1      65.562  36.021  21.206  1.00  0.00    -0.326 OA
HETATM   27  C11 UNL     1      66.317  37.052  21.768  1.00  0.00     0.213 C 
ENDBRANCH  24  26
ENDBRANCH  23  24
ENDBRANCH  22  23
ENDBRANCH  20  22
ENDBRANCH  19  20
ENDBRANCH   4  19
BRANCH   1  28
HETATM   28  C2  UNL     1      69.968  34.691  26.800  1.00  0.00     0.006 C 
HETATM   29  C1  UNL     1      70.709  35.830  26.209  1.00  0.00     0.006 C 
ENDBRANCH   1  28
BRANCH  13  30
HETATM   30  O5  UNL     1      74.624  30.983  23.102  1.00  0.00    -0.395 OA
ATOM     31  H5  UNL     1      75.077  31.777  23.362  1.00  0.00     0.210 HD
ENDBRANCH  13  30
TORSDOF 8
ENDMDL
MODEL 2
REMARK VINA RESULT: -9.331786490      0.998      1.377
REMARK  8 active torsions:
REMARK  status: ('A' for Active; 'I' for Inactive)
REMARK    1  A    between atoms: C2_2  and  C3_3 
REMARK    2  A    between atoms: C6_6  and  O1_7 
REMARK    3  A    between atoms: O1_7  and  C7_8 
REMARK    4  A    between atoms: C7_8  and  C8_10 
REMARK    5  A    between atoms: C8_10  and  C9_11 
REMARK    6  A    between atoms: C9_11  and  C10_12 
REMARK    7  A    between atoms: C10_12  and  O4_14 
REMARK    8  A    between atoms: C20_24  and  O5_25 
ROOT
HETATM    1  C3  UNL     1      69.893  33.672  25.892  1.00  0.00    -0.027 C 
HETATM    2  C4  UNL     1      69.763  34.223  24.456  1.00  0.00     0.013 C 
HETATM    3  C5  UNL     1      68.432  34.941  24.565  1.00  0.00     0.034 C 
HETATM    4  C6  UNL     1      67.639  34.250  25.653  1.00  0.00     0.141 C 
HETATM    5  C12 UNL     1      68.543  33.073  26.049  1.00  0.00    -0.009 C 
HETATM    6  C13 UNL     1      68.150  32.631  27.407  1.00  0.00     0.018 C 
HETATM    7  C14 UNL     1      68.257  31.986  25.042  1.00  0.00     0.013 C 
HETATM    8  C15 UNL     1      69.376  31.016  24.874  1.00  0.00     0.006 C 
HETATM    9  C16 UNL     1      70.739  31.606  24.833  1.00  0.00    -0.005 C 
HETATM   10  C17 UNL     1      71.732  30.473  25.134  1.00  0.00     0.001 C 
HETATM   11  C18 UNL     1      71.677  29.391  24.105  1.00  0.00     0.008 C 
HETATM   12  C19 UNL     1      72.535  29.901  22.971  1.00  0.00     0.033 C 
HETATM   13  C20 UNL     1      73.336  31.063  23.522  1.00  0.00     0.126 C 
HETATM   14  C21 UNL     1      73.155  30.975  25.001  1.00  0.00    -0.014 C 
HETATM   15  C22 UNL     1      74.056  29.883  25.549  1.00  0.00     0.018 C 
HETATM   16  C23 UNL     1      73.413  32.238  25.742  1.00  0.00     0.012 C 
HETATM   17  C24 UNL     1      72.322  33.278  25.600  1.00  0.00     0.007 C 
HETATM   18  C25 UNL     1      70.997  32.660  25.884  1.00  0.00    -0.001 C 
ENDROOT
BRANCH   4  19
HETATM   19  O1  UNL     1      66.433  33.734  25.133  1.00  0.00    -0.315 OA
BRANCH  19  20
HETATM   20  C7  UNL     1      65.671  34.400  24.183  1.00  0.00     0.259 C 
HETATM   21  O2  UNL     1      64.620  34.953  24.592  1.00  0.00    -0.265 OA
BRANCH  20  22
HETATM   22  C8  UNL     1      66.056  34.470  22.752  1.00  0.00     0.121 C 
BRANCH  22  23
HETATM   23  C9  UNL     1      65.545  35.754  22.182  1.00  0.00     0.121 C 
BRANCH  23  24
HETATM   24  C10 UNL     1      66.536  36.841  22.215  1.00  0.00     0.258 C 
HETATM   25  O3  UNL     1      67.626  36.713  21.606  1.00  0.00    -0.265 OA
BRANCH  24  26
HETATM   26  O4  UNL     1      66.297  38.005  22.905  1.00  0.00    -0.326 OA
HETATM   27  C11 UNL     1      66.480  38.185  24.277  1.00  0.00     0.213 C 
ENDBRANCH  24  26
ENDBRANCH  23  24
ENDBRANCH  22  23
ENDBRANCH  20  22
ENDBRANCH  19  20
ENDBRANCH   4  19
BRANCH   1  28
HETATM   28  C2  UNL     1      70.122  34.849  26.750  1.00  0.00     0.006 C 
HETATM   29  C1  UNL     1      70.996  35.929  26.236  1.00  0.00     0.006 C 
ENDBRANCH   1  28
BRANCH  13  30
HETATM   30  O5  UNL     1      74.685  30.855  23.240  1.00  0.00    -0.395 OA
ATOM     31  H5  UNL     1      74.760  30.446  22.385  1.00  0.00     0.210 HD
ENDBRANCH  13  30
TORSDOF 8
ENDMDL
MODEL 3
REMARK VINA RESULT: -8.759591162      1.548      3.098
REMARK  8 active torsions:
REMARK  status: ('A' for Active; 'I' for Inactive)
REMARK    1  A    between atoms: C2_2  and  C3_3 
REMARK    2  A    between atoms: C6_6  and  O1_7 
REMARK    3  A    between atoms: O1_7  and  C7_8 
REMARK    4  A    between atoms: C7_8  and  C8_10 
REMARK    5  A    between atoms: C8_10  and  C9_11 
REMARK    6  A    between atoms: C9_11  and  C10_12 
REMARK    7  A    between atoms: C10_12  and  O4_14 
REMARK    8  A    between atoms: C20_24  and  O5_25 
ROOT
HETATM    1  C3  UNL     1      70.209  33.688  25.843  1.00  0.00    -0.027 C 
HETATM    2  C4  UNL     1      70.169  34.266  24.412  1.00  0.00     0.013 C 
HETATM    3  C5  UNL     1      68.849  35.010  24.461  1.00  0.00     0.034 C 
HETATM    4  C6  UNL     1      67.984  34.318  25.492  1.00  0.00     0.141 C 
HETATM    5  C12 UNL     1      68.841  33.115  25.915  1.00  0.00    -0.009 C 
HETATM    6  C13 UNL     1      68.365  32.660  27.243  1.00  0.00     0.018 C 
HETATM    7  C14 UNL     1      68.588  32.052  24.876  1.00  0.00     0.013 C 
HETATM    8  C15 UNL     1      69.695  31.061  24.752  1.00  0.00     0.006 C 
HETATM    9  C16 UNL     1      71.069  31.622  24.796  1.00  0.00    -0.005 C 
HETATM   10  C17 UNL     1      72.021  30.464  25.130  1.00  0.00     0.001 C 
HETATM   11  C18 UNL     1      72.000  29.399  24.081  1.00  0.00     0.008 C 
HETATM   12  C19 UNL     1      72.930  29.910  23.004  1.00  0.00     0.033 C 
HETATM   13  C20 UNL     1      73.723  31.045  23.619  1.00  0.00     0.126 C 
HETATM   14  C21 UNL     1      73.459  30.937  25.083  1.00  0.00    -0.014 C 
HETATM   15  C22 UNL     1      74.306  29.817  25.660  1.00  0.00     0.018 C 
HETATM   16  C23 UNL     1      73.702  32.181  25.860  1.00  0.00     0.012 C 
HETATM   17  C24 UNL     1      72.642  33.248  25.677  1.00  0.00     0.007 C 
HETATM   18  C25 UNL     1      71.291  32.653  25.878  1.00  0.00    -0.001 C 
ENDROOT
BRANCH   4  19
HETATM   19  O1  UNL     1      66.798  33.837  24.898  1.00  0.00    -0.315 OA
BRANCH  19  20
HETATM   20  C7  UNL     1      65.561  34.439  25.079  1.00  0.00     0.259 C 
HETATM   21  O2  UNL     1      65.391  35.554  24.528  1.00  0.00    -0.265 OA
BRANCH  20  22
HETATM   22  C8  UNL     1      64.476  33.817  25.879  1.00  0.00     0.121 C 
BRANCH  22  23
HETATM   23  C9  UNL     1      64.915  32.452  26.299  1.00  0.00     0.121 C 
BRANCH  23  24
HETATM   24  C10 UNL     1      64.580  32.137  27.697  1.00  0.00     0.258 C 
HETATM   25  O3  UNL     1      65.329  32.533  28.624  1.00  0.00    -0.265 OA
BRANCH  24  26
HETATM   26  O4  UNL     1      63.458  31.411  28.018  1.00  0.00    -0.326 OA
HETATM   27  C11 UNL     1      62.702  30.653  27.123  1.00  0.00     0.213 C 
ENDBRANCH  24  26
ENDBRANCH  23  24
ENDBRANCH  22  23
ENDBRANCH  20  22
ENDBRANCH  19  20
ENDBRANCH   4  19
BRANCH   1  28
HETATM   28  C2  UNL     1      70.415  34.845  26.733  1.00  0.00     0.006 C 
HETATM   29  C1  UNL     1      71.298  35.939  26.264  1.00  0.00     0.006 C 
ENDBRANCH   1  28
BRANCH  13  30
HETATM   30  O5  UNL     1      75.080  30.813  23.406  1.00  0.00    -0.395 OA
ATOM     31  H5  UNL     1      75.184  29.981  22.959  1.00  0.00     0.210 HD
ENDBRANCH  13  30
TORSDOF 8
ENDMDL
MODEL 4
REMARK VINA RESULT: -8.096984114      2.015      8.079
REMARK  8 active torsions:
REMARK  status: ('A' for Active; 'I' for Inactive)
REMARK    1  A    between atoms: C2_2  and  C3_3 
REMARK    2  A    between atoms: C6_6  and  O1_7 
REMARK    3  A    between atoms: O1_7  and  C7_8 
REMARK    4  A    between atoms: C7_8  and  C8_10 
REMARK    5  A    between atoms: C8_10  and  C9_11 
REMARK    6  A    between atoms: C9_11  and  C10_12 
REMARK    7  A    between atoms: C10_12  and  O4_14 
REMARK    8  A    between atoms: C20_24  and  O5_25 
ROOT
HETATM    1  C3  UNL     1      69.315  33.390  25.651  1.00  0.00    -0.027 C 
HETATM    2  C4  UNL     1      69.155  32.424  24.458  1.00  0.00     0.013 C 
HETATM    3  C5  UNL     1      70.231  31.410  24.789  1.00  0.00     0.034 C 
HETATM    4  C6  UNL     1      71.282  32.125  25.612  1.00  0.00     0.141 C 
HETATM    5  C12 UNL     1      70.787  33.579  25.619  1.00  0.00    -0.009 C 
HETATM    6  C13 UNL     1      71.408  34.267  26.775  1.00  0.00     0.018 C 
HETATM    7  C14 UNL     1      71.280  34.180  24.326  1.00  0.00     0.013 C 
HETATM    8  C15 UNL     1      70.471  35.343  23.861  1.00  0.00     0.006 C 
HETATM    9  C16 UNL     1      68.999  35.201  24.000  1.00  0.00    -0.005 C 
HETATM   10  C17 UNL     1      68.399  36.613  23.930  1.00  0.00     0.001 C 
HETATM   11  C18 UNL     1      68.668  37.273  22.616  1.00  0.00     0.008 C 
HETATM   12  C19 UNL     1      67.603  36.728  21.693  1.00  0.00     0.033 C 
HETATM   13  C20 UNL     1      66.557  36.076  22.574  1.00  0.00     0.126 C 
HETATM   14  C21 UNL     1      66.887  36.542  23.953  1.00  0.00    -0.014 C 
HETATM   15  C22 UNL     1      66.385  37.963  24.131  1.00  0.00     0.018 C 
HETATM   16  C23 UNL     1      66.347  35.694  25.049  1.00  0.00     0.012 C 
HETATM   17  C24 UNL     1      67.081  34.382  25.241  1.00  0.00     0.007 C 
HETATM   18  C25 UNL     1      68.547  34.634  25.325  1.00  0.00    -0.001 C 
ENDROOT
BRANCH   4  19
HETATM   19  O1  UNL     1      72.533  32.079  24.962  1.00  0.00    -0.315 OA
BRANCH  19  20
HETATM   20  C7  UNL     1      73.693  31.635  25.581  1.00  0.00     0.259 C 
HETATM   21  O2  UNL     1      74.188  32.388  26.456  1.00  0.00    -0.265 OA
BRANCH  20  22
HETATM   22  C8  UNL     1      74.336  30.340  25.246  1.00  0.00     0.121 C 
BRANCH  22  23
HETATM   23  C9  UNL     1      74.790  30.387  23.823  1.00  0.00     0.121 C 
BRANCH  23  24
HETATM   24  C10 UNL     1      76.253  30.318  23.675  1.00  0.00     0.258 C 
HETATM   25  O3  UNL     1      76.779  29.323  23.119  1.00  0.00    -0.265 OA
BRANCH  24  26
HETATM   26  O4  UNL     1      77.066  31.325  24.137  1.00  0.00    -0.326 OA
HETATM   27  C11 UNL     1      78.080  31.946  23.407  1.00  0.00     0.213 C 
ENDBRANCH  24  26
ENDBRANCH  23  24
ENDBRANCH  22  23
ENDBRANCH  20  22
ENDBRANCH  19  20
ENDBRANCH   4  19
BRANCH   1  28
HETATM   28  C2  UNL     1      68.838  32.646  26.831  1.00  0.00     0.006 C 
HETATM   29  C1  UNL     1      67.657  31.766  26.672  1.00  0.00     0.006 C 
ENDBRANCH   1  28
BRANCH  13  30
HETATM   30  O5  UNL     1      65.304  36.581  22.236  1.00  0.00    -0.395 OA
ATOM     31  H5  UNL     1      65.084  37.286  22.834  1.00  0.00     0.210 HD
ENDBRANCH  13  30
TORSDOF 8
ENDMDL
MODEL 5
REMARK VINA RESULT: -7.916083101      1.992      7.943
REMARK  8 active torsions:
REMARK  status: ('A' for Active; 'I' for Inactive)
REMARK    1  A    between atoms: C2_2  and  C3_3 
REMARK    2  A    between atoms: C6_6  and  O1_7 
REMARK    3  A    between atoms: O1_7  and  C7_8 
REMARK    4  A    between atoms: C7_8  and  C8_10 
REMARK    5  A    between atoms: C8_10  and  C9_11 
REMARK    6  A    between atoms: C9_11  and  C10_12 
REMARK    7  A    between atoms: C10_12  and  O4_14 
REMARK    8  A    between atoms: C20_24  and  O5_25 
ROOT
HETATM    1  C3  UNL     1      68.765  32.884  25.425  1.00  0.00    -0.027 C 
HETATM    2  C4  UNL     1      68.865  32.114  24.091  1.00  0.00     0.013 C 
HETATM    3  C5  UNL     1      69.832  31.016  24.488  1.00  0.00     0.034 C 
HETATM    4  C6  UNL     1      70.680  31.555  25.620  1.00  0.00     0.141 C 
HETATM    5  C12 UNL     1      70.209  33.012  25.744  1.00  0.00    -0.009 C 
HETATM    6  C13 UNL     1      70.564  33.492  27.100  1.00  0.00     0.018 C 
HETATM    7  C14 UNL     1      70.982  33.776  24.699  1.00  0.00     0.013 C 
HETATM    8  C15 UNL     1      70.308  35.029  24.254  1.00  0.00     0.006 C 
HETATM    9  C16 UNL     1      68.841  34.932  24.045  1.00  0.00    -0.005 C 
HETATM   10  C17 UNL     1      68.284  36.363  24.065  1.00  0.00     0.001 C 
HETATM   11  C18 UNL     1      68.844  37.199  22.959  1.00  0.00     0.008 C 
HETATM   12  C19 UNL     1      68.005  36.843  21.753  1.00  0.00     0.033 C 
HETATM   13  C20 UNL     1      66.784  36.114  22.274  1.00  0.00     0.126 C 
HETATM   14  C21 UNL     1      66.803  36.355  23.746  1.00  0.00    -0.014 C 
HETATM   15  C22 UNL     1      66.287  37.754  24.029  1.00  0.00     0.018 C 
HETATM   16  C23 UNL     1      66.026  35.377  24.554  1.00  0.00     0.012 C 
HETATM   17  C24 UNL     1      66.687  34.021  24.696  1.00  0.00     0.007 C 
HETATM   18  C25 UNL     1      68.100  34.195  25.136  1.00  0.00    -0.001 C 
ENDROOT
BRANCH   4  19
HETATM   19  O1  UNL     1      72.043  31.552  25.260  1.00  0.00    -0.315 OA
BRANCH  19  20
HETATM   20  C7  UNL     1      72.671  30.462  24.674  1.00  0.00     0.259 C 
HETATM   21  O2  UNL     1      72.225  29.327  24.976  1.00  0.00    -0.265 OA
BRANCH  20  22
HETATM   22  C8  UNL     1      73.812  30.602  23.735  1.00  0.00     0.121 C 
BRANCH  22  23
HETATM   23  C9  UNL     1      75.075  30.292  24.470  1.00  0.00     0.121 C 
BRANCH  23  24
HETATM   24  C10 UNL     1      76.273  30.346  23.616  1.00  0.00     0.258 C 
HETATM   25  O3  UNL     1      76.290  29.729  22.522  1.00  0.00    -0.265 OA
BRANCH  24  26
HETATM   26  O4  UNL     1      77.386  31.059  23.990  1.00  0.00    -0.326 OA
HETATM   27  C11 UNL     1      78.080  31.960  23.181  1.00  0.00     0.213 C 
ENDBRANCH  24  26
ENDBRANCH  23  24
ENDBRANCH  22  23
ENDBRANCH  20  22
ENDBRANCH  19  20
ENDBRANCH   4  19
BRANCH   1  28
HETATM   28  C2  UNL     1      68.031  31.994  26.343  1.00  0.00     0.006 C 
HETATM   29  C1  UNL     1      67.339  32.604  27.503  1.00  0.00     0.006 C 
ENDBRANCH   1  28
BRANCH  13  30
HETATM   30  O5  UNL     1      65.642  36.717  21.753  1.00  0.00    -0.395 OA
ATOM     31  H5  UNL     1      65.582  37.604  22.088  1.00  0.00     0.210 HD
ENDBRANCH  13  30
TORSDOF 8
ENDMDL
