MODEL 1
REMARK VINA RESULT: -8.398497764      0.000      0.000
REMARK  5 active torsions:
REMARK  status: ('A' for Active; 'I' for Inactive)
REMARK    1  A    between atoms: C2_2  and  C4_4 
REMARK    2  A    between atoms: C6_6  and  C7_7 
REMARK    3  A    between atoms: C7_7  and  O1_8 
REMARK    4  A    between atoms: C7_7  and  N1_10 
REMARK    5  A    between atoms: N1_10  and  N2_12 
ROOT
HETATM    1  N2  UNL     1      67.736  33.967  25.261  1.00  0.00    -0.310 N 
ATOM      2  H2  UNL     1      67.060  33.853  24.507  1.00  0.00     0.186 HD
HETATM    3  C8  UNL     1      68.400  35.052  25.278  1.00  0.00     0.015 C 
HETATM    4  C9  UNL     1      69.427  35.403  26.286  1.00  0.00     0.068 C 
HETATM    5  C10 UNL     1      70.178  36.590  25.732  1.00  0.00    -0.017 C 
HETATM    6  C11 UNL     1      71.644  36.534  25.989  1.00  0.00     0.020 C 
HETATM    7  C12 UNL     1      69.649  37.900  26.167  1.00  0.00    -0.020 C 
HETATM    8  C13 UNL     1      68.423  38.223  25.838  1.00  0.00    -0.017 C 
HETATM    9  C14 UNL     1      67.603  37.290  25.053  1.00  0.00     0.092 C 
HETATM   10  C15 UNL     1      66.651  38.019  24.153  1.00  0.00     0.135 C 
HETATM   11  O2  UNL     1      65.616  38.531  24.611  1.00  0.00    -0.297 OA
HETATM   12  C16 UNL     1      66.843  38.192  22.697  1.00  0.00     0.079 C 
HETATM   13  C17 UNL     1      67.760  37.139  22.192  1.00  0.00     0.013 C 
HETATM   14  C18 UNL     1      67.767  35.867  23.014  1.00  0.00    -0.003 C 
HETATM   15  C19 UNL     1      66.421  35.236  23.103  1.00  0.00     0.011 C 
HETATM   16  C20 UNL     1      68.357  36.219  24.359  1.00  0.00     0.021 C 
HETATM   17  C21 UNL     1      69.850  36.467  24.232  1.00  0.00     0.009 C 
HETATM   18  C22 UNL     1      70.588  35.275  23.740  1.00  0.00     0.012 C 
ENDROOT
BRANCH   1  19
HETATM   19  N1  UNL     1      67.842  32.935  26.160  1.00  0.00    -0.305 N 
ATOM     20  H1  UNL     1      67.267  32.961  27.002  1.00  0.00     0.183 HD
BRANCH  19  21
HETATM   21  C7  UNL     1      68.736  31.807  25.966  1.00  0.00     0.261 C 
BRANCH  21  22
HETATM   22  C6  UNL     1      69.798  32.130  24.939  1.00  0.00     0.173 C 
HETATM   23  C5  UNL     1      71.119  32.436  25.616  1.00  0.00     0.048 C 
HETATM   24  C4  UNL     1      71.841  31.114  25.427  1.00  0.00     0.050 C 
HETATM   25  C23 UNL     1      71.342  30.759  24.036  1.00  0.00     0.062 C 
HETATM   26  O3  UNL     1      69.982  31.036  24.137  1.00  0.00    -0.370 OA
HETATM   27  C24 UNL     1      71.464  29.278  23.775  1.00  0.00     0.046 C 
HETATM   28  C25 UNL     1      71.925  31.614  22.961  1.00  0.00     0.046 C 
BRANCH  24  29
HETATM   29  C2  UNL     1      73.306  31.334  25.484  1.00  0.00    -0.086 C 
HETATM   30  C1  UNL     1      73.771  32.439  26.032  1.00  0.00     0.014 C 
HETATM   31  C3  UNL     1      74.274  30.348  24.934  1.00  0.00     0.043 C 
ENDBRANCH  24  29
ENDBRANCH  21  22
BRANCH  21  32
HETATM   32  O1  UNL     1      68.002  30.711  25.522  1.00  0.00    -0.373 OA
ATOM     33  H1  UNL     1      67.932  30.082  26.230  1.00  0.00     0.212 HD
ENDBRANCH  21  32
ENDBRANCH  19  21
ENDBRANCH   1  19
TORSDOF 5
ENDMDL
MODEL 2
REMARK VINA RESULT: -7.987097970      1.734      3.394
REMARK  5 active torsions:
REMARK  status: ('A' for Active; 'I' for Inactive)
REMARK    1  A    between atoms: C2_2  and  C4_4 
REMARK    2  A    between atoms: C6_6  and  C7_7 
REMARK    3  A    between atoms: C7_7  and  O1_8 
REMARK    4  A    between atoms: C7_7  and  N1_10 
REMARK    5  A    between atoms: N1_10  and  N2_12 
ROOT
HETATM    1  N2  UNL     1      68.900  35.104  26.005  1.00  0.00    -0.310 N 
ATOM      2  H2  UNL     1      69.541  35.158  26.796  1.00  0.00     0.186 HD
HETATM    3  C8  UNL     1      68.816  36.134  25.264  1.00  0.00     0.015 C 
HETATM    4  C9  UNL     1      67.943  36.252  24.072  1.00  0.00     0.068 C 
HETATM    5  C10 UNL     1      67.903  37.720  23.719  1.00  0.00    -0.017 C 
HETATM    6  C11 UNL     1      66.557  38.188  23.286  1.00  0.00     0.020 C 
HETATM    7  C12 UNL     1      68.914  38.131  22.721  1.00  0.00    -0.020 C 
HETATM    8  C13 UNL     1      70.182  37.995  23.019  1.00  0.00    -0.017 C 
HETATM    9  C14 UNL     1      70.575  37.442  24.323  1.00  0.00     0.092 C 
HETATM   10  C15 UNL     1      71.865  38.034  24.804  1.00  0.00     0.135 C 
HETATM   11  O2  UNL     1      72.950  37.660  24.327  1.00  0.00    -0.297 OA
HETATM   12  C16 UNL     1      71.969  39.077  25.848  1.00  0.00     0.079 C 
HETATM   13  C17 UNL     1      70.746  39.055  26.689  1.00  0.00     0.013 C 
HETATM   14  C18 UNL     1      70.044  37.713  26.742  1.00  0.00    -0.003 C 
HETATM   15  C19 UNL     1      70.924  36.629  27.261  1.00  0.00     0.011 C 
HETATM   16  C20 UNL     1      69.512  37.444  25.355  1.00  0.00     0.021 C 
HETATM   17  C21 UNL     1      68.332  38.352  25.056  1.00  0.00     0.009 C 
HETATM   18  C22 UNL     1      67.200  38.148  25.996  1.00  0.00     0.012 C 
ENDROOT
BRANCH   1  19
HETATM   19  N1  UNL     1      68.213  33.927  25.844  1.00  0.00    -0.305 N 
ATOM     20  H1  UNL     1      67.194  33.958  25.814  1.00  0.00     0.183 HD
BRANCH  19  21
HETATM   21  C7  UNL     1      68.871  32.638  25.714  1.00  0.00     0.261 C 
BRANCH  21  22
HETATM   22  C6  UNL     1      70.022  32.717  24.736  1.00  0.00     0.173 C 
HETATM   23  C5  UNL     1      71.335  32.890  25.473  1.00  0.00     0.048 C 
HETATM   24  C4  UNL     1      71.865  31.467  25.436  1.00  0.00     0.050 C 
HETATM   25  C23 UNL     1      71.394  31.067  24.047  1.00  0.00     0.062 C 
HETATM   26  O3  UNL     1      70.086  31.543  24.037  1.00  0.00    -0.370 OA
HETATM   27  C24 UNL     1      71.311  29.567  23.911  1.00  0.00     0.046 C 
HETATM   28  C25 UNL     1      72.154  31.734  22.950  1.00  0.00     0.046 C 
BRANCH  24  29
HETATM   29  C2  UNL     1      73.341  31.481  25.572  1.00  0.00    -0.086 C 
HETATM   30  C1  UNL     1      73.928  32.528  26.116  1.00  0.00     0.014 C 
HETATM   31  C3  UNL     1      74.187  30.350  25.106  1.00  0.00     0.043 C 
ENDBRANCH  24  29
ENDBRANCH  21  22
BRANCH  21  32
HETATM   32  O1  UNL     1      67.953  31.700  25.250  1.00  0.00    -0.373 OA
ATOM     33  H1  UNL     1      67.785  31.866  24.330  1.00  0.00     0.212 HD
ENDBRANCH  21  32
ENDBRANCH  19  21
ENDBRANCH   1  19
TORSDOF 5
ENDMDL
MODEL 3
REMARK VINA RESULT: -7.845576709      3.820      7.889
REMARK  5 active torsions:
REMARK  status: ('A' for Active; 'I' for Inactive)
REMARK    1  A    between atoms: C2_2  and  C4_4 
REMARK    2  A    between atoms: C6_6  and  C7_7 
REMARK    3  A    between atoms: C7_7  and  O1_8 
REMARK    4  A    between atoms: C7_7  and  N1_10 
REMARK    5  A    between atoms: N1_10  and  N2_12 
ROOT
HETATM    1  N2  UNL     1      67.776  36.402  22.206  1.00  0.00    -0.310 N 
ATOM      2  H2  UNL     1      66.918  35.910  21.958  1.00  0.00     0.186 HD
HETATM    3  C8  UNL     1      68.180  36.280  23.406  1.00  0.00     0.015 C 
HETATM    4  C9  UNL     1      69.398  36.917  23.959  1.00  0.00     0.068 C 
HETATM    5  C10 UNL     1      69.300  36.789  25.461  1.00  0.00    -0.017 C 
HETATM    6  C11 UNL     1      69.769  38.000  26.190  1.00  0.00     0.020 C 
HETATM    7  C12 UNL     1      69.967  35.590  26.013  1.00  0.00    -0.020 C 
HETATM    8  C13 UNL     1      69.537  34.408  25.647  1.00  0.00    -0.017 C 
HETATM    9  C14 UNL     1      68.414  34.293  24.705  1.00  0.00     0.092 C 
HETATM   10  C15 UNL     1      67.592  33.070  24.979  1.00  0.00     0.135 C 
HETATM   11  O2  UNL     1      67.991  31.948  24.627  1.00  0.00    -0.297 OA
HETATM   12  C16 UNL     1      66.281  33.081  25.664  1.00  0.00     0.079 C 
HETATM   13  C17 UNL     1      65.677  34.432  25.553  1.00  0.00     0.013 C 
HETATM   14  C18 UNL     1      66.132  35.225  24.345  1.00  0.00    -0.003 C 
HETATM   15  C19 UNL     1      65.835  34.531  23.061  1.00  0.00     0.011 C 
HETATM   16  C20 UNL     1      67.600  35.520  24.543  1.00  0.00     0.021 C 
HETATM   17  C21 UNL     1      67.787  36.561  25.634  1.00  0.00     0.009 C 
HETATM   18  C22 UNL     1      67.130  37.854  25.310  1.00  0.00     0.012 C 
ENDROOT
BRANCH   1  19
HETATM   19  N1  UNL     1      68.382  37.131  21.214  1.00  0.00    -0.305 N 
ATOM     20  H1  UNL     1      69.338  37.452  21.360  1.00  0.00     0.183 HD
BRANCH  19  21
HETATM   21  C7  UNL     1      67.722  37.466  19.964  1.00  0.00     0.261 C 
BRANCH  21  22
HETATM   22  C6  UNL     1      67.845  38.945  19.669  1.00  0.00     0.173 C 
HETATM   23  C5  UNL     1      69.095  39.223  18.858  1.00  0.00     0.048 C 
HETATM   24  C4  UNL     1      68.500  39.357  17.467  1.00  0.00     0.050 C 
HETATM   25  C23 UNL     1      67.204  40.066  17.823  1.00  0.00     0.062 C 
HETATM   26  O3  UNL     1      66.766  39.336  18.924  1.00  0.00    -0.370 OA
HETATM   27  C24 UNL     1      66.168  39.882  16.741  1.00  0.00     0.046 C 
HETATM   28  C25 UNL     1      67.401  41.486  18.238  1.00  0.00     0.046 C 
BRANCH  24  29
HETATM   29  C2  UNL     1      69.400  40.172  16.616  1.00  0.00    -0.086 C 
HETATM   30  C1  UNL     1      70.504  40.669  17.137  1.00  0.00     0.014 C 
HETATM   31  C3  UNL     1      69.092  40.458  15.189  1.00  0.00     0.043 C 
ENDBRANCH  24  29
ENDBRANCH  21  22
BRANCH  21  32
HETATM   32  O1  UNL     1      66.372  37.139  20.056  1.00  0.00    -0.373 OA
ATOM     33  H1  UNL     1      66.254  36.245  19.759  1.00  0.00     0.212 HD
ENDBRANCH  21  32
ENDBRANCH  19  21
ENDBRANCH   1  19
TORSDOF 5
ENDMDL
MODEL 4
REMARK VINA RESULT: -7.694452998      1.854      3.774
REMARK  5 active torsions:
REMARK  status: ('A' for Active; 'I' for Inactive)
REMARK    1  A    between atoms: C2_2  and  C4_4 
REMARK    2  A    between atoms: C6_6  and  C7_7 
REMARK    3  A    between atoms: C7_7  and  O1_8 
REMARK    4  A    between atoms: C7_7  and  N1_10 
REMARK    5  A    between atoms: N1_10  and  N2_12 
ROOT
HETATM    1  N2  UNL     1      68.263  35.388  25.275  1.00  0.00    -0.310 N 
ATOM      2  H2  UNL     1      68.715  35.655  26.149  1.00  0.00     0.186 HD
HETATM    3  C8  UNL     1      68.164  36.288  24.382  1.00  0.00     0.015 C 
HETATM    4  C9  UNL     1      67.540  36.099  23.052  1.00  0.00     0.068 C 
HETATM    5  C10 UNL     1      67.338  37.481  22.477  1.00  0.00    -0.017 C 
HETATM    6  C11 UNL     1      66.048  37.635  21.749  1.00  0.00     0.020 C 
HETATM    7  C12 UNL     1      68.448  37.951  21.622  1.00  0.00    -0.020 C 
HETATM    8  C13 UNL     1      69.636  38.089  22.155  1.00  0.00    -0.017 C 
HETATM    9  C14 UNL     1      69.845  37.778  23.577  1.00  0.00     0.092 C 
HETATM   10  C15 UNL     1      70.901  38.654  24.181  1.00  0.00     0.135 C 
HETATM   11  O2  UNL     1      72.104  38.433  23.965  1.00  0.00    -0.297 OA
HETATM   12  C16 UNL     1      70.626  39.815  25.055  1.00  0.00     0.079 C 
HETATM   13  C17 UNL     1      69.279  39.666  25.662  1.00  0.00     0.013 C 
HETATM   14  C18 UNL     1      68.804  38.234  25.795  1.00  0.00    -0.003 C 
HETATM   15  C19 UNL     1      69.724  37.402  26.620  1.00  0.00     0.011 C 
HETATM   16  C20 UNL     1      68.610  37.706  24.393  1.00  0.00     0.021 C 
HETATM   17  C21 UNL     1      67.384  38.337  23.756  1.00  0.00     0.009 C 
HETATM   18  C22 UNL     1      66.134  38.039  24.503  1.00  0.00     0.012 C 
ENDROOT
BRANCH   1  19
HETATM   19  N1  UNL     1      67.819  34.093  25.177  1.00  0.00    -0.305 N 
ATOM     20  H1  UNL     1      67.404  33.786  24.298  1.00  0.00     0.183 HD
BRANCH  19  21
HETATM   21  C7  UNL     1      67.913  33.140  26.269  1.00  0.00     0.261 C 
BRANCH  21  22
HETATM   22  C6  UNL     1      69.336  32.660  26.444  1.00  0.00     0.173 C 
HETATM   23  C5  UNL     1      69.635  31.521  25.491  1.00  0.00     0.048 C 
HETATM   24  C4  UNL     1      70.393  32.259  24.402  1.00  0.00     0.050 C 
HETATM   25  C23 UNL     1      71.168  33.240  25.266  1.00  0.00     0.062 C 
HETATM   26  O3  UNL     1      70.187  33.689  26.146  1.00  0.00    -0.370 OA
HETATM   27  C24 UNL     1      71.613  34.438  24.465  1.00  0.00     0.046 C 
HETATM   28  C25 UNL     1      72.260  32.598  26.056  1.00  0.00     0.046 C 
BRANCH  24  29
HETATM   29  C2  UNL     1      71.263  31.310  23.669  1.00  0.00    -0.086 C 
HETATM   30  C1  UNL     1      71.934  31.731  22.615  1.00  0.00     0.014 C 
HETATM   31  C3  UNL     1      71.400  29.887  24.080  1.00  0.00     0.043 C 
ENDBRANCH  24  29
ENDBRANCH  21  22
BRANCH  21  32
HETATM   32  O1  UNL     1      67.101  32.044  25.991  1.00  0.00    -0.373 OA
ATOM     33  H1  UNL     1      66.478  31.937  26.700  1.00  0.00     0.212 HD
ENDBRANCH  21  32
ENDBRANCH  19  21
ENDBRANCH   1  19
TORSDOF 5
ENDMDL
MODEL 5
REMARK VINA RESULT: -7.689789579      3.168      4.343
REMARK  5 active torsions:
REMARK  status: ('A' for Active; 'I' for Inactive)
REMARK    1  A    between atoms: C2_2  and  C4_4 
REMARK    2  A    between atoms: C6_6  and  C7_7 
REMARK    3  A    between atoms: C7_7  and  O1_8 
REMARK    4  A    between atoms: C7_7  and  N1_10 
REMARK    5  A    between atoms: N1_10  and  N2_12 
ROOT
HETATM    1  N2  UNL     1      71.136  37.079  26.752  1.00  0.00    -0.310 N 
ATOM      2  H2  UNL     1      70.163  37.199  27.031  1.00  0.00     0.186 HD
HETATM    3  C8  UNL     1      71.728  38.102  26.281  1.00  0.00     0.015 C 
HETATM    4  C9  UNL     1      73.136  38.129  25.820  1.00  0.00     0.068 C 
HETATM    5  C10 UNL     1      73.302  39.411  25.040  1.00  0.00    -0.017 C 
HETATM    6  C11 UNL     1      74.146  39.258  23.823  1.00  0.00     0.020 C 
HETATM    7  C12 UNL     1      73.795  40.551  25.843  1.00  0.00    -0.020 C 
HETATM    8  C13 UNL     1      73.065  40.976  26.843  1.00  0.00    -0.017 C 
HETATM    9  C14 UNL     1      71.784  40.323  27.148  1.00  0.00     0.092 C 
HETATM   10  C15 UNL     1      70.790  41.298  27.706  1.00  0.00     0.135 C 
HETATM   11  O2  UNL     1      70.870  41.675  28.887  1.00  0.00    -0.297 OA
HETATM   12  C16 UNL     1      69.667  41.879  26.938  1.00  0.00     0.079 C 
HETATM   13  C17 UNL     1      69.351  40.999  25.785  1.00  0.00     0.013 C 
HETATM   14  C18 UNL     1      69.722  39.544  25.985  1.00  0.00    -0.003 C 
HETATM   15  C19 UNL     1      69.045  38.939  27.165  1.00  0.00     0.011 C 
HETATM   16  C20 UNL     1      71.230  39.484  26.060  1.00  0.00     0.021 C 
HETATM   17  C21 UNL     1      71.837  39.730  24.690  1.00  0.00     0.009 C 
HETATM   18  C22 UNL     1      71.417  38.717  23.687  1.00  0.00     0.012 C 
ENDROOT
BRANCH   1  19
HETATM   19  N1  UNL     1      71.680  35.831  26.922  1.00  0.00    -0.305 N 
ATOM     20  H1  UNL     1      72.625  35.758  27.299  1.00  0.00     0.183 HD
BRANCH  19  21
HETATM   21  C7  UNL     1      70.971  34.607  26.590  1.00  0.00     0.261 C 
BRANCH  21  22
HETATM   22  C6  UNL     1      71.501  34.010  25.305  1.00  0.00     0.173 C 
HETATM   23  C5  UNL     1      72.539  32.946  25.602  1.00  0.00     0.048 C 
HETATM   24  C4  UNL     1      71.707  31.688  25.428  1.00  0.00     0.050 C 
HETATM   25  C23 UNL     1      70.843  32.126  24.257  1.00  0.00     0.062 C 
HETATM   26  O3  UNL     1      70.466  33.410  24.640  1.00  0.00    -0.370 OA
HETATM   27  C24 UNL     1      69.577  31.309  24.179  1.00  0.00     0.046 C 
HETATM   28  C25 UNL     1      71.591  32.211  22.969  1.00  0.00     0.046 C 
BRANCH  24  29
HETATM   29  C2  UNL     1      72.594  30.545  25.106  1.00  0.00    -0.086 C 
HETATM   30  C1  UNL     1      72.059  29.388  24.772  1.00  0.00     0.014 C 
HETATM   31  C3  UNL     1      74.076  30.658  25.155  1.00  0.00     0.043 C 
ENDBRANCH  24  29
ENDBRANCH  21  22
BRANCH  21  32
HETATM   32  O1  UNL     1      69.618  34.892  26.427  1.00  0.00    -0.373 OA
ATOM     33  H1  UNL     1      69.129  34.078  26.461  1.00  0.00     0.212 HD
ENDBRANCH  21  32
ENDBRANCH  19  21
ENDBRANCH   1  19
TORSDOF 5
ENDMDL
