MODEL 1
REMARK VINA RESULT: -7.981833565      0.000      0.000
REMARK  6 active torsions:
REMARK  status: ('A' for Active; 'I' for Inactive)
REMARK    1  A    between atoms: C12_12  and  O1_13 
REMARK    2  A    between atoms: C12_12  and  C13_15 
REMARK    3  A    between atoms: C13_15  and  C14_16 
REMARK    4  A    between atoms: C14_16  and  C15_17 
REMARK    5  A    between atoms: C15_17  and  O2_18 
REMARK    6  A    between atoms: O2_18  and  C16_19 
ROOT
HETATM    1  C1  UNL     1      71.720  35.951  28.094  1.00  0.00     0.015 C 
HETATM    2  C2  UNL     1      71.375  36.662  27.061  1.00  0.00    -0.084 C 
HETATM    3  C3  UNL     1      71.174  38.134  27.423  1.00  0.00     0.034 C 
HETATM    4  C4  UNL     1      72.370  38.812  26.752  1.00  0.00     0.013 C 
HETATM    5  C5  UNL     1      72.385  38.513  25.294  1.00  0.00    -0.043 C 
HETATM    6  C6  UNL     1      73.702  39.066  24.734  1.00  0.00     0.015 C 
HETATM    7  C7  UNL     1      71.288  39.334  24.628  1.00  0.00     0.015 C 
HETATM    8  C8  UNL     1      72.309  37.076  24.910  1.00  0.00     0.002 C 
HETATM    9  C9  UNL     1      73.582  36.371  25.270  1.00  0.00     0.006 C 
HETATM   10  C10 UNL     1      73.480  34.884  25.282  1.00  0.00     0.009 C 
HETATM   11  C11 UNL     1      72.201  34.376  24.606  1.00  0.00     0.029 C 
HETATM   12  C12 UNL     1      72.186  32.894  24.469  1.00  0.00     0.062 C 
HETATM   13  C18 UNL     1      70.878  32.259  24.873  1.00  0.00     0.038 C 
HETATM   14  C19 UNL     1      70.525  32.787  26.237  1.00  0.00     0.004 C 
HETATM   15  C20 UNL     1      70.056  34.198  25.979  1.00  0.00     0.010 C 
HETATM   16  C21 UNL     1      70.943  35.028  25.121  1.00  0.00    -0.030 C 
HETATM   17  C22 UNL     1      70.082  35.263  23.838  1.00  0.00     0.016 C 
HETATM   18  C23 UNL     1      71.161  36.386  25.665  1.00  0.00     0.027 C 
ENDROOT
BRANCH  12  19
HETATM   19  O1  UNL     1      72.300  32.519  23.096  1.00  0.00    -0.389 OA
ATOM     20  H1  UNL     1      71.990  31.631  22.968  1.00  0.00     0.210 HD
ENDBRANCH  12  19
BRANCH  12  21
HETATM   21  C13 UNL     1      73.285  32.178  25.153  1.00  0.00     0.040 C 
BRANCH  21  22
HETATM   22  C14 UNL     1      73.381  30.695  24.928  1.00  0.00     0.030 C 
BRANCH  22  23
HETATM   23  C15 UNL     1      74.860  30.292  24.733  1.00  0.00     0.178 C 
BRANCH  23  24
HETATM   24  O2  UNL     1      75.504  31.418  24.159  1.00  0.00    -0.322 OA
BRANCH  24  25
HETATM   25  C16 UNL     1      76.278  31.303  23.013  1.00  0.00     0.254 C 
HETATM   26  C17 UNL     1      77.221  30.191  22.804  1.00  0.00     0.126 C 
HETATM   27  O3  UNL     1      76.115  32.228  22.148  1.00  0.00    -0.266 OA
ENDBRANCH  24  25
ENDBRANCH  23  24
ENDBRANCH  22  23
ENDBRANCH  21  22
ENDBRANCH  12  21
TORSDOF 6
ENDMDL
MODEL 2
REMARK VINA RESULT: -7.710358738      1.285      1.851
REMARK  6 active torsions:
REMARK  status: ('A' for Active; 'I' for Inactive)
REMARK    1  A    between atoms: C12_12  and  O1_13 
REMARK    2  A    between atoms: C12_12  and  C13_15 
REMARK    3  A    between atoms: C13_15  and  C14_16 
REMARK    4  A    between atoms: C14_16  and  C15_17 
REMARK    5  A    between atoms: C15_17  and  O2_18 
REMARK    6  A    between atoms: O2_18  and  C16_19 
ROOT
HETATM    1  C1  UNL     1      71.654  36.569  28.128  1.00  0.00     0.015 C 
HETATM    2  C2  UNL     1      71.289  37.222  27.063  1.00  0.00    -0.084 C 
HETATM    3  C3  UNL     1      70.996  38.692  27.368  1.00  0.00     0.034 C 
HETATM    4  C4  UNL     1      72.163  39.414  26.694  1.00  0.00     0.013 C 
HETATM    5  C5  UNL     1      72.224  39.066  25.249  1.00  0.00    -0.043 C 
HETATM    6  C6  UNL     1      73.518  39.675  24.691  1.00  0.00     0.015 C 
HETATM    7  C7  UNL     1      71.095  39.796  24.534  1.00  0.00     0.015 C 
HETATM    8  C8  UNL     1      72.240  37.614  24.916  1.00  0.00     0.002 C 
HETATM    9  C9  UNL     1      73.544  36.998  25.324  1.00  0.00     0.006 C 
HETATM   10  C10 UNL     1      73.529  35.509  25.389  1.00  0.00     0.009 C 
HETATM   11  C11 UNL     1      72.295  34.903  24.709  1.00  0.00     0.029 C 
HETATM   12  C12 UNL     1      72.369  33.418  24.626  1.00  0.00     0.062 C 
HETATM   13  C18 UNL     1      71.093  32.723  25.030  1.00  0.00     0.038 C 
HETATM   14  C19 UNL     1      70.683  33.276  26.367  1.00  0.00     0.004 C 
HETATM   15  C20 UNL     1      70.138  34.647  26.049  1.00  0.00     0.010 C 
HETATM   16  C21 UNL     1      70.992  35.497  25.178  1.00  0.00    -0.030 C 
HETATM   17  C22 UNL     1      70.144  35.636  23.871  1.00  0.00     0.016 C 
HETATM   18  C23 UNL     1      71.119  36.884  25.675  1.00  0.00     0.027 C 
ENDROOT
BRANCH  12  19
HETATM   19  O1  UNL     1      72.532  33.003  23.270  1.00  0.00    -0.389 OA
ATOM     20  H1  UNL     1      72.800  32.093  23.232  1.00  0.00     0.210 HD
ENDBRANCH  12  19
BRANCH  12  21
HETATM   21  C13 UNL     1      73.495  32.794  25.355  1.00  0.00     0.040 C 
BRANCH  21  22
HETATM   22  C14 UNL     1      74.532  32.082  24.532  1.00  0.00     0.030 C 
BRANCH  22  23
HETATM   23  C15 UNL     1      74.436  30.559  24.775  1.00  0.00     0.178 C 
BRANCH  23  24
HETATM   24  O2  UNL     1      73.824  30.013  23.618  1.00  0.00    -0.322 OA
BRANCH  24  25
HETATM   25  C16 UNL     1      72.451  29.823  23.546  1.00  0.00     0.254 C 
HETATM   26  C17 UNL     1      71.686  29.175  24.626  1.00  0.00     0.126 C 
HETATM   27  O3  UNL     1      71.893  30.250  22.480  1.00  0.00    -0.266 OA
ENDBRANCH  24  25
ENDBRANCH  23  24
ENDBRANCH  22  23
ENDBRANCH  21  22
ENDBRANCH  12  21
TORSDOF 6
ENDMDL
MODEL 3
REMARK VINA RESULT: -7.701051026      1.537      2.867
REMARK  6 active torsions:
REMARK  status: ('A' for Active; 'I' for Inactive)
REMARK    1  A    between atoms: C12_12  and  O1_13 
REMARK    2  A    between atoms: C12_12  and  C13_15 
REMARK    3  A    between atoms: C13_15  and  C14_16 
REMARK    4  A    between atoms: C14_16  and  C15_17 
REMARK    5  A    between atoms: C15_17  and  O2_18 
REMARK    6  A    between atoms: O2_18  and  C16_19 
ROOT
HETATM    1  C1  UNL     1      74.165  37.894  24.562  1.00  0.00     0.015 C 
HETATM    2  C2  UNL     1      73.474  38.017  25.657  1.00  0.00    -0.084 C 
HETATM    3  C3  UNL     1      73.311  39.482  26.067  1.00  0.00     0.034 C 
HETATM    4  C4  UNL     1      71.829  39.744  25.798  1.00  0.00     0.013 C 
HETATM    5  C5  UNL     1      70.986  38.777  26.552  1.00  0.00    -0.043 C 
HETATM    6  C6  UNL     1      69.537  38.983  26.087  1.00  0.00     0.015 C 
HETATM    7  C7  UNL     1      70.998  39.179  28.021  1.00  0.00     0.015 C 
HETATM    8  C8  UNL     1      71.307  37.334  26.371  1.00  0.00     0.002 C 
HETATM    9  C9  UNL     1      70.938  36.885  24.990  1.00  0.00     0.006 C 
HETATM   10  C10 UNL     1      71.551  35.590  24.578  1.00  0.00     0.009 C 
HETATM   11  C11 UNL     1      72.159  34.825  25.760  1.00  0.00     0.029 C 
HETATM   12  C12 UNL     1      72.615  33.462  25.374  1.00  0.00     0.062 C 
HETATM   13  C18 UNL     1      73.985  33.108  25.897  1.00  0.00     0.038 C 
HETATM   14  C19 UNL     1      74.913  34.232  25.522  1.00  0.00     0.004 C 
HETATM   15  C20 UNL     1      74.553  35.344  26.477  1.00  0.00     0.010 C 
HETATM   16  C21 UNL     1      73.102  35.651  26.595  1.00  0.00    -0.030 C 
HETATM   17  C22 UNL     1      72.769  35.240  28.067  1.00  0.00     0.016 C 
HETATM   18  C23 UNL     1      72.817  37.102  26.551  1.00  0.00     0.027 C 
ENDROOT
BRANCH  12  19
HETATM   19  O1  UNL     1      71.788  32.469  25.980  1.00  0.00    -0.389 OA
ATOM     20  H1  UNL     1      72.264  32.012  26.663  1.00  0.00     0.210 HD
ENDBRANCH  12  19
BRANCH  12  21
HETATM   21  C13 UNL     1      72.575  33.161  23.926  1.00  0.00     0.040 C 
BRANCH  21  22
HETATM   22  C14 UNL     1      72.692  31.718  23.523  1.00  0.00     0.030 C 
BRANCH  22  23
HETATM   23  C15 UNL     1      73.625  31.593  22.297  1.00  0.00     0.178 C 
BRANCH  23  24
HETATM   24  O2  UNL     1      74.605  30.627  22.643  1.00  0.00    -0.322 OA
BRANCH  24  25
HETATM   25  C16 UNL     1      75.917  30.990  22.909  1.00  0.00     0.254 C 
HETATM   26  C17 UNL     1      76.949  30.005  23.281  1.00  0.00     0.126 C 
HETATM   27  O3  UNL     1      76.173  32.236  22.809  1.00  0.00    -0.266 OA
ENDBRANCH  24  25
ENDBRANCH  23  24
ENDBRANCH  22  23
ENDBRANCH  21  22
ENDBRANCH  12  21
TORSDOF 6
ENDMDL
MODEL 4
REMARK VINA RESULT: -7.693145357      1.912      4.664
REMARK  6 active torsions:
REMARK  status: ('A' for Active; 'I' for Inactive)
REMARK    1  A    between atoms: C12_12  and  O1_13 
REMARK    2  A    between atoms: C12_12  and  C13_15 
REMARK    3  A    between atoms: C13_15  and  C14_16 
REMARK    4  A    between atoms: C14_16  and  C15_17 
REMARK    5  A    between atoms: C15_17  and  O2_18 
REMARK    6  A    between atoms: O2_18  and  C16_19 
ROOT
HETATM    1  C1  UNL     1      69.380  34.941  23.633  1.00  0.00     0.015 C 
HETATM    2  C2  UNL     1      69.165  34.410  24.801  1.00  0.00    -0.084 C 
HETATM    3  C3  UNL     1      67.675  34.183  25.059  1.00  0.00     0.034 C 
HETATM    4  C4  UNL     1      67.551  32.660  24.998  1.00  0.00     0.013 C 
HETATM    5  C5  UNL     1      68.469  32.024  25.981  1.00  0.00    -0.043 C 
HETATM    6  C6  UNL     1      68.423  30.511  25.728  1.00  0.00     0.015 C 
HETATM    7  C7  UNL     1      67.884  32.218  27.374  1.00  0.00     0.015 C 
HETATM    8  C8  UNL     1      69.898  32.440  25.920  1.00  0.00     0.002 C 
HETATM    9  C9  UNL     1      70.544  31.911  24.674  1.00  0.00     0.006 C 
HETATM   10  C10 UNL     1      71.836  32.567  24.324  1.00  0.00     0.009 C 
HETATM   11  C11 UNL     1      72.401  33.406  25.476  1.00  0.00     0.029 C 
HETATM   12  C12 UNL     1      73.768  33.917  25.183  1.00  0.00     0.062 C 
HETATM   13  C18 UNL     1      73.958  35.375  25.523  1.00  0.00     0.038 C 
HETATM   14  C19 UNL     1      72.830  36.136  24.880  1.00  0.00     0.004 C 
HETATM   15  C20 UNL     1      71.633  35.826  25.744  1.00  0.00     0.010 C 
HETATM   16  C21 UNL     1      71.413  34.387  26.052  1.00  0.00    -0.030 C 
HETATM   17  C22 UNL     1      71.655  34.311  27.595  1.00  0.00     0.016 C 
HETATM   18  C23 UNL     1      70.002  33.974  25.887  1.00  0.00     0.027 C 
ENDROOT
BRANCH  12  19
HETATM   19  O1  UNL     1      74.730  33.277  26.022  1.00  0.00    -0.389 OA
ATOM     20  H1  UNL     1      74.842  32.370  25.764  1.00  0.00     0.210 HD
ENDBRANCH  12  19
BRANCH  12  21
HETATM   21  C13 UNL     1      74.252  33.690  23.804  1.00  0.00     0.040 C 
BRANCH  21  22
HETATM   22  C14 UNL     1      75.356  32.686  23.623  1.00  0.00     0.030 C 
BRANCH  22  23
HETATM   23  C15 UNL     1      75.006  31.731  22.459  1.00  0.00     0.178 C 
BRANCH  23  24
HETATM   24  O2  UNL     1      75.225  30.417  22.947  1.00  0.00    -0.322 OA
BRANCH  24  25
HETATM   25  C16 UNL     1      76.370  30.090  23.660  1.00  0.00     0.254 C 
HETATM   26  C17 UNL     1      77.688  29.953  23.017  1.00  0.00     0.126 C 
HETATM   27  O3  UNL     1      76.204  29.918  24.914  1.00  0.00    -0.266 OA
ENDBRANCH  24  25
ENDBRANCH  23  24
ENDBRANCH  22  23
ENDBRANCH  21  22
ENDBRANCH  12  21
TORSDOF 6
ENDMDL
MODEL 5
REMARK VINA RESULT: -7.605832069      3.224      6.683
REMARK  6 active torsions:
REMARK  status: ('A' for Active; 'I' for Inactive)
REMARK    1  A    between atoms: C12_12  and  O1_13 
REMARK    2  A    between atoms: C12_12  and  C13_15 
REMARK    3  A    between atoms: C13_15  and  C14_16 
REMARK    4  A    between atoms: C14_16  and  C15_17 
REMARK    5  A    between atoms: C15_17  and  O2_18 
REMARK    6  A    between atoms: O2_18  and  C16_19 
ROOT
HETATM    1  C1  UNL     1      71.908  35.906  28.377  1.00  0.00     0.015 C 
HETATM    2  C2  UNL     1      72.833  35.796  27.469  1.00  0.00    -0.084 C 
HETATM    3  C3  UNL     1      73.938  34.828  27.895  1.00  0.00     0.034 C 
HETATM    4  C4  UNL     1      73.712  33.631  26.969  1.00  0.00     0.013 C 
HETATM    5  C5  UNL     1      73.758  34.060  25.545  1.00  0.00    -0.043 C 
HETATM    6  C6  UNL     1      73.340  32.852  24.696  1.00  0.00     0.015 C 
HETATM    7  C7  UNL     1      75.211  34.329  25.175  1.00  0.00     0.015 C 
HETATM    8  C8  UNL     1      72.873  35.196  25.165  1.00  0.00     0.002 C 
HETATM    9  C9  UNL     1      71.435  34.772  25.198  1.00  0.00     0.006 C 
HETATM   10  C10 UNL     1      70.460  35.900  25.207  1.00  0.00     0.009 C 
HETATM   11  C11 UNL     1      71.109  37.242  24.847  1.00  0.00     0.029 C 
HETATM   12  C12 UNL     1      70.105  38.329  24.692  1.00  0.00     0.062 C 
HETATM   13  C18 UNL     1      70.487  39.613  25.385  1.00  0.00     0.038 C 
HETATM   14  C19 UNL     1      70.852  39.267  26.804  1.00  0.00     0.004 C 
HETATM   15  C20 UNL     1      72.211  38.623  26.690  1.00  0.00     0.010 C 
HETATM   16  C21 UNL     1      72.339  37.557  25.660  1.00  0.00    -0.030 C 
HETATM   17  C22 UNL     1      73.332  38.178  24.624  1.00  0.00     0.016 C 
HETATM   18  C23 UNL     1      73.042  36.356  26.160  1.00  0.00     0.027 C 
ENDROOT
BRANCH  12  19
HETATM   19  O1  UNL     1      70.014  38.732  23.325  1.00  0.00    -0.389 OA
ATOM     20  H1  UNL     1      69.864  37.978  22.767  1.00  0.00     0.210 HD
ENDBRANCH  12  19
BRANCH  12  21
HETATM   21  C13 UNL     1      68.721  37.981  25.080  1.00  0.00     0.040 C 
BRANCH  21  22
HETATM   22  C14 UNL     1      67.625  38.889  24.596  1.00  0.00     0.030 C 
BRANCH  22  23
HETATM   23  C15 UNL     1      66.620  38.083  23.742  1.00  0.00     0.178 C 
BRANCH  23  24
HETATM   24  O2  UNL     1      67.123  38.103  22.416  1.00  0.00    -0.322 OA
BRANCH  24  25
HETATM   25  C16 UNL     1      67.398  36.930  21.728  1.00  0.00     0.254 C 
HETATM   26  C17 UNL     1      66.382  36.230  20.923  1.00  0.00     0.126 C 
HETATM   27  O3  UNL     1      68.594  36.497  21.839  1.00  0.00    -0.266 OA
ENDBRANCH  24  25
ENDBRANCH  23  24
ENDBRANCH  22  23
ENDBRANCH  21  22
ENDBRANCH  12  21
TORSDOF 6
ENDMDL
