MODEL 1
REMARK VINA RESULT: -6.601474821      0.000      0.000
REMARK  16 active torsions:
REMARK  status: ('A' for Active; 'I' for Inactive)
REMARK    1  A    between atoms: C2_2  and  C3_3 
REMARK    2  A    between atoms: C3_3  and  C4_4 
REMARK    3  A    between atoms: C4_4  and  C5_5 
REMARK    4  A    between atoms: C5_5  and  C6_6 
REMARK    5  A    between atoms: C5_5  and  O1_9 
REMARK    6  A    between atoms: C6_6  and  C7_7 
REMARK    7  A    between atoms: O1_9  and  C9_10 
REMARK    8  A    between atoms: C9_10  and  C10_11 
REMARK    9  A    between atoms: C10_11  and  S1_12 
REMARK   10  A    between atoms: S1_12  and  S2_13 
REMARK   11  A    between atoms: S2_13  and  C11_14 
REMARK   12  A    between atoms: C11_14  and  C12_15 
REMARK   13  A    between atoms: C12_15  and  O2_16 
REMARK   14  A    between atoms: C12_15  and  C13_18 
REMARK   15  A    between atoms: C15_22  and  C16_23 
REMARK   16  A    between atoms: C16_23  and  O3_24 
ROOT
HETATM    1  S2  UNL     1     -27.118  11.624  24.859  1.00  0.00    -0.095 SA
ENDROOT
BRANCH   1   2
HETATM    2  S1  UNL     1     -25.976   9.939  25.374  1.00  0.00    -0.095 SA
BRANCH   2   3
HETATM    3  C10 UNL     1     -24.293  10.423  25.698  1.00  0.00     0.112 C 
BRANCH   3   4
HETATM    4  C9  UNL     1     -24.314  11.219  27.014  1.00  0.00     0.179 C 
BRANCH   4   5
HETATM    5  O1  UNL     1     -24.283  12.557  26.752  1.00  0.00    -0.381 OA
BRANCH   5   6
HETATM    6  C5  UNL     1     -25.026  13.299  27.752  1.00  0.00     0.144 C 
BRANCH   6   7
HETATM    7  C4  UNL     1     -25.660  12.334  28.653  1.00  0.00     0.036 C 
BRANCH   7   8
HETATM    8  C3  UNL     1     -26.811  12.689  29.468  1.00  0.00     0.002 C 
BRANCH   8   9
HETATM    9  C2  UNL     1     -26.897  13.719  30.485  1.00  0.00    -0.004 C 
HETATM   10  C1  UNL     1     -28.117  13.734  31.365  1.00  0.00     0.005 C 
ENDBRANCH   8   9
ENDBRANCH   7   8
ENDBRANCH   6   7
BRANCH   6  11
HETATM   11  C6  UNL     1     -24.138  14.399  28.118  1.00  0.00     0.000 C 
BRANCH  11  12
HETATM   12  C7  UNL     1     -23.250  14.351  29.284  1.00  0.00    -0.033 C 
HETATM   13  C8  UNL     1     -23.459  15.169  30.489  1.00  0.00     0.036 C 
ENDBRANCH  11  12
ENDBRANCH   6  11
ENDBRANCH   5   6
ENDBRANCH   4   5
ENDBRANCH   3   4
ENDBRANCH   2   3
ENDBRANCH   1   2
BRANCH   1  14
HETATM   14  C11 UNL     1     -26.724  12.213  23.246  1.00  0.00     0.124 C 
BRANCH  14  15
HETATM   15  C12 UNL     1     -25.735  13.302  23.095  1.00  0.00     0.185 C 
BRANCH  15  16
HETATM   16  O2  UNL     1     -24.870  13.523  24.120  1.00  0.00    -0.388 OA
ATOM     17  H2  UNL     1     -25.054  13.107  24.954  1.00  0.00     0.210 HD
ENDBRANCH  15  16
BRANCH  15  18
HETATM   18  C13 UNL     1     -24.997  13.022  21.804  1.00  0.00     0.081 A 
HETATM   19  N1  UNL     1     -24.578  13.891  20.897  1.00  0.00    -0.360 N 
HETATM   20  C14 UNL     1     -23.959  13.466  19.843  1.00  0.00     0.105 A 
ATOM     21  H1  UNL     1     -24.742  14.890  21.027  1.00  0.00     0.165 HD
HETATM   22  C15 UNL     1     -23.765  12.114  19.720  1.00  0.00     0.023 A 
HETATM   23  S3  UNL     1     -24.495  11.529  21.147  1.00  0.00    -0.075 SA
BRANCH  22  24
HETATM   24  C16 UNL     1     -23.076  11.385  18.590  1.00  0.00     0.211 C 
BRANCH  24  25
HETATM   25  O3  UNL     1     -22.959  12.249  17.520  1.00  0.00    -0.396 OA
ATOM     26  H3  UNL     1     -22.047  12.505  17.438  1.00  0.00     0.209 HD
ENDBRANCH  24  25
ENDBRANCH  22  24
ENDBRANCH  15  18
ENDBRANCH  14  15
ENDBRANCH   1  14
TORSDOF 16
ENDMDL
MODEL 2
REMARK VINA RESULT: -6.540618958      2.370      3.207
REMARK  16 active torsions:
REMARK  status: ('A' for Active; 'I' for Inactive)
REMARK    1  A    between atoms: C2_2  and  C3_3 
REMARK    2  A    between atoms: C3_3  and  C4_4 
REMARK    3  A    between atoms: C4_4  and  C5_5 
REMARK    4  A    between atoms: C5_5  and  C6_6 
REMARK    5  A    between atoms: C5_5  and  O1_9 
REMARK    6  A    between atoms: C6_6  and  C7_7 
REMARK    7  A    between atoms: O1_9  and  C9_10 
REMARK    8  A    between atoms: C9_10  and  C10_11 
REMARK    9  A    between atoms: C10_11  and  S1_12 
REMARK   10  A    between atoms: S1_12  and  S2_13 
REMARK   11  A    between atoms: S2_13  and  C11_14 
REMARK   12  A    between atoms: C11_14  and  C12_15 
REMARK   13  A    between atoms: C12_15  and  O2_16 
REMARK   14  A    between atoms: C12_15  and  C13_18 
REMARK   15  A    between atoms: C15_22  and  C16_23 
REMARK   16  A    between atoms: C16_23  and  O3_24 
ROOT
HETATM    1  S2  UNL     1     -27.898  11.681  24.574  1.00  0.00    -0.095 SA
ENDROOT
BRANCH   1   2
HETATM    2  S1  UNL     1     -27.328  10.258  26.009  1.00  0.00    -0.095 SA
BRANCH   2   3
HETATM    3  C10 UNL     1     -27.043  11.055  27.575  1.00  0.00     0.112 C 
BRANCH   3   4
HETATM    4  C9  UNL     1     -25.843  11.996  27.373  1.00  0.00     0.179 C 
BRANCH   4   5
HETATM    5  O1  UNL     1     -25.244  12.255  28.571  1.00  0.00    -0.381 OA
BRANCH   5   6
HETATM    6  C5  UNL     1     -24.039  13.042  28.389  1.00  0.00     0.144 C 
BRANCH   6   7
HETATM    7  C4  UNL     1     -24.340  14.424  28.767  1.00  0.00     0.036 C 
BRANCH   7   8
HETATM    8  C3  UNL     1     -24.400  14.842  30.158  1.00  0.00     0.002 C 
BRANCH   8   9
HETATM    9  C2  UNL     1     -25.537  15.386  30.876  1.00  0.00    -0.004 C 
HETATM   10  C1  UNL     1     -26.663  14.450  31.217  1.00  0.00     0.005 C 
ENDBRANCH   8   9
ENDBRANCH   7   8
ENDBRANCH   6   7
BRANCH   6  11
HETATM   11  C6  UNL     1     -22.973  12.194  28.915  1.00  0.00     0.000 C 
BRANCH  11  12
HETATM   12  C7  UNL     1     -22.079  11.412  28.055  1.00  0.00    -0.033 C 
HETATM   13  C8  UNL     1     -22.553  10.345  27.161  1.00  0.00     0.036 C 
ENDBRANCH  11  12
ENDBRANCH   6  11
ENDBRANCH   5   6
ENDBRANCH   4   5
ENDBRANCH   3   4
ENDBRANCH   2   3
ENDBRANCH   1   2
BRANCH   1  14
HETATM   14  C11 UNL     1     -26.549  12.714  24.105  1.00  0.00     0.124 C 
BRANCH  14  15
HETATM   15  C12 UNL     1     -26.142  12.772  22.684  1.00  0.00     0.185 C 
BRANCH  15  16
HETATM   16  O2  UNL     1     -25.655  13.947  22.209  1.00  0.00    -0.388 OA
ATOM     17  H2  UNL     1     -26.278  14.603  21.920  1.00  0.00     0.210 HD
ENDBRANCH  15  16
BRANCH  15  18
HETATM   18  C13 UNL     1     -25.151  11.646  22.486  1.00  0.00     0.081 A 
HETATM   19  N1  UNL     1     -24.778  11.075  21.351  1.00  0.00    -0.360 N 
HETATM   20  C14 UNL     1     -23.910  10.115  21.374  1.00  0.00     0.105 A 
ATOM     21  H1  UNL     1     -25.171  11.390  20.464  1.00  0.00     0.165 HD
HETATM   22  C15 UNL     1     -23.414   9.732  22.593  1.00  0.00     0.023 A 
HETATM   23  S3  UNL     1     -24.236  10.792  23.648  1.00  0.00    -0.075 SA
BRANCH  22  24
HETATM   24  C16 UNL     1     -22.403   8.647  22.873  1.00  0.00     0.211 C 
BRANCH  24  25
HETATM   25  O3  UNL     1     -23.034   7.626  23.556  1.00  0.00    -0.396 OA
ATOM     26  H3  UNL     1     -23.578   7.145  22.943  1.00  0.00     0.209 HD
ENDBRANCH  24  25
ENDBRANCH  22  24
ENDBRANCH  15  18
ENDBRANCH  14  15
ENDBRANCH   1  14
TORSDOF 16
ENDMDL
MODEL 3
REMARK VINA RESULT: -6.491176752      1.253      2.357
REMARK  16 active torsions:
REMARK  status: ('A' for Active; 'I' for Inactive)
REMARK    1  A    between atoms: C2_2  and  C3_3 
REMARK    2  A    between atoms: C3_3  and  C4_4 
REMARK    3  A    between atoms: C4_4  and  C5_5 
REMARK    4  A    between atoms: C5_5  and  C6_6 
REMARK    5  A    between atoms: C5_5  and  O1_9 
REMARK    6  A    between atoms: C6_6  and  C7_7 
REMARK    7  A    between atoms: O1_9  and  C9_10 
REMARK    8  A    between atoms: C9_10  and  C10_11 
REMARK    9  A    between atoms: C10_11  and  S1_12 
REMARK   10  A    between atoms: S1_12  and  S2_13 
REMARK   11  A    between atoms: S2_13  and  C11_14 
REMARK   12  A    between atoms: C11_14  and  C12_15 
REMARK   13  A    between atoms: C12_15  and  O2_16 
REMARK   14  A    between atoms: C12_15  and  C13_18 
REMARK   15  A    between atoms: C15_22  and  C16_23 
REMARK   16  A    between atoms: C16_23  and  O3_24 
ROOT
HETATM    1  S2  UNL     1     -25.244  10.474  24.753  1.00  0.00    -0.095 SA
ENDROOT
BRANCH   1   2
HETATM    2  S1  UNL     1     -23.379   9.510  24.803  1.00  0.00    -0.095 SA
BRANCH   2   3
HETATM    3  C10 UNL     1     -22.630   9.716  26.405  1.00  0.00     0.112 C 
BRANCH   3   4
HETATM    4  C9  UNL     1     -23.651  10.477  27.268  1.00  0.00     0.179 C 
BRANCH   4   5
HETATM    5  O1  UNL     1     -23.038  11.506  27.920  1.00  0.00    -0.381 OA
BRANCH   5   6
HETATM    6  C5  UNL     1     -23.996  12.278  28.687  1.00  0.00     0.144 C 
BRANCH   6   7
HETATM    7  C4  UNL     1     -23.771  13.696  28.399  1.00  0.00     0.036 C 
BRANCH   7   8
HETATM    8  C3  UNL     1     -23.239  14.606  29.400  1.00  0.00     0.002 C 
BRANCH   8   9
HETATM    9  C2  UNL     1     -23.908  15.121  30.580  1.00  0.00    -0.004 C 
HETATM   10  C1  UNL     1     -25.411  15.160  30.572  1.00  0.00     0.005 C 
ENDBRANCH   8   9
ENDBRANCH   7   8
ENDBRANCH   6   7
BRANCH   6  11
HETATM   11  C6  UNL     1     -25.247  11.537  28.551  1.00  0.00     0.000 C 
BRANCH  11  12
HETATM   12  C7  UNL     1     -26.559  12.190  28.504  1.00  0.00    -0.033 C 
HETATM   13  C8  UNL     1     -27.493  12.201  29.641  1.00  0.00     0.036 C 
ENDBRANCH  11  12
ENDBRANCH   6  11
ENDBRANCH   5   6
ENDBRANCH   4   5
ENDBRANCH   3   4
ENDBRANCH   2   3
ENDBRANCH   1   2
BRANCH   1  14
HETATM   14  C11 UNL     1     -25.120  12.104  24.097  1.00  0.00     0.124 C 
BRANCH  14  15
HETATM   15  C12 UNL     1     -26.005  12.503  22.981  1.00  0.00     0.185 C 
BRANCH  15  16
HETATM   16  O2  UNL     1     -26.654  13.693  23.078  1.00  0.00    -0.388 OA
ATOM     17  H2  UNL     1     -26.289  14.438  22.615  1.00  0.00     0.210 HD
ENDBRANCH  15  16
BRANCH  15  18
HETATM   18  C13 UNL     1     -25.157  12.440  21.729  1.00  0.00     0.081 A 
HETATM   19  N1  UNL     1     -24.757  13.441  20.961  1.00  0.00    -0.360 N 
HETATM   20  C14 UNL     1     -24.031  13.196  19.919  1.00  0.00     0.105 A 
ATOM     21  H1  UNL     1     -25.021  14.400  21.189  1.00  0.00     0.165 HD
HETATM   22  C15 UNL     1     -23.706  11.889  19.661  1.00  0.00     0.023 A 
HETATM   23  S3  UNL     1     -24.477  11.082  20.951  1.00  0.00    -0.075 SA
BRANCH  22  24
HETATM   24  C16 UNL     1     -22.878  11.358  18.515  1.00  0.00     0.211 C 
BRANCH  24  25
HETATM   25  O3  UNL     1     -22.947  12.259  17.471  1.00  0.00    -0.396 OA
ATOM     26  H3  UNL     1     -22.129  12.741  17.435  1.00  0.00     0.209 HD
ENDBRANCH  24  25
ENDBRANCH  22  24
ENDBRANCH  15  18
ENDBRANCH  14  15
ENDBRANCH   1  14
TORSDOF 16
ENDMDL
MODEL 4
REMARK VINA RESULT: -6.490316144      1.371      2.198
REMARK  16 active torsions:
REMARK  status: ('A' for Active; 'I' for Inactive)
REMARK    1  A    between atoms: C2_2  and  C3_3 
REMARK    2  A    between atoms: C3_3  and  C4_4 
REMARK    3  A    between atoms: C4_4  and  C5_5 
REMARK    4  A    between atoms: C5_5  and  C6_6 
REMARK    5  A    between atoms: C5_5  and  O1_9 
REMARK    6  A    between atoms: C6_6  and  C7_7 
REMARK    7  A    between atoms: O1_9  and  C9_10 
REMARK    8  A    between atoms: C9_10  and  C10_11 
REMARK    9  A    between atoms: C10_11  and  S1_12 
REMARK   10  A    between atoms: S1_12  and  S2_13 
REMARK   11  A    between atoms: S2_13  and  C11_14 
REMARK   12  A    between atoms: C11_14  and  C12_15 
REMARK   13  A    between atoms: C12_15  and  O2_16 
REMARK   14  A    between atoms: C12_15  and  C13_18 
REMARK   15  A    between atoms: C15_22  and  C16_23 
REMARK   16  A    between atoms: C16_23  and  O3_24 
ROOT
HETATM    1  S2  UNL     1     -27.417  11.510  24.854  1.00  0.00    -0.095 SA
ENDROOT
BRANCH   1   2
HETATM    2  S1  UNL     1     -27.162   9.886  26.160  1.00  0.00    -0.095 SA
BRANCH   2   3
HETATM    3  C10 UNL     1     -26.418  10.439  27.680  1.00  0.00     0.112 C 
BRANCH   3   4
HETATM    4  C9  UNL     1     -25.879  11.854  27.411  1.00  0.00     0.179 C 
BRANCH   4   5
HETATM    5  O1  UNL     1     -25.356  12.381  28.556  1.00  0.00    -0.381 OA
BRANCH   5   6
HETATM    6  C5  UNL     1     -24.074  13.008  28.299  1.00  0.00     0.144 C 
BRANCH   6   7
HETATM    7  C4  UNL     1     -24.193  14.431  28.624  1.00  0.00     0.036 C 
BRANCH   7   8
HETATM    8  C3  UNL     1     -24.352  14.893  29.993  1.00  0.00     0.002 C 
BRANCH   8   9
HETATM    9  C2  UNL     1     -25.584  15.221  30.684  1.00  0.00    -0.004 C 
HETATM   10  C1  UNL     1     -25.488  16.064  31.925  1.00  0.00     0.005 C 
ENDBRANCH   8   9
ENDBRANCH   7   8
ENDBRANCH   6   7
BRANCH   6  11
HETATM   11  C6  UNL     1     -23.097  12.060  28.827  1.00  0.00     0.000 C 
BRANCH  11  12
HETATM   12  C7  UNL     1     -22.185  11.295  27.970  1.00  0.00    -0.033 C 
HETATM   13  C8  UNL     1     -22.644  10.281  27.009  1.00  0.00     0.036 C 
ENDBRANCH  11  12
ENDBRANCH   6  11
ENDBRANCH   5   6
ENDBRANCH   4   5
ENDBRANCH   3   4
ENDBRANCH   2   3
ENDBRANCH   1   2
BRANCH   1  14
HETATM   14  C11 UNL     1     -26.102  11.624  23.688  1.00  0.00     0.124 C 
BRANCH  14  15
HETATM   15  C12 UNL     1     -25.591  12.957  23.302  1.00  0.00     0.185 C 
BRANCH  15  16
HETATM   16  O2  UNL     1     -24.795  13.614  24.185  1.00  0.00    -0.388 OA
ATOM     17  H2  UNL     1     -25.152  14.378  24.623  1.00  0.00     0.210 HD
ENDBRANCH  15  16
BRANCH  15  18
HETATM   18  C13 UNL     1     -24.897  12.771  21.970  1.00  0.00     0.081 A 
HETATM   19  N1  UNL     1     -24.589  13.694  21.072  1.00  0.00    -0.360 N 
HETATM   20  C14 UNL     1     -23.991  13.346  19.979  1.00  0.00     0.105 A 
ATOM     21  H1  UNL     1     -24.822  14.672  21.241  1.00  0.00     0.165 HD
HETATM   22  C15 UNL     1     -23.701  12.017  19.804  1.00  0.00     0.023 A 
HETATM   23  S3  UNL     1     -24.315  11.339  21.244  1.00  0.00    -0.075 SA
BRANCH  22  24
HETATM   24  C16 UNL     1     -23.015  11.375  18.623  1.00  0.00     0.211 C 
BRANCH  24  25
HETATM   25  O3  UNL     1     -23.177  12.195  17.523  1.00  0.00    -0.396 OA
ATOM     26  H3  UNL     1     -23.173  11.654  16.742  1.00  0.00     0.209 HD
ENDBRANCH  24  25
ENDBRANCH  22  24
ENDBRANCH  15  18
ENDBRANCH  14  15
ENDBRANCH   1  14
TORSDOF 16
ENDMDL
MODEL 5
REMARK VINA RESULT: -6.461096778      1.461      1.743
REMARK  16 active torsions:
REMARK  status: ('A' for Active; 'I' for Inactive)
REMARK    1  A    between atoms: C2_2  and  C3_3 
REMARK    2  A    between atoms: C3_3  and  C4_4 
REMARK    3  A    between atoms: C4_4  and  C5_5 
REMARK    4  A    between atoms: C5_5  and  C6_6 
REMARK    5  A    between atoms: C5_5  and  O1_9 
REMARK    6  A    between atoms: C6_6  and  C7_7 
REMARK    7  A    between atoms: O1_9  and  C9_10 
REMARK    8  A    between atoms: C9_10  and  C10_11 
REMARK    9  A    between atoms: C10_11  and  S1_12 
REMARK   10  A    between atoms: S1_12  and  S2_13 
REMARK   11  A    between atoms: S2_13  and  C11_14 
REMARK   12  A    between atoms: C11_14  and  C12_15 
REMARK   13  A    between atoms: C12_15  and  O2_16 
REMARK   14  A    between atoms: C12_15  and  C13_18 
REMARK   15  A    between atoms: C15_22  and  C16_23 
REMARK   16  A    between atoms: C16_23  and  O3_24 
ROOT
HETATM    1  S2  UNL     1     -24.695  11.823  25.509  1.00  0.00    -0.095 SA
ENDROOT
BRANCH   1   2
HETATM    2  S1  UNL     1     -26.121  10.292  25.331  1.00  0.00    -0.095 SA
BRANCH   2   3
HETATM    3  C10 UNL     1     -26.855   9.958  26.919  1.00  0.00     0.112 C 
BRANCH   3   4
HETATM    4  C9  UNL     1     -27.040  11.320  27.608  1.00  0.00     0.179 C 
BRANCH   4   5
HETATM    5  O1  UNL     1     -26.110  11.475  28.595  1.00  0.00    -0.381 OA
BRANCH   5   6
HETATM    6  C5  UNL     1     -26.064  12.850  29.052  1.00  0.00     0.144 C 
BRANCH   6   7
HETATM    7  C4  UNL     1     -27.002  12.989  30.169  1.00  0.00     0.036 C 
BRANCH   7   8
HETATM    8  C3  UNL     1     -27.318  14.285  30.747  1.00  0.00     0.002 C 
BRANCH   8   9
HETATM    9  C2  UNL     1     -27.130  14.717  32.119  1.00  0.00    -0.004 C 
HETATM   10  C1  UNL     1     -26.196  15.869  32.369  1.00  0.00     0.005 C 
ENDBRANCH   8   9
ENDBRANCH   7   8
ENDBRANCH   6   7
BRANCH   6  11
HETATM   11  C6  UNL     1     -24.642  13.184  29.046  1.00  0.00     0.000 C 
BRANCH  11  12
HETATM   12  C7  UNL     1     -24.147  14.562  29.124  1.00  0.00    -0.033 C 
HETATM   13  C8  UNL     1     -23.325  15.060  30.238  1.00  0.00     0.036 C 
ENDBRANCH  11  12
ENDBRANCH   6  11
ENDBRANCH   5   6
ENDBRANCH   4   5
ENDBRANCH   3   4
ENDBRANCH   2   3
ENDBRANCH   1   2
BRANCH   1  14
HETATM   14  C11 UNL     1     -24.806  12.978  24.182  1.00  0.00     0.124 C 
BRANCH  14  15
HETATM   15  C12 UNL     1     -25.811  12.762  23.118  1.00  0.00     0.185 C 
BRANCH  15  16
HETATM   16  O2  UNL     1     -26.812  13.672  22.994  1.00  0.00    -0.388 OA
ATOM     17  H2  UNL     1     -27.669  13.440  23.333  1.00  0.00     0.210 HD
ENDBRANCH  15  16
BRANCH  15  18
HETATM   18  C13 UNL     1     -25.031  12.623  21.828  1.00  0.00     0.081 A 
HETATM   19  N1  UNL     1     -24.686  13.575  20.975  1.00  0.00    -0.360 N 
HETATM   20  C14 UNL     1     -24.014  13.268  19.913  1.00  0.00     0.105 A 
ATOM     21  H1  UNL     1     -24.949  14.545  21.154  1.00  0.00     0.165 HD
HETATM   22  C15 UNL     1     -23.688  11.950  19.723  1.00  0.00     0.023 A 
HETATM   23  S3  UNL     1     -24.378  11.222  21.104  1.00  0.00    -0.075 SA
BRANCH  22  24
HETATM   24  C16 UNL     1     -22.917  11.351  18.571  1.00  0.00     0.211 C 
BRANCH  24  25
HETATM   25  O3  UNL     1     -22.978  12.225  17.504  1.00  0.00    -0.396 OA
ATOM     26  H3  UNL     1     -22.431  12.977  17.699  1.00  0.00     0.209 HD
ENDBRANCH  24  25
ENDBRANCH  22  24
ENDBRANCH  15  18
ENDBRANCH  14  15
ENDBRANCH   1  14
TORSDOF 16
ENDMDL
