MODEL 1
REMARK VINA RESULT: -6.593220683      0.000      0.000
REMARK  14 active torsions:
REMARK  status: ('A' for Active; 'I' for Inactive)
REMARK    1  A    between atoms: N1_2  and  C3_4 
REMARK    2  A    between atoms: N1_2  and  C13_31 
REMARK    3  A    between atoms: C3_4  and  C4_5 
REMARK    4  A    between atoms: C5_6  and  C6_7 
REMARK    5  A    between atoms: C6_7  and  N2_8 
REMARK    6  A    between atoms: N2_8  and  C7_10 
REMARK    7  A    between atoms: C8_13  and  N4_14 
REMARK    8  A    between atoms: N4_14  and  C9_16 
REMARK    9  A    between atoms: C10_19  and  C11_20 
REMARK   10  A    between atoms: C11_20  and  O1_21 
REMARK   11  A    between atoms: C12_25  and  N8_26 
REMARK   12  A    between atoms: C13_31  and  C14_32 
REMARK   13  A    between atoms: C14_32  and  C15_33 
REMARK   14  A    between atoms: C15_33  and  N10_34 
ROOT
HETATM    1  C7  UNL     1     -43.557  41.043 -33.334  1.00  0.00     0.707 A 
HETATM    2  N3  UNL     1     -44.881  41.247 -33.222  1.00  0.00    -0.021 N 
ATOM      3  H3  UNL     1     -45.527  40.458 -33.199  1.00  0.00     0.203 HD
HETATM    4  C8  UNL     1     -45.342  42.517 -33.140  1.00  0.00     0.708 A 
HETATM    5  N7  UNL     1     -44.444  43.512 -33.175  1.00  0.00    -0.022 N 
ATOM      6  H7  UNL     1     -44.786  44.472 -33.112  1.00  0.00     0.203 HD
HETATM    7  C12 UNL     1     -43.134  43.320 -33.286  1.00  0.00     0.705 A 
HETATM    8  N9  UNL     1     -42.661  42.070 -33.368  1.00  0.00    -0.022 N 
ATOM      9  H9  UNL     1     -41.660  41.892 -33.454  1.00  0.00     0.203 HD
ENDROOT
BRANCH   1  10
HETATM   10  N2  UNL     1     -43.045  39.869 -33.417  1.00  0.00    -0.222 N 
ATOM     11  H2  UNL     1     -42.044  39.781 -33.243  1.00  0.00     0.178 HD
BRANCH  10  12
HETATM   12  C6  UNL     1     -43.771  38.662 -33.738  1.00  0.00     0.165 C 
BRANCH  12  13
HETATM   13  C5  UNL     1     -44.037  37.857 -32.542  1.00  0.00    -0.009 C 
HETATM   14  C4  UNL     1     -43.219  36.998 -31.957  1.00  0.00    -0.002 C 
BRANCH  14  15
HETATM   15  C3  UNL     1     -41.856  36.649 -32.365  1.00  0.00     0.263 C 
BRANCH  15  16
HETATM   16  N1  UNL     1     -41.076  36.098 -31.244  1.00  0.00    -0.072 N 
HETATM   17  C1  UNL     1     -40.461  37.257 -30.571  1.00  0.00     0.272 C 
HETATM   18  C2  UNL     1     -40.032  35.315 -31.785  1.00  0.00     0.272 C 
BRANCH  16  19
HETATM   19  C13 UNL     1     -41.966  35.487 -30.343  1.00  0.00     0.238 C 
BRANCH  19  20
HETATM   20  C14 UNL     1     -41.533  34.258 -29.639  1.00  0.00     0.055 C 
BRANCH  20  21
HETATM   21  C15 UNL     1     -42.380  33.039 -29.872  1.00  0.00     0.231 C 
BRANCH  21  22
HETATM   22  N10 UNL     1     -43.080  33.145 -31.139  1.00  0.00    -0.079 N 
ATOM     23 3H10 UNL     1     -43.803  33.864 -31.115  1.00  0.00     0.274 HD
ATOM     24 2H10 UNL     1     -42.490  33.547 -31.867  1.00  0.00     0.274 HD
ATOM     25 1H10 UNL     1     -43.456  32.237 -31.414  1.00  0.00     0.274 HD
ENDBRANCH  21  22
ENDBRANCH  20  21
ENDBRANCH  19  20
ENDBRANCH  16  19
ENDBRANCH  15  16
ENDBRANCH  14  15
ENDBRANCH  12  13
ENDBRANCH  10  12
ENDBRANCH   1  10
BRANCH   4  26
HETATM   26  N4  UNL     1     -46.729  42.780 -33.019  1.00  0.00    -0.204 N 
ATOM     27  H4  UNL     1     -47.390  42.255 -33.593  1.00  0.00     0.179 HD
BRANCH  26  28
HETATM   28  C9  UNL     1     -47.222  43.765 -32.110  1.00  0.00     0.232 C 
HETATM   29  N5  UNL     1     -48.593  43.618 -31.742  1.00  0.00    -0.120 NA
HETATM   30  N6  UNL     1     -48.204  43.084 -30.523  1.00  0.00    -0.136 NA
HETATM   31  C10 UNL     1     -46.857  43.587 -30.673  1.00  0.00     0.159 C 
BRANCH  31  32
HETATM   32  C11 UNL     1     -46.597  44.925 -30.013  1.00  0.00     0.190 C 
BRANCH  32  33
HETATM   33  O1  UNL     1     -46.610  44.683 -28.625  1.00  0.00    -0.399 OA
ATOM     34  H1  UNL     1     -46.262  45.468 -28.219  1.00  0.00     0.209 HD
ENDBRANCH  32  33
ENDBRANCH  31  32
ENDBRANCH  26  28
ENDBRANCH   4  26
BRANCH   7  35
HETATM   35  N8  UNL     1     -42.353  44.345 -33.310  1.00  0.00    -0.234 N 
ATOM     36  H82 UNL     1     -42.692  45.284 -33.101  1.00  0.00     0.174 HD
ATOM     37  H81 UNL     1     -41.370  44.210 -33.546  1.00  0.00     0.174 HD
ENDBRANCH   7  35
TORSDOF 14
ENDMDL
MODEL 2
REMARK VINA RESULT: -6.501343522      0.849      1.138
REMARK  14 active torsions:
REMARK  status: ('A' for Active; 'I' for Inactive)
REMARK    1  A    between atoms: N1_2  and  C3_4 
REMARK    2  A    between atoms: N1_2  and  C13_31 
REMARK    3  A    between atoms: C3_4  and  C4_5 
REMARK    4  A    between atoms: C5_6  and  C6_7 
REMARK    5  A    between atoms: C6_7  and  N2_8 
REMARK    6  A    between atoms: N2_8  and  C7_10 
REMARK    7  A    between atoms: C8_13  and  N4_14 
REMARK    8  A    between atoms: N4_14  and  C9_16 
REMARK    9  A    between atoms: C10_19  and  C11_20 
REMARK   10  A    between atoms: C11_20  and  O1_21 
REMARK   11  A    between atoms: C12_25  and  N8_26 
REMARK   12  A    between atoms: C13_31  and  C14_32 
REMARK   13  A    between atoms: C14_32  and  C15_33 
REMARK   14  A    between atoms: C15_33  and  N10_34 
ROOT
HETATM    1  C7  UNL     1     -43.662  40.900 -33.250  1.00  0.00     0.707 A 
HETATM    2  N3  UNL     1     -44.976  41.174 -33.166  1.00  0.00    -0.021 N 
ATOM      3  H3  UNL     1     -45.661  40.419 -33.121  1.00  0.00     0.203 HD
HETATM    4  C8  UNL     1     -45.373  42.467 -33.142  1.00  0.00     0.708 A 
HETATM    5  N7  UNL     1     -44.426  43.415 -33.203  1.00  0.00    -0.022 N 
ATOM      6  H7  UNL     1     -44.720  44.392 -33.185  1.00  0.00     0.203 HD
HETATM    7  C12 UNL     1     -43.125  43.153 -33.286  1.00  0.00     0.705 A 
HETATM    8  N9  UNL     1     -42.715  41.879 -33.311  1.00  0.00    -0.022 N 
ATOM      9  H9  UNL     1     -41.723  41.647 -33.375  1.00  0.00     0.203 HD
ENDROOT
BRANCH   1  10
HETATM   10  N2  UNL     1     -43.209  39.699 -33.278  1.00  0.00    -0.222 N 
ATOM     11  H2  UNL     1     -42.479  39.490 -33.958  1.00  0.00     0.178 HD
BRANCH  10  12
HETATM   12  C6  UNL     1     -43.650  38.619 -32.425  1.00  0.00     0.165 C 
BRANCH  12  13
HETATM   13  C5  UNL     1     -43.343  37.310 -33.009  1.00  0.00    -0.009 C 
HETATM   14  C4  UNL     1     -42.715  36.303 -32.428  1.00  0.00    -0.002 C 
BRANCH  14  15
HETATM   15  C3  UNL     1     -42.178  36.256 -31.066  1.00  0.00     0.263 C 
BRANCH  15  16
HETATM   16  N1  UNL     1     -41.650  34.921 -30.734  1.00  0.00    -0.072 N 
HETATM   17  C1  UNL     1     -41.614  34.854 -29.262  1.00  0.00     0.272 C 
HETATM   18  C2  UNL     1     -40.317  34.855 -31.198  1.00  0.00     0.272 C 
BRANCH  16  19
HETATM   19  C13 UNL     1     -42.562  33.956 -31.197  1.00  0.00     0.238 C 
BRANCH  19  20
HETATM   20  C14 UNL     1     -42.597  32.634 -30.531  1.00  0.00     0.055 C 
BRANCH  20  21
HETATM   21  C15 UNL     1     -43.962  32.031 -30.350  1.00  0.00     0.231 C 
BRANCH  21  22
HETATM   22  N10 UNL     1     -44.519  31.644 -31.633  1.00  0.00    -0.079 N 
ATOM     23 3H10 UNL     1     -44.457  32.399 -32.317  1.00  0.00     0.274 HD
ATOM     24 2H10 UNL     1     -43.934  30.959 -32.110  1.00  0.00     0.274 HD
ATOM     25 1H10 UNL     1     -45.476  31.312 -31.519  1.00  0.00     0.274 HD
ENDBRANCH  21  22
ENDBRANCH  20  21
ENDBRANCH  19  20
ENDBRANCH  16  19
ENDBRANCH  15  16
ENDBRANCH  14  15
ENDBRANCH  12  13
ENDBRANCH  10  12
ENDBRANCH   1  10
BRANCH   4  26
HETATM   26  N4  UNL     1     -46.747  42.804 -33.053  1.00  0.00    -0.204 N 
ATOM     27  H4  UNL     1     -47.415  42.346 -33.672  1.00  0.00     0.179 HD
BRANCH  26  28
HETATM   28  C9  UNL     1     -47.214  43.773 -32.113  1.00  0.00     0.232 C 
HETATM   29  N5  UNL     1     -48.584  43.638 -31.736  1.00  0.00    -0.120 NA
HETATM   30  N6  UNL     1     -48.193  43.066 -30.535  1.00  0.00    -0.136 NA
HETATM   31  C10 UNL     1     -46.839  43.551 -30.686  1.00  0.00     0.159 C 
BRANCH  31  32
HETATM   32  C11 UNL     1     -46.551  44.867 -29.993  1.00  0.00     0.190 C 
BRANCH  32  33
HETATM   33  O1  UNL     1     -46.585  44.594 -28.611  1.00  0.00    -0.399 OA
ATOM     34  H1  UNL     1     -47.483  44.353 -28.414  1.00  0.00     0.209 HD
ENDBRANCH  32  33
ENDBRANCH  31  32
ENDBRANCH  26  28
ENDBRANCH   4  26
BRANCH   7  35
HETATM   35  N8  UNL     1     -42.294  44.136 -33.341  1.00  0.00    -0.234 N 
ATOM     36  H82 UNL     1     -42.058  44.593 -34.222  1.00  0.00     0.174 HD
ATOM     37  H81 UNL     1     -41.862  44.463 -32.477  1.00  0.00     0.174 HD
ENDBRANCH   7  35
TORSDOF 14
ENDMDL
MODEL 3
REMARK VINA RESULT: -6.491521052      1.965      3.508
REMARK  14 active torsions:
REMARK  status: ('A' for Active; 'I' for Inactive)
REMARK    1  A    between atoms: N1_2  and  C3_4 
REMARK    2  A    between atoms: N1_2  and  C13_31 
REMARK    3  A    between atoms: C3_4  and  C4_5 
REMARK    4  A    between atoms: C5_6  and  C6_7 
REMARK    5  A    between atoms: C6_7  and  N2_8 
REMARK    6  A    between atoms: N2_8  and  C7_10 
REMARK    7  A    between atoms: C8_13  and  N4_14 
REMARK    8  A    between atoms: N4_14  and  C9_16 
REMARK    9  A    between atoms: C10_19  and  C11_20 
REMARK   10  A    between atoms: C11_20  and  O1_21 
REMARK   11  A    between atoms: C12_25  and  N8_26 
REMARK   12  A    between atoms: C13_31  and  C14_32 
REMARK   13  A    between atoms: C14_32  and  C15_33 
REMARK   14  A    between atoms: C15_33  and  N10_34 
ROOT
HETATM    1  C7  UNL     1     -45.450  43.043 -32.762  1.00  0.00     0.707 A 
HETATM    2  N3  UNL     1     -45.477  44.117 -31.955  1.00  0.00    -0.021 N 
ATOM      3  H3  UNL     1     -44.889  44.154 -31.122  1.00  0.00     0.203 HD
HETATM    4  C8  UNL     1     -46.296  45.148 -32.266  1.00  0.00     0.708 A 
HETATM    5  N7  UNL     1     -47.044  45.041 -33.374  1.00  0.00    -0.022 N 
ATOM      6  H7  UNL     1     -47.664  45.816 -33.613  1.00  0.00     0.203 HD
HETATM    7  C12 UNL     1     -47.024  43.983 -34.178  1.00  0.00     0.705 A 
HETATM    8  N9  UNL     1     -46.219  42.954 -33.884  1.00  0.00    -0.022 N 
ATOM      9  H9  UNL     1     -46.182  42.129 -34.483  1.00  0.00     0.203 HD
ENDROOT
BRANCH   1  10
HETATM   10  N2  UNL     1     -44.699  42.027 -32.533  1.00  0.00    -0.222 N 
ATOM     11  H2  UNL     1     -45.042  41.115 -32.833  1.00  0.00     0.178 HD
BRANCH  10  12
HETATM   12  C6  UNL     1     -43.409  42.070 -31.884  1.00  0.00     0.165 C 
BRANCH  12  13
HETATM   13  C5  UNL     1     -43.209  40.917 -31.002  1.00  0.00    -0.009 C 
HETATM   14  C4  UNL     1     -42.701  39.740 -31.326  1.00  0.00    -0.002 C 
BRANCH  14  15
HETATM   15  C3  UNL     1     -42.218  39.312 -32.641  1.00  0.00     0.263 C 
BRANCH  15  16
HETATM   16  N1  UNL     1     -43.014  38.194 -33.176  1.00  0.00    -0.072 N 
HETATM   17  C1  UNL     1     -42.128  37.478 -34.112  1.00  0.00     0.272 C 
HETATM   18  C2  UNL     1     -44.077  38.741 -33.928  1.00  0.00     0.272 C 
BRANCH  16  19
HETATM   19  C13 UNL     1     -43.328  37.326 -32.115  1.00  0.00     0.238 C 
BRANCH  19  20
HETATM   20  C14 UNL     1     -42.671  36.000 -32.063  1.00  0.00     0.055 C 
BRANCH  20  21
HETATM   21  C15 UNL     1     -42.011  35.649 -30.759  1.00  0.00     0.231 C 
BRANCH  21  22
HETATM   22  N10 UNL     1     -40.975  36.614 -30.442  1.00  0.00    -0.079 N 
ATOM     23 3H10 UNL     1     -41.125  37.504 -30.918  1.00  0.00     0.274 HD
ATOM     24 2H10 UNL     1     -41.045  36.944 -29.479  1.00  0.00     0.274 HD
ATOM     25 1H10 UNL     1     -40.054  36.225 -30.643  1.00  0.00     0.274 HD
ENDBRANCH  21  22
ENDBRANCH  20  21
ENDBRANCH  19  20
ENDBRANCH  16  19
ENDBRANCH  15  16
ENDBRANCH  14  15
ENDBRANCH  12  13
ENDBRANCH  10  12
ENDBRANCH   1  10
BRANCH   4  26
HETATM   26  N4  UNL     1     -46.357  46.301 -31.444  1.00  0.00    -0.204 N 
ATOM     27  H4  UNL     1     -45.955  47.176 -31.780  1.00  0.00     0.179 HD
BRANCH  26  28
HETATM   28  C9  UNL     1     -46.971  46.263 -30.155  1.00  0.00     0.232 C 
HETATM   29  N5  UNL     1     -47.474  44.986 -29.762  1.00  0.00    -0.120 NA
HETATM   30  N6  UNL     1     -46.373  44.810 -28.939  1.00  0.00    -0.136 NA
HETATM   31  C10 UNL     1     -46.051  46.219 -28.981  1.00  0.00     0.159 C 
BRANCH  31  32
HETATM   32  C11 UNL     1     -46.605  47.035 -27.831  1.00  0.00     0.190 C 
BRANCH  32  33
HETATM   33  O1  UNL     1     -46.760  46.137 -26.756  1.00  0.00    -0.399 OA
ATOM     34  H1  UNL     1     -45.881  45.926 -26.463  1.00  0.00     0.209 HD
ENDBRANCH  32  33
ENDBRANCH  31  32
ENDBRANCH  26  28
ENDBRANCH   4  26
BRANCH   7  35
HETATM   35  N8  UNL     1     -47.782  43.977 -35.220  1.00  0.00    -0.234 N 
ATOM     36  H82 UNL     1     -47.884  44.799 -35.816  1.00  0.00     0.174 HD
ATOM     37  H81 UNL     1     -48.294  43.126 -35.452  1.00  0.00     0.174 HD
ENDBRANCH   7  35
TORSDOF 14
ENDMDL
MODEL 4
REMARK VINA RESULT: -6.410118517      2.566      3.913
REMARK  14 active torsions:
REMARK  status: ('A' for Active; 'I' for Inactive)
REMARK    1  A    between atoms: N1_2  and  C3_4 
REMARK    2  A    between atoms: N1_2  and  C13_31 
REMARK    3  A    between atoms: C3_4  and  C4_5 
REMARK    4  A    between atoms: C5_6  and  C6_7 
REMARK    5  A    between atoms: C6_7  and  N2_8 
REMARK    6  A    between atoms: N2_8  and  C7_10 
REMARK    7  A    between atoms: C8_13  and  N4_14 
REMARK    8  A    between atoms: N4_14  and  C9_16 
REMARK    9  A    between atoms: C10_19  and  C11_20 
REMARK   10  A    between atoms: C11_20  and  O1_21 
REMARK   11  A    between atoms: C12_25  and  N8_26 
REMARK   12  A    between atoms: C13_31  and  C14_32 
REMARK   13  A    between atoms: C14_32  and  C15_33 
REMARK   14  A    between atoms: C15_33  and  N10_34 
ROOT
HETATM    1  C7  UNL     1     -45.518  43.002 -32.787  1.00  0.00     0.707 A 
HETATM    2  N3  UNL     1     -45.516  44.071 -31.971  1.00  0.00    -0.021 N 
ATOM      3  H3  UNL     1     -44.930  44.085 -31.137  1.00  0.00     0.203 HD
HETATM    4  C8  UNL     1     -46.305  45.127 -32.277  1.00  0.00     0.708 A 
HETATM    5  N7  UNL     1     -47.053  45.050 -33.388  1.00  0.00    -0.022 N 
ATOM      6  H7  UNL     1     -47.649  45.844 -33.623  1.00  0.00     0.203 HD
HETATM    7  C12 UNL     1     -47.061  43.997 -34.199  1.00  0.00     0.705 A 
HETATM    8  N9  UNL     1     -46.286  42.944 -33.911  1.00  0.00    -0.022 N 
ATOM      9  H9  UNL     1     -46.272  42.122 -34.516  1.00  0.00     0.203 HD
ENDROOT
BRANCH   1  10
HETATM   10  N2  UNL     1     -44.797  41.963 -32.563  1.00  0.00    -0.222 N 
ATOM     11  H2  UNL     1     -45.189  41.058 -32.820  1.00  0.00     0.178 HD
BRANCH  10  12
HETATM   12  C6  UNL     1     -43.478  41.972 -31.976  1.00  0.00     0.165 C 
BRANCH  12  13
HETATM   13  C5  UNL     1     -43.285  40.842 -31.063  1.00  0.00    -0.009 C 
HETATM   14  C4  UNL     1     -42.311  39.948 -31.091  1.00  0.00    -0.002 C 
BRANCH  14  15
HETATM   15  C3  UNL     1     -41.195  39.877 -32.038  1.00  0.00     0.263 C 
BRANCH  15  16
HETATM   16  N1  UNL     1     -41.009  38.511 -32.558  1.00  0.00    -0.072 N 
HETATM   17  C1  UNL     1     -41.850  37.640 -31.717  1.00  0.00     0.272 C 
HETATM   18  C2  UNL     1     -39.662  38.146 -32.339  1.00  0.00     0.272 C 
BRANCH  16  19
HETATM   19  C13 UNL     1     -41.504  38.466 -33.874  1.00  0.00     0.238 C 
BRANCH  19  20
HETATM   20  C14 UNL     1     -42.877  37.960 -34.099  1.00  0.00     0.055 C 
BRANCH  20  21
HETATM   21  C15 UNL     1     -43.905  38.999 -34.450  1.00  0.00     0.231 C 
BRANCH  21  22
HETATM   22  N10 UNL     1     -45.122  38.784 -33.688  1.00  0.00    -0.079 N 
ATOM     23 3H10 UNL     1     -45.945  38.752 -34.289  1.00  0.00     0.274 HD
ATOM     24 2H10 UNL     1     -45.172  37.838 -33.312  1.00  0.00     0.274 HD
ATOM     25 1H10 UNL     1     -45.211  39.489 -32.957  1.00  0.00     0.274 HD
ENDBRANCH  21  22
ENDBRANCH  20  21
ENDBRANCH  19  20
ENDBRANCH  16  19
ENDBRANCH  15  16
ENDBRANCH  14  15
ENDBRANCH  12  13
ENDBRANCH  10  12
ENDBRANCH   1  10
BRANCH   4  26
HETATM   26  N4  UNL     1     -46.335  46.276 -31.448  1.00  0.00    -0.204 N 
ATOM     27  H4  UNL     1     -45.904  47.141 -31.775  1.00  0.00     0.179 HD
BRANCH  26  28
HETATM   28  C9  UNL     1     -46.957  46.247 -30.162  1.00  0.00     0.232 C 
HETATM   29  N5  UNL     1     -47.500  44.984 -29.781  1.00  0.00    -0.120 NA
HETATM   30  N6  UNL     1     -46.409  44.769 -28.953  1.00  0.00    -0.136 NA
HETATM   31  C10 UNL     1     -46.045  46.168 -28.983  1.00  0.00     0.159 C 
BRANCH  31  32
HETATM   32  C11 UNL     1     -46.581  46.992 -27.831  1.00  0.00     0.190 C 
BRANCH  32  33
HETATM   33  O1  UNL     1     -46.742  46.097 -26.754  1.00  0.00    -0.399 OA
ATOM     34  H1  UNL     1     -47.591  45.689 -26.878  1.00  0.00     0.209 HD
ENDBRANCH  32  33
ENDBRANCH  31  32
ENDBRANCH  26  28
ENDBRANCH   4  26
BRANCH   7  35
HETATM   35  N8  UNL     1     -47.816  44.021 -35.243  1.00  0.00    -0.234 N 
ATOM     36  H82 UNL     1     -48.735  44.463 -35.232  1.00  0.00     0.174 HD
ATOM     37  H81 UNL     1     -47.483  43.584 -36.102  1.00  0.00     0.174 HD
ENDBRANCH   7  35
TORSDOF 14
ENDMDL
MODEL 5
REMARK VINA RESULT: -6.392847705      2.047      2.230
REMARK  14 active torsions:
REMARK  status: ('A' for Active; 'I' for Inactive)
REMARK    1  A    between atoms: N1_2  and  C3_4 
REMARK    2  A    between atoms: N1_2  and  C13_31 
REMARK    3  A    between atoms: C3_4  and  C4_5 
REMARK    4  A    between atoms: C5_6  and  C6_7 
REMARK    5  A    between atoms: C6_7  and  N2_8 
REMARK    6  A    between atoms: N2_8  and  C7_10 
REMARK    7  A    between atoms: C8_13  and  N4_14 
REMARK    8  A    between atoms: N4_14  and  C9_16 
REMARK    9  A    between atoms: C10_19  and  C11_20 
REMARK   10  A    between atoms: C11_20  and  O1_21 
REMARK   11  A    between atoms: C12_25  and  N8_26 
REMARK   12  A    between atoms: C13_31  and  C14_32 
REMARK   13  A    between atoms: C14_32  and  C15_33 
REMARK   14  A    between atoms: C15_33  and  N10_34 
ROOT
HETATM    1  C7  UNL     1     -43.803  40.810 -33.703  1.00  0.00     0.707 A 
HETATM    2  N3  UNL     1     -44.957  41.434 -33.414  1.00  0.00    -0.021 N 
ATOM      3  H3  UNL     1     -45.824  41.165 -33.880  1.00  0.00     0.203 HD
HETATM    4  C8  UNL     1     -44.951  42.427 -32.494  1.00  0.00     0.708 A 
HETATM    5  N7  UNL     1     -43.781  42.736 -31.915  1.00  0.00    -0.022 N 
ATOM      6  H7  UNL     1     -43.770  43.483 -31.220  1.00  0.00     0.203 HD
HETATM    7  C12 UNL     1     -42.635  42.123 -32.195  1.00  0.00     0.705 A 
HETATM    8  N9  UNL     1     -42.624  41.140 -33.103  1.00  0.00    -0.022 N 
ATOM      9  H9  UNL     1     -41.759  40.652 -33.338  1.00  0.00     0.203 HD
ENDROOT
BRANCH   1  10
HETATM   10  N2  UNL     1     -43.730  39.860 -34.564  1.00  0.00    -0.222 N 
ATOM     11  H2  UNL     1     -44.131  40.032 -35.486  1.00  0.00     0.178 HD
BRANCH  10  12
HETATM   12  C6  UNL     1     -43.127  38.568 -34.335  1.00  0.00     0.165 C 
BRANCH  12  13
HETATM   13  C5  UNL     1     -43.839  37.816 -33.298  1.00  0.00    -0.009 C 
HETATM   14  C4  UNL     1     -43.407  37.521 -32.083  1.00  0.00    -0.002 C 
BRANCH  14  15
HETATM   15  C3  UNL     1     -42.117  37.878 -31.488  1.00  0.00     0.263 C 
BRANCH  15  16
HETATM   16  N1  UNL     1     -41.294  36.686 -31.217  1.00  0.00    -0.072 N 
HETATM   17  C1  UNL     1     -40.392  37.059 -30.113  1.00  0.00     0.272 C 
HETATM   18  C2  UNL     1     -40.496  36.443 -32.357  1.00  0.00     0.272 C 
BRANCH  16  19
HETATM   19  C13 UNL     1     -42.140  35.657 -30.767  1.00  0.00     0.238 C 
BRANCH  19  20
HETATM   20  C14 UNL     1     -41.647  34.741 -29.712  1.00  0.00     0.055 C 
BRANCH  20  21
HETATM   21  C15 UNL     1     -41.264  33.363 -30.172  1.00  0.00     0.231 C 
BRANCH  21  22
HETATM   22  N10 UNL     1     -39.858  33.322 -30.531  1.00  0.00    -0.079 N 
ATOM     23 3H10 UNL     1     -39.257  33.552 -29.739  1.00  0.00     0.274 HD
ATOM     24 2H10 UNL     1     -39.535  32.369 -30.695  1.00  0.00     0.274 HD
ATOM     25 1H10 UNL     1     -39.679  33.927 -31.333  1.00  0.00     0.274 HD
ENDBRANCH  21  22
ENDBRANCH  20  21
ENDBRANCH  19  20
ENDBRANCH  16  19
ENDBRANCH  15  16
ENDBRANCH  14  15
ENDBRANCH  12  13
ENDBRANCH  10  12
ENDBRANCH   1  10
BRANCH   4  26
HETATM   26  N4  UNL     1     -46.144  43.113 -32.156  1.00  0.00    -0.204 N 
ATOM     27  H4  UNL     1     -46.177  43.667 -31.300  1.00  0.00     0.179 HD
BRANCH  26  28
HETATM   28  C9  UNL     1     -47.301  43.044 -32.990  1.00  0.00     0.232 C 
HETATM   29  N5  UNL     1     -48.524  42.768 -32.307  1.00  0.00    -0.120 NA
HETATM   30  N6  UNL     1     -48.874  44.105 -32.401  1.00  0.00    -0.136 NA
HETATM   31  C10 UNL     1     -47.885  44.346 -33.427  1.00  0.00     0.159 C 
BRANCH  31  32
HETATM   32  C11 UNL     1     -48.403  44.254 -34.848  1.00  0.00     0.190 C 
BRANCH  32  33
HETATM   33  O1  UNL     1     -48.573  45.582 -35.287  1.00  0.00    -0.399 OA
ATOM     34  H1  UNL     1     -49.063  45.529 -36.099  1.00  0.00     0.209 HD
ENDBRANCH  32  33
ENDBRANCH  31  32
ENDBRANCH  26  28
ENDBRANCH   4  26
BRANCH   7  35
HETATM   35  N8  UNL     1     -41.564  42.495 -31.583  1.00  0.00    -0.234 N 
ATOM     36  H82 UNL     1     -41.583  43.196 -30.841  1.00  0.00     0.174 HD
ATOM     37  H81 UNL     1     -40.673  42.076 -31.849  1.00  0.00     0.174 HD
ENDBRANCH   7  35
TORSDOF 14
ENDMDL
