MODEL 1
REMARK VINA RESULT: -5.423271280      0.000      0.000
REMARK  1 active torsions:
REMARK  status: ('A' for Active; 'I' for Inactive)
REMARK    1  A    between atoms: C1_2  and  C2_4 
REMARK       I    between atoms: N3_6  and  C3_8 
REMARK       I    between atoms: C3_8  and  N4_9 
REMARK       I    between atoms: C3_8  and  N5_13 
ROOT
HETATM    1  C2  UNL     1      -8.872   5.582 -28.194  1.00  0.00     0.180 C 
HETATM    2  N2  UNL     1      -9.565   6.583 -27.491  1.00  0.00    -0.077 NA
HETATM    3  N3  UNL     1      -9.476   4.731 -28.960  1.00  0.00    -0.325 N 
ATOM      4  H3  UNL     1      -8.938   4.019 -29.453  1.00  0.00     0.164 HD
HETATM    5  C3  UNL     1     -10.909   4.788 -29.117  1.00  0.00     0.481 C 
HETATM    6  N4  UNL     1     -11.290   6.147 -29.373  1.00  0.00    -0.033 N 
ATOM      7  H41 UNL     1     -12.304   6.188 -29.485  1.00  0.00     0.278 HD
ATOM      8  H42 UNL     1     -10.794   6.548 -30.169  1.00  0.00     0.278 HD
ATOM      9  H43 UNL     1     -10.951   6.789 -28.657  1.00  0.00     0.278 HD
HETATM   10  N5  UNL     1     -11.242   3.926 -30.255  1.00  0.00    -0.033 N 
ATOM     11  H51 UNL     1     -12.255   3.966 -30.367  1.00  0.00     0.278 HD
ATOM     12  H52 UNL     1     -10.885   2.976 -30.158  1.00  0.00     0.278 HD
ATOM     13  H53 UNL     1     -10.733   4.168 -31.106  1.00  0.00     0.278 HD
ENDROOT
BRANCH   1  14
HETATM   14  C1  UNL     1      -7.426   5.466 -28.082  1.00  0.00     0.295 C 
HETATM   15  N1  UNL     1      -6.591   6.523 -27.644  1.00  0.00    -0.055 NA
HETATM   16  O1  UNL     1      -6.886   4.375 -28.389  1.00  0.00    -0.268 OA
ENDBRANCH   1  14
TORSDOF 1
ENDMDL
MODEL 2
REMARK VINA RESULT: -5.394359877      3.009      4.073
REMARK  1 active torsions:
REMARK  status: ('A' for Active; 'I' for Inactive)
REMARK    1  A    between atoms: C1_2  and  C2_4 
REMARK       I    between atoms: N3_6  and  C3_8 
REMARK       I    between atoms: C3_8  and  N4_9 
REMARK       I    between atoms: C3_8  and  N5_13 
ROOT
HETATM    1  C2  UNL     1     -10.451   5.456 -26.756  1.00  0.00     0.180 C 
HETATM    2  N2  UNL     1     -11.827   5.163 -26.755  1.00  0.00    -0.077 NA
HETATM    3  N3  UNL     1      -9.788   5.663 -25.664  1.00  0.00    -0.325 N 
ATOM      4  H3  UNL     1      -8.791   5.873 -25.706  1.00  0.00     0.164 HD
HETATM    5  C3  UNL     1     -10.456   5.596 -24.387  1.00  0.00     0.481 C 
HETATM    6  N4  UNL     1     -11.253   4.404 -24.346  1.00  0.00    -0.033 N 
ATOM      7  H41 UNL     1     -11.725   4.357 -23.442  1.00  0.00     0.278 HD
ATOM      8  H42 UNL     1     -10.709   3.565 -24.545  1.00  0.00     0.278 HD
ATOM      9  H43 UNL     1     -11.902   4.342 -25.129  1.00  0.00     0.278 HD
HETATM   10  N5  UNL     1      -9.406   5.562 -23.364  1.00  0.00    -0.033 N 
ATOM     11  H51 UNL     1      -9.878   5.515 -22.461  1.00  0.00     0.278 HD
ATOM     12  H52 UNL     1      -8.750   6.339 -23.435  1.00  0.00     0.278 HD
ATOM     13  H53 UNL     1      -8.731   4.811 -23.505  1.00  0.00     0.278 HD
ENDROOT
BRANCH   1  14
HETATM   14  C1  UNL     1      -9.714   5.538 -28.007  1.00  0.00     0.295 C 
HETATM   15  N1  UNL     1      -8.659   6.457 -28.232  1.00  0.00    -0.055 NA
HETATM   16  O1  UNL     1     -10.025   4.757 -28.939  1.00  0.00    -0.268 OA
ENDBRANCH   1  14
TORSDOF 1
ENDMDL
MODEL 3
REMARK VINA RESULT: -5.330337152      2.204      4.144
REMARK  1 active torsions:
REMARK  status: ('A' for Active; 'I' for Inactive)
REMARK    1  A    between atoms: C1_2  and  C2_4 
REMARK       I    between atoms: N3_6  and  C3_8 
REMARK       I    between atoms: C3_8  and  N4_9 
REMARK       I    between atoms: C3_8  and  N5_13 
ROOT
HETATM    1  C2  UNL     1     -10.660   5.380 -28.995  1.00  0.00     0.180 C 
HETATM    2  N2  UNL     1     -10.991   4.045 -29.292  1.00  0.00    -0.077 NA
HETATM    3  N3  UNL     1      -9.504   5.715 -28.519  1.00  0.00    -0.325 N 
ATOM      4  H3  UNL     1      -9.303   6.694 -28.316  1.00  0.00     0.164 HD
HETATM    5  C3  UNL     1      -8.501   4.708 -28.276  1.00  0.00     0.481 C 
HETATM    6  N4  UNL     1      -8.411   3.859 -29.429  1.00  0.00    -0.033 N 
ATOM      7  H41 UNL     1      -7.701   3.147 -29.257  1.00  0.00     0.278 HD
ATOM      8  H42 UNL     1      -8.238   4.383 -30.286  1.00  0.00     0.278 HD
ATOM      9  H43 UNL     1      -9.312   3.458 -29.688  1.00  0.00     0.278 HD
HETATM   10  N5  UNL     1      -7.239   5.418 -28.047  1.00  0.00    -0.033 N 
ATOM     11  H51 UNL     1      -6.529   4.706 -27.875  1.00  0.00     0.278 HD
ATOM     12  H52 UNL     1      -7.298   6.115 -27.305  1.00  0.00     0.278 HD
ATOM     13  H53 UNL     1      -6.993   6.057 -28.803  1.00  0.00     0.278 HD
ENDROOT
BRANCH   1  14
HETATM   14  C1  UNL     1     -11.624   6.447 -29.216  1.00  0.00     0.295 C 
HETATM   15  N1  UNL     1     -12.948   6.221 -29.665  1.00  0.00    -0.055 NA
HETATM   16  O1  UNL     1     -11.268   7.631 -28.999  1.00  0.00    -0.268 OA
ENDBRANCH   1  14
TORSDOF 1
ENDMDL
MODEL 4
REMARK VINA RESULT: -5.312431371      2.573      3.100
REMARK  1 active torsions:
REMARK  status: ('A' for Active; 'I' for Inactive)
REMARK    1  A    between atoms: C1_2  and  C2_4 
REMARK       I    between atoms: N3_6  and  C3_8 
REMARK       I    between atoms: C3_8  and  N4_9 
REMARK       I    between atoms: C3_8  and  N5_13 
ROOT
HETATM    1  C2  UNL     1      -9.963   5.944 -27.082  1.00  0.00     0.180 C 
HETATM    2  N2  UNL     1     -10.806   7.032 -27.374  1.00  0.00    -0.077 NA
HETATM    3  N3  UNL     1     -10.146   5.188 -26.048  1.00  0.00    -0.325 N 
ATOM      4  H3  UNL     1      -9.512   4.409 -25.871  1.00  0.00     0.164 HD
HETATM    5  C3  UNL     1     -11.243   5.443 -25.147  1.00  0.00     0.481 C 
HETATM    6  N4  UNL     1     -12.436   5.641 -25.919  1.00  0.00    -0.033 N 
ATOM      7  H41 UNL     1     -13.212   5.821 -25.282  1.00  0.00     0.278 HD
ATOM      8  H42 UNL     1     -12.624   4.863 -26.552  1.00  0.00     0.278 HD
ATOM      9  H43 UNL     1     -12.329   6.372 -26.622  1.00  0.00     0.278 HD
HETATM   10  N5  UNL     1     -11.364   4.263 -24.286  1.00  0.00    -0.033 N 
ATOM     11  H51 UNL     1     -12.140   4.444 -23.648  1.00  0.00     0.278 HD
ATOM     12  H52 UNL     1     -10.496   4.025 -23.806  1.00  0.00     0.278 HD
ATOM     13  H53 UNL     1     -11.465   3.393 -24.807  1.00  0.00     0.278 HD
ENDROOT
BRANCH   1  14
HETATM   14  C1  UNL     1      -8.838   5.628 -27.948  1.00  0.00     0.295 C 
HETATM   15  N1  UNL     1      -7.833   6.565 -28.293  1.00  0.00    -0.055 NA
HETATM   16  O1  UNL     1      -8.749   4.467 -28.416  1.00  0.00    -0.268 OA
ENDBRANCH   1  14
TORSDOF 1
ENDMDL
MODEL 5
REMARK VINA RESULT: -5.251305507      2.298      3.991
REMARK  1 active torsions:
REMARK  status: ('A' for Active; 'I' for Inactive)
REMARK    1  A    between atoms: C1_2  and  C2_4 
REMARK       I    between atoms: N3_6  and  C3_8 
REMARK       I    between atoms: C3_8  and  N4_9 
REMARK       I    between atoms: C3_8  and  N5_13 
ROOT
HETATM    1  C2  UNL     1     -10.885   5.863 -28.712  1.00  0.00     0.180 C 
HETATM    2  N2  UNL     1     -11.072   6.881 -27.759  1.00  0.00    -0.077 NA
HETATM    3  N3  UNL     1      -9.746   5.273 -28.877  1.00  0.00    -0.325 N 
ATOM      4  H3  UNL     1      -9.650   4.539 -29.580  1.00  0.00     0.164 HD
HETATM    5  C3  UNL     1      -8.610   5.649 -28.071  1.00  0.00     0.481 C 
HETATM    6  N4  UNL     1      -9.021   5.708 -26.697  1.00  0.00    -0.033 N 
ATOM      7  H41 UNL     1      -8.218   5.974 -26.127  1.00  0.00     0.278 HD
ATOM      8  H42 UNL     1      -9.453   4.840 -26.382  1.00  0.00     0.278 HD
ATOM      9  H43 UNL     1      -9.822   6.324 -26.556  1.00  0.00     0.278 HD
HETATM   10  N5  UNL     1      -7.591   4.615 -28.270  1.00  0.00    -0.033 N 
ATOM     11  H51 UNL     1      -6.788   4.880 -27.700  1.00  0.00     0.278 HD
ATOM     12  H52 UNL     1      -7.356   4.465 -29.251  1.00  0.00     0.278 HD
ATOM     13  H53 UNL     1      -7.930   3.673 -28.075  1.00  0.00     0.278 HD
ENDROOT
BRANCH   1  14
HETATM   14  C1  UNL     1     -11.987   5.433 -29.560  1.00  0.00     0.295 C 
HETATM   15  N1  UNL     1     -13.099   6.255 -29.868  1.00  0.00    -0.055 NA
HETATM   16  O1  UNL     1     -11.954   4.276 -30.045  1.00  0.00    -0.268 OA
ENDBRANCH   1  14
TORSDOF 1
ENDMDL
