MODEL 1
REMARK VINA RESULT: -7.044700014      0.000      0.000
REMARK  11 active torsions:
REMARK  status: ('A' for Active; 'I' for Inactive)
REMARK    1  A    between atoms: C2_2  and  C3_3 
REMARK    2  A    between atoms: C3_3  and  C4_4 
REMARK    3  A    between atoms: C4_4  and  C5_5 
REMARK    4  A    between atoms: C5_5  and  N1_6 
REMARK    5  A    between atoms: C10_18  and  S1_19 
REMARK    6  A    between atoms: S1_19  and  C11_20 
REMARK    7  A    between atoms: N5_23  and  C14_24 
REMARK    8  A    between atoms: C16_27  and  C17_28 
REMARK    9  A    between atoms: C17_28  and  O1_29 
REMARK   10  A    between atoms: C18_31  and  O2_32 
REMARK   11  A    between atoms: C19_34  and  O3_35 
ROOT
HETATM    1  N1  UNL     1      64.755  34.583  25.054  1.00  0.00    -0.374 N 
ATOM      2  H1  UNL     1      65.411  33.848  25.319  1.00  0.00     0.161 HD
HETATM    3  C6  UNL     1      65.042  35.836  25.225  1.00  0.00     0.133 A 
HETATM    4  N2  UNL     1      64.165  36.809  24.868  1.00  0.00    -0.337 N 
ATOM      5  H2  UNL     1      63.273  36.538  24.454  1.00  0.00     0.168 HD
HETATM    6  C7  UNL     1      64.425  38.112  25.037  1.00  0.00     0.183 A 
HETATM    7  N3  UNL     1      65.592  38.473  25.576  1.00  0.00    -0.336 N 
ATOM      8  H3  UNL     1      65.787  39.466  25.701  1.00  0.00     0.168 HD
HETATM    9  C8  UNL     1      66.522  37.577  25.960  1.00  0.00     0.142 A 
HETATM   10  C9  UNL     1      66.235  36.244  25.778  1.00  0.00     0.123 A 
HETATM   11  N4  UNL     1      67.290  35.563  26.226  1.00  0.00    -0.330 N 
ATOM     12  H4  UNL     1      67.388  34.548  26.230  1.00  0.00     0.168 HD
HETATM   13  C10 UNL     1      68.203  36.445  26.672  1.00  0.00     0.150 A 
HETATM   14  N5  UNL     1      67.756  37.708  26.521  1.00  0.00    -0.295 N 
ENDROOT
BRANCH  14  15
HETATM   15  C14 UNL     1      68.368  38.953  26.850  1.00  0.00     0.186 C 
HETATM   16  S2  UNL     1      67.980  40.268  25.670  1.00  0.00    -0.140 SA
HETATM   17  C15 UNL     1      68.376  41.823  26.520  1.00  0.00     0.085 C 
HETATM   18  C16 UNL     1      69.202  41.632  27.751  1.00  0.00     0.050 C 
HETATM   19  C18 UNL     1      68.764  40.600  28.708  1.00  0.00     0.156 C 
HETATM   20  C19 UNL     1      68.008  39.441  28.211  1.00  0.00     0.180 C 
BRANCH  18  21
HETATM   21  C17 UNL     1      70.693  41.517  27.400  1.00  0.00     0.172 C 
BRANCH  21  22
HETATM   22  O1  UNL     1      71.361  42.607  27.967  1.00  0.00    -0.400 OA
ATOM     23  H1  UNL     1      72.246  42.336  28.177  1.00  0.00     0.209 HD
ENDBRANCH  21  22
ENDBRANCH  18  21
BRANCH  19  24
HETATM   24  O2  UNL     1      68.015  41.174  29.763  1.00  0.00    -0.392 OA
ATOM     25  H2  UNL     1      67.454  40.526  30.172  1.00  0.00     0.210 HD
ENDBRANCH  19  24
BRANCH  20  26
HETATM   26  O3  UNL     1      66.621  39.685  28.308  1.00  0.00    -0.390 OA
ATOM     27  H3  UNL     1      66.408  40.559  28.000  1.00  0.00     0.210 HD
ENDBRANCH  20  26
ENDBRANCH  14  15
BRANCH  13  28
HETATM   28  S1  UNL     1      69.809  36.010  27.377  1.00  0.00    -0.089 SA
BRANCH  28  29
HETATM   29  C11 UNL     1      70.621  34.783  26.356  1.00  0.00     0.047 C 
HETATM   30  C12 UNL     1      69.736  33.617  26.005  1.00  0.00     0.021 C 
HETATM   31  C13 UNL     1      71.844  34.245  27.065  1.00  0.00     0.021 C 
ENDBRANCH  28  29
ENDBRANCH  13  28
BRANCH   1  32
HETATM   32  C5  UNL     1      63.470  34.270  24.470  1.00  0.00     0.121 C 
BRANCH  32  33
HETATM   33  C4  UNL     1      62.486  33.790  25.515  1.00  0.00     0.020 C 
BRANCH  33  34
HETATM   34  C3  UNL     1      62.912  32.502  26.147  1.00  0.00     0.001 C 
BRANCH  34  35
HETATM   35  C2  UNL     1      63.233  32.672  27.624  1.00  0.00    -0.004 C 
HETATM   36  C1  UNL     1      64.680  32.363  27.881  1.00  0.00     0.005 C 
ENDBRANCH  34  35
ENDBRANCH  33  34
ENDBRANCH  32  33
ENDBRANCH   1  32
TORSDOF 11
ENDMDL
MODEL 2
REMARK VINA RESULT: -6.632434901      3.986      8.309
REMARK  11 active torsions:
REMARK  status: ('A' for Active; 'I' for Inactive)
REMARK    1  A    between atoms: C2_2  and  C3_3 
REMARK    2  A    between atoms: C3_3  and  C4_4 
REMARK    3  A    between atoms: C4_4  and  C5_5 
REMARK    4  A    between atoms: C5_5  and  N1_6 
REMARK    5  A    between atoms: C10_18  and  S1_19 
REMARK    6  A    between atoms: S1_19  and  C11_20 
REMARK    7  A    between atoms: N5_23  and  C14_24 
REMARK    8  A    between atoms: C16_27  and  C17_28 
REMARK    9  A    between atoms: C17_28  and  O1_29 
REMARK   10  A    between atoms: C18_31  and  O2_32 
REMARK   11  A    between atoms: C19_34  and  O3_35 
ROOT
HETATM    1  N1  UNL     1      68.991  40.928  25.058  1.00  0.00    -0.374 N 
ATOM      2  H1  UNL     1      69.235  40.881  24.069  1.00  0.00     0.161 HD
HETATM    3  C6  UNL     1      68.199  40.056  25.598  1.00  0.00     0.133 A 
HETATM    4  N2  UNL     1      67.879  40.123  26.917  1.00  0.00    -0.337 N 
ATOM      5  H2  UNL     1      68.279  40.873  27.480  1.00  0.00     0.168 HD
HETATM    6  C7  UNL     1      67.059  39.243  27.506  1.00  0.00     0.183 A 
HETATM    7  N3  UNL     1      66.534  38.258  26.773  1.00  0.00    -0.336 N 
ATOM      8  H3  UNL     1      65.912  37.589  27.226  1.00  0.00     0.168 HD
HETATM    9  C8  UNL     1      66.795  38.113  25.460  1.00  0.00     0.142 A 
HETATM   10  C9  UNL     1      67.640  39.027  24.873  1.00  0.00     0.123 A 
HETATM   11  N4  UNL     1      67.744  38.681  23.590  1.00  0.00    -0.330 N 
ATOM     12  H4  UNL     1      68.301  39.163  22.885  1.00  0.00     0.168 HD
HETATM   13  C10 UNL     1      66.988  37.587  23.385  1.00  0.00     0.150 A 
HETATM   14  N5  UNL     1      66.383  37.207  24.530  1.00  0.00    -0.295 N 
ENDROOT
BRANCH  14  15
HETATM   15  C14 UNL     1      65.498  36.122  24.793  1.00  0.00     0.186 C 
HETATM   16  S2  UNL     1      64.432  35.718  23.387  1.00  0.00    -0.140 SA
HETATM   17  C15 UNL     1      63.805  34.045  23.712  1.00  0.00     0.085 C 
HETATM   18  C16 UNL     1      64.015  33.595  25.122  1.00  0.00     0.050 C 
HETATM   19  C18 UNL     1      65.359  33.780  25.698  1.00  0.00     0.156 C 
HETATM   20  C19 UNL     1      66.206  34.875  25.201  1.00  0.00     0.180 C 
BRANCH  18  21
HETATM   21  C17 UNL     1      62.902  34.124  26.039  1.00  0.00     0.172 C 
BRANCH  21  22
HETATM   22  O1  UNL     1      62.308  33.031  26.678  1.00  0.00    -0.400 OA
ATOM     23  H1  UNL     1      62.364  33.170  27.616  1.00  0.00     0.209 HD
ENDBRANCH  21  22
ENDBRANCH  18  21
BRANCH  19  24
HETATM   24  O2  UNL     1      66.115  32.587  25.609  1.00  0.00    -0.392 OA
ATOM     25  H2  UNL     1      66.793  32.565  26.274  1.00  0.00     0.210 HD
ENDBRANCH  19  24
BRANCH  20  26
HETATM   26  O3  UNL     1      67.046  34.411  24.166  1.00  0.00    -0.390 OA
ATOM     27  H3  UNL     1      66.678  34.614  23.314  1.00  0.00     0.210 HD
ENDBRANCH  20  26
ENDBRANCH  14  15
BRANCH  13  28
HETATM   28  S1  UNL     1      66.802  36.734  21.804  1.00  0.00    -0.089 SA
BRANCH  28  29
HETATM   29  C11 UNL     1      66.484  37.916  20.496  1.00  0.00     0.047 C 
HETATM   30  C12 UNL     1      65.330  37.531  19.610  1.00  0.00     0.021 C 
HETATM   31  C13 UNL     1      67.711  38.069  19.625  1.00  0.00     0.021 C 
ENDBRANCH  28  29
ENDBRANCH  13  28
BRANCH   1  32
HETATM   32  C5  UNL     1      69.515  41.969  25.913  1.00  0.00     0.121 C 
BRANCH  32  33
HETATM   33  C4  UNL     1      70.759  42.600  25.326  1.00  0.00     0.020 C 
BRANCH  33  34
HETATM   34  C3  UNL     1      71.424  41.713  24.320  1.00  0.00     0.001 C 
BRANCH  34  35
HETATM   35  C2  UNL     1      72.130  42.513  23.236  1.00  0.00    -0.004 C 
HETATM   36  C1  UNL     1      72.177  41.726  21.957  1.00  0.00     0.005 C 
ENDBRANCH  34  35
ENDBRANCH  33  34
ENDBRANCH  32  33
ENDBRANCH   1  32
TORSDOF 11
ENDMDL
MODEL 3
REMARK VINA RESULT: -6.628605980      2.996      7.848
REMARK  11 active torsions:
REMARK  status: ('A' for Active; 'I' for Inactive)
REMARK    1  A    between atoms: C2_2  and  C3_3 
REMARK    2  A    between atoms: C3_3  and  C4_4 
REMARK    3  A    between atoms: C4_4  and  C5_5 
REMARK    4  A    between atoms: C5_5  and  N1_6 
REMARK    5  A    between atoms: C10_18  and  S1_19 
REMARK    6  A    between atoms: S1_19  and  C11_20 
REMARK    7  A    between atoms: N5_23  and  C14_24 
REMARK    8  A    between atoms: C16_27  and  C17_28 
REMARK    9  A    between atoms: C17_28  and  O1_29 
REMARK   10  A    between atoms: C18_31  and  O2_32 
REMARK   11  A    between atoms: C19_34  and  O3_35 
ROOT
HETATM    1  N1  UNL     1      70.041  42.137  28.299  1.00  0.00    -0.374 N 
ATOM      2  H1  UNL     1      70.614  41.532  28.888  1.00  0.00     0.161 HD
HETATM    3  C6  UNL     1      69.127  41.650  27.520  1.00  0.00     0.133 A 
HETATM    4  N2  UNL     1      68.368  42.462  26.740  1.00  0.00    -0.337 N 
ATOM      5  H2  UNL     1      68.525  43.468  26.780  1.00  0.00     0.168 HD
HETATM    6  C7  UNL     1      67.419  41.992  25.919  1.00  0.00     0.183 A 
HETATM    7  N3  UNL     1      67.207  40.675  25.863  1.00  0.00    -0.336 N 
ATOM      8  H3  UNL     1      66.483  40.321  25.238  1.00  0.00     0.168 HD
HETATM    9  C8  UNL     1      67.911  39.795  26.601  1.00  0.00     0.142 A 
HETATM   10  C9  UNL     1      68.881  40.297  27.438  1.00  0.00     0.123 A 
HETATM   11  N4  UNL     1      69.433  39.251  28.053  1.00  0.00    -0.330 N 
ATOM     12  H4  UNL     1      70.185  39.291  28.740  1.00  0.00     0.168 HD
HETATM   13  C10 UNL     1      68.826  38.135  27.613  1.00  0.00     0.150 A 
HETATM   14  N5  UNL     1      67.873  38.437  26.707  1.00  0.00    -0.295 N 
ENDROOT
BRANCH  14  15
HETATM   15  C14 UNL     1      66.986  37.593  25.978  1.00  0.00     0.186 C 
HETATM   16  S2  UNL     1      65.318  38.277  25.827  1.00  0.00    -0.140 SA
HETATM   17  C15 UNL     1      64.535  37.366  24.466  1.00  0.00     0.085 C 
HETATM   18  C16 UNL     1      65.275  36.126  24.078  1.00  0.00     0.050 C 
HETATM   19  C18 UNL     1      66.730  36.243  23.872  1.00  0.00     0.156 C 
HETATM   20  C19 UNL     1      67.475  37.277  24.606  1.00  0.00     0.180 C 
BRANCH  18  21
HETATM   21  C17 UNL     1      64.901  34.953  24.996  1.00  0.00     0.172 C 
BRANCH  21  22
HETATM   22  O1  UNL     1      63.601  35.164  25.466  1.00  0.00    -0.400 OA
ATOM     23  H1  UNL     1      63.639  35.805  26.166  1.00  0.00     0.209 HD
ENDBRANCH  21  22
ENDBRANCH  18  21
BRANCH  19  24
HETATM   24  O2  UNL     1      67.036  36.395  22.499  1.00  0.00    -0.392 OA
ATOM     25  H2  UNL     1      67.719  35.791  22.234  1.00  0.00     0.210 HD
ENDBRANCH  19  24
BRANCH  20  26
HETATM   26  O3  UNL     1      67.578  38.449  23.826  1.00  0.00    -0.390 OA
ATOM     27  H3  UNL     1      68.123  39.097  24.258  1.00  0.00     0.210 HD
ENDBRANCH  20  26
ENDBRANCH  14  15
BRANCH  13  28
HETATM   28  S1  UNL     1      69.220  36.456  28.153  1.00  0.00    -0.089 SA
BRANCH  28  29
HETATM   29  C11 UNL     1      70.230  35.631  26.925  1.00  0.00     0.047 C 
HETATM   30  C12 UNL     1      69.516  34.508  26.222  1.00  0.00     0.021 C 
HETATM   31  C13 UNL     1      71.472  35.062  27.573  1.00  0.00     0.021 C 
ENDBRANCH  28  29
ENDBRANCH  13  28
BRANCH   1  32
HETATM   32  C5  UNL     1      70.217  43.572  28.300  1.00  0.00     0.121 C 
BRANCH  32  33
HETATM   33  C4  UNL     1      71.570  43.968  27.749  1.00  0.00     0.020 C 
BRANCH  33  34
HETATM   34  C3  UNL     1      72.598  42.898  27.945  1.00  0.00     0.001 C 
BRANCH  34  35
HETATM   35  C2  UNL     1      73.604  43.267  29.024  1.00  0.00    -0.004 C 
HETATM   36  C1  UNL     1      73.893  44.740  28.983  1.00  0.00     0.005 C 
ENDBRANCH  34  35
ENDBRANCH  33  34
ENDBRANCH  32  33
ENDBRANCH   1  32
TORSDOF 11
ENDMDL
MODEL 4
REMARK VINA RESULT: -6.626632728      3.559      7.007
REMARK  11 active torsions:
REMARK  status: ('A' for Active; 'I' for Inactive)
REMARK    1  A    between atoms: C2_2  and  C3_3 
REMARK    2  A    between atoms: C3_3  and  C4_4 
REMARK    3  A    between atoms: C4_4  and  C5_5 
REMARK    4  A    between atoms: C5_5  and  N1_6 
REMARK    5  A    between atoms: C10_18  and  S1_19 
REMARK    6  A    between atoms: S1_19  and  C11_20 
REMARK    7  A    between atoms: N5_23  and  C14_24 
REMARK    8  A    between atoms: C16_27  and  C17_28 
REMARK    9  A    between atoms: C17_28  and  O1_29 
REMARK   10  A    between atoms: C18_31  and  O2_32 
REMARK   11  A    between atoms: C19_34  and  O3_35 
ROOT
HETATM    1  N1  UNL     1      68.725  39.594  28.801  1.00  0.00    -0.374 N 
ATOM      2  H1  UNL     1      69.238  38.767  29.106  1.00  0.00     0.161 HD
HETATM    3  C6  UNL     1      67.922  39.551  27.784  1.00  0.00     0.133 A 
HETATM    4  N2  UNL     1      67.242  40.657  27.383  1.00  0.00    -0.337 N 
ATOM      5  H2  UNL     1      67.369  41.526  27.902  1.00  0.00     0.168 HD
HETATM    6  C7  UNL     1      66.410  40.651  26.333  1.00  0.00     0.183 A 
HETATM    7  N3  UNL     1      66.239  39.516  25.652  1.00  0.00    -0.336 N 
ATOM      8  H3  UNL     1      65.604  39.515  24.854  1.00  0.00     0.168 HD
HETATM    9  C8  UNL     1      66.871  38.372  25.976  1.00  0.00     0.142 A 
HETATM   10  C9  UNL     1      67.722  38.399  27.057  1.00  0.00     0.123 A 
HETATM   11  N4  UNL     1      68.221  37.169  27.181  1.00  0.00    -0.330 N 
ATOM     12  H4  UNL     1      68.885  36.862  27.891  1.00  0.00     0.168 HD
HETATM   13  C10 UNL     1      67.699  36.402  26.207  1.00  0.00     0.150 A 
HETATM   14  N5  UNL     1      66.854  37.120  25.439  1.00  0.00    -0.295 N 
ENDROOT
BRANCH  14  15
HETATM   15  C14 UNL     1      66.082  36.738  24.303  1.00  0.00     0.186 C 
HETATM   16  S2  UNL     1      64.496  37.603  24.199  1.00  0.00    -0.140 SA
HETATM   17  C15 UNL     1      63.937  37.400  22.484  1.00  0.00     0.085 C 
HETATM   18  C16 UNL     1      64.687  36.343  21.736  1.00  0.00     0.050 C 
HETATM   19  C18 UNL     1      66.158  36.372  21.817  1.00  0.00     0.156 C 
HETATM   20  C19 UNL     1      66.798  36.942  23.012  1.00  0.00     0.180 C 
BRANCH  18  21
HETATM   21  C17 UNL     1      64.107  34.950  22.025  1.00  0.00     0.172 C 
BRANCH  21  22
HETATM   22  O1  UNL     1      62.735  34.986  21.760  1.00  0.00    -0.400 OA
ATOM     23  H1  UNL     1      62.527  34.265  21.178  1.00  0.00     0.209 HD
ENDBRANCH  21  22
ENDBRANCH  18  21
BRANCH  19  24
HETATM   24  O2  UNL     1      66.714  37.024  20.689  1.00  0.00    -0.392 OA
ATOM     25  H2  UNL     1      66.061  37.556  20.250  1.00  0.00     0.210 HD
ENDBRANCH  19  24
BRANCH  20  26
HETATM   26  O3  UNL     1      67.086  38.309  22.808  1.00  0.00    -0.390 OA
ATOM     27  H3  UNL     1      66.857  38.575  21.925  1.00  0.00     0.210 HD
ENDBRANCH  20  26
ENDBRANCH  14  15
BRANCH  13  28
HETATM   28  S1  UNL     1      68.067  34.652  25.953  1.00  0.00    -0.089 SA
BRANCH  28  29
HETATM   29  C11 UNL     1      66.613  33.793  25.357  1.00  0.00     0.047 C 
HETATM   30  C12 UNL     1      65.444  33.871  26.301  1.00  0.00     0.021 C 
HETATM   31  C13 UNL     1      66.931  32.332  25.127  1.00  0.00     0.021 C 
ENDBRANCH  28  29
ENDBRANCH  13  28
BRANCH   1  32
HETATM   32  C5  UNL     1      68.864  40.860  29.484  1.00  0.00     0.121 C 
BRANCH  32  33
HETATM   33  C4  UNL     1      68.133  40.861  30.810  1.00  0.00     0.020 C 
BRANCH  33  34
HETATM   34  C3  UNL     1      68.150  39.516  31.468  1.00  0.00     0.001 C 
BRANCH  34  35
HETATM   35  C2  UNL     1      67.091  39.401  32.553  1.00  0.00    -0.004 C 
HETATM   36  C1  UNL     1      66.792  40.754  33.133  1.00  0.00     0.005 C 
ENDBRANCH  34  35
ENDBRANCH  33  34
ENDBRANCH  32  33
ENDBRANCH   1  32
TORSDOF 11
ENDMDL
MODEL 5
REMARK VINA RESULT: -6.617749897      3.365      6.958
REMARK  11 active torsions:
REMARK  status: ('A' for Active; 'I' for Inactive)
REMARK    1  A    between atoms: C2_2  and  C3_3 
REMARK    2  A    between atoms: C3_3  and  C4_4 
REMARK    3  A    between atoms: C4_4  and  C5_5 
REMARK    4  A    between atoms: C5_5  and  N1_6 
REMARK    5  A    between atoms: C10_18  and  S1_19 
REMARK    6  A    between atoms: S1_19  and  C11_20 
REMARK    7  A    between atoms: N5_23  and  C14_24 
REMARK    8  A    between atoms: C16_27  and  C17_28 
REMARK    9  A    between atoms: C17_28  and  O1_29 
REMARK   10  A    between atoms: C18_31  and  O2_32 
REMARK   11  A    between atoms: C19_34  and  O3_35 
ROOT
HETATM    1  N1  UNL     1      68.855  40.549  28.746  1.00  0.00    -0.374 N 
ATOM      2  H1  UNL     1      69.398  39.786  29.149  1.00  0.00     0.161 HD
HETATM    3  C6  UNL     1      68.040  40.348  27.758  1.00  0.00     0.133 A 
HETATM    4  N2  UNL     1      67.319  41.370  27.227  1.00  0.00    -0.337 N 
ATOM      5  H2  UNL     1      67.425  42.303  27.625  1.00  0.00     0.168 HD
HETATM    6  C7  UNL     1      66.474  41.199  26.202  1.00  0.00     0.183 A 
HETATM    7  N3  UNL     1      66.329  39.980  25.680  1.00  0.00    -0.336 N 
ATOM      8  H3  UNL     1      65.684  39.854  24.900  1.00  0.00     0.168 HD
HETATM    9  C8  UNL     1      67.003  38.908  26.141  1.00  0.00     0.142 A 
HETATM   10  C9  UNL     1      67.867  39.104  27.194  1.00  0.00     0.123 A 
HETATM   11  N4  UNL     1      68.407  37.917  27.469  1.00  0.00    -0.330 N 
ATOM     12  H4  UNL     1      69.090  37.727  28.202  1.00  0.00     0.168 HD
HETATM   13  C10 UNL     1      67.896  37.013  26.614  1.00  0.00     0.150 A 
HETATM   14  N5  UNL     1      67.018  37.597  25.774  1.00  0.00    -0.295 N 
ENDROOT
BRANCH  14  15
HETATM   15  C14 UNL     1      66.243  37.044  24.713  1.00  0.00     0.186 C 
HETATM   16  S2  UNL     1      64.637  37.852  24.512  1.00  0.00    -0.140 SA
HETATM   17  C15 UNL     1      64.065  37.401  22.849  1.00  0.00     0.085 C 
HETATM   18  C16 UNL     1      64.831  36.268  22.244  1.00  0.00     0.050 C 
HETATM   19  C18 UNL     1      66.302  36.340  22.300  1.00  0.00     0.156 C 
HETATM   20  C19 UNL     1      66.941  37.083  23.396  1.00  0.00     0.180 C 
BRANCH  18  21
HETATM   21  C17 UNL     1      64.288  34.916  22.730  1.00  0.00     0.172 C 
BRANCH  21  22
HETATM   22  O1  UNL     1      63.267  34.519  21.860  1.00  0.00    -0.400 OA
ATOM     23  H1  UNL     1      63.510  33.683  21.481  1.00  0.00     0.209 HD
ENDBRANCH  21  22
ENDBRANCH  18  21
BRANCH  19  24
HETATM   24  O2  UNL     1      66.830  36.841  21.085  1.00  0.00    -0.392 OA
ATOM     25  H2  UNL     1      67.240  36.148  20.582  1.00  0.00     0.210 HD
ENDBRANCH  19  24
BRANCH  20  26
HETATM   26  O3  UNL     1      67.195  38.414  23.001  1.00  0.00    -0.390 OA
ATOM     27  H3  UNL     1      68.127  38.563  22.886  1.00  0.00     0.210 HD
ENDBRANCH  20  26
ENDBRANCH  14  15
BRANCH  13  28
HETATM   28  S1  UNL     1      68.317  35.256  26.587  1.00  0.00    -0.089 SA
BRANCH  28  29
HETATM   29  C11 UNL     1      70.081  35.045  26.358  1.00  0.00     0.047 C 
HETATM   30  C12 UNL     1      70.473  33.634  26.012  1.00  0.00     0.021 C 
HETATM   31  C13 UNL     1      70.819  35.439  27.618  1.00  0.00     0.021 C 
ENDBRANCH  28  29
ENDBRANCH  13  28
BRANCH   1  32
HETATM   32  C5  UNL     1      68.962  41.898  29.254  1.00  0.00     0.121 C 
BRANCH  32  33
HETATM   33  C4  UNL     1      68.592  41.973  30.720  1.00  0.00     0.020 C 
BRANCH  33  34
HETATM   34  C3  UNL     1      67.119  42.143  30.925  1.00  0.00     0.001 C 
BRANCH  34  35
HETATM   35  C2  UNL     1      66.590  41.238  32.027  1.00  0.00    -0.004 C 
HETATM   36  C1  UNL     1      67.235  39.884  31.942  1.00  0.00     0.005 C 
ENDBRANCH  34  35
ENDBRANCH  33  34
ENDBRANCH  32  33
ENDBRANCH   1  32
TORSDOF 11
ENDMDL
