MODEL 1
REMARK VINA RESULT: -6.907648598      0.000      0.000
REMARK  12 active torsions:
REMARK  status: ('A' for Active; 'I' for Inactive)
REMARK    1  A    between atoms: S1_2  and  C2_3 
REMARK    2  A    between atoms: C2_3  and  C3_4 
REMARK    3  A    between atoms: C4_5  and  S2_6 
REMARK    4  A    between atoms: S2_6  and  C5_7 
REMARK    5  A    between atoms: C5_7  and  C6_8 
REMARK    6  A    between atoms: C6_8  and  C7_9 
REMARK    7  A    between atoms: C14_17  and  C15_18 
REMARK    8  A    between atoms: C16_20  and  C17_21 
REMARK    9  A    between atoms: C17_21  and  O2_22 
REMARK   10  A    between atoms: C18_24  and  O3_25 
REMARK   11  A    between atoms: C19_27  and  O4_28 
REMARK   12  A    between atoms: C20_30  and  O5_31 
ROOT
HETATM    1  C3  UNL     1      67.570  37.126  26.244  1.00  0.00    -0.012 A 
HETATM    2  C4  UNL     1      66.632  36.393  25.508  1.00  0.00     0.015 A 
HETATM    3  C13 UNL     1      65.393  36.893  25.412  1.00  0.00     0.069 A 
HETATM    4  S3  UNL     1      65.460  38.321  26.291  1.00  0.00    -0.098 SA
HETATM    5  C14 UNL     1      67.156  38.266  26.805  1.00  0.00     0.045 A 
ENDROOT
BRANCH   5   6
HETATM    6  C15 UNL     1      67.636  39.267  27.781  1.00  0.00     0.096 C 
HETATM    7  O1  UNL     1      68.347  38.976  28.853  1.00  0.00    -0.341 OA
HETATM    8  C16 UNL     1      68.140  39.981  29.810  1.00  0.00     0.183 C 
HETATM    9  C18 UNL     1      68.850  41.223  29.391  1.00  0.00     0.181 C 
HETATM   10  C19 UNL     1      68.818  41.470  27.904  1.00  0.00     0.184 C 
HETATM   11  C20 UNL     1      67.845  40.635  27.145  1.00  0.00     0.207 C 
BRANCH   8  12
HETATM   12  C17 UNL     1      68.548  39.442  31.148  1.00  0.00     0.199 C 
BRANCH  12  13
HETATM   13  O2  UNL     1      68.907  38.095  31.104  1.00  0.00    -0.398 OA
ATOM     14  H2  UNL     1      68.169  37.511  31.228  1.00  0.00     0.209 HD
ENDBRANCH  12  13
ENDBRANCH   8  12
BRANCH   9  15
HETATM   15  O3  UNL     1      68.452  42.339  30.124  1.00  0.00    -0.390 OA
ATOM     16  H3  UNL     1      69.188  42.867  30.411  1.00  0.00     0.210 HD
ENDBRANCH   9  15
BRANCH  10  17
HETATM   17  O4  UNL     1      68.464  42.805  27.701  1.00  0.00    -0.390 OA
ATOM     18  H4  UNL     1      67.714  42.993  28.253  1.00  0.00     0.210 HD
ENDBRANCH  10  17
BRANCH  11  19
HETATM   19  O5  UNL     1      66.666  41.285  26.858  1.00  0.00    -0.386 OA
ATOM     20  H5  UNL     1      66.719  41.832  26.083  1.00  0.00     0.210 HD
ENDBRANCH  11  19
ENDBRANCH   5   6
BRANCH   1  21
HETATM   21  C2  UNL     1      68.949  36.508  26.244  1.00  0.00     0.114 C 
BRANCH  21  22
HETATM   22  S1  UNL     1      69.681  35.950  27.707  1.00  0.00    -0.169 SA
HETATM   23  C1  UNL     1      71.316  35.146  27.421  1.00  0.00     0.090 C 
ENDBRANCH  21  22
ENDBRANCH   1  21
BRANCH   2  24
HETATM   24  S2  UNL     1      67.011  34.776  24.726  1.00  0.00    -0.129 SA
BRANCH  24  25
HETATM   25  C5  UNL     1      67.326  33.512  25.943  1.00  0.00     0.084 C 
BRANCH  25  26
HETATM   26  C6  UNL     1      66.510  32.255  25.713  1.00  0.00     0.049 C 
BRANCH  26  27
HETATM   27  C7  UNL     1      65.176  32.412  26.327  1.00  0.00    -0.057 A 
HETATM   28  C8  UNL     1      64.044  32.719  25.650  1.00  0.00     0.007 A 
HETATM   29  C9  UNL     1      62.838  32.836  26.324  1.00  0.00     0.001 A 
HETATM   30  C10 UNL     1      62.789  32.638  27.703  1.00  0.00     0.000 A 
HETATM   31  C11 UNL     1      63.926  32.328  28.399  1.00  0.00     0.001 A 
HETATM   32  C12 UNL     1      65.095  32.223  27.692  1.00  0.00     0.007 A 
ENDBRANCH  26  27
ENDBRANCH  25  26
ENDBRANCH  24  25
ENDBRANCH   2  24
TORSDOF 12
ENDMDL
MODEL 2
REMARK VINA RESULT: -6.647233665      1.705      2.846
REMARK  12 active torsions:
REMARK  status: ('A' for Active; 'I' for Inactive)
REMARK    1  A    between atoms: S1_2  and  C2_3 
REMARK    2  A    between atoms: C2_3  and  C3_4 
REMARK    3  A    between atoms: C4_5  and  S2_6 
REMARK    4  A    between atoms: S2_6  and  C5_7 
REMARK    5  A    between atoms: C5_7  and  C6_8 
REMARK    6  A    between atoms: C6_8  and  C7_9 
REMARK    7  A    between atoms: C14_17  and  C15_18 
REMARK    8  A    between atoms: C16_20  and  C17_21 
REMARK    9  A    between atoms: C17_21  and  O2_22 
REMARK   10  A    between atoms: C18_24  and  O3_25 
REMARK   11  A    between atoms: C19_27  and  O4_28 
REMARK   12  A    between atoms: C20_30  and  O5_31 
ROOT
HETATM    1  C3  UNL     1      65.908  36.456  24.647  1.00  0.00    -0.012 A 
HETATM    2  C4  UNL     1      64.767  36.568  23.843  1.00  0.00     0.015 A 
HETATM    3  C13 UNL     1      64.064  37.705  23.923  1.00  0.00     0.069 A 
HETATM    4  S3  UNL     1      64.897  38.622  25.056  1.00  0.00    -0.098 SA
HETATM    5  C14 UNL     1      66.204  37.487  25.442  1.00  0.00     0.045 A 
ENDROOT
BRANCH   5   6
HETATM    6  C15 UNL     1      67.115  37.807  26.561  1.00  0.00     0.096 C 
HETATM    7  O1  UNL     1      68.361  37.384  26.647  1.00  0.00    -0.341 OA
HETATM    8  C16 UNL     1      68.729  37.355  28.000  1.00  0.00     0.183 C 
HETATM    9  C18 UNL     1      68.924  38.748  28.494  1.00  0.00     0.181 C 
HETATM   10  C19 UNL     1      67.945  39.740  27.917  1.00  0.00     0.184 C 
HETATM   11  C20 UNL     1      66.776  39.140  27.215  1.00  0.00     0.207 C 
BRANCH   8  12
HETATM   12  C17 UNL     1      69.926  36.463  28.139  1.00  0.00     0.199 C 
BRANCH  12  13
HETATM   13  O2  UNL     1      70.132  36.031  29.449  1.00  0.00    -0.398 OA
ATOM     14  H2  UNL     1      70.901  36.418  29.850  1.00  0.00     0.209 HD
ENDBRANCH  12  13
ENDBRANCH   8  12
BRANCH   9  15
HETATM   15  O3  UNL     1      68.995  38.817  29.883  1.00  0.00    -0.390 OA
ATOM     16  H3  UNL     1      68.138  38.875  30.289  1.00  0.00     0.210 HD
ENDBRANCH   9  15
BRANCH  10  17
HETATM   17  O4  UNL     1      67.446  40.507  28.971  1.00  0.00    -0.390 OA
ATOM     18  H4  UNL     1      68.014  40.375  29.721  1.00  0.00     0.210 HD
ENDBRANCH  10  17
BRANCH  11  19
HETATM   19  O5  UNL     1      65.635  39.091  27.984  1.00  0.00    -0.386 OA
ATOM     20  H5  UNL     1      65.181  39.924  28.033  1.00  0.00     0.210 HD
ENDBRANCH  11  19
ENDBRANCH   5   6
BRANCH   1  21
HETATM   21  C2  UNL     1      66.661  35.162  24.441  1.00  0.00     0.114 C 
BRANCH  21  22
HETATM   22  S1  UNL     1      67.713  34.533  25.660  1.00  0.00    -0.169 SA
HETATM   23  C1  UNL     1      68.158  32.767  25.373  1.00  0.00     0.090 C 
ENDBRANCH  21  22
ENDBRANCH   1  21
BRANCH   2  24
HETATM   24  S2  UNL     1      64.178  35.223  22.742  1.00  0.00    -0.129 SA
BRANCH  24  25
HETATM   25  C5  UNL     1      63.536  33.843  23.670  1.00  0.00     0.084 C 
BRANCH  25  26
HETATM   26  C6  UNL     1      62.872  34.262  24.967  1.00  0.00     0.049 C 
BRANCH  26  27
HETATM   27  C7  UNL     1      63.423  33.466  26.084  1.00  0.00    -0.057 A 
HETATM   28  C8  UNL     1      64.703  33.035  26.168  1.00  0.00     0.007 A 
HETATM   29  C9  UNL     1      65.121  32.298  27.266  1.00  0.00     0.001 A 
HETATM   30  C10 UNL     1      64.220  31.998  28.287  1.00  0.00     0.000 A 
HETATM   31  C11 UNL     1      62.922  32.428  28.213  1.00  0.00     0.001 A 
HETATM   32  C12 UNL     1      62.555  33.153  27.110  1.00  0.00     0.007 A 
ENDBRANCH  26  27
ENDBRANCH  25  26
ENDBRANCH  24  25
ENDBRANCH   2  24
TORSDOF 12
ENDMDL
MODEL 3
REMARK VINA RESULT: -6.618589938      0.986      1.252
REMARK  12 active torsions:
REMARK  status: ('A' for Active; 'I' for Inactive)
REMARK    1  A    between atoms: S1_2  and  C2_3 
REMARK    2  A    between atoms: C2_3  and  C3_4 
REMARK    3  A    between atoms: C4_5  and  S2_6 
REMARK    4  A    between atoms: S2_6  and  C5_7 
REMARK    5  A    between atoms: C5_7  and  C6_8 
REMARK    6  A    between atoms: C6_8  and  C7_9 
REMARK    7  A    between atoms: C14_17  and  C15_18 
REMARK    8  A    between atoms: C16_20  and  C17_21 
REMARK    9  A    between atoms: C17_21  and  O2_22 
REMARK   10  A    between atoms: C18_24  and  O3_25 
REMARK   11  A    between atoms: C19_27  and  O4_28 
REMARK   12  A    between atoms: C20_30  and  O5_31 
ROOT
HETATM    1  C3  UNL     1      67.118  37.536  25.525  1.00  0.00    -0.012 A 
HETATM    2  C4  UNL     1      66.067  37.124  24.696  1.00  0.00     0.015 A 
HETATM    3  C13 UNL     1      64.933  37.836  24.735  1.00  0.00     0.069 A 
HETATM    4  S3  UNL     1      65.246  39.040  25.862  1.00  0.00    -0.098 SA
HETATM    5  C14 UNL     1      66.908  38.602  26.301  1.00  0.00     0.045 A 
ENDROOT
BRANCH   5   6
HETATM    6  C15 UNL     1      67.553  39.305  27.429  1.00  0.00     0.096 C 
HETATM    7  O1  UNL     1      68.330  38.720  28.320  1.00  0.00    -0.341 OA
HETATM    8  C16 UNL     1      68.293  39.472  29.504  1.00  0.00     0.183 C 
HETATM    9  C18 UNL     1      69.063  40.734  29.319  1.00  0.00     0.181 C 
HETATM   10  C19 UNL     1      68.919  41.338  27.944  1.00  0.00     0.184 C 
HETATM   11  C20 UNL     1      67.817  40.772  27.118  1.00  0.00     0.207 C 
BRANCH   8  12
HETATM   12  C17 UNL     1      68.773  38.600  30.625  1.00  0.00     0.199 C 
BRANCH  12  13
HETATM   13  O2  UNL     1      69.133  37.321  30.202  1.00  0.00    -0.398 OA
ATOM     14  H2  UNL     1      68.450  36.889  29.704  1.00  0.00     0.209 HD
ENDBRANCH  12  13
ENDBRANCH   8  12
BRANCH   9  15
HETATM   15  O3  UNL     1      68.825  41.659  30.334  1.00  0.00    -0.390 OA
ATOM     16  H3  UNL     1      69.262  41.428  31.146  1.00  0.00     0.210 HD
ENDBRANCH   9  15
BRANCH  10  17
HETATM   17  O4  UNL     1      68.660  42.701  28.103  1.00  0.00    -0.390 OA
ATOM     18  H4  UNL     1      67.783  42.790  28.457  1.00  0.00     0.210 HD
ENDBRANCH  10  17
BRANCH  11  19
HETATM   19  O5  UNL     1      66.674  41.540  27.120  1.00  0.00    -0.386 OA
ATOM     20  H5  UNL     1      65.882  41.033  27.256  1.00  0.00     0.210 HD
ENDBRANCH  11  19
ENDBRANCH   5   6
BRANCH   1  21
HETATM   21  C2  UNL     1      68.369  36.703  25.365  1.00  0.00     0.114 C 
BRANCH  21  22
HETATM   22  S1  UNL     1      68.840  35.553  26.565  1.00  0.00    -0.169 SA
HETATM   23  C1  UNL     1      70.329  34.581  26.073  1.00  0.00     0.090 C 
ENDBRANCH  21  22
ENDBRANCH   1  21
BRANCH   2  24
HETATM   24  S2  UNL     1      66.162  35.644  23.616  1.00  0.00    -0.129 SA
BRANCH  24  25
HETATM   25  C5  UNL     1      65.824  34.144  24.519  1.00  0.00     0.084 C 
BRANCH  25  26
HETATM   26  C6  UNL     1      64.341  33.873  24.679  1.00  0.00     0.049 C 
BRANCH  26  27
HETATM   27  C7  UNL     1      64.088  33.278  26.008  1.00  0.00    -0.057 A 
HETATM   28  C8  UNL     1      62.866  33.144  26.575  1.00  0.00     0.007 A 
HETATM   29  C9  UNL     1      62.737  32.562  27.827  1.00  0.00     0.001 A 
HETATM   30  C10 UNL     1      63.869  32.113  28.505  1.00  0.00     0.000 A 
HETATM   31  C11 UNL     1      65.111  32.243  27.943  1.00  0.00     0.001 A 
HETATM   32  C12 UNL     1      65.189  32.824  26.704  1.00  0.00     0.007 A 
ENDBRANCH  26  27
ENDBRANCH  25  26
ENDBRANCH  24  25
ENDBRANCH   2  24
TORSDOF 12
ENDMDL
MODEL 4
REMARK VINA RESULT: -6.595750540      1.697      3.567
REMARK  12 active torsions:
REMARK  status: ('A' for Active; 'I' for Inactive)
REMARK    1  A    between atoms: S1_2  and  C2_3 
REMARK    2  A    between atoms: C2_3  and  C3_4 
REMARK    3  A    between atoms: C4_5  and  S2_6 
REMARK    4  A    between atoms: S2_6  and  C5_7 
REMARK    5  A    between atoms: C5_7  and  C6_8 
REMARK    6  A    between atoms: C6_8  and  C7_9 
REMARK    7  A    between atoms: C14_17  and  C15_18 
REMARK    8  A    between atoms: C16_20  and  C17_21 
REMARK    9  A    between atoms: C17_21  and  O2_22 
REMARK   10  A    between atoms: C18_24  and  O3_25 
REMARK   11  A    between atoms: C19_27  and  O4_28 
REMARK   12  A    between atoms: C20_30  and  O5_31 
ROOT
HETATM    1  C3  UNL     1      67.202  38.903  26.693  1.00  0.00    -0.012 A 
HETATM    2  C4  UNL     1      67.308  37.667  26.043  1.00  0.00     0.015 A 
HETATM    3  C13 UNL     1      68.200  36.791  26.522  1.00  0.00     0.069 A 
HETATM    4  S3  UNL     1      68.901  37.592  27.821  1.00  0.00    -0.098 SA
HETATM    5  C14 UNL     1      68.006  39.120  27.737  1.00  0.00     0.045 A 
ENDROOT
BRANCH   5   6
HETATM    6  C15 UNL     1      68.425  40.238  28.608  1.00  0.00     0.096 C 
HETATM    7  O1  UNL     1      68.815  41.417  28.166  1.00  0.00    -0.341 OA
HETATM    8  C16 UNL     1      69.653  41.998  29.129  1.00  0.00     0.183 C 
HETATM    9  C18 UNL     1      68.839  42.446  30.295  1.00  0.00     0.181 C 
HETATM   10  C19 UNL     1      67.699  41.518  30.633  1.00  0.00     0.184 C 
HETATM   11  C20 UNL     1      67.755  40.183  29.975  1.00  0.00     0.207 C 
BRANCH   8  12
HETATM   12  C17 UNL     1      70.449  43.080  28.463  1.00  0.00     0.199 C 
BRANCH  12  13
HETATM   13  O2  UNL     1      71.513  43.531  29.244  1.00  0.00    -0.398 OA
ATOM     14  H2  UNL     1      72.346  43.154  28.989  1.00  0.00     0.209 HD
ENDBRANCH  12  13
ENDBRANCH   8  12
BRANCH   9  15
HETATM   15  O3  UNL     1      69.621  42.756  31.405  1.00  0.00    -0.390 OA
ATOM     16  H3  UNL     1      69.100  42.914  32.184  1.00  0.00     0.210 HD
ENDBRANCH   9  15
BRANCH  10  17
HETATM   17  O4  UNL     1      67.722  41.301  32.012  1.00  0.00    -0.390 OA
ATOM     18  H4  UNL     1      67.189  40.536  32.193  1.00  0.00     0.210 HD
ENDBRANCH  10  17
BRANCH  11  19
HETATM   19  O5  UNL     1      68.257  39.188  30.785  1.00  0.00    -0.386 OA
ATOM     20  H5  UNL     1      67.927  39.229  31.675  1.00  0.00     0.210 HD
ENDBRANCH  11  19
ENDBRANCH   5   6
BRANCH   1  21
HETATM   21  C2  UNL     1      66.129  39.795  26.112  1.00  0.00     0.114 C 
BRANCH  21  22
HETATM   22  S1  UNL     1      66.456  41.444  25.710  1.00  0.00    -0.169 SA
HETATM   23  C1  UNL     1      68.027  41.647  24.765  1.00  0.00     0.090 C 
ENDBRANCH  21  22
ENDBRANCH   1  21
BRANCH   2  24
HETATM   24  S2  UNL     1      66.327  37.227  24.556  1.00  0.00    -0.129 SA
BRANCH  24  25
HETATM   25  C5  UNL     1      64.938  36.185  24.965  1.00  0.00     0.084 C 
BRANCH  25  26
HETATM   26  C6  UNL     1      65.170  34.729  24.614  1.00  0.00     0.049 C 
BRANCH  26  27
HETATM   27  C7  UNL     1      64.735  33.874  25.739  1.00  0.00    -0.057 A 
HETATM   28  C8  UNL     1      65.565  33.154  26.529  1.00  0.00     0.007 A 
HETATM   29  C9  UNL     1      65.053  32.388  27.565  1.00  0.00     0.001 A 
HETATM   30  C10 UNL     1      63.679  32.359  27.796  1.00  0.00     0.000 A 
HETATM   31  C11 UNL     1      62.828  33.083  27.004  1.00  0.00     0.001 A 
HETATM   32  C12 UNL     1      63.379  33.825  25.992  1.00  0.00     0.007 A 
ENDBRANCH  26  27
ENDBRANCH  25  26
ENDBRANCH  24  25
ENDBRANCH   2  24
TORSDOF 12
ENDMDL
MODEL 5
REMARK VINA RESULT: -6.568843625      5.062      7.155
REMARK  12 active torsions:
REMARK  status: ('A' for Active; 'I' for Inactive)
REMARK    1  A    between atoms: S1_2  and  C2_3 
REMARK    2  A    between atoms: C2_3  and  C3_4 
REMARK    3  A    between atoms: C4_5  and  S2_6 
REMARK    4  A    between atoms: S2_6  and  C5_7 
REMARK    5  A    between atoms: C5_7  and  C6_8 
REMARK    6  A    between atoms: C6_8  and  C7_9 
REMARK    7  A    between atoms: C14_17  and  C15_18 
REMARK    8  A    between atoms: C16_20  and  C17_21 
REMARK    9  A    between atoms: C17_21  and  O2_22 
REMARK   10  A    between atoms: C18_24  and  O3_25 
REMARK   11  A    between atoms: C19_27  and  O4_28 
REMARK   12  A    between atoms: C20_30  and  O5_31 
ROOT
HETATM    1  C3  UNL     1      65.975  36.590  22.963  1.00  0.00    -0.012 A 
HETATM    2  C4  UNL     1      65.147  35.820  23.789  1.00  0.00     0.015 A 
HETATM    3  C13 UNL     1      64.003  35.364  23.263  1.00  0.00     0.069 A 
HETATM    4  S3  UNL     1      64.013  35.950  21.690  1.00  0.00    -0.098 SA
HETATM    5  C14 UNL     1      65.557  36.822  21.716  1.00  0.00     0.045 A 
ENDROOT
BRANCH   5   6
HETATM    6  C15 UNL     1      65.913  37.671  20.560  1.00  0.00     0.096 C 
HETATM    7  O1  UNL     1      65.254  38.757  20.207  1.00  0.00    -0.341 OA
HETATM    8  C16 UNL     1      65.455  38.972  18.835  1.00  0.00     0.183 C 
HETATM    9  C18 UNL     1      66.844  39.460  18.604  1.00  0.00     0.181 C 
HETATM   10  C19 UNL     1      67.870  38.822  19.507  1.00  0.00     0.184 C 
HETATM   11  C20 UNL     1      67.402  37.614  20.242  1.00  0.00     0.207 C 
BRANCH   8  12
HETATM   12  C17 UNL     1      64.375  39.889  18.344  1.00  0.00     0.199 C 
BRANCH  12  13
HETATM   13  O2  UNL     1      64.857  41.141  17.965  1.00  0.00    -0.398 OA
ATOM     14  H2  UNL     1      64.926  41.242  17.023  1.00  0.00     0.209 HD
ENDBRANCH  12  13
ENDBRANCH   8  12
BRANCH   9  15
HETATM   15  O3  UNL     1      67.212  39.411  17.261  1.00  0.00    -0.390 OA
ATOM     16  H3  UNL     1      67.806  40.112  17.021  1.00  0.00     0.210 HD
ENDBRANCH   9  15
BRANCH  10  17
HETATM   17  O4  UNL     1      68.950  38.430  18.713  1.00  0.00    -0.390 OA
ATOM     18  H4  UNL     1      69.517  39.183  18.602  1.00  0.00     0.210 HD
ENDBRANCH  10  17
BRANCH  11  19
HETATM   19  O5  UNL     1      67.786  36.428  19.658  1.00  0.00    -0.386 OA
ATOM     20  H5  UNL     1      67.457  35.662  20.114  1.00  0.00     0.210 HD
ENDBRANCH  11  19
ENDBRANCH   5   6
BRANCH   1  21
HETATM   21  C2  UNL     1      67.265  37.008  23.631  1.00  0.00     0.114 C 
BRANCH  21  22
HETATM   22  S1  UNL     1      67.411  38.538  24.422  1.00  0.00    -0.169 SA
HETATM   23  C1  UNL     1      67.770  38.374  26.224  1.00  0.00     0.090 C 
ENDBRANCH  21  22
ENDBRANCH   1  21
BRANCH   2  24
HETATM   24  S2  UNL     1      65.535  35.460  25.546  1.00  0.00    -0.129 SA
BRANCH  24  25
HETATM   25  C5  UNL     1      66.808  34.221  25.700  1.00  0.00     0.084 C 
BRANCH  25  26
HETATM   26  C6  UNL     1      66.279  32.809  25.537  1.00  0.00     0.049 C 
BRANCH  26  27
HETATM   27  C7  UNL     1      65.109  32.615  26.417  1.00  0.00    -0.057 A 
HETATM   28  C8  UNL     1      65.172  32.406  27.754  1.00  0.00     0.007 A 
HETATM   29  C9  UNL     1      64.009  32.243  28.491  1.00  0.00     0.001 A 
HETATM   30  C10 UNL     1      62.770  32.293  27.855  1.00  0.00     0.000 A 
HETATM   31  C11 UNL     1      62.691  32.504  26.505  1.00  0.00     0.001 A 
HETATM   32  C12 UNL     1      63.867  32.659  25.817  1.00  0.00     0.007 A 
ENDBRANCH  26  27
ENDBRANCH  25  26
ENDBRANCH  24  25
ENDBRANCH   2  24
TORSDOF 12
ENDMDL
