MODEL 1
REMARK VINA RESULT: -6.520910510      0.000      0.000
REMARK  11 active torsions:
REMARK  status: ('A' for Active; 'I' for Inactive)
REMARK    1  A    between atoms: C2_2  and  C3_3 
REMARK    2  A    between atoms: C4_4  and  C5_5 
REMARK    3  A    between atoms: C5_5  and  C6_6 
REMARK    4  A    between atoms: C6_6  and  C7_7 
REMARK    5  A    between atoms: C8_8  and  C9_9 
REMARK    6  A    between atoms: C13_14  and  O2_15 
REMARK    7  A    between atoms: O2_15  and  C14_16 
REMARK    8  A    between atoms: C14_16  and  C15_17 
REMARK    9  A    between atoms: C15_17  and  C16_18 
REMARK   10  A    between atoms: C16_18  and  C17_19 
REMARK   11  A    between atoms: C17_19  and  C18_20 
ROOT
HETATM    1  C9  UNL     1     -42.684  12.357  -5.939  1.00  0.00     0.174 C 
HETATM    2  O1  UNL     1     -43.425  11.735  -4.907  1.00  0.00    -0.371 OA
HETATM    3  C10 UNL     1     -44.278  12.718  -4.405  1.00  0.00     0.165 C 
HETATM    4  C11 UNL     1     -43.381  13.675  -3.638  1.00  0.00     0.164 C 
HETATM    5  C12 UNL     1     -42.631  14.466  -4.675  1.00  0.00     0.070 C 
HETATM    6  C13 UNL     1     -41.775  13.418  -5.404  1.00  0.00     0.156 C 
HETATM    7  O3  UNL     1     -44.303  14.378  -2.877  1.00  0.00    -0.313 OA
HETATM    8  C20 UNL     1     -45.143  13.373  -2.345  1.00  0.00     0.265 C 
HETATM    9  O4  UNL     1     -45.749  13.400  -1.232  1.00  0.00    -0.265 OA
HETATM   10  C21 UNL     1     -45.202  12.253  -3.327  1.00  0.00     0.113 C 
HETATM   11  C22 UNL     1     -46.616  12.033  -3.822  1.00  0.00     0.023 C 
ENDROOT
BRANCH   1  12
HETATM   12  C8  UNL     1     -43.556  12.839  -7.012  1.00  0.00     0.015 C 
HETATM   13  C7  UNL     1     -44.284  12.001  -7.814  1.00  0.00     0.054 C 
BRANCH  13  14
HETATM   14  C6  UNL     1     -45.091  12.482  -8.805  1.00  0.00    -0.128 C 
BRANCH  14  15
HETATM   15  C5  UNL     1     -45.830  12.922  -9.714  1.00  0.00     0.055 C 
BRANCH  15  16
HETATM   16  C4  UNL     1     -46.979  12.330 -10.377  1.00  0.00     0.004 C 
HETATM   17  C3  UNL     1     -47.045  12.080 -11.665  1.00  0.00    -0.026 C 
BRANCH  17  18
HETATM   18  C2  UNL     1     -48.217  11.483 -12.307  1.00  0.00     0.022 C 
HETATM   19  C1  UNL     1     -49.058  10.775 -11.294  1.00  0.00     0.009 C 
ENDBRANCH  17  18
ENDBRANCH  15  16
ENDBRANCH  14  15
ENDBRANCH  13  14
ENDBRANCH   1  12
BRANCH   6  20
HETATM   20  O2  UNL     1     -41.028  13.946  -6.417  1.00  0.00    -0.383 OA
BRANCH  20  21
HETATM   21  C14 UNL     1     -41.203  15.315  -6.586  1.00  0.00     0.168 C 
BRANCH  21  22
HETATM   22  C15 UNL     1     -41.459  15.661  -8.038  1.00  0.00     0.026 C 
BRANCH  22  23
HETATM   23  C16 UNL     1     -42.698  16.499  -8.199  1.00  0.00     0.002 C 
BRANCH  23  24
HETATM   24  C17 UNL     1     -43.746  15.914  -9.079  1.00  0.00    -0.000 C 
BRANCH  24  25
HETATM   25  C18 UNL     1     -44.859  16.918  -9.242  1.00  0.00    -0.005 C 
HETATM   26  C19 UNL     1     -46.210  16.424  -8.853  1.00  0.00     0.005 C 
ENDBRANCH  24  25
ENDBRANCH  23  24
ENDBRANCH  22  23
ENDBRANCH  21  22
ENDBRANCH  20  21
ENDBRANCH   6  20
TORSDOF 11
ENDMDL
MODEL 2
REMARK VINA RESULT: -6.414551933      2.001      5.475
REMARK  11 active torsions:
REMARK  status: ('A' for Active; 'I' for Inactive)
REMARK    1  A    between atoms: C2_2  and  C3_3 
REMARK    2  A    between atoms: C4_4  and  C5_5 
REMARK    3  A    between atoms: C5_5  and  C6_6 
REMARK    4  A    between atoms: C6_6  and  C7_7 
REMARK    5  A    between atoms: C8_8  and  C9_9 
REMARK    6  A    between atoms: C13_14  and  O2_15 
REMARK    7  A    between atoms: O2_15  and  C14_16 
REMARK    8  A    between atoms: C14_16  and  C15_17 
REMARK    9  A    between atoms: C15_17  and  C16_18 
REMARK   10  A    between atoms: C16_18  and  C17_19 
REMARK   11  A    between atoms: C17_19  and  C18_20 
ROOT
HETATM    1  C9  UNL     1     -45.151  13.963  -5.088  1.00  0.00     0.174 C 
HETATM    2  O1  UNL     1     -44.550  15.083  -5.708  1.00  0.00    -0.371 OA
HETATM    3  C10 UNL     1     -43.591  14.566  -6.580  1.00  0.00     0.165 C 
HETATM    4  C11 UNL     1     -42.478  14.044  -5.689  1.00  0.00     0.164 C 
HETATM    5  C12 UNL     1     -42.998  12.776  -5.069  1.00  0.00     0.070 C 
HETATM    6  C13 UNL     1     -44.186  13.234  -4.209  1.00  0.00     0.156 C 
HETATM    7  O3  UNL     1     -41.435  13.905  -6.591  1.00  0.00    -0.313 OA
HETATM    8  C20 UNL     1     -41.455  15.113  -7.325  1.00  0.00     0.265 C 
HETATM    9  O4  UNL     1     -40.460  15.703  -7.846  1.00  0.00    -0.265 OA
HETATM   10  C21 UNL     1     -42.865  15.591  -7.389  1.00  0.00     0.113 C 
HETATM   11  C22 UNL     1     -43.354  15.662  -8.820  1.00  0.00     0.023 C 
ENDROOT
BRANCH   1  12
HETATM   12  C8  UNL     1     -45.803  13.091  -6.067  1.00  0.00     0.015 C 
HETATM   13  C7  UNL     1     -47.116  13.231  -6.432  1.00  0.00     0.054 C 
BRANCH  13  14
HETATM   14  C6  UNL     1     -47.695  12.402  -7.350  1.00  0.00    -0.128 C 
BRANCH  14  15
HETATM   15  C5  UNL     1     -48.226  11.643  -8.191  1.00  0.00     0.055 C 
BRANCH  15  16
HETATM   16  C4  UNL     1     -48.161  11.636  -9.643  1.00  0.00     0.004 C 
HETATM   17  C3  UNL     1     -47.174  12.147 -10.344  1.00  0.00    -0.026 C 
BRANCH  17  18
HETATM   18  C2  UNL     1     -47.136  12.125 -11.807  1.00  0.00     0.022 C 
HETATM   19  C1  UNL     1     -48.211  11.235 -12.341  1.00  0.00     0.009 C 
ENDBRANCH  17  18
ENDBRANCH  15  16
ENDBRANCH  14  15
ENDBRANCH  13  14
ENDBRANCH   1  12
BRANCH   6  20
HETATM   20  O2  UNL     1     -44.818  12.204  -3.575  1.00  0.00    -0.383 OA
BRANCH  20  21
HETATM   21  C14 UNL     1     -45.646  12.612  -2.535  1.00  0.00     0.168 C 
BRANCH  21  22
HETATM   22  C15 UNL     1     -46.686  11.560  -2.215  1.00  0.00     0.026 C 
BRANCH  22  23
HETATM   23  C16 UNL     1     -47.291  10.978  -3.464  1.00  0.00     0.002 C 
BRANCH  23  24
HETATM   24  C17 UNL     1     -48.741  11.260  -3.653  1.00  0.00    -0.000 C 
BRANCH  24  25
HETATM   25  C18 UNL     1     -49.295  10.291  -4.666  1.00  0.00    -0.005 C 
HETATM   26  C19 UNL     1     -50.656   9.769  -4.355  1.00  0.00     0.005 C 
ENDBRANCH  24  25
ENDBRANCH  23  24
ENDBRANCH  22  23
ENDBRANCH  21  22
ENDBRANCH  20  21
ENDBRANCH   6  20
TORSDOF 11
ENDMDL
MODEL 3
REMARK VINA RESULT: -6.217627594      3.123      7.245
REMARK  11 active torsions:
REMARK  status: ('A' for Active; 'I' for Inactive)
REMARK    1  A    between atoms: C2_2  and  C3_3 
REMARK    2  A    between atoms: C4_4  and  C5_5 
REMARK    3  A    between atoms: C5_5  and  C6_6 
REMARK    4  A    between atoms: C6_6  and  C7_7 
REMARK    5  A    between atoms: C8_8  and  C9_9 
REMARK    6  A    between atoms: C13_14  and  O2_15 
REMARK    7  A    between atoms: O2_15  and  C14_16 
REMARK    8  A    between atoms: C14_16  and  C15_17 
REMARK    9  A    between atoms: C15_17  and  C16_18 
REMARK   10  A    between atoms: C16_18  and  C17_19 
REMARK   11  A    between atoms: C17_19  and  C18_20 
ROOT
HETATM    1  C9  UNL     1     -44.870  12.423  -7.727  1.00  0.00     0.174 C 
HETATM    2  O1  UNL     1     -45.186  11.732  -8.919  1.00  0.00    -0.371 OA
HETATM    3  C10 UNL     1     -46.441  12.201  -9.310  1.00  0.00     0.165 C 
HETATM    4  C11 UNL     1     -47.421  11.607  -8.313  1.00  0.00     0.164 C 
HETATM    5  C12 UNL     1     -47.228  12.371  -7.032  1.00  0.00     0.070 C 
HETATM    6  C13 UNL     1     -45.788  12.044  -6.608  1.00  0.00     0.156 C 
HETATM    7  O3  UNL     1     -48.632  11.791  -8.963  1.00  0.00    -0.313 OA
HETATM    8  C20 UNL     1     -48.380  11.357 -10.284  1.00  0.00     0.265 C 
HETATM    9  O4  UNL     1     -49.210  10.824 -11.081  1.00  0.00    -0.265 OA
HETATM   10  C21 UNL     1     -46.948  11.633 -10.596  1.00  0.00     0.113 C 
HETATM   11  C22 UNL     1     -46.817  12.598 -11.755  1.00  0.00     0.023 C 
ENDROOT
BRANCH   1  12
HETATM   12  C8  UNL     1     -44.802  13.869  -7.945  1.00  0.00     0.015 C 
HETATM   13  C7  UNL     1     -43.715  14.489  -8.504  1.00  0.00     0.054 C 
BRANCH  13  14
HETATM   14  C6  UNL     1     -43.684  15.840  -8.696  1.00  0.00    -0.128 C 
BRANCH  14  15
HETATM   15  C5  UNL     1     -43.655  17.078  -8.872  1.00  0.00     0.055 C 
BRANCH  15  16
HETATM   16  C4  UNL     1     -44.659  17.991  -9.389  1.00  0.00     0.004 C 
HETATM   17  C3  UNL     1     -44.569  19.301  -9.339  1.00  0.00    -0.026 C 
BRANCH  17  18
HETATM   18  C2  UNL     1     -45.598  20.196  -9.870  1.00  0.00     0.022 C 
HETATM   19  C1  UNL     1     -45.553  21.513  -9.166  1.00  0.00     0.009 C 
ENDBRANCH  17  18
ENDBRANCH  15  16
ENDBRANCH  14  15
ENDBRANCH  13  14
ENDBRANCH   1  12
BRANCH   6  20
HETATM   20  O2  UNL     1     -45.409  12.676  -5.460  1.00  0.00    -0.383 OA
BRANCH  20  21
HETATM   21  C14 UNL     1     -46.393  12.690  -4.478  1.00  0.00     0.168 C 
BRANCH  21  22
HETATM   22  C15 UNL     1     -46.302  11.467  -3.591  1.00  0.00     0.026 C 
BRANCH  22  23
HETATM   23  C16 UNL     1     -47.599  11.199  -2.876  1.00  0.00     0.002 C 
BRANCH  23  24
HETATM   24  C17 UNL     1     -48.813  11.232  -3.738  1.00  0.00    -0.000 C 
BRANCH  24  25
HETATM   25  C18 UNL     1     -49.812  10.237  -3.206  1.00  0.00    -0.005 C 
HETATM   26  C19 UNL     1     -50.639   9.562  -4.246  1.00  0.00     0.005 C 
ENDBRANCH  24  25
ENDBRANCH  23  24
ENDBRANCH  22  23
ENDBRANCH  21  22
ENDBRANCH  20  21
ENDBRANCH   6  20
TORSDOF 11
ENDMDL
MODEL 4
REMARK VINA RESULT: -6.175331665      2.918      7.603
REMARK  11 active torsions:
REMARK  status: ('A' for Active; 'I' for Inactive)
REMARK    1  A    between atoms: C2_2  and  C3_3 
REMARK    2  A    between atoms: C4_4  and  C5_5 
REMARK    3  A    between atoms: C5_5  and  C6_6 
REMARK    4  A    between atoms: C6_6  and  C7_7 
REMARK    5  A    between atoms: C8_8  and  C9_9 
REMARK    6  A    between atoms: C13_14  and  O2_15 
REMARK    7  A    between atoms: O2_15  and  C14_16 
REMARK    8  A    between atoms: C14_16  and  C15_17 
REMARK    9  A    between atoms: C15_17  and  C16_18 
REMARK   10  A    between atoms: C16_18  and  C17_19 
REMARK   11  A    between atoms: C17_19  and  C18_20 
ROOT
HETATM    1  C9  UNL     1     -45.536  12.999  -7.849  1.00  0.00     0.174 C 
HETATM    2  O1  UNL     1     -44.723  13.685  -8.781  1.00  0.00    -0.371 OA
HETATM    3  C10 UNL     1     -44.685  15.012  -8.349  1.00  0.00     0.165 C 
HETATM    4  C11 UNL     1     -46.068  15.569  -8.643  1.00  0.00     0.164 C 
HETATM    5  C12 UNL     1     -46.987  14.971  -7.613  1.00  0.00     0.070 C 
HETATM    6  C13 UNL     1     -46.958  13.463  -7.909  1.00  0.00     0.156 C 
HETATM    7  O3  UNL     1     -45.847  16.935  -8.551  1.00  0.00    -0.313 OA
HETATM    8  C20 UNL     1     -44.661  17.140  -9.292  1.00  0.00     0.265 C 
HETATM    9  O4  UNL     1     -44.346  18.177  -9.951  1.00  0.00    -0.265 OA
HETATM   10  C21 UNL     1     -43.823  15.912  -9.172  1.00  0.00     0.113 C 
HETATM   11  C22 UNL     1     -42.497  16.219  -8.510  1.00  0.00     0.023 C 
ENDROOT
BRANCH   1  12
HETATM   12  C8  UNL     1     -44.974  13.056  -6.499  1.00  0.00     0.015 C 
HETATM   13  C7  UNL     1     -44.184  12.064  -5.978  1.00  0.00     0.054 C 
BRANCH  13  14
HETATM   14  C6  UNL     1     -43.673  12.148  -4.716  1.00  0.00    -0.128 C 
BRANCH  14  15
HETATM   15  C5  UNL     1     -43.204  12.224  -3.557  1.00  0.00     0.055 C 
BRANCH  15  16
HETATM   16  C4  UNL     1     -43.765  12.780  -2.338  1.00  0.00     0.004 C 
HETATM   17  C3  UNL     1     -45.013  13.168  -2.204  1.00  0.00    -0.026 C 
BRANCH  17  18
HETATM   18  C2  UNL     1     -45.550  13.725  -0.962  1.00  0.00     0.022 C 
HETATM   19  C1  UNL     1     -44.727  14.890  -0.517  1.00  0.00     0.009 C 
ENDBRANCH  17  18
ENDBRANCH  15  16
ENDBRANCH  14  15
ENDBRANCH  13  14
ENDBRANCH   1  12
BRANCH   6  20
HETATM   20  O2  UNL     1     -47.723  12.732  -7.049  1.00  0.00    -0.383 OA
BRANCH  20  21
HETATM   21  C14 UNL     1     -47.786  11.380  -7.367  1.00  0.00     0.168 C 
BRANCH  21  22
HETATM   22  C15 UNL     1     -47.812  10.522  -6.119  1.00  0.00     0.026 C 
BRANCH  22  23
HETATM   23  C16 UNL     1     -47.849  11.359  -4.870  1.00  0.00     0.002 C 
BRANCH  23  24
HETATM   24  C17 UNL     1     -48.918  10.996  -3.898  1.00  0.00    -0.000 C 
BRANCH  24  25
HETATM   25  C18 UNL     1     -49.973  10.194  -4.615  1.00  0.00    -0.005 C 
HETATM   26  C19 UNL     1     -50.548   9.068  -3.826  1.00  0.00     0.005 C 
ENDBRANCH  24  25
ENDBRANCH  23  24
ENDBRANCH  22  23
ENDBRANCH  21  22
ENDBRANCH  20  21
ENDBRANCH   6  20
TORSDOF 11
ENDMDL
MODEL 5
REMARK VINA RESULT: -6.154506014      1.982      5.383
REMARK  11 active torsions:
REMARK  status: ('A' for Active; 'I' for Inactive)
REMARK    1  A    between atoms: C2_2  and  C3_3 
REMARK    2  A    between atoms: C4_4  and  C5_5 
REMARK    3  A    between atoms: C5_5  and  C6_6 
REMARK    4  A    between atoms: C6_6  and  C7_7 
REMARK    5  A    between atoms: C8_8  and  C9_9 
REMARK    6  A    between atoms: C13_14  and  O2_15 
REMARK    7  A    between atoms: O2_15  and  C14_16 
REMARK    8  A    between atoms: C14_16  and  C15_17 
REMARK    9  A    between atoms: C15_17  and  C16_18 
REMARK   10  A    between atoms: C16_18  and  C17_19 
REMARK   11  A    between atoms: C17_19  and  C18_20 
ROOT
HETATM    1  C9  UNL     1     -46.217  13.370  -5.943  1.00  0.00     0.174 C 
HETATM    2  O1  UNL     1     -45.737  13.646  -4.642  1.00  0.00    -0.371 OA
HETATM    3  C10 UNL     1     -44.360  13.830  -4.775  1.00  0.00     0.165 C 
HETATM    4  C11 UNL     1     -43.795  12.447  -5.050  1.00  0.00     0.164 C 
HETATM    5  C12 UNL     1     -44.167  12.118  -6.470  1.00  0.00     0.070 C 
HETATM    6  C13 UNL     1     -45.703  12.062  -6.456  1.00  0.00     0.156 C 
HETATM    7  O3  UNL     1     -42.445  12.638  -4.797  1.00  0.00    -0.313 OA
HETATM    8  C20 UNL     1     -42.424  13.348  -3.575  1.00  0.00     0.265 C 
HETATM    9  O4  UNL     1     -41.529  13.294  -2.679  1.00  0.00    -0.265 OA
HETATM   10  C21 UNL     1     -43.653  14.191  -3.510  1.00  0.00     0.113 C 
HETATM   11  C22 UNL     1     -43.303  15.662  -3.434  1.00  0.00     0.023 C 
ENDROOT
BRANCH   1  12
HETATM   12  C8  UNL     1     -45.962  14.483  -6.859  1.00  0.00     0.015 C 
HETATM   13  C7  UNL     1     -46.943  15.065  -7.616  1.00  0.00     0.054 C 
BRANCH  13  14
HETATM   14  C6  UNL     1     -46.673  16.104  -8.459  1.00  0.00    -0.128 C 
BRANCH  14  15
HETATM   15  C5  UNL     1     -46.425  17.057  -9.233  1.00  0.00     0.055 C 
BRANCH  15  16
HETATM   16  C4  UNL     1     -45.250  17.902  -9.356  1.00  0.00     0.004 C 
HETATM   17  C3  UNL     1     -45.287  19.198  -9.572  1.00  0.00    -0.026 C 
BRANCH  17  18
HETATM   18  C2  UNL     1     -44.085  20.025  -9.691  1.00  0.00     0.022 C 
HETATM   19  C1  UNL     1     -42.872  19.232  -9.328  1.00  0.00     0.009 C 
ENDBRANCH  17  18
ENDBRANCH  15  16
ENDBRANCH  14  15
ENDBRANCH  13  14
ENDBRANCH   1  12
BRANCH   6  20
HETATM   20  O2  UNL     1     -46.242  11.798  -7.681  1.00  0.00    -0.383 OA
BRANCH  20  21
HETATM   21  C14 UNL     1     -45.297  11.671  -8.693  1.00  0.00     0.168 C 
BRANCH  21  22
HETATM   22  C15 UNL     1     -45.591  12.611  -9.842  1.00  0.00     0.026 C 
BRANCH  22  23
HETATM   23  C16 UNL     1     -46.964  12.379 -10.413  1.00  0.00     0.002 C 
BRANCH  23  24
HETATM   24  C17 UNL     1     -47.007  12.163 -11.885  1.00  0.00    -0.000 C 
BRANCH  24  25
HETATM   25  C18 UNL     1     -48.285  11.442 -12.232  1.00  0.00    -0.005 C 
HETATM   26  C19 UNL     1     -49.011  10.860 -11.069  1.00  0.00     0.005 C 
ENDBRANCH  24  25
ENDBRANCH  23  24
ENDBRANCH  22  23
ENDBRANCH  21  22
ENDBRANCH  20  21
ENDBRANCH   6  20
TORSDOF 11
ENDMDL
