MODEL 1
REMARK VINA RESULT: -7.852281269      0.000      0.000
REMARK  9 active torsions:
REMARK  status: ('A' for Active; 'I' for Inactive)
REMARK    1  A    between atoms: C3_3  and  O1_4 
REMARK    2  A    between atoms: C4_6  and  C5_7 
REMARK    3  A    between atoms: C5_7  and  O2_8 
REMARK    4  A    between atoms: C6_11  and  C7_12 
REMARK    5  A    between atoms: C11_16  and  O4_17 
REMARK    6  A    between atoms: O4_17  and  C12_18 
REMARK    7  A    between atoms: C12_18  and  C13_19 
REMARK    8  A    between atoms: C12_18  and  C19_25 
REMARK    9  A    between atoms: C21_30  and  O5_31 
ROOT
HETATM    1  C7  UNL     1     -29.690  15.270 -93.274  1.00  0.00    -0.024 A 
HETATM    2  C8  UNL     1     -29.458  14.807 -94.542  1.00  0.00     0.010 A 
HETATM    3  C9  UNL     1     -29.341  13.449 -94.778  1.00  0.00     0.003 A 
HETATM    4  C10 UNL     1     -29.458  12.565 -93.739  1.00  0.00     0.037 A 
HETATM    5  C11 UNL     1     -29.695  12.992 -92.424  1.00  0.00     0.070 A 
HETATM    6  C20 UNL     1     -29.802  14.360 -92.250  1.00  0.00     0.046 A 
ENDROOT
BRANCH   1   7
HETATM    7  C6  UNL     1     -29.803  16.737 -93.089  1.00  0.00     0.184 C 
HETATM    8  O3  UNL     1     -29.034  17.117 -92.056  1.00  0.00    -0.369 OA
HETATM    9  C4  UNL     1     -29.466  17.929 -91.086  1.00  0.00     0.175 C 
HETATM   10  C3  UNL     1     -30.898  17.845 -90.659  1.00  0.00     0.155 C 
HETATM   11  C2  UNL     1     -31.759  17.100 -91.649  1.00  0.00     0.045 C 
HETATM   12  C1  UNL     1     -33.151  17.747 -91.680  1.00  0.00     0.015 C 
HETATM   13  C21 UNL     1     -31.187  17.237 -93.018  1.00  0.00     0.158 C 
BRANCH   9  14
HETATM   14  C5  UNL     1     -29.046  19.367 -91.401  1.00  0.00     0.198 C 
BRANCH  14  15
HETATM   15  O2  UNL     1     -27.874  19.684 -90.676  1.00  0.00    -0.398 OA
ATOM     16  H2  UNL     1     -28.068  20.368 -90.046  1.00  0.00     0.209 HD
ENDBRANCH  14  15
ENDBRANCH   9  14
BRANCH  10  17
HETATM   17  O1  UNL     1     -31.392  19.148 -90.591  1.00  0.00    -0.392 OA
ATOM     18  H1  UNL     1     -30.950  19.575 -89.867  1.00  0.00     0.210 HD
ENDBRANCH  10  17
BRANCH  13  19
HETATM   19  O5  UNL     1     -32.026  16.708 -94.005  1.00  0.00    -0.392 OA
ATOM     20  H5  UNL     1     -31.542  16.340 -94.734  1.00  0.00     0.210 HD
ENDBRANCH  13  19
ENDBRANCH   1   7
BRANCH   5  21
HETATM   21  O4  UNL     1     -29.800  12.049 -91.442  1.00  0.00    -0.332 OA
BRANCH  21  22
HETATM   22  C12 UNL     1     -29.282  12.077 -90.160  1.00  0.00     0.269 C 
BRANCH  22  23
HETATM   23  C13 UNL     1     -28.006  11.325 -90.097  1.00  0.00    -0.020 A 
HETATM   24  C14 UNL     1     -26.818  12.004 -90.211  1.00  0.00     0.010 A 
HETATM   25  C15 UNL     1     -25.588  11.337 -90.159  1.00  0.00     0.001 A 
HETATM   26  C16 UNL     1     -25.557   9.965 -89.990  1.00  0.00     0.000 A 
HETATM   27  C17 UNL     1     -26.744   9.281 -89.874  1.00  0.00     0.001 A 
HETATM   28  C18 UNL     1     -27.963   9.958 -89.928  1.00  0.00     0.010 A 
ENDBRANCH  22  23
BRANCH  22  29
HETATM   29  C19 UNL     1     -30.199  11.418 -89.140  1.00  0.00     0.417 C 
HETATM   30  F1  UNL     1     -29.727  11.613 -87.860  1.00  0.00    -0.168 F 
HETATM   31  F2  UNL     1     -31.414  12.085 -89.218  1.00  0.00    -0.168 F 
HETATM   32  F3  UNL     1     -30.441  10.103 -89.426  1.00  0.00    -0.168 F 
ENDBRANCH  22  29
ENDBRANCH  21  22
ENDBRANCH   5  21
TORSDOF 9
ENDMDL
MODEL 2
REMARK VINA RESULT: -7.703404761      4.917      6.056
REMARK  9 active torsions:
REMARK  status: ('A' for Active; 'I' for Inactive)
REMARK    1  A    between atoms: C3_3  and  O1_4 
REMARK    2  A    between atoms: C4_6  and  C5_7 
REMARK    3  A    between atoms: C5_7  and  O2_8 
REMARK    4  A    between atoms: C6_11  and  C7_12 
REMARK    5  A    between atoms: C11_16  and  O4_17 
REMARK    6  A    between atoms: O4_17  and  C12_18 
REMARK    7  A    between atoms: C12_18  and  C13_19 
REMARK    8  A    between atoms: C12_18  and  C19_25 
REMARK    9  A    between atoms: C21_30  and  O5_31 
ROOT
HETATM    1  C7  UNL     1     -24.741  14.635 -94.269  1.00  0.00    -0.024 A 
HETATM    2  C8  UNL     1     -25.902  14.737 -94.989  1.00  0.00     0.010 A 
HETATM    3  C9  UNL     1     -27.042  14.075 -94.571  1.00  0.00     0.003 A 
HETATM    4  C10 UNL     1     -27.008  13.313 -93.434  1.00  0.00     0.037 A 
HETATM    5  C11 UNL     1     -25.843  13.178 -92.664  1.00  0.00     0.070 A 
HETATM    6  C20 UNL     1     -24.736  13.863 -93.131  1.00  0.00     0.046 A 
ENDROOT
BRANCH   1   7
HETATM    7  C6  UNL     1     -23.554  15.368 -94.772  1.00  0.00     0.184 C 
HETATM    8  O3  UNL     1     -23.030  16.105 -93.780  1.00  0.00    -0.369 OA
HETATM    9  C4  UNL     1     -22.689  17.389 -93.928  1.00  0.00     0.175 C 
HETATM   10  C3  UNL     1     -23.508  18.253 -94.834  1.00  0.00     0.155 C 
HETATM   11  C2  UNL     1     -24.400  17.454 -95.754  1.00  0.00     0.045 C 
HETATM   12  C1  UNL     1     -24.492  18.177 -97.105  1.00  0.00     0.015 C 
HETATM   13  C21 UNL     1     -23.787  16.122 -96.017  1.00  0.00     0.158 C 
BRANCH   9  14
HETATM   14  C5  UNL     1     -21.194  17.486 -94.242  1.00  0.00     0.198 C 
BRANCH  14  15
HETATM   15  O2  UNL     1     -20.587  18.405 -93.354  1.00  0.00    -0.398 OA
ATOM     16  H2  UNL     1     -20.058  19.019 -93.850  1.00  0.00     0.209 HD
ENDBRANCH  14  15
ENDBRANCH   9  14
BRANCH  10  17
HETATM   17  O1  UNL     1     -22.625  18.967 -95.645  1.00  0.00    -0.392 OA
ATOM     18  H1  UNL     1     -21.820  18.464 -95.687  1.00  0.00     0.210 HD
ENDBRANCH  10  17
BRANCH  13  19
HETATM   19  O5  UNL     1     -24.480  15.396 -96.991  1.00  0.00    -0.392 OA
ATOM     20  H5  UNL     1     -23.917  15.109 -97.700  1.00  0.00     0.210 HD
ENDBRANCH  13  19
ENDBRANCH   1   7
BRANCH   5  21
HETATM   21  O4  UNL     1     -25.890  12.401 -91.542  1.00  0.00    -0.332 OA
BRANCH  21  22
HETATM   22  C12 UNL     1     -26.506  11.176 -91.367  1.00  0.00     0.269 C 
BRANCH  22  23
HETATM   23  C13 UNL     1     -27.666  11.302 -90.452  1.00  0.00    -0.020 A 
HETATM   24  C14 UNL     1     -27.915  12.508 -89.845  1.00  0.00     0.010 A 
HETATM   25  C15 UNL     1     -28.998  12.676 -88.973  1.00  0.00     0.001 A 
HETATM   26  C16 UNL     1     -29.840  11.612 -88.711  1.00  0.00     0.000 A 
HETATM   27  C17 UNL     1     -29.595  10.402 -89.318  1.00  0.00     0.001 A 
HETATM   28  C18 UNL     1     -28.512  10.248 -90.183  1.00  0.00     0.010 A 
ENDBRANCH  22  23
BRANCH  22  29
HETATM   29  C19 UNL     1     -25.588  10.143 -90.727  1.00  0.00     0.417 C 
HETATM   30  F1  UNL     1     -26.000   8.865 -91.038  1.00  0.00    -0.168 F 
HETATM   31  F2  UNL     1     -24.342  10.310 -91.315  1.00  0.00    -0.168 F 
HETATM   32  F3  UNL     1     -25.432  10.342 -89.383  1.00  0.00    -0.168 F 
ENDBRANCH  22  29
ENDBRANCH  21  22
ENDBRANCH   5  21
TORSDOF 9
ENDMDL
MODEL 3
REMARK VINA RESULT: -7.619411846      2.275      3.518
REMARK  9 active torsions:
REMARK  status: ('A' for Active; 'I' for Inactive)
REMARK    1  A    between atoms: C3_3  and  O1_4 
REMARK    2  A    between atoms: C4_6  and  C5_7 
REMARK    3  A    between atoms: C5_7  and  O2_8 
REMARK    4  A    between atoms: C6_11  and  C7_12 
REMARK    5  A    between atoms: C11_16  and  O4_17 
REMARK    6  A    between atoms: O4_17  and  C12_18 
REMARK    7  A    between atoms: C12_18  and  C13_19 
REMARK    8  A    between atoms: C12_18  and  C19_25 
REMARK    9  A    between atoms: C21_30  and  O5_31 
ROOT
HETATM    1  C7  UNL     1     -29.035  14.158 -93.667  1.00  0.00    -0.024 A 
HETATM    2  C8  UNL     1     -28.207  14.408 -94.729  1.00  0.00     0.010 A 
HETATM    3  C9  UNL     1     -26.933  13.870 -94.761  1.00  0.00     0.003 A 
HETATM    4  C10 UNL     1     -26.499  13.086 -93.726  1.00  0.00     0.037 A 
HETATM    5  C11 UNL     1     -27.310  12.803 -92.618  1.00  0.00     0.070 A 
HETATM    6  C20 UNL     1     -28.573  13.367 -92.642  1.00  0.00     0.046 A 
ENDROOT
BRANCH   1   7
HETATM    7  C6  UNL     1     -30.388  14.766 -93.693  1.00  0.00     0.184 C 
HETATM    8  O3  UNL     1     -30.278  16.092 -93.871  1.00  0.00    -0.369 OA
HETATM    9  C4  UNL     1     -30.941  16.984 -93.129  1.00  0.00     0.175 C 
HETATM   10  C3  UNL     1     -31.193  16.678 -91.686  1.00  0.00     0.155 C 
HETATM   11  C2  UNL     1     -30.981  15.221 -91.353  1.00  0.00     0.045 C 
HETATM   12  C1  UNL     1     -32.003  14.803 -90.286  1.00  0.00     0.015 C 
HETATM   13  C21 UNL     1     -31.248  14.386 -92.558  1.00  0.00     0.158 C 
BRANCH   9  14
HETATM   14  C5  UNL     1     -32.221  17.402 -93.857  1.00  0.00     0.198 C 
BRANCH  14  15
HETATM   15  O2  UNL     1     -32.390  18.802 -93.745  1.00  0.00    -0.398 OA
ATOM     16  H2  UNL     1     -33.139  18.986 -93.191  1.00  0.00     0.209 HD
ENDBRANCH  14  15
ENDBRANCH   9  14
BRANCH  10  17
HETATM   17  O1  UNL     1     -32.533  16.964 -91.424  1.00  0.00    -0.392 OA
ATOM     18  H1  UNL     1     -32.551  17.768 -90.919  1.00  0.00     0.210 HD
ENDBRANCH  10  17
BRANCH  13  19
HETATM   19  O5  UNL     1     -31.230  13.016 -92.275  1.00  0.00    -0.392 OA
ATOM     20  H5  UNL     1     -30.348  12.664 -92.233  1.00  0.00     0.210 HD
ENDBRANCH  13  19
ENDBRANCH   1   7
BRANCH   5  21
HETATM   21  O4  UNL     1     -26.806  12.011 -91.626  1.00  0.00    -0.332 OA
BRANCH  21  22
HETATM   22  C12 UNL     1     -27.391  10.919 -91.012  1.00  0.00     0.269 C 
BRANCH  22  23
HETATM   23  C13 UNL     1     -28.422  11.360 -90.040  1.00  0.00    -0.020 A 
HETATM   24  C14 UNL     1     -29.492  10.541 -89.779  1.00  0.00     0.010 A 
HETATM   25  C15 UNL     1     -30.490  10.913 -88.870  1.00  0.00     0.001 A 
HETATM   26  C16 UNL     1     -30.406  12.129 -88.217  1.00  0.00     0.000 A 
HETATM   27  C17 UNL     1     -29.335  12.951 -88.475  1.00  0.00     0.001 A 
HETATM   28  C18 UNL     1     -28.348  12.569 -89.383  1.00  0.00     0.010 A 
ENDBRANCH  22  23
BRANCH  22  29
HETATM   29  C19 UNL     1     -26.396  10.092 -90.210  1.00  0.00     0.417 C 
HETATM   30  F1  UNL     1     -27.052   9.219 -89.370  1.00  0.00    -0.168 F 
HETATM   31  F2  UNL     1     -25.707   9.312 -91.129  1.00  0.00    -0.168 F 
HETATM   32  F3  UNL     1     -25.473  10.865 -89.564  1.00  0.00    -0.168 F 
ENDBRANCH  22  29
ENDBRANCH  21  22
ENDBRANCH   5  21
TORSDOF 9
ENDMDL
MODEL 4
REMARK VINA RESULT: -7.447239818      1.958      2.831
REMARK  9 active torsions:
REMARK  status: ('A' for Active; 'I' for Inactive)
REMARK    1  A    between atoms: C3_3  and  O1_4 
REMARK    2  A    between atoms: C4_6  and  C5_7 
REMARK    3  A    between atoms: C5_7  and  O2_8 
REMARK    4  A    between atoms: C6_11  and  C7_12 
REMARK    5  A    between atoms: C11_16  and  O4_17 
REMARK    6  A    between atoms: O4_17  and  C12_18 
REMARK    7  A    between atoms: C12_18  and  C13_19 
REMARK    8  A    between atoms: C12_18  and  C19_25 
REMARK    9  A    between atoms: C21_30  and  O5_31 
ROOT
HETATM    1  C7  UNL     1     -30.124  15.150 -93.530  1.00  0.00    -0.024 A 
HETATM    2  C8  UNL     1     -29.796  14.578 -94.731  1.00  0.00     0.010 A 
HETATM    3  C9  UNL     1     -28.970  13.469 -94.773  1.00  0.00     0.003 A 
HETATM    4  C10 UNL     1     -28.478  12.943 -93.608  1.00  0.00     0.037 A 
HETATM    5  C11 UNL     1     -28.786  13.494 -92.356  1.00  0.00     0.070 A 
HETATM    6  C20 UNL     1     -29.616  14.601 -92.378  1.00  0.00     0.046 A 
ENDROOT
BRANCH   1   7
HETATM    7  C6  UNL     1     -31.011  16.338 -93.555  1.00  0.00     0.184 C 
HETATM    8  O3  UNL     1     -30.437  17.340 -92.870  1.00  0.00    -0.369 OA
HETATM    9  C4  UNL     1     -31.090  18.066 -91.958  1.00  0.00     0.175 C 
HETATM   10  C3  UNL     1     -32.135  17.401 -91.118  1.00  0.00     0.155 C 
HETATM   11  C2  UNL     1     -32.572  16.069 -91.677  1.00  0.00     0.045 C 
HETATM   12  C1  UNL     1     -34.070  15.882 -91.397  1.00  0.00     0.015 C 
HETATM   13  C21 UNL     1     -32.404  16.066 -93.158  1.00  0.00     0.158 C 
BRANCH   9  14
HETATM   14  C5  UNL     1     -31.609  19.352 -92.607  1.00  0.00     0.198 C 
BRANCH  14  15
HETATM   15  O2  UNL     1     -30.697  20.404 -92.361  1.00  0.00    -0.398 OA
ATOM     16  H2  UNL     1     -30.458  20.406 -91.441  1.00  0.00     0.209 HD
ENDBRANCH  14  15
ENDBRANCH   9  14
BRANCH  10  17
HETATM   17  O1  UNL     1     -33.258  18.229 -91.115  1.00  0.00    -0.392 OA
ATOM     18  H1  UNL     1     -33.085  18.933 -91.729  1.00  0.00     0.210 HD
ENDBRANCH  10  17
BRANCH  13  19
HETATM   19  O5  UNL     1     -32.945  14.922 -93.756  1.00  0.00    -0.392 OA
ATOM     20  H5  UNL     1     -33.448  15.122 -94.536  1.00  0.00     0.210 HD
ENDBRANCH  13  19
ENDBRANCH   1   7
BRANCH   5  21
HETATM   21  O4  UNL     1     -28.257  12.911 -91.240  1.00  0.00    -0.332 OA
BRANCH  21  22
HETATM   22  C12 UNL     1     -28.375  11.601 -90.813  1.00  0.00     0.269 C 
BRANCH  22  23
HETATM   23  C13 UNL     1     -29.145  11.534 -89.547  1.00  0.00    -0.020 A 
HETATM   24  C14 UNL     1     -29.436  12.695 -88.875  1.00  0.00     0.010 A 
HETATM   25  C15 UNL     1     -30.159  12.682 -87.676  1.00  0.00     0.001 A 
HETATM   26  C16 UNL     1     -30.593  11.480 -87.148  1.00  0.00     0.000 A 
HETATM   27  C17 UNL     1     -30.303  10.314 -87.819  1.00  0.00     0.001 A 
HETATM   28  C18 UNL     1     -29.582  10.341 -89.012  1.00  0.00     0.010 A 
ENDBRANCH  22  23
BRANCH  22  29
HETATM   29  C19 UNL     1     -27.029  10.957 -90.512  1.00  0.00     0.417 C 
HETATM   30  F1  UNL     1     -27.151   9.587 -90.431  1.00  0.00    -0.168 F 
HETATM   31  F2  UNL     1     -26.218  11.217 -91.608  1.00  0.00    -0.168 F 
HETATM   32  F3  UNL     1     -26.419  11.505 -89.418  1.00  0.00    -0.168 F 
ENDBRANCH  22  29
ENDBRANCH  21  22
ENDBRANCH   5  21
TORSDOF 9
ENDMDL
MODEL 5
REMARK VINA RESULT: -7.338593561      3.134      6.947
REMARK  9 active torsions:
REMARK  status: ('A' for Active; 'I' for Inactive)
REMARK    1  A    between atoms: C3_3  and  O1_4 
REMARK    2  A    between atoms: C4_6  and  C5_7 
REMARK    3  A    between atoms: C5_7  and  O2_8 
REMARK    4  A    between atoms: C6_11  and  C7_12 
REMARK    5  A    between atoms: C11_16  and  O4_17 
REMARK    6  A    between atoms: O4_17  and  C12_18 
REMARK    7  A    between atoms: C12_18  and  C13_19 
REMARK    8  A    between atoms: C12_18  and  C19_25 
REMARK    9  A    between atoms: C21_30  and  O5_31 
ROOT
HETATM    1  C7  UNL     1     -29.284  12.244 -89.348  1.00  0.00    -0.024 A 
HETATM    2  C8  UNL     1     -29.812  11.640 -88.237  1.00  0.00     0.010 A 
HETATM    3  C9  UNL     1     -30.575  12.369 -87.343  1.00  0.00     0.003 A 
HETATM    4  C10 UNL     1     -30.801  13.700 -87.569  1.00  0.00     0.037 A 
HETATM    5  C11 UNL     1     -30.280  14.362 -88.690  1.00  0.00     0.070 A 
HETATM    6  C20 UNL     1     -29.527  13.582 -89.548  1.00  0.00     0.046 A 
ENDROOT
BRANCH   1   7
HETATM    7  C6  UNL     1     -28.474  11.407 -90.266  1.00  0.00     0.184 C 
HETATM    8  O3  UNL     1     -27.198  11.390 -89.847  1.00  0.00    -0.369 OA
HETATM    9  C4  UNL     1     -26.161  11.594 -90.664  1.00  0.00     0.175 C 
HETATM   10  C3  UNL     1     -26.316  12.552 -91.802  1.00  0.00     0.155 C 
HETATM   11  C2  UNL     1     -27.759  12.885 -92.092  1.00  0.00     0.045 C 
HETATM   12  C1  UNL     1     -27.930  13.066 -93.607  1.00  0.00     0.015 C 
HETATM   13  C21 UNL     1     -28.629  11.744 -91.692  1.00  0.00     0.158 C 
BRANCH   9  14
HETATM   14  C5  UNL     1     -25.601  10.245 -91.123  1.00  0.00     0.198 C 
BRANCH  14  15
HETATM   15  O2  UNL     1     -24.223  10.380 -91.408  1.00  0.00    -0.398 OA
ATOM     16  H2  UNL     1     -24.088  11.145 -91.956  1.00  0.00     0.209 HD
ENDBRANCH  14  15
ENDBRANCH   9  14
BRANCH  10  17
HETATM   17  O1  UNL     1     -25.804  11.934 -92.943  1.00  0.00    -0.392 OA
ATOM     18  H1  UNL     1     -26.093  11.030 -92.921  1.00  0.00     0.210 HD
ENDBRANCH  10  17
BRANCH  13  19
HETATM   19  O5  UNL     1     -29.960  11.920 -92.086  1.00  0.00    -0.392 OA
ATOM     20  H5  UNL     1     -30.078  12.684 -92.637  1.00  0.00     0.210 HD
ENDBRANCH  13  19
ENDBRANCH   1   7
BRANCH   5  21
HETATM   21  O4  UNL     1     -30.551  15.692 -88.846  1.00  0.00    -0.332 OA
BRANCH  21  22
HETATM   22  C12 UNL     1     -31.445  16.294 -89.711  1.00  0.00     0.269 C 
BRANCH  22  23
HETATM   23  C13 UNL     1     -30.921  16.275 -91.098  1.00  0.00    -0.020 A 
HETATM   24  C14 UNL     1     -31.616  15.598 -92.070  1.00  0.00     0.010 A 
HETATM   25  C15 UNL     1     -31.161  15.550 -93.393  1.00  0.00     0.001 A 
HETATM   26  C16 UNL     1     -29.988  16.194 -93.740  1.00  0.00     0.000 A 
HETATM   27  C17 UNL     1     -29.289  16.874 -92.769  1.00  0.00     0.001 A 
HETATM   28  C18 UNL     1     -29.753  16.913 -91.455  1.00  0.00     0.010 A 
ENDBRANCH  22  23
BRANCH  22  29
HETATM   29  C19 UNL     1     -31.685  17.762 -89.382  1.00  0.00     0.417 C 
HETATM   30  F1  UNL     1     -32.234  18.420 -90.460  1.00  0.00    -0.168 F 
HETATM   31  F2  UNL     1     -32.641  17.785 -88.376  1.00  0.00    -0.168 F 
HETATM   32  F3  UNL     1     -30.566  18.377 -88.893  1.00  0.00    -0.168 F 
ENDBRANCH  22  29
ENDBRANCH  21  22
ENDBRANCH   5  21
TORSDOF 9
ENDMDL
