MODEL 1
REMARK VINA RESULT: -8.011464946      0.000      0.000
REMARK  10 active torsions:
REMARK  status: ('A' for Active; 'I' for Inactive)
REMARK    1  A    between atoms: C2_2  and  O1_4 
REMARK    2  A    between atoms: C2_2  and  C13_19 
REMARK    3  A    between atoms: O1_4  and  C4_5 
REMARK    4  A    between atoms: C4_5  and  C5_6 
REMARK       I    between atoms: C5_6  and  N1_8 
REMARK    5  A    between atoms: C6_10  and  C7_11 
REMARK    6  A    between atoms: C12_16  and  O3_17 
REMARK    7  A    between atoms: C13_19  and  O4_20 
REMARK    8  A    between atoms: C13_19  and  C14_22 
REMARK    9  A    between atoms: C13_19  and  C20_30 
REMARK   10  A    between atoms: C19_27  and  O5_28 
ROOT
HETATM    1  C1  UNL     1     -27.099  10.064 -90.194  1.00  0.00     0.049 C 
HETATM    2  C2  UNL     1     -27.572  11.479 -90.584  1.00  0.00     0.098 C 
HETATM    3  C3  UNL     1     -26.749  12.393 -89.742  1.00  0.00     0.049 C 
ENDROOT
BRANCH   2   4
HETATM    4  O1  UNL     1     -27.175  11.666 -91.932  1.00  0.00    -0.368 OA
BRANCH   4   5
HETATM    5  C4  UNL     1     -26.081  12.470 -92.079  1.00  0.00     0.271 C 
BRANCH   5   6
HETATM    6  C5  UNL     1     -26.150  13.183 -93.373  1.00  0.00     0.245 C 
HETATM    7  O2  UNL     1     -27.118  13.025 -94.132  1.00  0.00    -0.271 OA
HETATM    8  N1  UNL     1     -25.100  14.058 -93.752  1.00  0.00    -0.334 N 
HETATM    9  C6  UNL     1     -25.243  14.947 -94.673  1.00  0.00     0.105 C 
ATOM     10  H1  UNL     1     -24.200  13.980 -93.278  1.00  0.00     0.168 HD
BRANCH   9  11
HETATM   11  C7  UNL     1     -24.175  15.843 -95.064  1.00  0.00     0.012 A 
HETATM   12  C8  UNL     1     -24.476  16.925 -95.866  1.00  0.00     0.015 A 
HETATM   13  C9  UNL     1     -23.499  17.791 -96.254  1.00  0.00     0.001 A 
HETATM   14  C10 UNL     1     -22.188  17.639 -95.877  1.00  0.00     0.003 A 
HETATM   15  C11 UNL     1     -21.877  16.566 -95.079  1.00  0.00     0.037 A 
HETATM   16  C12 UNL     1     -22.867  15.677 -94.677  1.00  0.00     0.077 A 
BRANCH  16  17
HETATM   17  O3  UNL     1     -22.485  14.618 -93.874  1.00  0.00    -0.360 OA
ATOM     18  H3  UNL     1     -23.015  13.832 -93.808  1.00  0.00     0.217 HD
ENDBRANCH  16  17
ENDBRANCH   9  11
ENDBRANCH   5   6
ENDBRANCH   4   5
ENDBRANCH   2   4
BRANCH   2  19
HETATM   19  C13 UNL     1     -29.012  11.622 -90.535  1.00  0.00     0.216 C 
BRANCH  19  20
HETATM   20  O4  UNL     1     -29.662  10.570 -91.202  1.00  0.00    -0.374 OA
ATOM     21  H4  UNL     1     -30.368  10.886 -91.753  1.00  0.00     0.211 HD
ENDBRANCH  19  20
BRANCH  19  22
HETATM   22  C14 UNL     1     -29.680  12.846 -91.035  1.00  0.00     0.021 A 
HETATM   23  C15 UNL     1     -29.877  13.955 -90.199  1.00  0.00     0.013 A 
HETATM   24  C16 UNL     1     -30.390  15.145 -90.678  1.00  0.00     0.001 A 
HETATM   25  C17 UNL     1     -30.740  15.322 -91.995  1.00  0.00     0.003 A 
HETATM   26  C18 UNL     1     -30.553  14.245 -92.822  1.00  0.00     0.037 A 
HETATM   27  C19 UNL     1     -30.037  13.037 -92.350  1.00  0.00     0.075 A 
BRANCH  27  28
HETATM   28  O5  UNL     1     -29.899  11.981 -93.280  1.00  0.00    -0.360 OA
ATOM     29  H5  UNL     1     -29.048  11.584 -93.425  1.00  0.00     0.217 HD
ENDBRANCH  27  28
ENDBRANCH  19  22
BRANCH  19  30
HETATM   30  C20 UNL     1     -29.540  11.333 -89.086  1.00  0.00     0.425 C 
HETATM   31  F1  UNL     1     -29.176  12.404 -88.335  1.00  0.00    -0.167 F 
HETATM   32  F2  UNL     1     -30.951  11.355 -89.199  1.00  0.00    -0.167 F 
HETATM   33  F3  UNL     1     -29.236  10.135 -88.607  1.00  0.00    -0.167 F 
ENDBRANCH  19  30
ENDBRANCH   2  19
TORSDOF 10
ENDMDL
MODEL 2
REMARK VINA RESULT: -7.951971485      3.583      5.649
REMARK  10 active torsions:
REMARK  status: ('A' for Active; 'I' for Inactive)
REMARK    1  A    between atoms: C2_2  and  O1_4 
REMARK    2  A    between atoms: C2_2  and  C13_19 
REMARK    3  A    between atoms: O1_4  and  C4_5 
REMARK    4  A    between atoms: C4_5  and  C5_6 
REMARK       I    between atoms: C5_6  and  N1_8 
REMARK    5  A    between atoms: C6_10  and  C7_11 
REMARK    6  A    between atoms: C12_16  and  O3_17 
REMARK    7  A    between atoms: C13_19  and  O4_20 
REMARK    8  A    between atoms: C13_19  and  C14_22 
REMARK    9  A    between atoms: C13_19  and  C20_30 
REMARK   10  A    between atoms: C19_27  and  O5_28 
ROOT
HETATM    1  C1  UNL     1     -33.840  12.184 -88.067  1.00  0.00     0.049 C 
HETATM    2  C2  UNL     1     -32.632  11.479 -88.717  1.00  0.00     0.098 C 
HETATM    3  C3  UNL     1     -32.956  10.027 -88.629  1.00  0.00     0.049 C 
ENDROOT
BRANCH   2   4
HETATM    4  O1  UNL     1     -32.660  11.842 -90.087  1.00  0.00    -0.368 OA
BRANCH   4   5
HETATM    5  C4  UNL     1     -33.672  12.699 -90.411  1.00  0.00     0.271 C 
BRANCH   5   6
HETATM    6  C5  UNL     1     -33.233  13.611 -91.491  1.00  0.00     0.245 C 
HETATM    7  O2  UNL     1     -34.002  14.473 -91.942  1.00  0.00    -0.271 OA
HETATM    8  N1  UNL     1     -31.921  13.499 -92.016  1.00  0.00    -0.334 N 
HETATM    9  C6  UNL     1     -31.368  14.446 -92.694  1.00  0.00     0.105 C 
ATOM     10  H1  UNL     1     -31.397  12.640 -91.852  1.00  0.00     0.168 HD
BRANCH   9  11
HETATM   11  C7  UNL     1     -30.029  14.338 -93.233  1.00  0.00     0.012 A 
HETATM   12  C8  UNL     1     -29.236  15.467 -93.273  1.00  0.00     0.015 A 
HETATM   13  C9  UNL     1     -27.971  15.406 -93.772  1.00  0.00     0.001 A 
HETATM   14  C10 UNL     1     -27.423  14.243 -94.253  1.00  0.00     0.003 A 
HETATM   15  C11 UNL     1     -28.203  13.112 -94.218  1.00  0.00     0.037 A 
HETATM   16  C12 UNL     1     -29.496  13.165 -93.711  1.00  0.00     0.077 A 
BRANCH  16  17
HETATM   17  O3  UNL     1     -30.226  11.990 -93.705  1.00  0.00    -0.360 OA
ATOM     18  H3  UNL     1     -30.060  11.302 -94.338  1.00  0.00     0.217 HD
ENDBRANCH  16  17
ENDBRANCH   9  11
ENDBRANCH   5   6
ENDBRANCH   4   5
ENDBRANCH   2   4
BRANCH   2  19
HETATM   19  C13 UNL     1     -31.365  11.926 -88.177  1.00  0.00     0.216 C 
BRANCH  19  20
HETATM   20  O4  UNL     1     -31.371  13.305 -87.909  1.00  0.00    -0.374 OA
ATOM     21  H4  UNL     1     -30.565  13.586 -87.494  1.00  0.00     0.211 HD
ENDBRANCH  19  20
BRANCH  19  22
HETATM   22  C14 UNL     1     -30.096  11.696 -88.906  1.00  0.00     0.021 A 
HETATM   23  C15 UNL     1     -29.544  10.411 -89.010  1.00  0.00     0.013 A 
HETATM   24  C16 UNL     1     -28.427  10.160 -89.782  1.00  0.00     0.001 A 
HETATM   25  C17 UNL     1     -27.785  11.143 -90.496  1.00  0.00     0.003 A 
HETATM   26  C18 UNL     1     -28.314  12.404 -90.402  1.00  0.00     0.037 A 
HETATM   27  C19 UNL     1     -29.441  12.671 -89.623  1.00  0.00     0.075 A 
BRANCH  27  28
HETATM   28  O5  UNL     1     -29.899  14.009 -89.579  1.00  0.00    -0.360 OA
ATOM     29  H5  UNL     1     -30.749  14.232 -89.939  1.00  0.00     0.217 HD
ENDBRANCH  27  28
ENDBRANCH  19  22
BRANCH  19  30
HETATM   30  C20 UNL     1     -31.186  11.410 -86.706  1.00  0.00     0.425 C 
HETATM   31  F1  UNL     1     -29.870  11.573 -86.410  1.00  0.00    -0.167 F 
HETATM   32  F2  UNL     1     -31.915  12.323 -85.907  1.00  0.00    -0.167 F 
HETATM   33  F3  UNL     1     -31.712  10.218 -86.462  1.00  0.00    -0.167 F 
ENDBRANCH  19  30
ENDBRANCH   2  19
TORSDOF 10
ENDMDL
MODEL 3
REMARK VINA RESULT: -7.706130166      3.420      4.760
REMARK  10 active torsions:
REMARK  status: ('A' for Active; 'I' for Inactive)
REMARK    1  A    between atoms: C2_2  and  O1_4 
REMARK    2  A    between atoms: C2_2  and  C13_19 
REMARK    3  A    between atoms: O1_4  and  C4_5 
REMARK    4  A    between atoms: C4_5  and  C5_6 
REMARK       I    between atoms: C5_6  and  N1_8 
REMARK    5  A    between atoms: C6_10  and  C7_11 
REMARK    6  A    between atoms: C12_16  and  O3_17 
REMARK    7  A    between atoms: C13_19  and  O4_20 
REMARK    8  A    between atoms: C13_19  and  C14_22 
REMARK    9  A    between atoms: C13_19  and  C20_30 
REMARK   10  A    between atoms: C19_27  and  O5_28 
ROOT
HETATM    1  C1  UNL     1     -32.200   9.637 -88.347  1.00  0.00     0.049 C 
HETATM    2  C2  UNL     1     -31.428  10.950 -88.591  1.00  0.00     0.098 C 
HETATM    3  C3  UNL     1     -30.623  11.145 -87.352  1.00  0.00     0.049 C 
ENDROOT
BRANCH   2   4
HETATM    4  O1  UNL     1     -30.526  10.682 -89.650  1.00  0.00    -0.368 OA
BRANCH   4   5
HETATM    5  C4  UNL     1     -29.277  10.319 -89.234  1.00  0.00     0.271 C 
BRANCH   5   6
HETATM    6  C5  UNL     1     -28.253  11.030 -90.032  1.00  0.00     0.245 C 
HETATM    7  O2  UNL     1     -27.051  10.944 -89.740  1.00  0.00    -0.271 OA
HETATM    8  N1  UNL     1     -28.649  11.818 -91.143  1.00  0.00    -0.334 N 
HETATM    9  C6  UNL     1     -27.821  12.178 -92.062  1.00  0.00     0.105 C 
ATOM     10  H1  UNL     1     -29.624  12.110 -91.217  1.00  0.00     0.168 HD
BRANCH   9  11
HETATM   11  C7  UNL     1     -28.219  12.981 -93.198  1.00  0.00     0.012 A 
HETATM   12  C8  UNL     1     -27.393  14.008 -93.607  1.00  0.00     0.015 A 
HETATM   13  C9  UNL     1     -27.733  14.787 -94.672  1.00  0.00     0.001 A 
HETATM   14  C10 UNL     1     -28.891  14.596 -95.384  1.00  0.00     0.003 A 
HETATM   15  C11 UNL     1     -29.720  13.576 -94.986  1.00  0.00     0.037 A 
HETATM   16  C12 UNL     1     -29.383  12.777 -93.900  1.00  0.00     0.077 A 
BRANCH  16  17
HETATM   17  O3  UNL     1     -30.262  11.768 -93.554  1.00  0.00    -0.360 OA
ATOM     18  H3  UNL     1     -30.448  11.049 -94.147  1.00  0.00     0.217 HD
ENDBRANCH  16  17
ENDBRANCH   9  11
ENDBRANCH   5   6
ENDBRANCH   4   5
ENDBRANCH   2   4
BRANCH   2  19
HETATM   19  C13 UNL     1     -32.288  12.034 -89.020  1.00  0.00     0.216 C 
BRANCH  19  20
HETATM   20  O4  UNL     1     -33.307  11.583 -89.874  1.00  0.00    -0.374 OA
ATOM     21  H4  UNL     1     -34.076  12.138 -89.828  1.00  0.00     0.211 HD
ENDBRANCH  19  20
BRANCH  19  22
HETATM   22  C14 UNL     1     -31.736  13.228 -89.700  1.00  0.00     0.021 A 
HETATM   23  C15 UNL     1     -30.880  14.113 -89.028  1.00  0.00     0.013 A 
HETATM   24  C16 UNL     1     -30.264  15.165 -89.679  1.00  0.00     0.001 A 
HETATM   25  C17 UNL     1     -30.446  15.414 -91.018  1.00  0.00     0.003 A 
HETATM   26  C18 UNL     1     -31.282  14.557 -91.686  1.00  0.00     0.037 A 
HETATM   27  C19 UNL     1     -31.911  13.492 -91.040  1.00  0.00     0.075 A 
BRANCH  27  28
HETATM   28  O5  UNL     1     -32.768  12.676 -91.814  1.00  0.00    -0.360 OA
ATOM     29  H5  UNL     1     -33.670  12.937 -91.958  1.00  0.00     0.217 HD
ENDBRANCH  27  28
ENDBRANCH  19  22
BRANCH  19  30
HETATM   30  C20 UNL     1     -33.188  12.520 -87.830  1.00  0.00     0.425 C 
HETATM   31  F1  UNL     1     -33.887  13.586 -88.301  1.00  0.00    -0.167 F 
HETATM   32  F2  UNL     1     -34.112  11.469 -87.618  1.00  0.00    -0.167 F 
HETATM   33  F3  UNL     1     -32.555  12.682 -86.677  1.00  0.00    -0.167 F 
ENDBRANCH  19  30
ENDBRANCH   2  19
TORSDOF 10
ENDMDL
MODEL 4
REMARK VINA RESULT: -7.675782909      4.187      6.611
REMARK  10 active torsions:
REMARK  status: ('A' for Active; 'I' for Inactive)
REMARK    1  A    between atoms: C2_2  and  O1_4 
REMARK    2  A    between atoms: C2_2  and  C13_19 
REMARK    3  A    between atoms: O1_4  and  C4_5 
REMARK    4  A    between atoms: C4_5  and  C5_6 
REMARK       I    between atoms: C5_6  and  N1_8 
REMARK    5  A    between atoms: C6_10  and  C7_11 
REMARK    6  A    between atoms: C12_16  and  O3_17 
REMARK    7  A    between atoms: C13_19  and  O4_20 
REMARK    8  A    between atoms: C13_19  and  C14_22 
REMARK    9  A    between atoms: C13_19  and  C20_30 
REMARK   10  A    between atoms: C19_27  and  O5_28 
ROOT
HETATM    1  C1  UNL     1     -32.586  16.317 -91.003  1.00  0.00     0.049 C 
HETATM    2  C2  UNL     1     -31.413  15.381 -91.361  1.00  0.00     0.098 C 
HETATM    3  C3  UNL     1     -30.336  15.747 -90.397  1.00  0.00     0.049 C 
ENDROOT
BRANCH   2   4
HETATM    4  O1  UNL     1     -31.848  14.071 -91.041  1.00  0.00    -0.368 OA
BRANCH   4   5
HETATM    5  C4  UNL     1     -31.667  13.733 -89.730  1.00  0.00     0.271 C 
BRANCH   5   6
HETATM    6  C5  UNL     1     -31.097  12.371 -89.633  1.00  0.00     0.245 C 
HETATM    7  O2  UNL     1     -31.828  11.394 -89.415  1.00  0.00    -0.271 OA
HETATM    8  N1  UNL     1     -29.702  12.180 -89.793  1.00  0.00    -0.334 N 
HETATM    9  C6  UNL     1     -29.190  11.026 -90.055  1.00  0.00     0.105 C 
ATOM     10  H1  UNL     1     -29.080  12.983 -89.697  1.00  0.00     0.168 HD
BRANCH   9  11
HETATM   11  C7  UNL     1     -27.766  10.824 -90.220  1.00  0.00     0.012 A 
HETATM   12  C8  UNL     1     -27.047  11.738 -90.962  1.00  0.00     0.015 A 
HETATM   13  C9  UNL     1     -25.706  11.583 -91.140  1.00  0.00     0.001 A 
HETATM   14  C10 UNL     1     -25.008  10.531 -90.601  1.00  0.00     0.003 A 
HETATM   15  C11 UNL     1     -25.713   9.615 -89.859  1.00  0.00     0.037 A 
HETATM   16  C12 UNL     1     -27.083   9.764 -89.673  1.00  0.00     0.077 A 
BRANCH  16  17
HETATM   17  O3  UNL     1     -27.731   8.806 -88.916  1.00  0.00    -0.360 OA
ATOM     18  H3  UNL     1     -27.248   8.128 -88.459  1.00  0.00     0.217 HD
ENDBRANCH  16  17
ENDBRANCH   9  11
ENDBRANCH   5   6
ENDBRANCH   4   5
ENDBRANCH   2   4
BRANCH   2  19
HETATM   19  C13 UNL     1     -31.095  15.397 -92.773  1.00  0.00     0.216 C 
BRANCH  19  20
HETATM   20  O4  UNL     1     -32.105  14.794 -93.541  1.00  0.00    -0.374 OA
ATOM     21  H4  UNL     1     -31.918  14.846 -94.471  1.00  0.00     0.211 HD
ENDBRANCH  19  20
BRANCH  19  22
HETATM   22  C14 UNL     1     -29.838  14.804 -93.284  1.00  0.00     0.021 A 
HETATM   23  C15 UNL     1     -28.738  15.611 -93.611  1.00  0.00     0.013 A 
HETATM   24  C16 UNL     1     -27.520  15.068 -93.976  1.00  0.00     0.001 A 
HETATM   25  C17 UNL     1     -27.306  13.713 -94.044  1.00  0.00     0.003 A 
HETATM   26  C18 UNL     1     -28.374  12.914 -93.728  1.00  0.00     0.037 A 
HETATM   27  C19 UNL     1     -29.609  13.449 -93.359  1.00  0.00     0.075 A 
BRANCH  27  28
HETATM   28  O5  UNL     1     -30.652  12.539 -93.069  1.00  0.00    -0.360 OA
ATOM     29  H5  UNL     1     -30.700  12.130 -92.213  1.00  0.00     0.217 HD
ENDBRANCH  27  28
ENDBRANCH  19  22
BRANCH  19  30
HETATM   30  C20 UNL     1     -31.217  16.854 -93.344  1.00  0.00     0.425 C 
HETATM   31  F1  UNL     1     -30.752  16.796 -94.619  1.00  0.00    -0.167 F 
HETATM   32  F2  UNL     1     -32.608  17.105 -93.411  1.00  0.00    -0.167 F 
HETATM   33  F3  UNL     1     -30.717  17.804 -92.567  1.00  0.00    -0.167 F 
ENDBRANCH  19  30
ENDBRANCH   2  19
TORSDOF 10
ENDMDL
MODEL 5
REMARK VINA RESULT: -7.674239101      4.237      8.184
REMARK  10 active torsions:
REMARK  status: ('A' for Active; 'I' for Inactive)
REMARK    1  A    between atoms: C2_2  and  O1_4 
REMARK    2  A    between atoms: C2_2  and  C13_19 
REMARK    3  A    between atoms: O1_4  and  C4_5 
REMARK    4  A    between atoms: C4_5  and  C5_6 
REMARK       I    between atoms: C5_6  and  N1_8 
REMARK    5  A    between atoms: C6_10  and  C7_11 
REMARK    6  A    between atoms: C12_16  and  O3_17 
REMARK    7  A    between atoms: C13_19  and  O4_20 
REMARK    8  A    between atoms: C13_19  and  C14_22 
REMARK    9  A    between atoms: C13_19  and  C20_30 
REMARK   10  A    between atoms: C19_27  and  O5_28 
ROOT
HETATM    1  C1  UNL     1     -31.189  15.011 -93.196  1.00  0.00     0.049 C 
HETATM    2  C2  UNL     1     -29.684  14.921 -92.874  1.00  0.00     0.098 C 
HETATM    3  C3  UNL     1     -29.132  16.239 -93.298  1.00  0.00     0.049 C 
ENDROOT
BRANCH   2   4
HETATM    4  O1  UNL     1     -29.590  14.852 -91.461  1.00  0.00    -0.368 OA
BRANCH   4   5
HETATM    5  C4  UNL     1     -30.262  15.850 -90.813  1.00  0.00     0.271 C 
BRANCH   5   6
HETATM    6  C5  UNL     1     -30.690  15.383 -89.476  1.00  0.00     0.245 C 
HETATM    7  O2  UNL     1     -30.858  16.189 -88.549  1.00  0.00    -0.271 OA
HETATM    8  N1  UNL     1     -30.912  14.001 -89.251  1.00  0.00    -0.334 N 
HETATM    9  C6  UNL     1     -31.594  13.568 -88.247  1.00  0.00     0.105 C 
ATOM     10  H1  UNL     1     -30.519  13.326 -89.907  1.00  0.00     0.168 HD
BRANCH   9  11
HETATM   11  C7  UNL     1     -31.824  12.158 -88.012  1.00  0.00     0.012 A 
HETATM   12  C8  UNL     1     -31.354  11.593 -86.844  1.00  0.00     0.015 A 
HETATM   13  C9  UNL     1     -31.551  10.271 -86.587  1.00  0.00     0.001 A 
HETATM   14  C10 UNL     1     -32.215   9.442 -87.457  1.00  0.00     0.003 A 
HETATM   15  C11 UNL     1     -32.689   9.993 -88.622  1.00  0.00     0.037 A 
HETATM   16  C12 UNL     1     -32.492  11.342 -88.894  1.00  0.00     0.077 A 
BRANCH  16  17
HETATM   17  O3  UNL     1     -32.994  11.832 -90.085  1.00  0.00    -0.360 OA
ATOM     18  H3  UNL     1     -33.816  12.309 -90.116  1.00  0.00     0.217 HD
ENDBRANCH  16  17
ENDBRANCH   9  11
ENDBRANCH   5   6
ENDBRANCH   4   5
ENDBRANCH   2   4
BRANCH   2  19
HETATM   19  C13 UNL     1     -29.067  13.723 -93.405  1.00  0.00     0.216 C 
BRANCH  19  20
HETATM   20  O4  UNL     1     -30.017  12.856 -93.969  1.00  0.00    -0.374 OA
ATOM     21  H4  UNL     1     -29.647  12.001 -94.153  1.00  0.00     0.211 HD
ENDBRANCH  19  20
BRANCH  19  22
HETATM   22  C14 UNL     1     -28.227  12.850 -92.555  1.00  0.00     0.021 A 
HETATM   23  C15 UNL     1     -26.829  12.850 -92.675  1.00  0.00     0.013 A 
HETATM   24  C16 UNL     1     -26.024  12.132 -91.813  1.00  0.00     0.001 A 
HETATM   25  C17 UNL     1     -26.533  11.373 -90.786  1.00  0.00     0.003 A 
HETATM   26  C18 UNL     1     -27.897  11.364 -90.658  1.00  0.00     0.037 A 
HETATM   27  C19 UNL     1     -28.722  12.084 -91.524  1.00  0.00     0.075 A 
BRANCH  27  28
HETATM   28  O5  UNL     1     -30.118  11.994 -91.318  1.00  0.00    -0.360 OA
ATOM     29  H5  UNL     1     -30.475  11.297 -90.781  1.00  0.00     0.217 HD
ENDBRANCH  27  28
ENDBRANCH  19  22
BRANCH  19  30
HETATM   30  C20 UNL     1     -28.263  14.058 -94.711  1.00  0.00     0.425 C 
HETATM   31  F1  UNL     1     -27.890  12.862 -95.237  1.00  0.00    -0.167 F 
HETATM   32  F2  UNL     1     -29.213  14.629 -95.590  1.00  0.00    -0.167 F 
HETATM   33  F3  UNL     1     -27.312  14.970 -94.566  1.00  0.00    -0.167 F 
ENDBRANCH  19  30
ENDBRANCH   2  19
TORSDOF 10
ENDMDL
