MODEL 1
REMARK VINA RESULT: -7.435476510      0.000      0.000
REMARK  13 active torsions:
REMARK  status: ('A' for Active; 'I' for Inactive)
REMARK    1  A    between atoms: O1_2  and  C2_3 
REMARK    2  A    between atoms: C2_3  and  C3_5 
REMARK    3  A    between atoms: C3_5  and  N1_6 
REMARK    4  A    between atoms: C5_13  and  N4_14 
REMARK    5  A    between atoms: C6_18  and  C7_19 
REMARK       I    between atoms: C7_19  and  N6_21 
REMARK    6  A    between atoms: N6_21  and  C8_23 
REMARK    7  A    between atoms: C8_23  and  C9_24 
REMARK    8  A    between atoms: C9_24  and  N7_25 
REMARK    9  A    between atoms: C14_33  and  C15_34 
REMARK   10  A    between atoms: C15_34  and  O4_35 
REMARK   11  A    between atoms: C16_37  and  C17_38 
REMARK   12  A    between atoms: C20_42  and  O6_43 
REMARK   13  A    between atoms: C21_45  and  O7_46 
ROOT
HETATM    1  N1  UNL     1     -15.656 -34.750  11.124  1.00  0.00    -0.157 N 
HETATM    2  C4  UNL     1     -15.817 -35.795  10.256  1.00  0.00     0.694 A 
HETATM    3  N2  UNL     1     -15.686 -35.671   8.979  1.00  0.00    -0.234 N 
ATOM      4  H21 UNL     1     -15.806 -36.450   8.332  1.00  0.00     0.174 HD
ATOM      5  H22 UNL     1     -15.419 -34.771   8.580  1.00  0.00     0.174 HD
HETATM    6  N3  UNL     1     -16.167 -36.977  10.780  1.00  0.00    -0.022 N 
ATOM      7  H3  UNL     1     -16.296 -37.781  10.166  1.00  0.00     0.203 HD
HETATM    8  C5  UNL     1     -16.349 -37.117  12.098  1.00  0.00     0.699 A 
HETATM    9  N5  UNL     1     -16.187 -36.088  12.948  1.00  0.00    -0.124 N 
HETATM   10  C6  UNL     1     -16.325 -36.016  14.265  1.00  0.00     0.135 A 
HETATM   11  C14 UNL     1     -16.075 -34.751  14.692  1.00  0.00     0.015 A 
HETATM   12  C16 UNL     1     -15.762 -34.021  13.550  1.00  0.00     0.055 A 
HETATM   13  C22 UNL     1     -15.825 -34.844  12.436  1.00  0.00     0.161 A 
ENDROOT
BRANCH  10  14
HETATM   14  C7  UNL     1     -16.596 -37.104  15.224  1.00  0.00     0.270 C 
HETATM   15  O3  UNL     1     -15.610 -37.896  15.387  1.00  0.00    -0.266 OA
HETATM   16  N6  UNL     1     -17.790 -37.293  15.900  1.00  0.00    -0.354 N 
ATOM     17  H6  UNL     1     -18.493 -36.591  15.669  1.00  0.00     0.162 HD
BRANCH  16  18
HETATM   18  C8  UNL     1     -18.248 -38.243  16.839  1.00  0.00     0.153 C 
BRANCH  18  19
HETATM   19  C9  UNL     1     -19.415 -39.086  16.481  1.00  0.00     0.292 C 
BRANCH  19  20
HETATM   20  N7  UNL     1     -19.428 -39.733  15.211  1.00  0.00     0.093 N 
HETATM   21  C10 UNL     1     -19.990 -41.074  15.346  1.00  0.00     0.300 C 
HETATM   22  C11 UNL     1     -21.504 -41.015  15.228  1.00  0.00     0.262 C 
HETATM   23  N8  UNL     1     -21.896 -40.677  13.892  1.00  0.00    -0.072 N 
HETATM   24  C12 UNL     1     -20.805 -40.005  13.231  1.00  0.00     0.262 C 
ATOM     25  H82 UNL     1     -22.224 -41.489  13.369  1.00  0.00     0.277 HD
ATOM     26  H81 UNL     1     -22.758 -40.132  13.868  1.00  0.00     0.277 HD
HETATM   27  C13 UNL     1     -20.123 -39.021  14.189  1.00  0.00     0.300 C 
ENDBRANCH  19  20
ENDBRANCH  18  19
ENDBRANCH  16  18
ENDBRANCH  10  14
BRANCH  11  28
HETATM   28  C15 UNL     1     -16.118 -34.253  16.051  1.00  0.00     0.206 C 
BRANCH  28  29
HETATM   29  O4  UNL     1     -17.402 -34.108  16.555  1.00  0.00    -0.396 OA
ATOM     30  H4  UNL     1     -17.741 -33.223  16.496  1.00  0.00     0.209 HD
ENDBRANCH  28  29
ENDBRANCH  11  28
BRANCH   8  31
HETATM   31  N4  UNL     1     -16.738 -38.305  12.489  1.00  0.00    -0.233 N 
ATOM     32  H42 UNL     1     -16.536 -39.153  11.961  1.00  0.00     0.174 HD
ATOM     33  H41 UNL     1     -17.228 -38.332  13.383  1.00  0.00     0.174 HD
ENDBRANCH   8  31
BRANCH  12  34
HETATM   34  C17 UNL     1     -15.424 -32.617  13.595  1.00  0.00     0.097 A 
HETATM   35  C18 UNL     1     -16.402 -31.688  13.847  1.00  0.00     0.096 A 
HETATM   36  C19 UNL     1     -16.120 -30.338  13.906  1.00  0.00     0.212 A 
HETATM   37  O5  UNL     1     -17.017 -29.480  14.137  1.00  0.00    -0.285 OA
HETATM   38  C20 UNL     1     -14.810 -29.939  13.702  1.00  0.00     0.175 A 
HETATM   39  C21 UNL     1     -13.862 -30.911  13.452  1.00  0.00     0.222 A 
HETATM   40  O8  UNL     1     -14.199 -32.192  13.408  1.00  0.00    -0.285 OA
BRANCH  38  41
HETATM   41  O6  UNL     1     -14.437 -28.596  13.743  1.00  0.00    -0.353 OA
ATOM     42  H6  UNL     1     -14.363 -28.072  12.954  1.00  0.00     0.218 HD
ENDBRANCH  38  41
BRANCH  39  43
HETATM   43  O7  UNL     1     -12.555 -30.499  13.249  1.00  0.00    -0.339 OA
ATOM     44  H7  UNL     1     -12.409 -29.764  12.665  1.00  0.00     0.220 HD
ENDBRANCH  39  43
ENDBRANCH  12  34
BRANCH   1  45
HETATM   45  C3  UNL     1     -15.218 -33.526  10.510  1.00  0.00     0.260 C 
BRANCH  45  46
HETATM   46  C2  UNL     1     -16.327 -32.664  10.033  1.00  0.00     0.277 C 
HETATM   47  O2  UNL     1     -16.454 -31.507  10.503  1.00  0.00    -0.263 OA
BRANCH  46  48
HETATM   48  O1  UNL     1     -17.243 -33.077   9.082  1.00  0.00    -0.325 OA
HETATM   49  C1  UNL     1     -17.214 -32.725   7.723  1.00  0.00     0.213 C 
ENDBRANCH  46  48
ENDBRANCH  45  46
ENDBRANCH   1  45
TORSDOF 13
ENDMDL
MODEL 2
REMARK VINA RESULT: -7.425949451      1.779      2.985
REMARK  13 active torsions:
REMARK  status: ('A' for Active; 'I' for Inactive)
REMARK    1  A    between atoms: O1_2  and  C2_3 
REMARK    2  A    between atoms: C2_3  and  C3_5 
REMARK    3  A    between atoms: C3_5  and  N1_6 
REMARK    4  A    between atoms: C5_13  and  N4_14 
REMARK    5  A    between atoms: C6_18  and  C7_19 
REMARK       I    between atoms: C7_19  and  N6_21 
REMARK    6  A    between atoms: N6_21  and  C8_23 
REMARK    7  A    between atoms: C8_23  and  C9_24 
REMARK    8  A    between atoms: C9_24  and  N7_25 
REMARK    9  A    between atoms: C14_33  and  C15_34 
REMARK   10  A    between atoms: C15_34  and  O4_35 
REMARK   11  A    between atoms: C16_37  and  C17_38 
REMARK   12  A    between atoms: C20_42  and  O6_43 
REMARK   13  A    between atoms: C21_45  and  O7_46 
ROOT
HETATM    1  N1  UNL     1     -15.659 -34.737  11.158  1.00  0.00    -0.157 N 
HETATM    2  C4  UNL     1     -15.830 -35.787  10.299  1.00  0.00     0.694 A 
HETATM    3  N2  UNL     1     -15.705 -35.673   9.020  1.00  0.00    -0.234 N 
ATOM      4  H21 UNL     1     -15.833 -36.456   8.379  1.00  0.00     0.174 HD
ATOM      5  H22 UNL     1     -15.437 -34.777   8.613  1.00  0.00     0.174 HD
HETATM    6  N3  UNL     1     -16.182 -36.964  10.833  1.00  0.00    -0.022 N 
ATOM      7  H3  UNL     1     -16.318 -37.772  10.226  1.00  0.00     0.203 HD
HETATM    8  C5  UNL     1     -16.357 -37.093  12.153  1.00  0.00     0.699 A 
HETATM    9  N5  UNL     1     -16.186 -36.059  12.995  1.00  0.00    -0.124 N 
HETATM   10  C6  UNL     1     -16.317 -35.977  14.311  1.00  0.00     0.135 A 
HETATM   11  C14 UNL     1     -16.058 -34.710  14.728  1.00  0.00     0.015 A 
HETATM   12  C16 UNL     1     -15.749 -33.990  13.579  1.00  0.00     0.055 A 
HETATM   13  C22 UNL     1     -15.822 -34.820  12.472  1.00  0.00     0.161 A 
ENDROOT
BRANCH  10  14
HETATM   14  C7  UNL     1     -16.587 -37.058  15.280  1.00  0.00     0.270 C 
HETATM   15  O3  UNL     1     -15.634 -37.898  15.383  1.00  0.00    -0.266 OA
HETATM   16  N6  UNL     1     -17.749 -37.192  16.021  1.00  0.00    -0.354 N 
ATOM     17  H6  UNL     1     -18.429 -36.454  15.833  1.00  0.00     0.162 HD
BRANCH  16  18
HETATM   18  C8  UNL     1     -18.201 -38.124  16.981  1.00  0.00     0.153 C 
BRANCH  18  19
HETATM   19  C9  UNL     1     -17.761 -37.961  18.387  1.00  0.00     0.292 C 
BRANCH  19  20
HETATM   20  N7  UNL     1     -18.542 -37.148  19.260  1.00  0.00     0.093 N 
HETATM   21  C10 UNL     1     -17.679 -36.535  20.267  1.00  0.00     0.300 C 
HETATM   22  C11 UNL     1     -17.100 -35.237  19.729  1.00  0.00     0.262 C 
HETATM   23  N8  UNL     1     -18.122 -34.243  19.589  1.00  0.00    -0.072 N 
HETATM   24  C12 UNL     1     -19.406 -34.892  19.490  1.00  0.00     0.262 C 
ATOM     25  H82 UNL     1     -18.095 -33.552  20.338  1.00  0.00     0.277 HD
ATOM     26  H81 UNL     1     -17.946 -33.615  18.805  1.00  0.00     0.277 HD
HETATM   27  C13 UNL     1     -19.309 -36.140  18.605  1.00  0.00     0.300 C 
ENDBRANCH  19  20
ENDBRANCH  18  19
ENDBRANCH  16  18
ENDBRANCH  10  14
BRANCH  11  28
HETATM   28  C15 UNL     1     -16.092 -34.202  16.083  1.00  0.00     0.206 C 
BRANCH  28  29
HETATM   29  O4  UNL     1     -17.372 -33.968  16.563  1.00  0.00    -0.396 OA
ATOM     30  H4  UNL     1     -17.497 -33.094  16.914  1.00  0.00     0.209 HD
ENDBRANCH  28  29
ENDBRANCH  11  28
BRANCH   8  31
HETATM   31  N4  UNL     1     -16.750 -38.277  12.554  1.00  0.00    -0.233 N 
ATOM     32  H42 UNL     1     -17.489 -38.801  12.087  1.00  0.00     0.174 HD
ATOM     33  H41 UNL     1     -16.239 -38.661  13.349  1.00  0.00     0.174 HD
ENDBRANCH   8  31
BRANCH  12  34
HETATM   34  C17 UNL     1     -15.405 -32.588  13.612  1.00  0.00     0.097 A 
HETATM   35  C18 UNL     1     -16.374 -31.653  13.878  1.00  0.00     0.096 A 
HETATM   36  C19 UNL     1     -16.085 -30.305  13.926  1.00  0.00     0.212 A 
HETATM   37  O5  UNL     1     -16.975 -29.442  14.170  1.00  0.00    -0.285 OA
HETATM   38  C20 UNL     1     -14.778 -29.912  13.696  1.00  0.00     0.175 A 
HETATM   39  C21 UNL     1     -13.839 -30.889  13.434  1.00  0.00     0.222 A 
HETATM   40  O8  UNL     1     -14.181 -32.168  13.401  1.00  0.00    -0.285 OA
BRANCH  38  41
HETATM   41  O6  UNL     1     -14.398 -28.570  13.726  1.00  0.00    -0.353 OA
ATOM     42  H6  UNL     1     -13.502 -28.307  13.900  1.00  0.00     0.218 HD
ENDBRANCH  38  41
BRANCH  39  43
HETATM   43  O7  UNL     1     -12.534 -30.483  13.205  1.00  0.00    -0.339 OA
ATOM     44  H7  UNL     1     -11.975 -30.344  13.962  1.00  0.00     0.220 HD
ENDBRANCH  39  43
ENDBRANCH  12  34
BRANCH   1  45
HETATM   45  C3  UNL     1     -15.219 -33.520  10.533  1.00  0.00     0.260 C 
BRANCH  45  46
HETATM   46  C2  UNL     1     -16.327 -32.658  10.051  1.00  0.00     0.277 C 
HETATM   47  O2  UNL     1     -16.467 -31.508  10.531  1.00  0.00    -0.263 OA
BRANCH  46  48
HETATM   48  O1  UNL     1     -17.229 -33.066   9.083  1.00  0.00    -0.325 OA
HETATM   49  C1  UNL     1     -17.191 -32.692   7.731  1.00  0.00     0.213 C 
ENDBRANCH  46  48
ENDBRANCH  45  46
ENDBRANCH   1  45
TORSDOF 13
ENDMDL
MODEL 3
REMARK VINA RESULT: -7.352854217      0.807      1.614
REMARK  13 active torsions:
REMARK  status: ('A' for Active; 'I' for Inactive)
REMARK    1  A    between atoms: O1_2  and  C2_3 
REMARK    2  A    between atoms: C2_3  and  C3_5 
REMARK    3  A    between atoms: C3_5  and  N1_6 
REMARK    4  A    between atoms: C5_13  and  N4_14 
REMARK    5  A    between atoms: C6_18  and  C7_19 
REMARK       I    between atoms: C7_19  and  N6_21 
REMARK    6  A    between atoms: N6_21  and  C8_23 
REMARK    7  A    between atoms: C8_23  and  C9_24 
REMARK    8  A    between atoms: C9_24  and  N7_25 
REMARK    9  A    between atoms: C14_33  and  C15_34 
REMARK   10  A    between atoms: C15_34  and  O4_35 
REMARK   11  A    between atoms: C16_37  and  C17_38 
REMARK   12  A    between atoms: C20_42  and  O6_43 
REMARK   13  A    between atoms: C21_45  and  O7_46 
ROOT
HETATM    1  N1  UNL     1     -15.636 -34.577  11.159  1.00  0.00    -0.157 N 
HETATM    2  C4  UNL     1     -15.727 -35.594  10.250  1.00  0.00     0.694 A 
HETATM    3  N2  UNL     1     -15.571 -35.416   8.982  1.00  0.00    -0.234 N 
ATOM      4  H21 UNL     1     -15.639 -36.174   8.304  1.00  0.00     0.174 HD
ATOM      5  H22 UNL     1     -15.338 -34.490   8.623  1.00  0.00     0.174 HD
HETATM    6  N3  UNL     1     -16.033 -36.810  10.721  1.00  0.00    -0.022 N 
ATOM      7  H3  UNL     1     -16.109 -37.596  10.075  1.00  0.00     0.203 HD
HETATM    8  C5  UNL     1     -16.240 -37.008  12.028  1.00  0.00     0.699 A 
HETATM    9  N5  UNL     1     -16.148 -36.006  12.919  1.00  0.00    -0.124 N 
HETATM   10  C6  UNL     1     -16.321 -35.990  14.233  1.00  0.00     0.135 A 
HETATM   11  C14 UNL     1     -16.141 -34.732  14.712  1.00  0.00     0.015 A 
HETATM   12  C16 UNL     1     -15.835 -33.945  13.607  1.00  0.00     0.055 A 
HETATM   13  C22 UNL     1     -15.832 -34.728  12.462  1.00  0.00     0.161 A 
ENDROOT
BRANCH  10  14
HETATM   14  C7  UNL     1     -16.564 -37.126  15.144  1.00  0.00     0.270 C 
HETATM   15  O3  UNL     1     -15.526 -37.834  15.361  1.00  0.00    -0.266 OA
HETATM   16  N6  UNL     1     -17.782 -37.436  15.725  1.00  0.00    -0.354 N 
ATOM     17  H6  UNL     1     -18.526 -36.791  15.458  1.00  0.00     0.162 HD
BRANCH  16  18
HETATM   18  C8  UNL     1     -18.222 -38.449  16.605  1.00  0.00     0.153 C 
BRANCH  18  19
HETATM   19  C9  UNL     1     -19.567 -39.036  16.393  1.00  0.00     0.292 C 
BRANCH  19  20
HETATM   20  N7  UNL     1     -19.683 -40.214  15.598  1.00  0.00     0.093 N 
HETATM   21  C10 UNL     1     -20.696 -40.014  14.565  1.00  0.00     0.300 C 
HETATM   22  C11 UNL     1     -20.067 -39.364  13.344  1.00  0.00     0.262 C 
HETATM   23  N8  UNL     1     -19.171 -40.271  12.690  1.00  0.00    -0.072 N 
HETATM   24  C12 UNL     1     -18.744 -41.278  13.629  1.00  0.00     0.262 C 
ATOM     25  H82 UNL     1     -19.579 -40.676  11.847  1.00  0.00     0.277 HD
ATOM     26  H81 UNL     1     -18.385 -39.790  12.254  1.00  0.00     0.277 HD
HETATM   27  C13 UNL     1     -18.464 -40.648  14.999  1.00  0.00     0.300 C 
ENDBRANCH  19  20
ENDBRANCH  18  19
ENDBRANCH  16  18
ENDBRANCH  10  14
BRANCH  11  28
HETATM   28  C15 UNL     1     -16.240 -34.288  16.087  1.00  0.00     0.206 C 
BRANCH  28  29
HETATM   29  O4  UNL     1     -17.538 -34.264  16.577  1.00  0.00    -0.396 OA
ATOM     30  H4  UNL     1     -17.852 -35.110  16.874  1.00  0.00     0.209 HD
ENDBRANCH  28  29
ENDBRANCH  11  28
BRANCH   8  31
HETATM   31  N4  UNL     1     -16.583 -38.227  12.364  1.00  0.00    -0.233 N 
ATOM     32  H42 UNL     1     -16.302 -38.656  13.245  1.00  0.00     0.174 HD
ATOM     33  H41 UNL     1     -17.185 -38.711  11.699  1.00  0.00     0.174 HD
ENDBRANCH   8  31
BRANCH  12  34
HETATM   34  C17 UNL     1     -15.566 -32.531  13.712  1.00  0.00     0.097 A 
HETATM   35  C18 UNL     1     -14.290 -32.063  13.520  1.00  0.00     0.096 A 
HETATM   36  C19 UNL     1     -13.991 -30.719  13.605  1.00  0.00     0.212 A 
HETATM   37  O5  UNL     1     -12.818 -30.285  13.430  1.00  0.00    -0.285 OA
HETATM   38  C20 UNL     1     -15.023 -29.841  13.892  1.00  0.00     0.175 A 
HETATM   39  C21 UNL     1     -16.289 -30.359  14.075  1.00  0.00     0.222 A 
HETATM   40  O8  UNL     1     -16.510 -31.662  13.981  1.00  0.00    -0.285 OA
BRANCH  38  41
HETATM   41  O6  UNL     1     -14.810 -28.466  13.996  1.00  0.00    -0.353 OA
ATOM     42  H6  UNL     1     -15.467 -27.885  14.360  1.00  0.00     0.218 HD
ENDBRANCH  38  41
BRANCH  39  43
HETATM   43  O7  UNL     1     -17.313 -29.471  14.362  1.00  0.00    -0.339 OA
ATOM     44  H7  UNL     1     -18.123 -29.827  14.709  1.00  0.00     0.220 HD
ENDBRANCH  39  43
ENDBRANCH  12  34
BRANCH   1  45
HETATM   45  C3  UNL     1     -15.241 -33.312  10.602  1.00  0.00     0.260 C 
BRANCH  45  46
HETATM   46  C2  UNL     1     -16.379 -32.478  10.142  1.00  0.00     0.277 C 
HETATM   47  O2  UNL     1     -16.557 -31.343  10.648  1.00  0.00    -0.263 OA
BRANCH  46  48
HETATM   48  O1  UNL     1     -17.269 -32.894   9.167  1.00  0.00    -0.325 OA
HETATM   49  C1  UNL     1     -17.178 -32.582   7.801  1.00  0.00     0.213 C 
ENDBRANCH  46  48
ENDBRANCH  45  46
ENDBRANCH   1  45
TORSDOF 13
ENDMDL
MODEL 4
REMARK VINA RESULT: -7.254207189      1.729      3.148
REMARK  13 active torsions:
REMARK  status: ('A' for Active; 'I' for Inactive)
REMARK    1  A    between atoms: O1_2  and  C2_3 
REMARK    2  A    between atoms: C2_3  and  C3_5 
REMARK    3  A    between atoms: C3_5  and  N1_6 
REMARK    4  A    between atoms: C5_13  and  N4_14 
REMARK    5  A    between atoms: C6_18  and  C7_19 
REMARK       I    between atoms: C7_19  and  N6_21 
REMARK    6  A    between atoms: N6_21  and  C8_23 
REMARK    7  A    between atoms: C8_23  and  C9_24 
REMARK    8  A    between atoms: C9_24  and  N7_25 
REMARK    9  A    between atoms: C14_33  and  C15_34 
REMARK   10  A    between atoms: C15_34  and  O4_35 
REMARK   11  A    between atoms: C16_37  and  C17_38 
REMARK   12  A    between atoms: C20_42  and  O6_43 
REMARK   13  A    between atoms: C21_45  and  O7_46 
ROOT
HETATM    1  N1  UNL     1     -15.626 -34.705  11.201  1.00  0.00    -0.157 N 
HETATM    2  C4  UNL     1     -15.722 -35.738  10.310  1.00  0.00     0.694 A 
HETATM    3  N2  UNL     1     -15.552 -35.586   9.040  1.00  0.00    -0.234 N 
ATOM      4  H21 UNL     1     -15.623 -36.356   8.376  1.00  0.00     0.174 HD
ATOM      5  H22 UNL     1     -15.304 -34.670   8.666  1.00  0.00     0.174 HD
HETATM    6  N3  UNL     1     -16.047 -36.941  10.801  1.00  0.00    -0.022 N 
ATOM      7  H3  UNL     1     -16.126 -37.738  10.169  1.00  0.00     0.203 HD
HETATM    8  C5  UNL     1     -16.268 -37.111  12.109  1.00  0.00     0.699 A 
HETATM    9  N5  UNL     1     -16.171 -36.094  12.982  1.00  0.00    -0.124 N 
HETATM   10  C6  UNL     1     -16.356 -36.051  14.295  1.00  0.00     0.135 A 
HETATM   11  C14 UNL     1     -16.164 -34.786  14.752  1.00  0.00     0.015 A 
HETATM   12  C16 UNL     1     -15.840 -34.025  13.634  1.00  0.00     0.055 A 
HETATM   13  C22 UNL     1     -15.836 -34.829  12.505  1.00  0.00     0.161 A 
ENDROOT
BRANCH  10  14
HETATM   14  C7  UNL     1     -16.620 -37.166  15.225  1.00  0.00     0.270 C 
HETATM   15  O3  UNL     1     -15.619 -37.941  15.388  1.00  0.00    -0.266 OA
HETATM   16  N6  UNL     1     -17.821 -37.395  15.875  1.00  0.00    -0.354 N 
ATOM     17  H6  UNL     1     -18.535 -36.703  15.646  1.00  0.00     0.162 HD
BRANCH  16  18
HETATM   18  C8  UNL     1     -18.276 -38.375  16.784  1.00  0.00     0.153 C 
BRANCH  18  19
HETATM   19  C9  UNL     1     -17.795 -38.316  18.186  1.00  0.00     0.292 C 
BRANCH  19  20
HETATM   20  N7  UNL     1     -18.557 -37.582  19.141  1.00  0.00     0.093 N 
HETATM   21  C10 UNL     1     -17.665 -36.998  20.140  1.00  0.00     0.300 C 
HETATM   22  C11 UNL     1     -17.154 -35.652  19.652  1.00  0.00     0.262 C 
HETATM   23  N8  UNL     1     -18.214 -34.688  19.619  1.00  0.00    -0.072 N 
HETATM   24  C12 UNL     1     -19.480 -35.374  19.545  1.00  0.00     0.262 C 
ATOM     25  H82 UNL     1     -18.171 -34.040  20.406  1.00  0.00     0.277 HD
ATOM     26  H81 UNL     1     -18.096 -34.010  18.867  1.00  0.00     0.277 HD
HETATM   27  C13 UNL     1     -19.388 -36.565  18.584  1.00  0.00     0.300 C 
ENDBRANCH  19  20
ENDBRANCH  18  19
ENDBRANCH  16  18
ENDBRANCH  10  14
BRANCH  11  28
HETATM   28  C15 UNL     1     -16.271 -34.316  16.117  1.00  0.00     0.206 C 
BRANCH  28  29
HETATM   29  O4  UNL     1     -17.576 -34.200  16.570  1.00  0.00    -0.396 OA
ATOM     30  H4  UNL     1     -17.684 -34.412  17.490  1.00  0.00     0.209 HD
ENDBRANCH  28  29
ENDBRANCH  11  28
BRANCH   8  31
HETATM   31  N4  UNL     1     -16.628 -38.320  12.466  1.00  0.00    -0.233 N 
ATOM     32  H42 UNL     1     -17.415 -38.809  12.040  1.00  0.00     0.174 HD
ATOM     33  H41 UNL     1     -16.043 -38.759  13.177  1.00  0.00     0.174 HD
ENDBRANCH   8  31
BRANCH  12  34
HETATM   34  C17 UNL     1     -15.553 -32.612  13.715  1.00  0.00     0.097 A 
HETATM   35  C18 UNL     1     -14.274 -32.161  13.507  1.00  0.00     0.096 A 
HETATM   36  C19 UNL     1     -13.960 -30.819  13.569  1.00  0.00     0.212 A 
HETATM   37  O5  UNL     1     -12.783 -30.401  13.378  1.00  0.00    -0.285 OA
HETATM   38  C20 UNL     1     -14.980 -29.926  13.848  1.00  0.00     0.175 A 
HETATM   39  C21 UNL     1     -16.250 -30.427  14.049  1.00  0.00     0.222 A 
HETATM   40  O8  UNL     1     -16.486 -31.728  13.977  1.00  0.00    -0.285 OA
BRANCH  38  41
HETATM   41  O6  UNL     1     -14.751 -28.552  13.929  1.00  0.00    -0.353 OA
ATOM     42  H6  UNL     1     -15.336 -27.923  13.524  1.00  0.00     0.218 HD
ENDBRANCH  38  41
BRANCH  39  43
HETATM   43  O7  UNL     1     -17.263 -29.523  14.329  1.00  0.00    -0.339 OA
ATOM     44  H7  UNL     1     -17.702 -29.597  15.168  1.00  0.00     0.220 HD
ENDBRANCH  39  43
ENDBRANCH  12  34
BRANCH   1  45
HETATM   45  C3  UNL     1     -15.211 -33.455  10.624  1.00  0.00     0.260 C 
BRANCH  45  46
HETATM   46  C2  UNL     1     -16.335 -32.616  10.140  1.00  0.00     0.277 C 
HETATM   47  O2  UNL     1     -16.506 -31.473  10.629  1.00  0.00    -0.263 OA
BRANCH  46  48
HETATM   48  O1  UNL     1     -17.218 -33.035   9.161  1.00  0.00    -0.325 OA
HETATM   49  C1  UNL     1     -17.176 -32.649   7.812  1.00  0.00     0.213 C 
ENDBRANCH  46  48
ENDBRANCH  45  46
ENDBRANCH   1  45
TORSDOF 13
ENDMDL
MODEL 5
REMARK VINA RESULT: -7.239513676      2.231      3.235
REMARK  13 active torsions:
REMARK  status: ('A' for Active; 'I' for Inactive)
REMARK    1  A    between atoms: O1_2  and  C2_3 
REMARK    2  A    between atoms: C2_3  and  C3_5 
REMARK    3  A    between atoms: C3_5  and  N1_6 
REMARK    4  A    between atoms: C5_13  and  N4_14 
REMARK    5  A    between atoms: C6_18  and  C7_19 
REMARK       I    between atoms: C7_19  and  N6_21 
REMARK    6  A    between atoms: N6_21  and  C8_23 
REMARK    7  A    between atoms: C8_23  and  C9_24 
REMARK    8  A    between atoms: C9_24  and  N7_25 
REMARK    9  A    between atoms: C14_33  and  C15_34 
REMARK   10  A    between atoms: C15_34  and  O4_35 
REMARK   11  A    between atoms: C16_37  and  C17_38 
REMARK   12  A    between atoms: C20_42  and  O6_43 
REMARK   13  A    between atoms: C21_45  and  O7_46 
ROOT
HETATM    1  N1  UNL     1     -15.656 -34.753  11.214  1.00  0.00    -0.157 N 
HETATM    2  C4  UNL     1     -15.812 -35.812  10.363  1.00  0.00     0.694 A 
HETATM    3  N2  UNL     1     -15.658 -35.712   9.087  1.00  0.00    -0.234 N 
ATOM      4  H21 UNL     1     -15.775 -36.502   8.452  1.00  0.00     0.174 HD
ATOM      5  H22 UNL     1     -15.377 -34.822   8.676  1.00  0.00     0.174 HD
HETATM    6  N3  UNL     1     -16.182 -36.981  10.903  1.00  0.00    -0.022 N 
ATOM      7  H3  UNL     1     -16.308 -37.795  10.301  1.00  0.00     0.203 HD
HETATM    8  C5  UNL     1     -16.388 -37.095  12.220  1.00  0.00     0.699 A 
HETATM    9  N5  UNL     1     -16.231 -36.052  13.053  1.00  0.00    -0.124 N 
HETATM   10  C6  UNL     1     -16.392 -35.954  14.366  1.00  0.00     0.135 A 
HETATM   11  C14 UNL     1     -16.136 -34.684  14.774  1.00  0.00     0.015 A 
HETATM   12  C16 UNL     1     -15.798 -33.978  13.624  1.00  0.00     0.055 A 
HETATM   13  C22 UNL     1     -15.849 -34.821  12.525  1.00  0.00     0.161 A 
ENDROOT
BRANCH  10  14
HETATM   14  C7  UNL     1     -16.689 -37.023  15.340  1.00  0.00     0.270 C 
HETATM   15  O3  UNL     1     -17.936 -37.198  15.539  1.00  0.00    -0.266 OA
HETATM   16  N6  UNL     1     -15.740 -37.783  16.003  1.00  0.00    -0.354 N 
ATOM     17  H6  UNL     1     -14.783 -37.531  15.755  1.00  0.00     0.162 HD
BRANCH  16  18
HETATM   18  C8  UNL     1     -15.806 -38.831  16.948  1.00  0.00     0.153 C 
BRANCH  18  19
HETATM   19  C9  UNL     1     -15.135 -38.644  18.258  1.00  0.00     0.292 C 
BRANCH  19  20
HETATM   20  N7  UNL     1     -15.900 -38.149  19.355  1.00  0.00     0.093 N 
HETATM   21  C10 UNL     1     -15.181 -37.055  20.003  1.00  0.00     0.300 C 
HETATM   22  C11 UNL     1     -15.501 -35.742  19.307  1.00  0.00     0.262 C 
HETATM   23  N8  UNL     1     -16.863 -35.363  19.539  1.00  0.00    -0.072 N 
HETATM   24  C12 UNL     1     -17.630 -36.532  19.889  1.00  0.00     0.262 C 
ATOM     25  H82 UNL     1     -16.944 -34.624  20.238  1.00  0.00     0.277 HD
ATOM     26  H81 UNL     1     -17.264 -34.859  18.748  1.00  0.00     0.277 HD
HETATM   27  C13 UNL     1     -17.218 -37.724  19.015  1.00  0.00     0.300 C 
ENDBRANCH  19  20
ENDBRANCH  18  19
ENDBRANCH  16  18
ENDBRANCH  10  14
BRANCH  11  28
HETATM   28  C15 UNL     1     -16.198 -34.161  16.123  1.00  0.00     0.206 C 
BRANCH  28  29
HETATM   29  O4  UNL     1     -17.471 -34.178  16.673  1.00  0.00    -0.396 OA
ATOM     30  H4  UNL     1     -18.122 -34.599  16.124  1.00  0.00     0.209 HD
ENDBRANCH  28  29
ENDBRANCH  11  28
BRANCH   8  31
HETATM   31  N4  UNL     1     -16.795 -38.272  12.625  1.00  0.00    -0.233 N 
ATOM     32  H42 UNL     1     -17.349 -38.896  12.039  1.00  0.00     0.174 HD
ATOM     33  H41 UNL     1     -16.489 -38.543  13.559  1.00  0.00     0.174 HD
ENDBRANCH   8  31
BRANCH  12  34
HETATM   34  C17 UNL     1     -15.448 -32.577  13.650  1.00  0.00     0.097 A 
HETATM   35  C18 UNL     1     -16.416 -31.636  13.894  1.00  0.00     0.096 A 
HETATM   36  C19 UNL     1     -16.122 -30.289  13.934  1.00  0.00     0.212 A 
HETATM   37  O5  UNL     1     -17.011 -29.420  14.158  1.00  0.00    -0.285 OA
HETATM   38  C20 UNL     1     -14.810 -29.903  13.719  1.00  0.00     0.175 A 
HETATM   39  C21 UNL     1     -13.872 -30.887  13.478  1.00  0.00     0.222 A 
HETATM   40  O8  UNL     1     -14.219 -32.165  13.452  1.00  0.00    -0.285 OA
BRANCH  38  41
HETATM   41  O6  UNL     1     -14.425 -28.563  13.742  1.00  0.00    -0.353 OA
ATOM     42  H6  UNL     1     -14.338 -28.054  12.944  1.00  0.00     0.218 HD
ENDBRANCH  38  41
BRANCH  39  43
HETATM   43  O7  UNL     1     -12.562 -30.488  13.263  1.00  0.00    -0.339 OA
ATOM     44  H7  UNL     1     -12.384 -29.944  12.505  1.00  0.00     0.220 HD
ENDBRANCH  39  43
ENDBRANCH  12  34
BRANCH   1  45
HETATM   45  C3  UNL     1     -15.196 -33.545  10.586  1.00  0.00     0.260 C 
BRANCH  45  46
HETATM   46  C2  UNL     1     -16.289 -32.681  10.075  1.00  0.00     0.277 C 
HETATM   47  O2  UNL     1     -16.416 -31.516  10.524  1.00  0.00    -0.263 OA
BRANCH  46  48
HETATM   48  O1  UNL     1     -17.190 -33.101   9.112  1.00  0.00    -0.325 OA
HETATM   49  C1  UNL     1     -17.182 -32.704   7.766  1.00  0.00     0.213 C 
ENDBRANCH  46  48
ENDBRANCH  45  46
ENDBRANCH   1  45
TORSDOF 13
ENDMDL
