MODEL 1
REMARK VINA RESULT: -4.239576276      0.000      0.000
REMARK  4 active torsions:
REMARK  status: ('A' for Active; 'I' for Inactive)
REMARK    1  A    between atoms: C3_3  and  C4_4 
REMARK    2  A    between atoms: C5_5  and  O1_6 
REMARK    3  A    between atoms: C6_8  and  O2_9 
REMARK    4  A    between atoms: C7_11  and  O3_12 
ROOT
HETATM    1  C4  UNL     1      19.846   5.540   5.020  1.00  0.00     0.071 C 
HETATM    2  C5  UNL     1      19.654   6.283   6.344  1.00  0.00     0.159 C 
HETATM    3  C6  UNL     1      18.201   6.445   5.973  1.00  0.00     0.177 C 
HETATM    4  C7  UNL     1      18.608   6.174   4.541  1.00  0.00     0.162 C 
ENDROOT
BRANCH   1   5
HETATM    5  C3  UNL     1      19.954   4.115   5.271  1.00  0.00    -0.021 C 
HETATM    6  C2  UNL     1      20.401   3.453   6.302  1.00  0.00    -0.034 C 
HETATM    7  C1  UNL     1      20.424   1.967   6.358  1.00  0.00     0.036 C 
ENDBRANCH   1   5
BRANCH   2   8
HETATM    8  O1  UNL     1      20.284   7.527   6.304  1.00  0.00    -0.392 OA
ATOM      9  H1  UNL     1      19.663   8.223   6.488  1.00  0.00     0.210 HD
ENDBRANCH   2   8
BRANCH   4  10
HETATM   10  O3  UNL     1      17.682   5.490   3.818  1.00  0.00    -0.387 OA
HETATM   11  C8  UNL     1      17.423   6.175   2.636  1.00  0.00     0.202 C 
ENDBRANCH   4  10
BRANCH   3  12
HETATM   12  O2  UNL     1      17.372   5.489   6.556  1.00  0.00    -0.390 OA
ATOM     13  H2  UNL     1      16.497   5.472   6.185  1.00  0.00     0.210 HD
ENDBRANCH   3  12
TORSDOF 4
ENDMDL
MODEL 2
REMARK VINA RESULT: -4.117084357      4.577      6.177
REMARK  4 active torsions:
REMARK  status: ('A' for Active; 'I' for Inactive)
REMARK    1  A    between atoms: C3_3  and  C4_4 
REMARK    2  A    between atoms: C5_5  and  O1_6 
REMARK    3  A    between atoms: C6_8  and  O2_9 
REMARK    4  A    between atoms: C7_11  and  O3_12 
ROOT
HETATM    1  C4  UNL     1      17.603   2.252   8.938  1.00  0.00     0.071 C 
HETATM    2  C5  UNL     1      17.671   0.761   8.597  1.00  0.00     0.159 C 
HETATM    3  C6  UNL     1      19.108   0.980   8.194  1.00  0.00     0.177 C 
HETATM    4  C7  UNL     1      18.778   2.452   8.074  1.00  0.00     0.162 C 
ENDROOT
BRANCH   1   5
HETATM    5  C3  UNL     1      17.647   2.426  10.377  1.00  0.00    -0.021 C 
HETATM    6  C2  UNL     1      17.242   1.659  11.350  1.00  0.00    -0.034 C 
HETATM    7  C1  UNL     1      17.383   2.031  12.784  1.00  0.00     0.036 C 
ENDBRANCH   1   5
BRANCH   2   8
HETATM    8  O1  UNL     1      16.908   0.482   7.463  1.00  0.00    -0.392 OA
ATOM      9  H1  UNL     1      16.372  -0.290   7.602  1.00  0.00     0.210 HD
ENDBRANCH   2   8
BRANCH   4  10
HETATM   10  O3  UNL     1      19.796   3.282   8.425  1.00  0.00    -0.387 OA
HETATM   11  C8  UNL     1      19.924   4.283   7.468  1.00  0.00     0.202 C 
ENDBRANCH   4  10
BRANCH   3  12
HETATM   12  O2  UNL     1      20.020   0.646   9.193  1.00  0.00    -0.390 OA
ATOM     13  H2  UNL     1      20.420  -0.207   9.068  1.00  0.00     0.210 HD
ENDBRANCH   3  12
TORSDOF 4
ENDMDL
MODEL 3
REMARK VINA RESULT: -4.079568435      2.161      2.908
REMARK  4 active torsions:
REMARK  status: ('A' for Active; 'I' for Inactive)
REMARK    1  A    between atoms: C3_3  and  C4_4 
REMARK    2  A    between atoms: C5_5  and  O1_6 
REMARK    3  A    between atoms: C6_8  and  O2_9 
REMARK    4  A    between atoms: C7_11  and  O3_12 
ROOT
HETATM    1  C4  UNL     1      19.635   5.326   7.134  1.00  0.00     0.071 C 
HETATM    2  C5  UNL     1      19.200   6.672   6.549  1.00  0.00     0.159 C 
HETATM    3  C6  UNL     1      18.829   5.935   5.286  1.00  0.00     0.177 C 
HETATM    4  C7  UNL     1      19.730   4.815   5.757  1.00  0.00     0.162 C 
ENDROOT
BRANCH   1   5
HETATM    5  C3  UNL     1      18.638   4.859   8.079  1.00  0.00    -0.021 C 
HETATM    6  C2  UNL     1      18.587   3.785   8.817  1.00  0.00    -0.034 C 
HETATM    7  C1  UNL     1      17.454   3.491   9.735  1.00  0.00     0.036 C 
ENDBRANCH   1   5
BRANCH   2   8
HETATM    8  O1  UNL     1      20.309   7.482   6.305  1.00  0.00    -0.392 OA
ATOM      9  H1  UNL     1      20.173   8.351   6.664  1.00  0.00     0.210 HD
ENDBRANCH   2   8
BRANCH   4  10
HETATM   10  O3  UNL     1      19.296   3.571   5.421  1.00  0.00    -0.387 OA
HETATM   11  C8  UNL     1      20.351   2.671   5.530  1.00  0.00     0.202 C 
ENDBRANCH   4  10
BRANCH   3  12
HETATM   12  O2  UNL     1      17.473   5.625   5.205  1.00  0.00    -0.390 OA
ATOM     13  H2  UNL     1      17.176   5.048   5.900  1.00  0.00     0.210 HD
ENDBRANCH   3  12
TORSDOF 4
ENDMDL
MODEL 4
REMARK VINA RESULT: -3.964982392      2.993      4.174
REMARK  4 active torsions:
REMARK  status: ('A' for Active; 'I' for Inactive)
REMARK    1  A    between atoms: C3_3  and  C4_4 
REMARK    2  A    between atoms: C5_5  and  O1_6 
REMARK    3  A    between atoms: C6_8  and  O2_9 
REMARK    4  A    between atoms: C7_11  and  O3_12 
ROOT
HETATM    1  C4  UNL     1      18.497   3.607   6.701  1.00  0.00     0.071 C 
HETATM    2  C5  UNL     1      19.271   2.313   6.434  1.00  0.00     0.159 C 
HETATM    3  C6  UNL     1      20.540   3.123   6.533  1.00  0.00     0.177 C 
HETATM    4  C7  UNL     1      19.694   4.351   6.278  1.00  0.00     0.162 C 
ENDROOT
BRANCH   1   5
HETATM    5  C3  UNL     1      18.010   3.611   8.067  1.00  0.00    -0.021 C 
HETATM    6  C2  UNL     1      17.779   2.637   8.902  1.00  0.00    -0.034 C 
HETATM    7  C1  UNL     1      17.271   2.861  10.283  1.00  0.00     0.036 C 
ENDBRANCH   1   5
BRANCH   2   8
HETATM    8  O1  UNL     1      19.088   1.896   5.115  1.00  0.00    -0.392 OA
ATOM      9  H1  UNL     1      19.350   0.988   5.013  1.00  0.00     0.210 HD
ENDBRANCH   2   8
BRANCH   4  10
HETATM   10  O3  UNL     1      20.117   5.465   6.934  1.00  0.00    -0.387 OA
HETATM   11  C8  UNL     1      20.054   6.556   6.075  1.00  0.00     0.202 C 
ENDBRANCH   4  10
BRANCH   3  12
HETATM   12  O2  UNL     1      21.143   3.054   7.787  1.00  0.00    -0.390 OA
ATOM     13  H2  UNL     1      21.573   2.223   7.954  1.00  0.00     0.210 HD
ENDBRANCH   3  12
TORSDOF 4
ENDMDL
MODEL 5
REMARK VINA RESULT: -3.959683829      3.378      5.080
REMARK  4 active torsions:
REMARK  status: ('A' for Active; 'I' for Inactive)
REMARK    1  A    between atoms: C3_3  and  C4_4 
REMARK    2  A    between atoms: C5_5  and  O1_6 
REMARK    3  A    between atoms: C6_8  and  O2_9 
REMARK    4  A    between atoms: C7_11  and  O3_12 
ROOT
HETATM    1  C4  UNL     1      19.298   2.808   8.343  1.00  0.00     0.071 C 
HETATM    2  C5  UNL     1      19.368   1.294   8.125  1.00  0.00     0.159 C 
HETATM    3  C6  UNL     1      17.866   1.266   8.259  1.00  0.00     0.177 C 
HETATM    4  C7  UNL     1      17.971   2.608   8.949  1.00  0.00     0.162 C 
ENDROOT
BRANCH   1   5
HETATM    5  C3  UNL     1      19.491   3.493   7.081  1.00  0.00    -0.021 C 
HETATM    6  C2  UNL     1      20.109   3.133   5.990  1.00  0.00    -0.034 C 
HETATM    7  C1  UNL     1      20.192   4.001   4.785  1.00  0.00     0.036 C 
ENDBRANCH   1   5
BRANCH   2   8
HETATM    8  O1  UNL     1      19.945   0.665   9.228  1.00  0.00    -0.392 OA
ATOM      9  H1  UNL     1      20.814   0.345   9.014  1.00  0.00     0.210 HD
ENDBRANCH   2   8
BRANCH   4  10
HETATM   10  O3  UNL     1      16.932   3.448   8.696  1.00  0.00    -0.387 OA
HETATM   11  C8  UNL     1      16.395   3.891   9.900  1.00  0.00     0.202 C 
ENDBRANCH   4  10
BRANCH   3  12
HETATM   12  O2  UNL     1      17.201   1.267   7.034  1.00  0.00    -0.390 OA
ATOM     13  H2  UNL     1      17.444   0.539   6.473  1.00  0.00     0.210 HD
ENDBRANCH   3  12
TORSDOF 4
ENDMDL
