MODEL 1
REMARK VINA RESULT: -5.394266901      0.000      0.000
REMARK  2 active torsions:
REMARK  status: ('A' for Active; 'I' for Inactive)
REMARK    1  A    between atoms: C9_16  and  N4_17 
REMARK    2  A    between atoms: N4_17  and  O1_19 
ROOT
HETATM    1  N1  UNL     1       9.658  28.354 -17.700  1.00  0.00    -0.386 N 
ATOM      2  H11 UNL     1      10.222  28.057 -16.905  1.00  0.00     0.157 HD
ATOM      3  H12 UNL     1       8.709  27.984 -17.698  1.00  0.00     0.157 HD
HETATM    4  C1  UNL     1      10.105  29.118 -18.614  1.00  0.00     0.111 C 
HETATM    5  N2  UNL     1       9.320  29.531 -19.721  1.00  0.00    -0.372 N 
ATOM      6  H2  UNL     1       8.311  29.384 -19.674  1.00  0.00     0.161 HD
HETATM    7  C2  UNL     1       9.860  30.148 -20.912  1.00  0.00     0.087 C 
HETATM    8  C3  UNL     1       9.178  29.471 -22.090  1.00  0.00     0.025 C 
HETATM    9  C4  UNL     1      10.134  28.313 -22.348  1.00  0.00     0.002 C 
HETATM   10  C5  UNL     1      11.461  29.054 -22.351  1.00  0.00     0.007 C 
HETATM   11  C6  UNL     1      11.320  29.915 -21.106  1.00  0.00     0.012 C 
HETATM   12  C7  UNL     1      12.037  29.261 -19.999  1.00  0.00     0.058 C 
HETATM   13  C8  UNL     1      11.524  29.671 -18.618  1.00  0.00     0.146 A 
HETATM   14  N3  UNL     1      11.552  30.996 -18.301  1.00  0.00    -0.344 N 
ATOM     15  H3  UNL     1      11.117  31.788 -18.775  1.00  0.00     0.163 HD
HETATM   16  C9  UNL     1      12.248  30.973 -17.284  1.00  0.00     0.164 A 
HETATM   17  S1  UNL     1      12.510  29.244 -17.256  1.00  0.00    -0.053 SA
ENDROOT
BRANCH  16  18
HETATM   18  N4  UNL     1      12.677  32.092 -16.422  1.00  0.00    -0.247 N 
ATOM     19  H4  UNL     1      12.011  32.562 -15.810  1.00  0.00     0.196 HD
BRANCH  18  20
HETATM   20  O1  UNL     1      13.954  32.476 -16.462  1.00  0.00    -0.288 OA
ATOM     21  H1  UNL     1      14.194  33.301 -16.058  1.00  0.00     0.244 HD
ENDBRANCH  18  20
ENDBRANCH  16  18
TORSDOF 2
ENDMDL
MODEL 2
REMARK VINA RESULT: -5.292179892     11.989     13.252
REMARK  2 active torsions:
REMARK  status: ('A' for Active; 'I' for Inactive)
REMARK    1  A    between atoms: C9_16  and  N4_17 
REMARK    2  A    between atoms: N4_17  and  O1_19 
ROOT
HETATM    1  N1  UNL     1       7.620  19.529 -20.874  1.00  0.00    -0.386 N 
ATOM      2  H11 UNL     1       7.806  20.410 -21.354  1.00  0.00     0.157 HD
ATOM      3  H12 UNL     1       6.769  19.532 -20.314  1.00  0.00     0.157 HD
HETATM    4  C1  UNL     1       8.387  18.518 -20.969  1.00  0.00     0.111 C 
HETATM    5  N2  UNL     1       8.129  17.293 -20.303  1.00  0.00    -0.372 N 
ATOM      6  H2  UNL     1       7.198  17.151 -19.908  1.00  0.00     0.161 HD
HETATM    7  C2  UNL     1       9.101  16.235 -20.147  1.00  0.00     0.087 C 
HETATM    8  C3  UNL     1       8.998  15.770 -18.704  1.00  0.00     0.025 C 
HETATM    9  C4  UNL     1      10.007  16.691 -18.031  1.00  0.00     0.002 C 
HETATM   10  C5  UNL     1      11.190  16.528 -18.971  1.00  0.00     0.007 C 
HETATM   11  C6  UNL     1      10.513  16.679 -20.325  1.00  0.00     0.012 C 
HETATM   12  C7  UNL     1      10.718  18.057 -20.802  1.00  0.00     0.058 C 
HETATM   13  C8  UNL     1       9.659  18.514 -21.806  1.00  0.00     0.146 A 
HETATM   14  N3  UNL     1       9.513  17.782 -22.946  1.00  0.00    -0.344 N 
ATOM     15  H3  UNL     1       9.295  16.792 -23.061  1.00  0.00     0.163 HD
HETATM   16  C9  UNL     1       9.717  18.647 -23.800  1.00  0.00     0.164 A 
HETATM   17  S1  UNL     1       9.994  19.969 -22.690  1.00  0.00    -0.053 SA
ENDROOT
BRANCH  16  18
HETATM   18  N4  UNL     1       9.711  18.524 -25.272  1.00  0.00    -0.247 N 
ATOM     19  H4  UNL     1       9.036  19.041 -25.835  1.00  0.00     0.196 HD
BRANCH  18  20
HETATM   20  O1  UNL     1      10.606  17.720 -25.849  1.00  0.00    -0.288 OA
ATOM     21  H1  UNL     1      11.177  18.080 -26.516  1.00  0.00     0.244 HD
ENDBRANCH  18  20
ENDBRANCH  16  18
TORSDOF 2
ENDMDL
MODEL 3
REMARK VINA RESULT: -5.084712204      3.435      5.293
REMARK  2 active torsions:
REMARK  status: ('A' for Active; 'I' for Inactive)
REMARK    1  A    between atoms: C9_16  and  N4_17 
REMARK    2  A    between atoms: N4_17  and  O1_19 
ROOT
HETATM    1  N1  UNL     1      11.542  32.278 -16.754  1.00  0.00    -0.386 N 
ATOM      2  H11 UNL     1      10.636  32.185 -17.212  1.00  0.00     0.157 HD
ATOM      3  H12 UNL     1      11.618  33.092 -16.145  1.00  0.00     0.157 HD
HETATM    4  C1  UNL     1      12.492  31.450 -16.930  1.00  0.00     0.111 C 
HETATM    5  N2  UNL     1      13.752  31.580 -16.293  1.00  0.00    -0.372 N 
ATOM      6  H2  UNL     1      13.829  32.233 -15.513  1.00  0.00     0.161 HD
HETATM    7  C2  UNL     1      14.935  30.844 -16.680  1.00  0.00     0.087 C 
HETATM    8  C3  UNL     1      16.076  31.849 -16.695  1.00  0.00     0.025 C 
HETATM    9  C4  UNL     1      16.006  32.343 -18.134  1.00  0.00     0.002 C 
HETATM   10  C5  UNL     1      15.934  31.016 -18.872  1.00  0.00     0.007 C 
HETATM   11  C6  UNL     1      14.876  30.285 -18.061  1.00  0.00     0.012 C 
HETATM   12  C7  UNL     1      13.586  30.394 -18.763  1.00  0.00     0.058 C 
HETATM   13  C8  UNL     1      12.378  30.235 -17.841  1.00  0.00     0.146 A 
HETATM   14  N3  UNL     1      12.276  29.076 -17.129  1.00  0.00    -0.344 N 
ATOM     15  H3  UNL     1      12.928  28.662 -16.462  1.00  0.00     0.163 HD
HETATM   16  C9  UNL     1      11.178  28.669 -17.513  1.00  0.00     0.164 A 
HETATM   17  S1  UNL     1      10.837  29.995 -18.601  1.00  0.00    -0.053 SA
ENDROOT
BRANCH  16  18
HETATM   18  N4  UNL     1      10.453  27.442 -17.128  1.00  0.00    -0.247 N 
ATOM     19  H4  UNL     1       9.459  27.473 -16.904  1.00  0.00     0.196 HD
BRANCH  18  20
HETATM   20  O1  UNL     1      11.126  26.291 -17.080  1.00  0.00    -0.288 OA
ATOM     21  H1  UNL     1      10.650  25.494 -16.881  1.00  0.00     0.244 HD
ENDBRANCH  18  20
ENDBRANCH  16  18
TORSDOF 2
ENDMDL
MODEL 4
REMARK VINA RESULT: -5.060025461     12.032     13.342
REMARK  2 active torsions:
REMARK  status: ('A' for Active; 'I' for Inactive)
REMARK    1  A    between atoms: C9_16  and  N4_17 
REMARK    2  A    between atoms: N4_17  and  O1_19 
ROOT
HETATM    1  N1  UNL     1       7.515  19.653 -20.292  1.00  0.00    -0.386 N 
ATOM      2  H11 UNL     1       7.817  20.457 -20.842  1.00  0.00     0.157 HD
ATOM      3  H12 UNL     1       6.643  19.800 -19.786  1.00  0.00     0.157 HD
HETATM    4  C1  UNL     1       8.173  18.565 -20.244  1.00  0.00     0.111 C 
HETATM    5  N2  UNL     1       7.752  17.447 -19.479  1.00  0.00    -0.372 N 
ATOM      6  H2  UNL     1       6.795  17.440 -19.128  1.00  0.00     0.161 HD
HETATM    7  C2  UNL     1       8.597  16.316 -19.166  1.00  0.00     0.087 C 
HETATM    8  C3  UNL     1       8.375  16.013 -17.693  1.00  0.00     0.025 C 
HETATM    9  C4  UNL     1       9.443  16.891 -17.055  1.00  0.00     0.002 C 
HETATM   10  C5  UNL     1      10.647  16.513 -17.904  1.00  0.00     0.007 C 
HETATM   11  C6  UNL     1      10.056  16.594 -19.303  1.00  0.00     0.012 C 
HETATM   12  C7  UNL     1      10.429  17.888 -19.897  1.00  0.00     0.058 C 
HETATM   13  C8  UNL     1       9.476  18.346 -21.001  1.00  0.00     0.146 A 
HETATM   14  N3  UNL     1       9.307  17.520 -22.072  1.00  0.00    -0.344 N 
ATOM     15  H3  UNL     1       8.990  16.551 -22.103  1.00  0.00     0.163 HD
HETATM   16  C9  UNL     1       9.644  18.269 -22.992  1.00  0.00     0.164 A 
HETATM   17  S1  UNL     1      10.007  19.662 -21.999  1.00  0.00    -0.053 SA
ENDROOT
BRANCH  16  18
HETATM   18  N4  UNL     1       9.695  17.998 -24.442  1.00  0.00    -0.247 N 
ATOM     19  H4  UNL     1      10.238  18.596 -25.065  1.00  0.00     0.196 HD
BRANCH  18  20
HETATM   20  O1  UNL     1       9.016  16.954 -24.921  1.00  0.00    -0.288 OA
ATOM     21  H1  UNL     1       9.481  16.307 -25.438  1.00  0.00     0.244 HD
ENDBRANCH  18  20
ENDBRANCH  16  18
TORSDOF 2
ENDMDL
MODEL 5
REMARK VINA RESULT: -4.857338184      7.720      9.606
REMARK  2 active torsions:
REMARK  status: ('A' for Active; 'I' for Inactive)
REMARK    1  A    between atoms: C9_16  and  N4_17 
REMARK    2  A    between atoms: N4_17  and  O1_19 
ROOT
HETATM    1  N1  UNL     1      10.083  24.521 -26.627  1.00  0.00    -0.386 N 
ATOM      2  H11 UNL     1       9.791  23.972 -27.435  1.00  0.00     0.157 HD
ATOM      3  H12 UNL     1      11.093  24.602 -26.522  1.00  0.00     0.157 HD
HETATM    4  C1  UNL     1       9.255  25.054 -25.822  1.00  0.00     0.111 C 
HETATM    5  N2  UNL     1       9.660  25.818 -24.697  1.00  0.00    -0.372 N 
ATOM      6  H2  UNL     1      10.633  26.123 -24.652  1.00  0.00     0.161 HD
HETATM    7  C2  UNL     1       8.781  26.191 -23.612  1.00  0.00     0.087 C 
HETATM    8  C3  UNL     1       9.555  25.933 -22.329  1.00  0.00     0.025 C 
HETATM    9  C4  UNL     1       9.167  24.487 -22.045  1.00  0.00     0.002 C 
HETATM   10  C5  UNL     1       7.659  24.574 -22.211  1.00  0.00     0.007 C 
HETATM   11  C6  UNL     1       7.552  25.353 -23.513  1.00  0.00     0.012 C 
HETATM   12  C7  UNL     1       7.310  24.403 -24.611  1.00  0.00     0.058 C 
HETATM   13  C8  UNL     1       7.745  24.932 -25.978  1.00  0.00     0.146 A 
HETATM   14  N3  UNL     1       7.185  26.097 -26.411  1.00  0.00    -0.344 N 
ATOM     15  H3  UNL     1       7.182  27.020 -25.977  1.00  0.00     0.163 HD
HETATM   16  C9  UNL     1       6.682  25.726 -27.474  1.00  0.00     0.164 A 
HETATM   17  S1  UNL     1       7.192  24.056 -27.370  1.00  0.00    -0.053 SA
ENDROOT
BRANCH  16  18
HETATM   18  N4  UNL     1       5.911  26.506 -28.462  1.00  0.00    -0.247 N 
ATOM     19  H4  UNL     1       6.187  26.522 -29.444  1.00  0.00     0.196 HD
BRANCH  18  20
HETATM   20  O1  UNL     1       4.844  27.190 -28.044  1.00  0.00    -0.288 OA
ATOM     21  H1  UNL     1       4.933  28.123 -27.892  1.00  0.00     0.244 HD
ENDBRANCH  18  20
ENDBRANCH  16  18
TORSDOF 2
ENDMDL
