MODEL 1
REMARK VINA RESULT: -6.054448545      0.000      0.000
REMARK  7 active torsions:
REMARK  status: ('A' for Active; 'I' for Inactive)
REMARK    1  A    between atoms: C2_2  and  O1_3 
REMARK    2  A    between atoms: O1_3  and  C3_4 
REMARK    3  A    between atoms: C12_16  and  C13_17 
REMARK    4  A    between atoms: C17_22  and  O4_23 
REMARK    5  A    between atoms: C21_27  and  C22_28 
REMARK    6  A    between atoms: C22_28  and  O5_29 
REMARK    7  A    between atoms: C24_32  and  O6_33 
ROOT
HETATM    1  C3  UNL     1      10.161  53.554  93.961  1.00  0.00     0.070 C 
HETATM    2  C4  UNL     1       9.778  53.620  95.419  1.00  0.00     0.070 C 
HETATM    3  C5  UNL     1      10.218  55.066  95.411  1.00  0.00     0.043 C 
HETATM    4  C6  UNL     1      10.973  55.497  96.622  1.00  0.00     0.041 C 
HETATM    5  C7  UNL     1      10.030  56.406  97.401  1.00  0.00     0.105 C 
HETATM    6  C8  UNL     1       8.825  56.501  96.531  1.00  0.00     0.218 C 
HETATM    7  O2  UNL     1       7.713  56.930  96.951  1.00  0.00    -0.274 OA
HETATM    8  N1  UNL     1       9.182  56.035  95.235  1.00  0.00    -0.351 N 
ATOM      9  H1  UNL     1       8.776  56.336  94.348  1.00  0.00     0.163 HD
HETATM   10  C9  UNL     1      11.028  54.719  94.186  1.00  0.00     0.056 C 
HETATM   11  C10 UNL     1      12.475  54.564  94.328  1.00  0.00     0.021 C 
HETATM   12  C11 UNL     1      13.003  53.556  95.229  1.00  0.00    -0.011 C 
HETATM   13  C12 UNL     1      13.256  52.313  94.948  1.00  0.00    -0.023 C 
HETATM   14  C14 UNL     1      13.064  51.608  93.667  1.00  0.00     0.057 C 
HETATM   15  C15 UNL     1      11.982  52.182  92.771  1.00  0.00     0.027 C 
HETATM   16  C16 UNL     1      10.751  52.280  93.535  1.00  0.00     0.054 C 
HETATM   17  C17 UNL     1      11.807  51.114  91.726  1.00  0.00     0.133 C 
HETATM   18  C19 UNL     1      10.653  51.275  90.801  1.00  0.00     0.037 C 
HETATM   19  C20 UNL     1      11.221  52.014  89.582  1.00  0.00     0.038 C 
HETATM   20  C21 UNL     1      11.165  53.452  89.953  1.00  0.00    -0.057 C 
HETATM   21  C23 UNL     1      11.734  54.000  91.021  1.00  0.00     0.016 C 
HETATM   22  C24 UNL     1      12.550  53.381  92.104  1.00  0.00     0.087 C 
HETATM   23  C25 UNL     1      13.065  54.482  92.937  1.00  0.00     0.052 C 
ENDROOT
BRANCH   1  24
HETATM   24  O1  UNL     1       9.093  53.939  93.180  1.00  0.00    -0.380 OA
BRANCH  24  25
HETATM   25  C2  UNL     1       8.161  53.024  92.841  1.00  0.00     0.164 C 
HETATM   26  C1  UNL     1       7.626  53.230  91.423  1.00  0.00     0.033 C 
ENDBRANCH  24  25
ENDBRANCH   1  24
BRANCH  13  27
HETATM   27  C13 UNL     1      13.783  51.474  96.004  1.00  0.00     0.265 C 
HETATM   28  O3  UNL     1      14.833  51.791  96.606  1.00  0.00    -0.302 OA
ENDBRANCH  13  27
BRANCH  22  29
HETATM   29  O6  UNL     1      13.681  52.852  91.409  1.00  0.00    -0.385 OA
ATOM     30  H6  UNL     1      13.285  52.393  90.678  1.00  0.00     0.211 HD
ENDBRANCH  22  29
BRANCH  17  31
HETATM   31  O4  UNL     1      11.676  49.882  92.341  1.00  0.00    -0.390 OA
HETATM   32  C18 UNL     1      11.881  48.807  91.468  1.00  0.00     0.202 C 
ENDBRANCH  17  31
BRANCH  20  33
HETATM   33  C22 UNL     1      10.390  54.290  89.002  1.00  0.00     0.198 C 
BRANCH  33  34
HETATM   34  O5  UNL     1       9.945  53.546  87.905  1.00  0.00    -0.397 OA
ATOM     35  H5  UNL     1       9.402  54.068  87.327  1.00  0.00     0.209 HD
ENDBRANCH  33  34
ENDBRANCH  20  33
TORSDOF 7
ENDMDL
MODEL 2
REMARK VINA RESULT: -5.603419883      2.650      6.015
REMARK  7 active torsions:
REMARK  status: ('A' for Active; 'I' for Inactive)
REMARK    1  A    between atoms: C2_2  and  O1_3 
REMARK    2  A    between atoms: O1_3  and  C3_4 
REMARK    3  A    between atoms: C12_16  and  C13_17 
REMARK    4  A    between atoms: C17_22  and  O4_23 
REMARK    5  A    between atoms: C21_27  and  C22_28 
REMARK    6  A    between atoms: C22_28  and  O5_29 
REMARK    7  A    between atoms: C24_32  and  O6_33 
ROOT
HETATM    1  C3  UNL     1      11.760  54.689  94.850  1.00  0.00     0.070 C 
HETATM    2  C4  UNL     1      13.141  54.299  94.382  1.00  0.00     0.070 C 
HETATM    3  C5  UNL     1      12.545  54.044  93.017  1.00  0.00     0.043 C 
HETATM    4  C6  UNL     1      13.058  52.825  92.329  1.00  0.00     0.041 C 
HETATM    5  C7  UNL     1      13.943  53.327  91.194  1.00  0.00     0.105 C 
HETATM    6  C8  UNL     1      13.804  54.808  91.261  1.00  0.00     0.218 C 
HETATM    7  O2  UNL     1      14.600  55.594  90.672  1.00  0.00    -0.274 OA
HETATM    8  N1  UNL     1      12.672  55.106  92.069  1.00  0.00    -0.351 N 
ATOM      9  H1  UNL     1      12.065  55.923  91.988  1.00  0.00     0.163 HD
HETATM   10  C9  UNL     1      11.214  53.925  93.719  1.00  0.00     0.056 C 
HETATM   11  C10 UNL     1      10.645  52.593  93.915  1.00  0.00     0.021 C 
HETATM   12  C11 UNL     1      11.383  51.605  94.681  1.00  0.00    -0.011 C 
HETATM   13  C12 UNL     1      11.340  51.423  95.967  1.00  0.00    -0.023 C 
HETATM   14  C14 UNL     1      10.557  52.168  96.969  1.00  0.00     0.057 C 
HETATM   15  C15 UNL     1      10.212  53.595  96.588  1.00  0.00     0.027 C 
HETATM   16  C16 UNL     1      11.437  54.286  96.223  1.00  0.00     0.054 C 
HETATM   17  C17 UNL     1       9.708  54.178  97.881  1.00  0.00     0.133 C 
HETATM   18  C19 UNL     1       9.481  55.648  97.900  1.00  0.00     0.037 C 
HETATM   19  C20 UNL     1       8.000  55.827  97.541  1.00  0.00     0.038 C 
HETATM   20  C21 UNL     1       7.968  55.810  96.055  1.00  0.00    -0.057 C 
HETATM   21  C23 UNL     1       8.427  54.832  95.280  1.00  0.00     0.016 C 
HETATM   22  C24 UNL     1       9.070  53.538  95.641  1.00  0.00     0.087 C 
HETATM   23  C25 UNL     1       9.220  52.769  94.392  1.00  0.00     0.052 C 
ENDROOT
BRANCH   1  24
HETATM   24  O1  UNL     1      11.552  56.032  94.621  1.00  0.00    -0.380 OA
BRANCH  24  25
HETATM   25  C2  UNL     1      11.769  56.912  95.621  1.00  0.00     0.164 C 
HETATM   26  C1  UNL     1      10.887  58.156  95.508  1.00  0.00     0.033 C 
ENDBRANCH  24  25
ENDBRANCH   1  24
BRANCH  13  27
HETATM   27  C13 UNL     1      12.163  50.372  96.530  1.00  0.00     0.265 C 
HETATM   28  O3  UNL     1      13.237  50.042  95.982  1.00  0.00    -0.302 OA
ENDBRANCH  13  27
BRANCH  22  29
HETATM   29  O6  UNL     1       8.064  52.863  96.398  1.00  0.00    -0.385 OA
ATOM     30  H6  UNL     1       7.335  52.820  95.790  1.00  0.00     0.211 HD
ENDBRANCH  22  29
BRANCH  17  31
HETATM   31  O4  UNL     1      10.596  53.882  98.899  1.00  0.00    -0.390 OA
HETATM   32  C18 UNL     1      10.908  54.990  99.696  1.00  0.00     0.202 C 
ENDBRANCH  17  31
BRANCH  20  33
HETATM   33  C22 UNL     1       7.358  57.022  95.451  1.00  0.00     0.198 C 
BRANCH  33  34
HETATM   34  O5  UNL     1       6.280  56.695  94.622  1.00  0.00    -0.397 OA
ATOM     35  H5  UNL     1       5.525  57.245  94.799  1.00  0.00     0.209 HD
ENDBRANCH  33  34
ENDBRANCH  20  33
TORSDOF 7
ENDMDL
MODEL 3
REMARK VINA RESULT: -5.535266620      2.460      5.686
REMARK  7 active torsions:
REMARK  status: ('A' for Active; 'I' for Inactive)
REMARK    1  A    between atoms: C2_2  and  O1_3 
REMARK    2  A    between atoms: O1_3  and  C3_4 
REMARK    3  A    between atoms: C12_16  and  C13_17 
REMARK    4  A    between atoms: C17_22  and  O4_23 
REMARK    5  A    between atoms: C21_27  and  C22_28 
REMARK    6  A    between atoms: C22_28  and  O5_29 
REMARK    7  A    between atoms: C24_32  and  O6_33 
ROOT
HETATM    1  C3  UNL     1      10.975  53.021  92.788  1.00  0.00     0.070 C 
HETATM    2  C4  UNL     1      10.901  54.075  91.710  1.00  0.00     0.070 C 
HETATM    3  C5  UNL     1      12.380  53.864  91.480  1.00  0.00     0.043 C 
HETATM    4  C6  UNL     1      13.161  55.112  91.251  1.00  0.00     0.041 C 
HETATM    5  C7  UNL     1      13.535  55.105  89.773  1.00  0.00     0.105 C 
HETATM    6  C8  UNL     1      13.011  53.802  89.278  1.00  0.00     0.218 C 
HETATM    7  O2  UNL     1      12.870  53.548  88.048  1.00  0.00    -0.274 OA
HETATM    8  N1  UNL     1      12.729  52.986  90.408  1.00  0.00    -0.351 N 
ATOM      9  H1  UNL     1      12.768  51.967  90.446  1.00  0.00     0.163 HD
HETATM   10  C9  UNL     1      12.421  53.276  92.870  1.00  0.00     0.056 C 
HETATM   11  C10 UNL     1      12.983  54.083  93.952  1.00  0.00     0.021 C 
HETATM   12  C11 UNL     1      12.383  55.364  94.276  1.00  0.00    -0.011 C 
HETATM   13  C12 UNL     1      11.403  55.581  95.103  1.00  0.00    -0.023 C 
HETATM   14  C14 UNL     1      10.648  54.599  95.902  1.00  0.00     0.057 C 
HETATM   15  C15 UNL     1      10.603  53.196  95.326  1.00  0.00     0.027 C 
HETATM   16  C16 UNL     1      10.126  53.273  93.957  1.00  0.00     0.054 C 
HETATM   17  C17 UNL     1       9.545  52.523  96.159  1.00  0.00     0.133 C 
HETATM   18  C19 UNL     1       9.102  51.177  95.705  1.00  0.00     0.037 C 
HETATM   19  C20 UNL     1       9.980  50.187  96.482  1.00  0.00     0.038 C 
HETATM   20  C21 UNL     1      11.227  50.081  95.682  1.00  0.00    -0.057 C 
HETATM   21  C23 UNL     1      12.018  51.092  95.339  1.00  0.00     0.016 C 
HETATM   22  C24 UNL     1      11.903  52.548  95.634  1.00  0.00     0.087 C 
HETATM   23  C25 UNL     1      13.145  53.183  95.158  1.00  0.00     0.052 C 
ENDROOT
BRANCH   1  24
HETATM   24  O1  UNL     1      10.775  51.775  92.236  1.00  0.00    -0.380 OA
BRANCH  24  25
HETATM   25  C2  UNL     1       9.514  51.344  92.022  1.00  0.00     0.164 C 
HETATM   26  C1  UNL     1       9.367  49.837  92.235  1.00  0.00     0.033 C 
ENDBRANCH  24  25
ENDBRANCH   1  24
BRANCH  13  27
HETATM   27  C13 UNL     1      10.956  56.948  95.280  1.00  0.00     0.265 C 
HETATM   28  O3  UNL     1      11.776  57.892  95.272  1.00  0.00    -0.302 OA
ENDBRANCH  13  27
BRANCH  22  29
HETATM   29  O6  UNL     1      11.957  52.606  97.061  1.00  0.00    -0.385 OA
ATOM     30  H6  UNL     1      12.855  52.360  97.249  1.00  0.00     0.211 HD
ENDBRANCH  22  29
BRANCH  17  31
HETATM   31  O4  UNL     1       8.424  53.329  96.222  1.00  0.00    -0.390 OA
HETATM   32  C18 UNL     1       7.561  52.991  97.272  1.00  0.00     0.202 C 
ENDBRANCH  17  31
BRANCH  20  33
HETATM   33  C22 UNL     1      11.559  48.694  95.262  1.00  0.00     0.198 C 
BRANCH  33  34
HETATM   34  O5  UNL     1      12.208  48.674  94.024  1.00  0.00    -0.397 OA
ATOM     35  H5  UNL     1      12.193  49.529  93.609  1.00  0.00     0.209 HD
ENDBRANCH  33  34
ENDBRANCH  20  33
TORSDOF 7
ENDMDL
MODEL 4
REMARK VINA RESULT: -5.445550524      2.719      5.820
REMARK  7 active torsions:
REMARK  status: ('A' for Active; 'I' for Inactive)
REMARK    1  A    between atoms: C2_2  and  O1_3 
REMARK    2  A    between atoms: O1_3  and  C3_4 
REMARK    3  A    between atoms: C12_16  and  C13_17 
REMARK    4  A    between atoms: C17_22  and  O4_23 
REMARK    5  A    between atoms: C21_27  and  C22_28 
REMARK    6  A    between atoms: C22_28  and  O5_29 
REMARK    7  A    between atoms: C24_32  and  O6_33 
ROOT
HETATM    1  C3  UNL     1      11.822  54.545  94.860  1.00  0.00     0.070 C 
HETATM    2  C4  UNL     1      13.191  54.697  94.243  1.00  0.00     0.070 C 
HETATM    3  C5  UNL     1      12.634  54.063  92.989  1.00  0.00     0.043 C 
HETATM    4  C6  UNL     1      13.544  53.086  92.327  1.00  0.00     0.041 C 
HETATM    5  C7  UNL     1      14.032  53.766  91.053  1.00  0.00     0.105 C 
HETATM    6  C8  UNL     1      13.295  55.060  91.034  1.00  0.00     0.218 C 
HETATM    7  O2  UNL     1      13.633  56.026  90.293  1.00  0.00    -0.274 OA
HETATM    8  N1  UNL     1      12.220  54.965  91.961  1.00  0.00    -0.351 N 
ATOM      9  H1  UNL     1      11.324  55.450  91.904  1.00  0.00     0.163 HD
HETATM   10  C9  UNL     1      11.544  53.498  93.867  1.00  0.00     0.056 C 
HETATM   11  C10 UNL     1      11.603  52.082  94.228  1.00  0.00     0.021 C 
HETATM   12  C11 UNL     1      12.751  51.576  94.957  1.00  0.00    -0.011 C 
HETATM   13  C12 UNL     1      12.905  51.546  96.248  1.00  0.00    -0.023 C 
HETATM   14  C14 UNL     1      11.978  52.021  97.290  1.00  0.00     0.057 C 
HETATM   15  C15 UNL     1      11.036  53.130  96.859  1.00  0.00     0.027 C 
HETATM   16  C16 UNL     1      11.822  54.209  96.289  1.00  0.00     0.054 C 
HETATM   17  C17 UNL     1      10.455  53.606  98.163  1.00  0.00     0.133 C 
HETATM   18  C19 UNL     1       9.638  54.848  98.110  1.00  0.00     0.037 C 
HETATM   19  C20 UNL     1       8.191  54.366  97.936  1.00  0.00     0.038 C 
HETATM   20  C21 UNL     1       8.035  54.163  96.473  1.00  0.00    -0.057 C 
HETATM   21  C23 UNL     1       8.787  53.372  95.714  1.00  0.00     0.016 C 
HETATM   22  C24 UNL     1       9.941  52.502  96.076  1.00  0.00     0.087 C 
HETATM   23  C25 UNL     1      10.284  51.720  94.875  1.00  0.00     0.052 C 
ENDROOT
BRANCH   1  24
HETATM   24  O1  UNL     1      11.053  55.650  94.568  1.00  0.00    -0.380 OA
BRANCH  24  25
HETATM   25  C2  UNL     1      11.232  56.784  95.278  1.00  0.00     0.164 C 
HETATM   26  C1  UNL     1       9.910  57.457  95.650  1.00  0.00     0.033 C 
ENDBRANCH  24  25
ENDBRANCH   1  24
BRANCH  13  27
HETATM   27  C13 UNL     1      14.139  50.993  96.769  1.00  0.00     0.265 C 
HETATM   28  O3  UNL     1      15.162  51.705  96.874  1.00  0.00    -0.302 OA
ENDBRANCH  13  27
BRANCH  22  29
HETATM   29  O6  UNL     1       9.381  51.571  97.004  1.00  0.00    -0.385 OA
ATOM     30  H6  UNL     1       8.597  51.273  96.557  1.00  0.00     0.211 HD
ENDBRANCH  22  29
BRANCH  17  31
HETATM   31  O4  UNL     1      11.473  53.818  99.074  1.00  0.00    -0.390 OA
HETATM   32  C18 UNL     1      11.169  54.803 100.020  1.00  0.00     0.202 C 
ENDBRANCH  17  31
BRANCH  20  33
HETATM   33  C22 UNL     1       6.922  54.943  95.871  1.00  0.00     0.198 C 
BRANCH  33  34
HETATM   34  O5  UNL     1       7.197  55.288  94.544  1.00  0.00    -0.397 OA
ATOM     35  H5  UNL     1       8.131  55.378  94.394  1.00  0.00     0.209 HD
ENDBRANCH  33  34
ENDBRANCH  20  33
TORSDOF 7
ENDMDL
MODEL 5
REMARK VINA RESULT: -5.424878182      8.722     12.861
REMARK  7 active torsions:
REMARK  status: ('A' for Active; 'I' for Inactive)
REMARK    1  A    between atoms: C2_2  and  O1_3 
REMARK    2  A    between atoms: O1_3  and  C3_4 
REMARK    3  A    between atoms: C12_16  and  C13_17 
REMARK    4  A    between atoms: C17_22  and  O4_23 
REMARK    5  A    between atoms: C21_27  and  C22_28 
REMARK    6  A    between atoms: C22_28  and  O5_29 
REMARK    7  A    between atoms: C24_32  and  O6_33 
ROOT
HETATM    1  C3  UNL     1      10.292  51.079  81.420  1.00  0.00     0.070 C 
HETATM    2  C4  UNL     1      10.325  51.514  79.975  1.00  0.00     0.070 C 
HETATM    3  C5  UNL     1       9.852  50.126  79.605  1.00  0.00     0.043 C 
HETATM    4  C6  UNL     1      10.511  49.541  78.403  1.00  0.00     0.041 C 
HETATM    5  C7  UNL     1       9.455  49.549  77.303  1.00  0.00     0.105 C 
HETATM    6  C8  UNL     1       8.234  50.062  77.984  1.00  0.00     0.218 C 
HETATM    7  O2  UNL     1       7.226  50.482  77.349  1.00  0.00    -0.274 OA
HETATM    8  N1  UNL     1       8.448  49.979  79.388  1.00  0.00    -0.351 N 
ATOM      9  H1  UNL     1       7.733  49.842  80.104  1.00  0.00     0.163 HD
HETATM   10  C9  UNL     1      10.373  49.688  80.953  1.00  0.00     0.056 C 
HETATM   11  C10 UNL     1      11.633  48.948  81.006  1.00  0.00     0.021 C 
HETATM   12  C11 UNL     1      12.846  49.560  80.494  1.00  0.00    -0.011 C 
HETATM   13  C12 UNL     1      13.674  50.318  81.149  1.00  0.00    -0.023 C 
HETATM   14  C14 UNL     1      13.595  50.758  82.553  1.00  0.00     0.057 C 
HETATM   15  C15 UNL     1      12.194  50.821  83.132  1.00  0.00     0.027 C 
HETATM   16  C16 UNL     1      11.366  51.629  82.254  1.00  0.00     0.054 C 
HETATM   17  C17 UNL     1      12.393  51.573  84.420  1.00  0.00     0.133 C 
HETATM   18  C19 UNL     1      11.160  51.994  85.138  1.00  0.00     0.037 C 
HETATM   19  C20 UNL     1      10.879  50.865  86.140  1.00  0.00     0.038 C 
HETATM   20  C21 UNL     1      10.119  49.853  85.363  1.00  0.00    -0.057 C 
HETATM   21  C23 UNL     1      10.528  49.266  84.243  1.00  0.00     0.016 C 
HETATM   22  C24 UNL     1      11.793  49.432  83.474  1.00  0.00     0.087 C 
HETATM   23  C25 UNL     1      11.789  48.411  82.412  1.00  0.00     0.052 C 
ENDROOT
BRANCH   1  24
HETATM   24  O1  UNL     1       9.037  51.299  81.944  1.00  0.00    -0.380 OA
BRANCH  24  25
HETATM   25  C2  UNL     1       8.764  52.488  82.521  1.00  0.00     0.164 C 
HETATM   26  C1  UNL     1       7.813  52.357  83.712  1.00  0.00     0.033 C 
ENDBRANCH  24  25
ENDBRANCH   1  24
BRANCH  13  27
HETATM   27  C13 UNL     1      14.831  50.826  80.440  1.00  0.00     0.265 C 
HETATM   28  O3  UNL     1      15.003  52.056  80.301  1.00  0.00    -0.302 OA
ENDBRANCH  13  27
BRANCH  22  29
HETATM   29  O6  UNL     1      12.804  49.030  84.401  1.00  0.00    -0.385 OA
ATOM     30  H6  UNL     1      12.598  49.542  85.174  1.00  0.00     0.211 HD
ENDBRANCH  22  29
BRANCH  17  31
HETATM   31  O4  UNL     1      13.142  52.711  84.181  1.00  0.00    -0.390 OA
HETATM   32  C18 UNL     1      13.142  53.606  85.257  1.00  0.00     0.202 C 
ENDBRANCH  17  31
BRANCH  20  33
HETATM   33  C22 UNL     1       8.794  49.514  85.947  1.00  0.00     0.198 C 
BRANCH  33  34
HETATM   34  O5  UNL     1       8.311  50.547  86.756  1.00  0.00    -0.397 OA
ATOM     35  H5  UNL     1       7.908  51.235  86.239  1.00  0.00     0.209 HD
ENDBRANCH  33  34
ENDBRANCH  20  33
TORSDOF 7
ENDMDL
