MODEL 1
REMARK VINA RESULT: -8.355745347      0.000      0.000
REMARK  9 active torsions:
REMARK  status: ('A' for Active; 'I' for Inactive)
REMARK    1  A    between atoms: C2_2  and  C3_4 
REMARK    2  A    between atoms: N1_8  and  C7_9 
REMARK    3  A    between atoms: C8_12  and  N3_13 
REMARK    4  A    between atoms: C13_20  and  N5_21 
REMARK    5  A    between atoms: N5_21  and  C14_23 
REMARK    6  A    between atoms: C17_26  and  N6_27 
REMARK    7  A    between atoms: C21_36  and  C22_37 
REMARK       I    between atoms: C22_37  and  N8_39 
REMARK    8  A    between atoms: N8_39  and  C23_41 
REMARK    9  A    between atoms: C23_41  and  C25_44 
ROOT
HETATM    1  C23 UNL     1      55.644  -1.250   3.623  1.00  0.00     0.196 C 
HETATM    2  C24 UNL     1      55.070  -2.467   4.180  1.00  0.00     0.085 C 
HETATM    3  N9  UNL     1      54.590  -3.437   4.634  1.00  0.00    -0.195 NA
ENDROOT
BRANCH   1   4
HETATM    4  N8  UNL     1      56.533  -0.674   4.605  1.00  0.00    -0.343 N 
HETATM    5  C22 UNL     1      56.524   0.692   4.944  1.00  0.00     0.225 C 
HETATM    6  O2  UNL     1      55.718   1.465   4.379  1.00  0.00    -0.273 OA
ATOM      7  H8  UNL     1      57.199  -1.287   5.074  1.00  0.00     0.163 HD
BRANCH   5   8
HETATM    8  C21 UNL     1      57.453   1.215   5.960  1.00  0.00     0.108 C 
HETATM    9  C3  UNL     1      58.698   1.843   5.366  1.00  0.00     0.071 C 
HETATM   10  C4  UNL     1      59.977   1.276   5.863  1.00  0.00     0.038 C 
HETATM   11  C5  UNL     1      60.040   1.008   7.355  1.00  0.00     0.099 C 
HETATM   12  C6  UNL     1      60.699   2.118   8.099  1.00  0.00     0.033 C 
HETATM   13  N1  UNL     1      58.759   0.620   7.842  1.00  0.00    -0.211 N 
HETATM   14  C20 UNL     1      57.855   0.040   6.830  1.00  0.00     0.156 C 
BRANCH   9  15
HETATM   15  C2  UNL     1      58.635   3.321   5.380  1.00  0.00     0.128 C 
HETATM   16  C1  UNL     1      58.072   4.027   6.555  1.00  0.00     0.091 C 
HETATM   17  O1  UNL     1      59.039   3.953   4.440  1.00  0.00    -0.298 OA
ENDBRANCH   9  15
BRANCH  13  18
HETATM   18  C7  UNL     1      58.356   0.732   9.187  1.00  0.00     0.709 A 
HETATM   19  N2  UNL     1      58.653  -0.232  10.054  1.00  0.00    -0.021 N 
HETATM   20  C8  UNL     1      58.322  -0.185  11.341  1.00  0.00     0.709 A 
ATOM     21  H2  UNL     1      59.161  -1.049   9.715  1.00  0.00     0.203 HD
HETATM   22  N4  UNL     1      57.647   0.899  11.808  1.00  0.00    -0.021 N 
HETATM   23  C13 UNL     1      57.324   1.895  10.981  1.00  0.00     0.707 A 
ATOM     24  H4  UNL     1      57.387   0.952  12.792  1.00  0.00     0.203 HD
HETATM   25  N7  UNL     1      57.682   1.804   9.671  1.00  0.00    -0.021 N 
ATOM     26  H7  UNL     1      57.437   2.564   9.036  1.00  0.00     0.203 HD
BRANCH  20  27
HETATM   27  N3  UNL     1      58.659  -1.255  12.226  1.00  0.00    -0.217 N 
HETATM   28  C9  UNL     1      58.055  -2.542  12.201  1.00  0.00     0.141 C 
HETATM   29  C10 UNL     1      58.942  -3.464  12.957  1.00  0.00     0.022 C 
HETATM   30  C11 UNL     1      59.710  -2.547  13.881  1.00  0.00     0.022 C 
HETATM   31  C12 UNL     1      59.652  -1.182  13.243  1.00  0.00     0.141 C 
ENDBRANCH  20  27
BRANCH  23  32
HETATM   32  N5  UNL     1      56.686   2.951  11.348  1.00  0.00    -0.220 N 
ATOM     33  H5  UNL     1      56.566   3.143  12.343  1.00  0.00     0.178 HD
BRANCH  32  34
HETATM   34  C14 UNL     1      56.127   3.883  10.358  1.00  0.00     0.099 C 
HETATM   35  C15 UNL     1      54.667   4.016  10.663  1.00  0.00     0.027 C 
HETATM   36  C16 UNL     1      54.545   5.048  11.793  1.00  0.00     0.035 C 
HETATM   37  C17 UNL     1      54.832   6.381  11.137  1.00  0.00     0.183 C 
HETATM   38  C18 UNL     1      56.156   6.411  10.444  1.00  0.00     0.035 C 
HETATM   39  C19 UNL     1      56.916   5.140  10.437  1.00  0.00     0.027 C 
BRANCH  37  40
HETATM   40  N6  UNL     1      54.650   7.432  12.112  1.00  0.00    -0.075 N 
ATOM     41  H63 UNL     1      54.569   7.071  13.063  1.00  0.00     0.274 HD
ATOM     42  H62 UNL     1      55.493   7.992  12.243  1.00  0.00     0.274 HD
ATOM     43  H61 UNL     1      53.845   7.998  11.842  1.00  0.00     0.274 HD
ENDBRANCH  37  40
ENDBRANCH  32  34
ENDBRANCH  23  32
ENDBRANCH  13  18
ENDBRANCH   5   8
ENDBRANCH   1   4
BRANCH   1  44
HETATM   44  C25 UNL     1      56.423  -1.564   2.374  1.00  0.00     0.022 A 
HETATM   45  C26 UNL     1      56.499  -0.482   1.308  1.00  0.00     0.008 A 
HETATM   46  C27 UNL     1      55.649  -1.684   1.103  1.00  0.00     0.008 A 
ENDBRANCH   1  44
TORSDOF 9
ENDMDL
MODEL 2
REMARK VINA RESULT: -7.941764692      3.297      5.861
REMARK  9 active torsions:
REMARK  status: ('A' for Active; 'I' for Inactive)
REMARK    1  A    between atoms: C2_2  and  C3_4 
REMARK    2  A    between atoms: N1_8  and  C7_9 
REMARK    3  A    between atoms: C8_12  and  N3_13 
REMARK    4  A    between atoms: C13_20  and  N5_21 
REMARK    5  A    between atoms: N5_21  and  C14_23 
REMARK    6  A    between atoms: C17_26  and  N6_27 
REMARK    7  A    between atoms: C21_36  and  C22_37 
REMARK       I    between atoms: C22_37  and  N8_39 
REMARK    8  A    between atoms: N8_39  and  C23_41 
REMARK    9  A    between atoms: C23_41  and  C25_44 
ROOT
HETATM    1  C23 UNL     1      60.583   7.807   4.235  1.00  0.00     0.196 C 
HETATM    2  C24 UNL     1      61.792   8.101   4.990  1.00  0.00     0.085 C 
HETATM    3  N9  UNL     1      62.779   8.329   5.584  1.00  0.00    -0.195 NA
ENDROOT
BRANCH   1   4
HETATM    4  N8  UNL     1      59.988   6.606   4.774  1.00  0.00    -0.343 N 
HETATM    5  C22 UNL     1      60.441   5.313   4.454  1.00  0.00     0.225 C 
HETATM    6  O2  UNL     1      61.401   5.170   3.663  1.00  0.00    -0.273 OA
ATOM      7  H8  UNL     1      59.203   6.700   5.418  1.00  0.00     0.163 HD
BRANCH   5   8
HETATM    8  C21 UNL     1      59.795   4.128   5.043  1.00  0.00     0.108 C 
HETATM    9  C3  UNL     1      59.581   3.005   4.049  1.00  0.00     0.071 C 
HETATM   10  C4  UNL     1      58.177   2.535   3.935  1.00  0.00     0.038 C 
HETATM   11  C5  UNL     1      57.427   2.386   5.245  1.00  0.00     0.099 C 
HETATM   12  C6  UNL     1      57.440   0.983   5.746  1.00  0.00     0.033 C 
HETATM   13  N1  UNL     1      57.859   3.373   6.177  1.00  0.00    -0.211 N 
HETATM   14  C20 UNL     1      58.450   4.585   5.575  1.00  0.00     0.156 C 
BRANCH   9  15
HETATM   15  C2  UNL     1      60.579   1.924   4.209  1.00  0.00     0.128 C 
HETATM   16  C1  UNL     1      61.137   1.624   5.548  1.00  0.00     0.091 C 
HETATM   17  O1  UNL     1      60.940   1.287   3.255  1.00  0.00    -0.298 OA
ENDBRANCH   9  15
BRANCH  13  18
HETATM   18  C7  UNL     1      57.720   3.258   7.573  1.00  0.00     0.709 A 
HETATM   19  N2  UNL     1      58.023   2.115   8.182  1.00  0.00    -0.021 N 
HETATM   20  C8  UNL     1      57.935   1.941   9.497  1.00  0.00     0.709 A 
ATOM     21  H2  UNL     1      58.340   1.332   7.610  1.00  0.00     0.203 HD
HETATM   22  N4  UNL     1      57.516   2.977  10.272  1.00  0.00    -0.021 N 
HETATM   23  C13 UNL     1      57.199   4.146   9.713  1.00  0.00     0.707 A 
ATOM     24  H4  UNL     1      57.444   2.860  11.282  1.00  0.00     0.203 HD
HETATM   25  N7  UNL     1      57.304   4.280   8.362  1.00  0.00    -0.021 N 
ATOM     26  H7  UNL     1      57.063   5.172   7.932  1.00  0.00     0.203 HD
BRANCH  20  27
HETATM   27  N3  UNL     1      58.265   0.686  10.095  1.00  0.00    -0.217 N 
HETATM   28  C9  UNL     1      58.081   0.376  11.471  1.00  0.00     0.141 C 
HETATM   29  C10 UNL     1      58.138  -1.103  11.604  1.00  0.00     0.022 C 
HETATM   30  C11 UNL     1      58.940  -1.543  10.400  1.00  0.00     0.022 C 
HETATM   31  C12 UNL     1      58.811  -0.427   9.395  1.00  0.00     0.141 C 
ENDBRANCH  20  27
BRANCH  23  32
HETATM   32  N5  UNL     1      56.795   5.170  10.379  1.00  0.00    -0.220 N 
ATOM     33  H5  UNL     1      57.469   5.720  10.913  1.00  0.00     0.178 HD
BRANCH  32  34
HETATM   34  C14 UNL     1      55.377   5.562  10.384  1.00  0.00     0.099 C 
HETATM   35  C15 UNL     1      54.612   4.411  10.961  1.00  0.00     0.027 C 
HETATM   36  C16 UNL     1      54.714   4.535  12.487  1.00  0.00     0.035 C 
HETATM   37  C17 UNL     1      53.814   5.698  12.845  1.00  0.00     0.183 C 
HETATM   38  C18 UNL     1      54.176   6.954  12.121  1.00  0.00     0.035 C 
HETATM   39  C19 UNL     1      55.272   6.842  11.132  1.00  0.00     0.027 C 
BRANCH  37  40
HETATM   40  N6  UNL     1      53.774   5.835  14.284  1.00  0.00    -0.075 N 
ATOM     41  H63 UNL     1      53.183   5.130  14.726  1.00  0.00     0.274 HD
ATOM     42  H62 UNL     1      54.657   5.576  14.724  1.00  0.00     0.274 HD
ATOM     43  H61 UNL     1      53.487   6.785  14.519  1.00  0.00     0.274 HD
ENDBRANCH  37  40
ENDBRANCH  32  34
ENDBRANCH  23  32
ENDBRANCH  13  18
ENDBRANCH   5   8
ENDBRANCH   1   4
BRANCH   1  44
HETATM   44  C25 UNL     1      59.602   8.942   4.358  1.00  0.00     0.022 A 
HETATM   45  C26 UNL     1      59.467   9.880   3.168  1.00  0.00     0.008 A 
HETATM   46  C27 UNL     1      60.165  10.324   4.403  1.00  0.00     0.008 A 
ENDBRANCH   1  44
TORSDOF 9
ENDMDL
MODEL 3
REMARK VINA RESULT: -7.920810897      2.266      3.231
REMARK  9 active torsions:
REMARK  status: ('A' for Active; 'I' for Inactive)
REMARK    1  A    between atoms: C2_2  and  C3_4 
REMARK    2  A    between atoms: N1_8  and  C7_9 
REMARK    3  A    between atoms: C8_12  and  N3_13 
REMARK    4  A    between atoms: C13_20  and  N5_21 
REMARK    5  A    between atoms: N5_21  and  C14_23 
REMARK    6  A    between atoms: C17_26  and  N6_27 
REMARK    7  A    between atoms: C21_36  and  C22_37 
REMARK       I    between atoms: C22_37  and  N8_39 
REMARK    8  A    between atoms: N8_39  and  C23_41 
REMARK    9  A    between atoms: C23_41  and  C25_44 
ROOT
HETATM    1  C23 UNL     1      57.930   3.604   2.998  1.00  0.00     0.196 C 
HETATM    2  C24 UNL     1      57.573   2.830   1.818  1.00  0.00     0.085 C 
HETATM    3  N9  UNL     1      57.264   2.208   0.872  1.00  0.00    -0.195 NA
ENDROOT
BRANCH   1   4
HETATM    4  N8  UNL     1      58.410   2.694   4.012  1.00  0.00    -0.343 N 
HETATM    5  C22 UNL     1      58.388   2.992   5.388  1.00  0.00     0.225 C 
HETATM    6  O2  UNL     1      57.939   4.094   5.776  1.00  0.00    -0.273 OA
ATOM      7  H8  UNL     1      58.784   1.792   3.717  1.00  0.00     0.163 HD
BRANCH   5   8
HETATM    8  C21 UNL     1      58.888   2.016   6.371  1.00  0.00     0.108 C 
HETATM    9  C3  UNL     1      59.795   0.965   5.766  1.00  0.00     0.071 C 
HETATM   10  C4  UNL     1      59.371  -0.437   6.010  1.00  0.00     0.038 C 
HETATM   11  C5  UNL     1      58.885  -0.739   7.415  1.00  0.00     0.099 C 
HETATM   12  C6  UNL     1      59.955  -1.329   8.267  1.00  0.00     0.033 C 
HETATM   13  N1  UNL     1      58.221   0.396   7.963  1.00  0.00    -0.211 N 
HETATM   14  C20 UNL     1      57.670   1.338   6.970  1.00  0.00     0.156 C 
BRANCH   9  15
HETATM   15  C2  UNL     1      61.222   1.234   6.049  1.00  0.00     0.128 C 
HETATM   16  C1  UNL     1      61.611   1.923   7.301  1.00  0.00     0.091 C 
HETATM   17  O1  UNL     1      62.069   0.895   5.264  1.00  0.00    -0.298 OA
ENDBRANCH   9  15
BRANCH  13  18
HETATM   18  C7  UNL     1      58.052   0.624   9.342  1.00  0.00     0.709 A 
HETATM   19  N2  UNL     1      58.462  -0.283  10.224  1.00  0.00    -0.021 N 
HETATM   20  C8  UNL     1      58.351  -0.127  11.539  1.00  0.00     0.709 A 
ATOM     21  H2  UNL     1      58.883  -1.143   9.873  1.00  0.00     0.203 HD
HETATM   22  N4  UNL     1      57.794   1.016  12.022  1.00  0.00    -0.021 N 
HETATM   23  C13 UNL     1      57.365   1.959  11.182  1.00  0.00     0.707 A 
ATOM     24  H4  UNL     1      57.703   1.152  13.028  1.00  0.00     0.203 HD
HETATM   25  N7  UNL     1      57.498   1.757   9.842  1.00  0.00    -0.021 N 
ATOM     26  H7  UNL     1      57.172   2.476   9.197  1.00  0.00     0.203 HD
BRANCH  20  27
HETATM   27  N3  UNL     1      58.801  -1.141  12.440  1.00  0.00    -0.217 N 
HETATM   28  C9  UNL     1      58.645  -2.538  12.224  1.00  0.00     0.141 C 
HETATM   29  C10 UNL     1      59.586  -3.237  13.138  1.00  0.00     0.022 C 
HETATM   30  C11 UNL     1      59.813  -2.241  14.252  1.00  0.00     0.022 C 
HETATM   31  C12 UNL     1      59.477  -0.892  13.668  1.00  0.00     0.141 C 
ENDBRANCH  20  27
BRANCH  23  32
HETATM   32  N5  UNL     1      56.827   3.064  11.563  1.00  0.00    -0.220 N 
ATOM     33  H5  UNL     1      56.870   3.330  12.547  1.00  0.00     0.178 HD
BRANCH  32  34
HETATM   34  C14 UNL     1      56.152   3.951  10.603  1.00  0.00     0.099 C 
HETATM   35  C15 UNL     1      54.691   3.909  10.929  1.00  0.00     0.027 C 
HETATM   36  C16 UNL     1      54.469   4.893  12.085  1.00  0.00     0.035 C 
HETATM   37  C17 UNL     1      54.594   6.266  11.459  1.00  0.00     0.183 C 
HETATM   38  C18 UNL     1      55.896   6.462  10.752  1.00  0.00     0.035 C 
HETATM   39  C19 UNL     1      56.795   5.287  10.704  1.00  0.00     0.027 C 
BRANCH  37  40
HETATM   40  N6  UNL     1      54.308   7.266  12.463  1.00  0.00    -0.075 N 
ATOM     41  H63 UNL     1      53.374   7.163  12.861  1.00  0.00     0.274 HD
ATOM     42  H62 UNL     1      54.844   7.123  13.319  1.00  0.00     0.274 HD
ATOM     43  H61 UNL     1      54.458   8.191  12.060  1.00  0.00     0.274 HD
ENDBRANCH  37  40
ENDBRANCH  32  34
ENDBRANCH  23  32
ENDBRANCH  13  18
ENDBRANCH   5   8
ENDBRANCH   1   4
BRANCH   1  44
HETATM   44  C25 UNL     1      59.016   4.592   2.667  1.00  0.00     0.022 A 
HETATM   45  C26 UNL     1      58.762   6.051   3.014  1.00  0.00     0.008 A 
HETATM   46  C27 UNL     1      58.719   5.594   1.600  1.00  0.00     0.008 A 
ENDBRANCH   1  44
TORSDOF 9
ENDMDL
MODEL 4
REMARK VINA RESULT: -7.418242406      0.946      5.258
REMARK  9 active torsions:
REMARK  status: ('A' for Active; 'I' for Inactive)
REMARK    1  A    between atoms: C2_2  and  C3_4 
REMARK    2  A    between atoms: N1_8  and  C7_9 
REMARK    3  A    between atoms: C8_12  and  N3_13 
REMARK    4  A    between atoms: C13_20  and  N5_21 
REMARK    5  A    between atoms: N5_21  and  C14_23 
REMARK    6  A    between atoms: C17_26  and  N6_27 
REMARK    7  A    between atoms: C21_36  and  C22_37 
REMARK       I    between atoms: C22_37  and  N8_39 
REMARK    8  A    between atoms: N8_39  and  C23_41 
REMARK    9  A    between atoms: C23_41  and  C25_44 
ROOT
HETATM    1  C23 UNL     1      55.841  -1.180   3.217  1.00  0.00     0.196 C 
HETATM    2  C24 UNL     1      55.143  -2.307   3.821  1.00  0.00     0.085 C 
HETATM    3  N9  UNL     1      54.563  -3.202   4.310  1.00  0.00    -0.195 NA
ENDROOT
BRANCH   1   4
HETATM    4  N8  UNL     1      56.723  -0.607   4.207  1.00  0.00    -0.343 N 
HETATM    5  C22 UNL     1      56.624   0.726   4.647  1.00  0.00     0.225 C 
HETATM    6  O2  UNL     1      55.739   1.472   4.170  1.00  0.00    -0.273 OA
ATOM      7  H8  UNL     1      57.453  -1.197   4.606  1.00  0.00     0.163 HD
BRANCH   5   8
HETATM    8  C21 UNL     1      57.552   1.248   5.665  1.00  0.00     0.108 C 
HETATM    9  C3  UNL     1      58.893   1.662   5.097  1.00  0.00     0.071 C 
HETATM   10  C4  UNL     1      60.066   1.011   5.733  1.00  0.00     0.038 C 
HETATM   11  C5  UNL     1      60.013   0.902   7.246  1.00  0.00     0.099 C 
HETATM   12  C6  UNL     1      60.758   2.004   7.917  1.00  0.00     0.033 C 
HETATM   13  N1  UNL     1      58.670   0.716   7.682  1.00  0.00    -0.211 N 
HETATM   14  C20 UNL     1      57.761   0.136   6.675  1.00  0.00     0.156 C 
BRANCH   9  15
HETATM   15  C2  UNL     1      59.007   3.131   4.956  1.00  0.00     0.128 C 
HETATM   16  C1  UNL     1      58.248   4.022   5.864  1.00  0.00     0.091 C 
HETATM   17  O1  UNL     1      59.714   3.605   4.106  1.00  0.00    -0.298 OA
ENDBRANCH   9  15
BRANCH  13  18
HETATM   18  C7  UNL     1      58.210   1.018   8.978  1.00  0.00     0.709 A 
HETATM   19  N2  UNL     1      57.537   2.143   9.201  1.00  0.00    -0.021 N 
HETATM   20  C8  UNL     1      57.057   2.484  10.394  1.00  0.00     0.709 A 
ATOM     21  H2  UNL     1      57.381   2.778   8.418  1.00  0.00     0.203 HD
HETATM   22  N4  UNL     1      57.255   1.646  11.446  1.00  0.00    -0.021 N 
HETATM   23  C13 UNL     1      57.923   0.504  11.278  1.00  0.00     0.707 A 
ATOM     24  H4  UNL     1      56.892   1.891  12.367  1.00  0.00     0.203 HD
HETATM   25  N7  UNL     1      58.398   0.196  10.040  1.00  0.00    -0.021 N 
ATOM     26  H7  UNL     1      58.909  -0.677   9.907  1.00  0.00     0.203 HD
BRANCH  20  27
HETATM   27  N3  UNL     1      56.349   3.711  10.577  1.00  0.00    -0.217 N 
HETATM   28  C9  UNL     1      56.914   5.003  10.390  1.00  0.00     0.141 C 
HETATM   29  C10 UNL     1      55.789   5.965  10.264  1.00  0.00     0.022 C 
HETATM   30  C11 UNL     1      54.645   5.278  10.973  1.00  0.00     0.022 C 
HETATM   31  C12 UNL     1      54.982   3.808  10.962  1.00  0.00     0.141 C 
ENDBRANCH  20  27
BRANCH  23  32
HETATM   32  N5  UNL     1      58.151  -0.338  12.225  1.00  0.00    -0.220 N 
ATOM     33  H5  UNL     1      57.827  -0.129  13.170  1.00  0.00     0.178 HD
BRANCH  32  34
HETATM   34  C14 UNL     1      58.869  -1.595  11.967  1.00  0.00     0.099 C 
HETATM   35  C15 UNL     1      60.177  -1.502  12.689  1.00  0.00     0.027 C 
HETATM   36  C16 UNL     1      59.904  -1.887  14.149  1.00  0.00     0.035 C 
HETATM   37  C17 UNL     1      59.686  -3.384  14.123  1.00  0.00     0.183 C 
HETATM   38  C18 UNL     1      58.597  -3.794  13.186  1.00  0.00     0.035 C 
HETATM   39  C19 UNL     1      57.980  -2.709  12.390  1.00  0.00     0.027 C 
BRANCH  37  40
HETATM   40  N6  UNL     1      59.510  -3.856  15.479  1.00  0.00    -0.075 N 
ATOM     41  H63 UNL     1      58.848  -4.631  15.539  1.00  0.00     0.274 HD
ATOM     42  H62 UNL     1      60.333  -4.344  15.831  1.00  0.00     0.274 HD
ATOM     43  H61 UNL     1      59.241  -3.069  16.071  1.00  0.00     0.274 HD
ENDBRANCH  37  40
ENDBRANCH  32  34
ENDBRANCH  23  32
ENDBRANCH  13  18
ENDBRANCH   5   8
ENDBRANCH   1   4
BRANCH   1  44
HETATM   44  C25 UNL     1      56.654  -1.641   2.038  1.00  0.00     0.022 A 
HETATM   45  C26 UNL     1      56.845  -0.656   0.894  1.00  0.00     0.008 A 
HETATM   46  C27 UNL     1      55.931  -1.819   0.743  1.00  0.00     0.008 A 
ENDBRANCH   1  44
TORSDOF 9
ENDMDL
MODEL 5
REMARK VINA RESULT: -7.369931184      2.834      5.188
REMARK  9 active torsions:
REMARK  status: ('A' for Active; 'I' for Inactive)
REMARK    1  A    between atoms: C2_2  and  C3_4 
REMARK    2  A    between atoms: N1_8  and  C7_9 
REMARK    3  A    between atoms: C8_12  and  N3_13 
REMARK    4  A    between atoms: C13_20  and  N5_21 
REMARK    5  A    between atoms: N5_21  and  C14_23 
REMARK    6  A    between atoms: C17_26  and  N6_27 
REMARK    7  A    between atoms: C21_36  and  C22_37 
REMARK       I    between atoms: C22_37  and  N8_39 
REMARK    8  A    between atoms: N8_39  and  C23_41 
REMARK    9  A    between atoms: C23_41  and  C25_44 
ROOT
HETATM    1  C23 UNL     1      55.772  -2.865   3.610  1.00  0.00     0.196 C 
HETATM    2  C24 UNL     1      56.319  -4.208   3.474  1.00  0.00     0.085 C 
HETATM    3  N9  UNL     1      56.749  -5.296   3.382  1.00  0.00    -0.195 NA
ENDROOT
BRANCH   1   4
HETATM    4  N8  UNL     1      56.790  -2.014   4.182  1.00  0.00    -0.343 N 
HETATM    5  C22 UNL     1      56.555  -1.160   5.275  1.00  0.00     0.225 C 
HETATM    6  O2  UNL     1      55.416  -1.114   5.791  1.00  0.00    -0.273 OA
ATOM      7  H8  UNL     1      57.725  -2.034   3.773  1.00  0.00     0.163 HD
BRANCH   5   8
HETATM    8  C21 UNL     1      57.639  -0.322   5.814  1.00  0.00     0.108 C 
HETATM    9  C3  UNL     1      58.920  -1.089   6.070  1.00  0.00     0.071 C 
HETATM   10  C4  UNL     1      59.440  -0.987   7.457  1.00  0.00     0.038 C 
HETATM   11  C5  UNL     1      59.383   0.396   8.078  1.00  0.00     0.099 C 
HETATM   12  C6  UNL     1      60.680   1.120   7.959  1.00  0.00     0.033 C 
HETATM   13  N1  UNL     1      58.241   1.104   7.605  1.00  0.00    -0.211 N 
HETATM   14  C20 UNL     1      57.135   0.255   7.123  1.00  0.00     0.156 C 
BRANCH   9  15
HETATM   15  C2  UNL     1      59.931  -0.849   5.016  1.00  0.00     0.128 C 
HETATM   16  C1  UNL     1      61.342  -1.242   5.241  1.00  0.00     0.091 C 
HETATM   17  O1  UNL     1      59.612  -0.334   3.976  1.00  0.00    -0.298 OA
ENDBRANCH   9  15
BRANCH  13  18
HETATM   18  C7  UNL     1      58.121   2.507   7.612  1.00  0.00     0.709 A 
HETATM   19  N2  UNL     1      58.435   3.208   6.526  1.00  0.00    -0.021 N 
HETATM   20  C8  UNL     1      58.329   4.531   6.454  1.00  0.00     0.709 A 
ATOM     21  H2  UNL     1      58.775   2.705   5.706  1.00  0.00     0.203 HD
HETATM   22  N4  UNL     1      57.875   5.215   7.538  1.00  0.00    -0.021 N 
HETATM   23  C13 UNL     1      57.545   4.561   8.653  1.00  0.00     0.707 A 
ATOM     24  H4  UNL     1      57.786   6.230   7.499  1.00  0.00     0.203 HD
HETATM   25  N7  UNL     1      57.671   3.206   8.683  1.00  0.00    -0.021 N 
ATOM     26  H7  UNL     1      57.420   2.703   9.533  1.00  0.00     0.203 HD
BRANCH  20  27
HETATM   27  N3  UNL     1      58.690   5.234   5.263  1.00  0.00    -0.217 N 
HETATM   28  C9  UNL     1      59.743   6.186   5.177  1.00  0.00     0.141 C 
HETATM   29  C10 UNL     1      60.067   6.362   3.738  1.00  0.00     0.022 C 
HETATM   30  C11 UNL     1      58.795   5.953   3.030  1.00  0.00     0.022 C 
HETATM   31  C12 UNL     1      58.054   5.068   4.000  1.00  0.00     0.141 C 
ENDBRANCH  20  27
BRANCH  23  32
HETATM   32  N5  UNL     1      57.110   5.138   9.718  1.00  0.00    -0.220 N 
ATOM     33  H5  UNL     1      57.758   5.337  10.481  1.00  0.00     0.178 HD
BRANCH  32  34
HETATM   34  C14 UNL     1      55.695   5.517   9.852  1.00  0.00     0.099 C 
HETATM   35  C15 UNL     1      55.001   4.368  10.515  1.00  0.00     0.027 C 
HETATM   36  C16 UNL     1      55.245   4.515  12.023  1.00  0.00     0.035 C 
HETATM   37  C17 UNL     1      54.372   5.675  12.449  1.00  0.00     0.183 C 
HETATM   38  C18 UNL     1      54.650   6.923  11.677  1.00  0.00     0.035 C 
HETATM   39  C19 UNL     1      55.649   6.807  10.589  1.00  0.00     0.027 C 
BRANCH  37  40
HETATM   40  N6  UNL     1      54.467   5.832  13.883  1.00  0.00    -0.075 N 
ATOM     41  H63 UNL     1      55.000   5.080  14.322  1.00  0.00     0.274 HD
ATOM     42  H62 UNL     1      55.071   6.609  14.150  1.00  0.00     0.274 HD
ATOM     43  H61 UNL     1      53.527   5.919  14.270  1.00  0.00     0.274 HD
ENDBRANCH  37  40
ENDBRANCH  32  34
ENDBRANCH  23  32
ENDBRANCH  13  18
ENDBRANCH   5   8
ENDBRANCH   1   4
BRANCH   1  44
HETATM   44  C25 UNL     1      55.374  -2.324   2.264  1.00  0.00     0.022 A 
HETATM   45  C26 UNL     1      54.143  -1.432   2.206  1.00  0.00     0.008 A 
HETATM   46  C27 UNL     1      54.092  -2.823   1.683  1.00  0.00     0.008 A 
ENDBRANCH   1  44
TORSDOF 9
ENDMDL
