MODEL 1
REMARK VINA RESULT: -4.314054482      0.000      0.000
REMARK  2 active torsions:
REMARK  status: ('A' for Active; 'I' for Inactive)
REMARK    1  A    between atoms: C2_2  and  S1_5 
REMARK    2  A    between atoms: S1_5  and  C5_6 
ROOT
HETATM    1  C5  UNL     1     133.113   2.651  69.508  1.00  0.00     0.089 C 
HETATM    2  C6  UNL     1     133.597   1.414  70.223  1.00  0.00     0.133 C 
HETATM    3  N1  UNL     1     132.491   0.676  70.758  1.00  0.00    -0.400 N 
ATOM      4  H1  UNL     1     132.485   0.310  71.710  1.00  0.00     0.155 HD
HETATM    5  C7  UNL     1     131.394   0.492  69.856  1.00  0.00     0.285 C 
HETATM    6  O1  UNL     1     131.062   1.607  69.117  1.00  0.00    -0.371 OA
HETATM    7  C8  UNL     1     132.121   2.186  68.448  1.00  0.00     0.186 C 
ENDROOT
BRANCH   1   8
HETATM    8  S1  UNL     1     134.469   3.481  68.677  1.00  0.00    -0.152 SA
BRANCH   8   9
HETATM    9  C2  UNL     1     134.791   5.140  69.277  1.00  0.00    -0.003 C 
HETATM   10  C1  UNL     1     134.605   5.131  70.790  1.00  0.00     0.026 C 
HETATM   11  C3  UNL     1     136.182   5.630  69.015  1.00  0.00     0.026 C 
HETATM   12  C4  UNL     1     133.804   6.091  68.619  1.00  0.00     0.026 C 
ENDBRANCH   8   9
ENDBRANCH   1   8
TORSDOF 2
ENDMDL
MODEL 2
REMARK VINA RESULT: -4.272042506     13.532     14.398
REMARK  2 active torsions:
REMARK  status: ('A' for Active; 'I' for Inactive)
REMARK    1  A    between atoms: C2_2  and  S1_5 
REMARK    2  A    between atoms: S1_5  and  C5_6 
ROOT
HETATM    1  C5  UNL     1     122.309  12.343  71.468  1.00  0.00     0.089 C 
HETATM    2  C6  UNL     1     121.358  11.676  70.505  1.00  0.00     0.133 C 
HETATM    3  N1  UNL     1     120.043  11.597  71.070  1.00  0.00    -0.400 N 
ATOM      4  H1  UNL     1     119.483  10.746  71.038  1.00  0.00     0.155 HD
HETATM    5  C7  UNL     1     119.575  12.805  71.682  1.00  0.00     0.285 C 
HETATM    6  O1  UNL     1     120.511  13.463  72.449  1.00  0.00    -0.371 OA
HETATM    7  C8  UNL     1     121.709  13.703  71.807  1.00  0.00     0.186 C 
ENDROOT
BRANCH   1   8
HETATM    8  S1  UNL     1     123.909  12.614  70.701  1.00  0.00    -0.152 SA
BRANCH   8   9
HETATM    9  C2  UNL     1     125.269  11.798  71.535  1.00  0.00    -0.003 C 
HETATM   10  C1  UNL     1     125.660  10.580  70.706  1.00  0.00     0.026 C 
HETATM   11  C3  UNL     1     126.501  12.640  71.674  1.00  0.00     0.026 C 
HETATM   12  C4  UNL     1     124.804  11.379  72.921  1.00  0.00     0.026 C 
ENDBRANCH   8   9
ENDBRANCH   1   8
TORSDOF 2
ENDMDL
MODEL 3
REMARK VINA RESULT: -4.267680957     13.502     14.359
REMARK  2 active torsions:
REMARK  status: ('A' for Active; 'I' for Inactive)
REMARK    1  A    between atoms: C2_2  and  S1_5 
REMARK    2  A    between atoms: S1_5  and  C5_6 
ROOT
HETATM    1  C5  UNL     1     122.342  12.382  71.424  1.00  0.00     0.089 C 
HETATM    2  C6  UNL     1     121.402  11.654  70.495  1.00  0.00     0.133 C 
HETATM    3  N1  UNL     1     120.093  11.565  71.072  1.00  0.00    -0.400 N 
ATOM      4  H1  UNL     1     119.553  10.700  71.077  1.00  0.00     0.155 HD
HETATM    5  C7  UNL     1     119.598  12.784  71.639  1.00  0.00     0.285 C 
HETATM    6  O1  UNL     1     120.522  13.495  72.373  1.00  0.00    -0.371 OA
HETATM    7  C8  UNL     1     121.710  13.739  71.714  1.00  0.00     0.186 C 
ENDROOT
BRANCH   1   8
HETATM    8  S1  UNL     1     123.930  12.662  70.636  1.00  0.00    -0.152 SA
BRANCH   8   9
HETATM    9  C2  UNL     1     125.294  11.790  71.407  1.00  0.00    -0.003 C 
HETATM   10  C1  UNL     1     124.844  11.361  72.799  1.00  0.00     0.026 C 
HETATM   11  C3  UNL     1     125.716  10.547  70.686  1.00  0.00     0.026 C 
HETATM   12  C4  UNL     1     126.483  12.735  71.494  1.00  0.00     0.026 C 
ENDBRANCH   8   9
ENDBRANCH   1   8
TORSDOF 2
ENDMDL
MODEL 4
REMARK VINA RESULT: -4.251344114     12.716     13.715
REMARK  2 active torsions:
REMARK  status: ('A' for Active; 'I' for Inactive)
REMARK    1  A    between atoms: C2_2  and  S1_5 
REMARK    2  A    between atoms: S1_5  and  C5_6 
ROOT
HETATM    1  C5  UNL     1     123.293  12.399  70.825  1.00  0.00     0.089 C 
HETATM    2  C6  UNL     1     122.736  13.565  70.044  1.00  0.00     0.133 C 
HETATM    3  N1  UNL     1     121.370  13.322  69.685  1.00  0.00    -0.400 N 
ATOM      4  H1  UNL     1     121.011  13.492  68.746  1.00  0.00     0.155 HD
HETATM    5  C7  UNL     1     120.545  12.823  70.745  1.00  0.00     0.285 C 
HETATM    6  O1  UNL     1     121.134  11.852  71.525  1.00  0.00    -0.371 OA
HETATM    7  C8  UNL     1     122.375  12.194  72.024  1.00  0.00     0.186 C 
ENDROOT
BRANCH   1   8
HETATM    8  S1  UNL     1     124.938  12.769  71.439  1.00  0.00    -0.152 SA
BRANCH   8   9
HETATM    9  C2  UNL     1     126.258  11.972  70.524  1.00  0.00    -0.003 C 
HETATM   10  C1  UNL     1     126.275  12.567  69.120  1.00  0.00     0.026 C 
HETATM   11  C3  UNL     1     127.624  12.186  71.101  1.00  0.00     0.026 C 
HETATM   12  C4  UNL     1     125.976  10.479  70.473  1.00  0.00     0.026 C 
ENDBRANCH   8   9
ENDBRANCH   1   8
TORSDOF 2
ENDMDL
MODEL 5
REMARK VINA RESULT: -4.236121864     13.525     14.405
REMARK  2 active torsions:
REMARK  status: ('A' for Active; 'I' for Inactive)
REMARK    1  A    between atoms: C2_2  and  S1_5 
REMARK    2  A    between atoms: S1_5  and  C5_6 
ROOT
HETATM    1  C5  UNL     1     122.312  12.341  71.459  1.00  0.00     0.089 C 
HETATM    2  C6  UNL     1     121.357  11.675  70.499  1.00  0.00     0.133 C 
HETATM    3  N1  UNL     1     120.043  11.603  71.067  1.00  0.00    -0.400 N 
ATOM      4  H1  UNL     1     119.480  10.753  71.038  1.00  0.00     0.155 HD
HETATM    5  C7  UNL     1     119.580  12.814  71.676  1.00  0.00     0.285 C 
HETATM    6  O1  UNL     1     120.520  13.471  72.440  1.00  0.00    -0.371 OA
HETATM    7  C8  UNL     1     121.718  13.704  71.795  1.00  0.00     0.186 C 
ENDROOT
BRANCH   1   8
HETATM    8  S1  UNL     1     123.912  12.605  70.689  1.00  0.00    -0.152 SA
BRANCH   8   9
HETATM    9  C2  UNL     1     125.270  11.780  71.520  1.00  0.00    -0.003 C 
HETATM   10  C1  UNL     1     126.429  12.767  71.607  1.00  0.00     0.026 C 
HETATM   11  C3  UNL     1     124.963  11.348  72.921  1.00  0.00     0.026 C 
HETATM   12  C4  UNL     1     125.664  10.558  70.705  1.00  0.00     0.026 C 
ENDBRANCH   8   9
ENDBRANCH   1   8
TORSDOF 2
ENDMDL
