MODEL 1
REMARK VINA RESULT: -7.683986416      0.000      0.000
REMARK  15 active torsions:
REMARK  status: ('A' for Active; 'I' for Inactive)
REMARK    1  A    between atoms: C2_2  and  O2_4 
REMARK    2  A    between atoms: O2_4  and  C3_5 
REMARK    3  A    between atoms: C3_5  and  C4_6 
REMARK    4  A    between atoms: C3_5  and  C33_40 
REMARK    5  A    between atoms: C4_6  and  C5_7 
REMARK    6  A    between atoms: C5_7  and  C6_8 
REMARK    7  A    between atoms: C10_12  and  O3_13 
REMARK    8  A    between atoms: O3_13  and  C11_14 
REMARK       I    between atoms: C11_14  and  N1_16 
REMARK    9  A    between atoms: C14_19  and  O5_21 
REMARK   10  A    between atoms: C21_28  and  C22_29 
REMARK   11  A    between atoms: C23_30  and  C25_32 
REMARK   12  A    between atoms: C26_33  and  C27_34 
REMARK   13  A    between atoms: C27_34  and  C29_36 
REMARK   14  A    between atoms: C29_36  and  C30_37 
REMARK   15  A    between atoms: C33_40  and  O6_43 
ROOT
HETATM    1  C6  UNL     1      10.713  -0.662  27.415  1.00  0.00     0.022 C 
HETATM    2  C7  UNL     1      10.298  -0.481  28.813  1.00  0.00    -0.080 C 
HETATM    3  C8  UNL     1      10.061  -1.628  29.739  1.00  0.00     0.043 C 
HETATM    4  C9  UNL     1      10.089   0.723  29.368  1.00  0.00     0.009 C 
HETATM    5  C10 UNL     1      10.308   1.876  28.453  1.00  0.00     0.165 C 
HETATM    6  C18 UNL     1       9.508   1.559  27.243  1.00  0.00    -0.010 C 
HETATM    7  C19 UNL     1       9.430   2.737  26.273  1.00  0.00     0.018 C 
HETATM    8  C20 UNL     1       8.144   1.009  27.453  1.00  0.00     0.018 C 
HETATM    9  C21 UNL     1      10.288   0.472  26.479  1.00  0.00     0.027 C 
ENDROOT
BRANCH   1  10
HETATM   10  C5  UNL     1      12.145  -0.910  27.172  1.00  0.00     0.012 C 
BRANCH  10  11
HETATM   11  C4  UNL     1      13.118   0.186  27.265  1.00  0.00     0.036 C 
BRANCH  11  12
HETATM   12  C3  UNL     1      14.396  -0.160  27.979  1.00  0.00     0.165 C 
BRANCH  12  13
HETATM   13  O2  UNL     1      15.527  -0.249  27.139  1.00  0.00    -0.313 OA
BRANCH  13  14
HETATM   14  C2  UNL     1      15.704   0.412  25.962  1.00  0.00     0.255 C 
HETATM   15  C1  UNL     1      15.556  -0.214  24.619  1.00  0.00     0.126 C 
HETATM   16  O1  UNL     1      16.008   1.614  25.987  1.00  0.00    -0.266 OA
ENDBRANCH  13  14
ENDBRANCH  12  13
BRANCH  12  17
HETATM   17  C33 UNL     1      14.655   0.788  29.142  1.00  0.00     0.077 C 
HETATM   18  C34 UNL     1      13.706   0.613  30.276  1.00  0.00     0.048 C 
HETATM   19  C35 UNL     1      16.060   0.600  29.679  1.00  0.00     0.048 C 
BRANCH  17  20
HETATM   20  O6  UNL     1      14.581   2.114  28.693  1.00  0.00    -0.388 OA
ATOM     21  H6  UNL     1      15.441   2.403  28.410  1.00  0.00     0.210 HD
ENDBRANCH  17  20
ENDBRANCH  12  17
ENDBRANCH  11  12
ENDBRANCH  10  11
ENDBRANCH   1  10
BRANCH   9  22
HETATM   22  C22 UNL     1       9.539  -0.000  25.316  1.00  0.00    -0.014 C 
HETATM   23  C23 UNL     1       9.994  -0.275  24.117  1.00  0.00    -0.066 C 
HETATM   24  C24 UNL     1      11.408  -0.147  23.723  1.00  0.00     0.048 C 
BRANCH  23  25
HETATM   25  C25 UNL     1       9.062  -0.734  23.099  1.00  0.00     0.003 C 
HETATM   26  C26 UNL     1       7.786  -0.498  23.248  1.00  0.00    -0.022 C 
BRANCH  26  27
HETATM   27  C27 UNL     1       6.733  -0.927  22.255  1.00  0.00     0.004 C 
HETATM   28  C28 UNL     1       6.692  -2.401  22.261  1.00  0.00     0.014 C 
BRANCH  27  29
HETATM   29  C29 UNL     1       5.502  -0.195  22.594  1.00  0.00     0.012 C 
BRANCH  29  30
HETATM   30  C30 UNL     1       5.250   0.139  24.012  1.00  0.00    -0.022 C 
HETATM   31  C31 UNL     1       5.176   1.626  24.287  1.00  0.00     0.009 C 
HETATM   32  C32 UNL     1       4.110  -0.613  24.659  1.00  0.00     0.009 C 
ENDBRANCH  29  30
ENDBRANCH  27  29
ENDBRANCH  26  27
ENDBRANCH  23  25
ENDBRANCH   9  22
BRANCH   5  33
HETATM   33  O3  UNL     1      10.177   3.115  29.020  1.00  0.00    -0.294 OA
BRANCH  33  34
HETATM   34  C11 UNL     1      11.107   4.014  29.394  1.00  0.00     0.363 C 
HETATM   35  O4  UNL     1      12.287   3.703  29.297  1.00  0.00    -0.238 OA
HETATM   36  N1  UNL     1      10.746   5.289  29.887  1.00  0.00    -0.328 N 
HETATM   37  C12 UNL     1      11.761   6.264  30.285  1.00  0.00     0.131 C 
HETATM   38  C17 UNL     1       9.362   5.698  30.031  1.00  0.00     0.131 C 
HETATM   39  C13 UNL     1      11.533   7.543  29.468  1.00  0.00     0.057 C 
HETATM   40  C14 UNL     1      10.125   8.003  29.827  1.00  0.00     0.057 C 
HETATM   41  C15 UNL     1       9.823   9.373  29.317  1.00  0.00     0.046 C 
HETATM   42  C16 UNL     1       9.177   6.971  29.234  1.00  0.00     0.057 C 
BRANCH  40  43
HETATM   43  O5  UNL     1      10.016   7.986  31.201  1.00  0.00    -0.390 OA
ATOM     44  H5  UNL     1       9.383   7.317  31.431  1.00  0.00     0.210 HD
ENDBRANCH  40  43
ENDBRANCH  33  34
ENDBRANCH   5  33
TORSDOF 15
ENDMDL
MODEL 2
REMARK VINA RESULT: -7.591006730      1.090      1.251
REMARK  15 active torsions:
REMARK  status: ('A' for Active; 'I' for Inactive)
REMARK    1  A    between atoms: C2_2  and  O2_4 
REMARK    2  A    between atoms: O2_4  and  C3_5 
REMARK    3  A    between atoms: C3_5  and  C4_6 
REMARK    4  A    between atoms: C3_5  and  C33_40 
REMARK    5  A    between atoms: C4_6  and  C5_7 
REMARK    6  A    between atoms: C5_7  and  C6_8 
REMARK    7  A    between atoms: C10_12  and  O3_13 
REMARK    8  A    between atoms: O3_13  and  C11_14 
REMARK       I    between atoms: C11_14  and  N1_16 
REMARK    9  A    between atoms: C14_19  and  O5_21 
REMARK   10  A    between atoms: C21_28  and  C22_29 
REMARK   11  A    between atoms: C23_30  and  C25_32 
REMARK   12  A    between atoms: C26_33  and  C27_34 
REMARK   13  A    between atoms: C27_34  and  C29_36 
REMARK   14  A    between atoms: C29_36  and  C30_37 
REMARK   15  A    between atoms: C33_40  and  O6_43 
ROOT
HETATM    1  C6  UNL     1      10.803  -0.200  27.040  1.00  0.00     0.022 C 
HETATM    2  C7  UNL     1      10.466  -0.198  28.470  1.00  0.00    -0.080 C 
HETATM    3  C8  UNL     1      10.416  -1.445  29.289  1.00  0.00     0.043 C 
HETATM    4  C9  UNL     1      10.167   0.918  29.154  1.00  0.00     0.009 C 
HETATM    5  C10 UNL     1      10.199   2.168  28.347  1.00  0.00     0.165 C 
HETATM    6  C18 UNL     1       9.356   1.876  27.159  1.00  0.00    -0.010 C 
HETATM    7  C19 UNL     1       9.088   3.123  26.318  1.00  0.00     0.018 C 
HETATM    8  C20 UNL     1       8.077   1.158  27.391  1.00  0.00     0.018 C 
HETATM    9  C21 UNL     1      10.195   0.960  26.247  1.00  0.00     0.027 C 
ENDROOT
BRANCH   1  10
HETATM   10  C5  UNL     1      12.233  -0.260  26.692  1.00  0.00     0.012 C 
BRANCH  10  11
HETATM   11  C4  UNL     1      13.132   0.848  27.038  1.00  0.00     0.036 C 
BRANCH  11  12
HETATM   12  C3  UNL     1      14.509   0.759  26.438  1.00  0.00     0.165 C 
BRANCH  12  13
HETATM   13  O2  UNL     1      14.611   1.287  25.132  1.00  0.00    -0.313 OA
BRANCH  13  14
HETATM   14  C2  UNL     1      14.718   0.564  23.983  1.00  0.00     0.255 C 
HETATM   15  C1  UNL     1      13.601  -0.209  23.372  1.00  0.00     0.126 C 
HETATM   16  O1  UNL     1      15.807   0.534  23.391  1.00  0.00    -0.266 OA
ENDBRANCH  13  14
ENDBRANCH  12  13
BRANCH  12  17
HETATM   17  C33 UNL     1      15.554   1.374  27.357  1.00  0.00     0.077 C 
HETATM   18  C34 UNL     1      15.001   2.389  28.296  1.00  0.00     0.048 C 
HETATM   19  C35 UNL     1      16.235   0.301  28.182  1.00  0.00     0.048 C 
BRANCH  17  20
HETATM   20  O6  UNL     1      16.562   1.974  26.587  1.00  0.00    -0.388 OA
ATOM     21  H6  UNL     1      16.967   1.320  26.029  1.00  0.00     0.210 HD
ENDBRANCH  17  20
ENDBRANCH  12  17
ENDBRANCH  11  12
ENDBRANCH  10  11
ENDBRANCH   1  10
BRANCH   9  22
HETATM   22  C22 UNL     1       9.424   0.516  25.087  1.00  0.00    -0.014 C 
HETATM   23  C23 UNL     1       9.623   0.808  23.824  1.00  0.00    -0.066 C 
HETATM   24  C24 UNL     1      10.711   1.675  23.339  1.00  0.00     0.048 C 
BRANCH  23  25
HETATM   25  C25 UNL     1       8.723   0.252  22.824  1.00  0.00     0.003 C 
HETATM   26  C26 UNL     1       7.639  -0.363  23.214  1.00  0.00    -0.022 C 
BRANCH  26  27
HETATM   27  C27 UNL     1       6.637  -0.975  22.263  1.00  0.00     0.004 C 
HETATM   28  C28 UNL     1       6.889  -2.427  22.229  1.00  0.00     0.014 C 
BRANCH  27  29
HETATM   29  C29 UNL     1       5.307  -0.508  22.687  1.00  0.00     0.012 C 
BRANCH  29  30
HETATM   30  C30 UNL     1       5.148   0.008  24.063  1.00  0.00    -0.022 C 
HETATM   31  C31 UNL     1       5.160   1.519  24.155  1.00  0.00     0.009 C 
HETATM   32  C32 UNL     1       4.009  -0.597  24.851  1.00  0.00     0.009 C 
ENDBRANCH  29  30
ENDBRANCH  27  29
ENDBRANCH  26  27
ENDBRANCH  23  25
ENDBRANCH   9  22
BRANCH   5  33
HETATM   33  O3  UNL     1       9.973   3.327  29.042  1.00  0.00    -0.294 OA
BRANCH  33  34
HETATM   34  C11 UNL     1      10.827   4.274  29.471  1.00  0.00     0.363 C 
HETATM   35  O4  UNL     1      12.029   4.044  29.409  1.00  0.00    -0.238 OA
HETATM   36  N1  UNL     1      10.365   5.508  29.983  1.00  0.00    -0.328 N 
HETATM   37  C12 UNL     1      11.299   6.537  30.441  1.00  0.00     0.131 C 
HETATM   38  C17 UNL     1       8.953   5.821  30.087  1.00  0.00     0.131 C 
HETATM   39  C13 UNL     1      11.014   7.821  29.650  1.00  0.00     0.057 C 
HETATM   40  C14 UNL     1       9.567   8.177  29.969  1.00  0.00     0.057 C 
HETATM   41  C15 UNL     1       9.192   9.537  29.482  1.00  0.00     0.046 C 
HETATM   42  C16 UNL     1       8.711   7.100  29.316  1.00  0.00     0.057 C 
BRANCH  40  43
HETATM   43  O5  UNL     1       9.412   8.115  31.337  1.00  0.00    -0.390 OA
ATOM     44  H5  UNL     1      10.142   8.578  31.731  1.00  0.00     0.210 HD
ENDBRANCH  40  43
ENDBRANCH  33  34
ENDBRANCH   5  33
TORSDOF 15
ENDMDL
MODEL 3
REMARK VINA RESULT: -7.534158858      0.690      1.870
REMARK  15 active torsions:
REMARK  status: ('A' for Active; 'I' for Inactive)
REMARK    1  A    between atoms: C2_2  and  O2_4 
REMARK    2  A    between atoms: O2_4  and  C3_5 
REMARK    3  A    between atoms: C3_5  and  C4_6 
REMARK    4  A    between atoms: C3_5  and  C33_40 
REMARK    5  A    between atoms: C4_6  and  C5_7 
REMARK    6  A    between atoms: C5_7  and  C6_8 
REMARK    7  A    between atoms: C10_12  and  O3_13 
REMARK    8  A    between atoms: O3_13  and  C11_14 
REMARK       I    between atoms: C11_14  and  N1_16 
REMARK    9  A    between atoms: C14_19  and  O5_21 
REMARK   10  A    between atoms: C21_28  and  C22_29 
REMARK   11  A    between atoms: C23_30  and  C25_32 
REMARK   12  A    between atoms: C26_33  and  C27_34 
REMARK   13  A    between atoms: C27_34  and  C29_36 
REMARK   14  A    between atoms: C29_36  and  C30_37 
REMARK   15  A    between atoms: C33_40  and  O6_43 
ROOT
HETATM    1  C6  UNL     1      10.674  -0.557  27.144  1.00  0.00     0.022 C 
HETATM    2  C7  UNL     1      10.317  -0.402  28.561  1.00  0.00    -0.080 C 
HETATM    3  C8  UNL     1      10.147  -1.565  29.481  1.00  0.00     0.043 C 
HETATM    4  C9  UNL     1      10.104   0.790  29.140  1.00  0.00     0.009 C 
HETATM    5  C10 UNL     1      10.256   1.959  28.231  1.00  0.00     0.165 C 
HETATM    6  C18 UNL     1       9.410   1.637  27.053  1.00  0.00    -0.010 C 
HETATM    7  C19 UNL     1       9.262   2.825  26.104  1.00  0.00     0.018 C 
HETATM    8  C20 UNL     1       8.070   1.053  27.317  1.00  0.00     0.018 C 
HETATM    9  C21 UNL     1      10.180   0.578  26.242  1.00  0.00     0.027 C 
ENDROOT
BRANCH   1  10
HETATM   10  C5  UNL     1      12.099  -0.767  26.835  1.00  0.00     0.012 C 
BRANCH  10  11
HETATM   11  C4  UNL     1      12.944   0.357  26.412  1.00  0.00     0.036 C 
BRANCH  11  12
HETATM   12  C3  UNL     1      14.254   0.475  27.144  1.00  0.00     0.165 C 
BRANCH  12  13
HETATM   13  O2  UNL     1      14.453  -0.502  28.143  1.00  0.00    -0.313 OA
BRANCH  13  14
HETATM   14  C2  UNL     1      14.020  -0.428  29.432  1.00  0.00     0.255 C 
HETATM   15  C1  UNL     1      13.776  -1.611  30.303  1.00  0.00     0.126 C 
HETATM   16  O1  UNL     1      13.809   0.687  29.933  1.00  0.00    -0.266 OA
ENDBRANCH  13  14
ENDBRANCH  12  13
BRANCH  12  17
HETATM   17  C33 UNL     1      15.427   0.511  26.175  1.00  0.00     0.077 C 
HETATM   18  C34 UNL     1      16.522  -0.434  26.529  1.00  0.00     0.048 C 
HETATM   19  C35 UNL     1      14.967   0.183  24.769  1.00  0.00     0.048 C 
BRANCH  17  20
HETATM   20  O6  UNL     1      15.953   1.811  26.123  1.00  0.00    -0.388 OA
ATOM     21  H6  UNL     1      16.166   2.031  25.223  1.00  0.00     0.210 HD
ENDBRANCH  17  20
ENDBRANCH  12  17
ENDBRANCH  11  12
ENDBRANCH  10  11
ENDBRANCH   1  10
BRANCH   9  22
HETATM   22  C22 UNL     1       9.392   0.102  25.107  1.00  0.00    -0.014 C 
HETATM   23  C23 UNL     1       9.795  -0.124  23.880  1.00  0.00    -0.066 C 
HETATM   24  C24 UNL     1      11.180   0.074  23.416  1.00  0.00     0.048 C 
BRANCH  23  25
HETATM   25  C25 UNL     1       8.831  -0.599  22.899  1.00  0.00     0.003 C 
HETATM   26  C26 UNL     1       7.556  -0.546  23.180  1.00  0.00    -0.022 C 
BRANCH  26  27
HETATM   27  C27 UNL     1       6.472  -1.009  22.237  1.00  0.00     0.004 C 
HETATM   28  C28 UNL     1       6.499  -2.483  22.220  1.00  0.00     0.014 C 
BRANCH  27  29
HETATM   29  C29 UNL     1       5.228  -0.340  22.654  1.00  0.00     0.012 C 
BRANCH  29  30
HETATM   30  C30 UNL     1       5.094   0.077  24.066  1.00  0.00    -0.022 C 
HETATM   31  C31 UNL     1       5.102   1.578  24.265  1.00  0.00     0.009 C 
HETATM   32  C32 UNL     1       3.974  -0.589  24.832  1.00  0.00     0.009 C 
ENDBRANCH  29  30
ENDBRANCH  27  29
ENDBRANCH  26  27
ENDBRANCH  23  25
ENDBRANCH   9  22
BRANCH   5  33
HETATM   33  O3  UNL     1      10.120   3.188  28.819  1.00  0.00    -0.294 OA
BRANCH  33  34
HETATM   34  C11 UNL     1      11.044   4.025  29.328  1.00  0.00     0.363 C 
HETATM   35  O4  UNL     1      12.219   3.680  29.301  1.00  0.00    -0.238 OA
HETATM   36  N1  UNL     1      10.682   5.275  29.882  1.00  0.00    -0.328 N 
HETATM   37  C12 UNL     1      11.691   6.184  30.426  1.00  0.00     0.131 C 
HETATM   38  C17 UNL     1       9.304   5.722  29.946  1.00  0.00     0.131 C 
HETATM   39  C13 UNL     1      11.567   7.524  29.688  1.00  0.00     0.057 C 
HETATM   40  C14 UNL     1      10.149   8.008  29.968  1.00  0.00     0.057 C 
HETATM   41  C15 UNL     1       9.931   9.419  29.535  1.00  0.00     0.046 C 
HETATM   42  C16 UNL     1       9.222   7.052  29.231  1.00  0.00     0.057 C 
BRANCH  40  43
HETATM   43  O5  UNL     1       9.930   7.899  31.324  1.00  0.00    -0.390 OA
ATOM     44  H5  UNL     1       9.329   7.177  31.463  1.00  0.00     0.210 HD
ENDBRANCH  40  43
ENDBRANCH  33  34
ENDBRANCH   5  33
TORSDOF 15
ENDMDL
MODEL 4
REMARK VINA RESULT: -7.331216213      1.190      2.027
REMARK  15 active torsions:
REMARK  status: ('A' for Active; 'I' for Inactive)
REMARK    1  A    between atoms: C2_2  and  O2_4 
REMARK    2  A    between atoms: O2_4  and  C3_5 
REMARK    3  A    between atoms: C3_5  and  C4_6 
REMARK    4  A    between atoms: C3_5  and  C33_40 
REMARK    5  A    between atoms: C4_6  and  C5_7 
REMARK    6  A    between atoms: C5_7  and  C6_8 
REMARK    7  A    between atoms: C10_12  and  O3_13 
REMARK    8  A    between atoms: O3_13  and  C11_14 
REMARK       I    between atoms: C11_14  and  N1_16 
REMARK    9  A    between atoms: C14_19  and  O5_21 
REMARK   10  A    between atoms: C21_28  and  C22_29 
REMARK   11  A    between atoms: C23_30  and  C25_32 
REMARK   12  A    between atoms: C26_33  and  C27_34 
REMARK   13  A    between atoms: C27_34  and  C29_36 
REMARK   14  A    between atoms: C29_36  and  C30_37 
REMARK   15  A    between atoms: C33_40  and  O6_43 
ROOT
HETATM    1  C6  UNL     1      11.142  -0.347  27.291  1.00  0.00     0.022 C 
HETATM    2  C7  UNL     1      10.809  -0.240  28.719  1.00  0.00    -0.080 C 
HETATM    3  C8  UNL     1      10.825  -1.414  29.641  1.00  0.00     0.043 C 
HETATM    4  C9  UNL     1      10.455   0.914  29.307  1.00  0.00     0.009 C 
HETATM    5  C10 UNL     1      10.421   2.091  28.396  1.00  0.00     0.165 C 
HETATM    6  C18 UNL     1       9.592   1.656  27.243  1.00  0.00    -0.010 C 
HETATM    7  C19 UNL     1       9.258   2.811  26.301  1.00  0.00     0.018 C 
HETATM    8  C20 UNL     1       8.352   0.897  27.544  1.00  0.00     0.018 C 
HETATM    9  C21 UNL     1      10.475   0.709  26.407  1.00  0.00     0.027 C 
ENDROOT
BRANCH   1  10
HETATM   10  C5  UNL     1      12.573  -0.364  26.940  1.00  0.00     0.012 C 
BRANCH  10  11
HETATM   11  C4  UNL     1      13.240   0.856  26.468  1.00  0.00     0.036 C 
BRANCH  11  12
HETATM   12  C3  UNL     1      14.599   0.641  25.860  1.00  0.00     0.165 C 
BRANCH  12  13
HETATM   13  O2  UNL     1      15.315  -0.448  26.403  1.00  0.00    -0.313 OA
BRANCH  13  14
HETATM   14  C2  UNL     1      16.584  -0.405  26.896  1.00  0.00     0.255 C 
HETATM   15  C1  UNL     1      17.052  -1.188  28.072  1.00  0.00     0.126 C 
HETATM   16  O1  UNL     1      17.419   0.327  26.344  1.00  0.00    -0.266 OA
ENDBRANCH  13  14
ENDBRANCH  12  13
BRANCH  12  17
HETATM   17  C33 UNL     1      14.517   0.537  24.344  1.00  0.00     0.077 C 
HETATM   18  C34 UNL     1      13.730  -0.635  23.868  1.00  0.00     0.048 C 
HETATM   19  C35 UNL     1      13.890   1.786  23.758  1.00  0.00     0.048 C 
BRANCH  17  20
HETATM   20  O6  UNL     1      15.810   0.459  23.807  1.00  0.00    -0.388 OA
ATOM     21  H6  UNL     1      16.117   1.331  23.589  1.00  0.00     0.210 HD
ENDBRANCH  17  20
ENDBRANCH  12  17
ENDBRANCH  11  12
ENDBRANCH  10  11
ENDBRANCH   1  10
BRANCH   9  22
HETATM   22  C22 UNL     1       9.724   0.129  25.294  1.00  0.00    -0.014 C 
HETATM   23  C23 UNL     1       9.806   0.429  24.020  1.00  0.00    -0.066 C 
HETATM   24  C24 UNL     1      10.714   1.451  23.469  1.00  0.00     0.048 C 
BRANCH  23  25
HETATM   25  C25 UNL     1       8.956  -0.280  23.075  1.00  0.00     0.003 C 
HETATM   26  C26 UNL     1       7.659  -0.212  23.210  1.00  0.00    -0.022 C 
BRANCH  26  27
HETATM   27  C27 UNL     1       6.685  -0.905  22.287  1.00  0.00     0.004 C 
HETATM   28  C28 UNL     1       7.014  -2.342  22.293  1.00  0.00     0.014 C 
BRANCH  27  29
HETATM   29  C29 UNL     1       5.334  -0.498  22.708  1.00  0.00     0.012 C 
BRANCH  29  30
HETATM   30  C30 UNL     1       5.153   0.023  24.080  1.00  0.00    -0.022 C 
HETATM   31  C31 UNL     1       5.107   1.535  24.159  1.00  0.00     0.009 C 
HETATM   32  C32 UNL     1       4.037  -0.618  24.872  1.00  0.00     0.009 C 
ENDBRANCH  29  30
ENDBRANCH  27  29
ENDBRANCH  26  27
ENDBRANCH  23  25
ENDBRANCH   9  22
BRANCH   5  33
HETATM   33  O3  UNL     1      10.139   3.291  28.991  1.00  0.00    -0.294 OA
BRANCH  33  34
HETATM   34  C11 UNL     1      10.954   4.276  29.414  1.00  0.00     0.363 C 
HETATM   35  O4  UNL     1      12.164   4.099  29.344  1.00  0.00    -0.238 OA
HETATM   36  N1  UNL     1      10.441   5.489  29.927  1.00  0.00    -0.328 N 
HETATM   37  C12 UNL     1      11.332   6.559  30.378  1.00  0.00     0.131 C 
HETATM   38  C17 UNL     1       9.018   5.740  30.041  1.00  0.00     0.131 C 
HETATM   39  C13 UNL     1      10.985   7.827  29.587  1.00  0.00     0.057 C 
HETATM   40  C14 UNL     1       9.527   8.120  29.916  1.00  0.00     0.057 C 
HETATM   41  C15 UNL     1       9.089   9.462  29.431  1.00  0.00     0.046 C 
HETATM   42  C16 UNL     1       8.714   7.006  29.271  1.00  0.00     0.057 C 
BRANCH  40  43
HETATM   43  O5  UNL     1       9.384   8.053  31.285  1.00  0.00    -0.390 OA
ATOM     44  H5  UNL     1      10.130   8.493  31.675  1.00  0.00     0.210 HD
ENDBRANCH  40  43
ENDBRANCH  33  34
ENDBRANCH   5  33
TORSDOF 15
ENDMDL
MODEL 5
REMARK VINA RESULT: -7.234610539      2.598      4.141
REMARK  15 active torsions:
REMARK  status: ('A' for Active; 'I' for Inactive)
REMARK    1  A    between atoms: C2_2  and  O2_4 
REMARK    2  A    between atoms: O2_4  and  C3_5 
REMARK    3  A    between atoms: C3_5  and  C4_6 
REMARK    4  A    between atoms: C3_5  and  C33_40 
REMARK    5  A    between atoms: C4_6  and  C5_7 
REMARK    6  A    between atoms: C5_7  and  C6_8 
REMARK    7  A    between atoms: C10_12  and  O3_13 
REMARK    8  A    between atoms: O3_13  and  C11_14 
REMARK       I    between atoms: C11_14  and  N1_16 
REMARK    9  A    between atoms: C14_19  and  O5_21 
REMARK   10  A    between atoms: C21_28  and  C22_29 
REMARK   11  A    between atoms: C23_30  and  C25_32 
REMARK   12  A    between atoms: C26_33  and  C27_34 
REMARK   13  A    between atoms: C27_34  and  C29_36 
REMARK   14  A    between atoms: C29_36  and  C30_37 
REMARK   15  A    between atoms: C33_40  and  O6_43 
ROOT
HETATM    1  C6  UNL     1      12.306  -0.238  28.217  1.00  0.00     0.022 C 
HETATM    2  C7  UNL     1      12.873  -0.522  29.543  1.00  0.00    -0.080 C 
HETATM    3  C8  UNL     1      13.084  -1.910  30.050  1.00  0.00     0.043 C 
HETATM    4  C9  UNL     1      13.235   0.438  30.409  1.00  0.00     0.009 C 
HETATM    5  C10 UNL     1      13.017   1.828  29.922  1.00  0.00     0.165 C 
HETATM    6  C18 UNL     1      11.605   1.853  29.463  1.00  0.00    -0.010 C 
HETATM    7  C19 UNL     1      11.128   3.266  29.132  1.00  0.00     0.018 C 
HETATM    8  C20 UNL     1      10.596   1.187  30.325  1.00  0.00     0.018 C 
HETATM    9  C21 UNL     1      11.573   1.102  28.118  1.00  0.00     0.027 C 
ENDROOT
BRANCH   1  10
HETATM   10  C5  UNL     1      13.226  -0.315  27.069  1.00  0.00     0.012 C 
BRANCH  10  11
HETATM   11  C4  UNL     1      14.285   0.687  26.895  1.00  0.00     0.036 C 
BRANCH  11  12
HETATM   12  C3  UNL     1      15.515   0.193  26.182  1.00  0.00     0.165 C 
BRANCH  12  13
HETATM   13  O2  UNL     1      15.648   0.660  24.857  1.00  0.00    -0.313 OA
BRANCH  13  14
HETATM   14  C2  UNL     1      14.628   0.907  23.989  1.00  0.00     0.255 C 
HETATM   15  C1  UNL     1      13.801  -0.150  23.344  1.00  0.00     0.126 C 
HETATM   16  O1  UNL     1      14.353   2.083  23.704  1.00  0.00    -0.266 OA
ENDBRANCH  13  14
ENDBRANCH  12  13
BRANCH  12  17
HETATM   17  C33 UNL     1      16.774   0.476  26.988  1.00  0.00     0.077 C 
HETATM   18  C34 UNL     1      16.521   0.666  28.443  1.00  0.00     0.048 C 
HETATM   19  C35 UNL     1      17.771  -0.655  26.834  1.00  0.00     0.048 C 
BRANCH  17  20
HETATM   20  O6  UNL     1      17.404   1.625  26.487  1.00  0.00    -0.388 OA
ATOM     21  H6  UNL     1      16.789   2.349  26.483  1.00  0.00     0.210 HD
ENDBRANCH  17  20
ENDBRANCH  12  17
ENDBRANCH  11  12
ENDBRANCH  10  11
ENDBRANCH   1  10
BRANCH   9  22
HETATM   22  C22 UNL     1      10.206   0.969  27.617  1.00  0.00    -0.014 C 
HETATM   23  C23 UNL     1       9.778   1.112  26.386  1.00  0.00    -0.066 C 
HETATM   24  C24 UNL     1      10.647   1.449  25.244  1.00  0.00     0.048 C 
BRANCH  23  25
HETATM   25  C25 UNL     1       8.361   0.934  26.109  1.00  0.00     0.003 C 
HETATM   26  C26 UNL     1       7.944   0.966  24.872  1.00  0.00    -0.022 C 
BRANCH  26  27
HETATM   27  C27 UNL     1       6.499   0.791  24.471  1.00  0.00     0.004 C 
HETATM   28  C28 UNL     1       5.814   2.074  24.710  1.00  0.00     0.014 C 
BRANCH  27  29
HETATM   29  C29 UNL     1       6.497   0.245  23.104  1.00  0.00     0.012 C 
BRANCH  29  30
HETATM   30  C30 UNL     1       6.549  -1.223  22.933  1.00  0.00    -0.022 C 
HETATM   31  C31 UNL     1       5.191  -1.864  22.735  1.00  0.00     0.009 C 
HETATM   32  C32 UNL     1       7.561  -1.721  21.928  1.00  0.00     0.009 C 
ENDBRANCH  29  30
ENDBRANCH  27  29
ENDBRANCH  26  27
ENDBRANCH  23  25
ENDBRANCH   9  22
BRANCH   5  33
HETATM   33  O3  UNL     1      13.453   2.822  30.758  1.00  0.00    -0.294 OA
BRANCH  33  34
HETATM   34  C11 UNL     1      14.699   3.191  31.110  1.00  0.00     0.363 C 
HETATM   35  O4  UNL     1      15.178   2.717  32.133  1.00  0.00    -0.238 OA
HETATM   36  N1  UNL     1      15.448   4.100  30.329  1.00  0.00    -0.328 N 
HETATM   37  C12 UNL     1      16.805   4.491  30.712  1.00  0.00     0.131 C 
HETATM   38  C17 UNL     1      14.920   4.696  29.117  1.00  0.00     0.131 C 
HETATM   39  C13 UNL     1      17.741   4.157  29.543  1.00  0.00     0.057 C 
HETATM   40  C14 UNL     1      17.221   4.972  28.365  1.00  0.00     0.057 C 
HETATM   41  C15 UNL     1      18.161   4.965  27.206  1.00  0.00     0.046 C 
HETATM   42  C16 UNL     1      15.876   4.367  27.991  1.00  0.00     0.057 C 
BRANCH  40  43
HETATM   43  O5  UNL     1      17.034   6.266  28.802  1.00  0.00    -0.390 OA
ATOM     44  H5  UNL     1      16.890   6.810  28.037  1.00  0.00     0.210 HD
ENDBRANCH  40  43
ENDBRANCH  33  34
ENDBRANCH   5  33
TORSDOF 15
ENDMDL
