MODEL 1
REMARK VINA RESULT: -8.473637038      0.000      0.000
REMARK  12 active torsions:
REMARK  status: ('A' for Active; 'I' for Inactive)
REMARK    1  A    between atoms: C2_2  and  C4_4 
REMARK    2  A    between atoms: C4_4  and  C5_5 
REMARK    3  A    between atoms: C5_5  and  O1_7 
REMARK    4  A    between atoms: C5_5  and  C7_9 
REMARK    5  A    between atoms: C8_10  and  C9_11 
REMARK    6  A    between atoms: C16_19  and  C17_20 
REMARK    7  A    between atoms: C17_20  and  C18_21 
REMARK    8  A    between atoms: C18_21  and  C19_22 
REMARK    9  A    between atoms: C19_22  and  O3_24 
REMARK   10  A    between atoms: C19_22  and  C21_26 
REMARK   11  A    between atoms: C21_26  and  C22_27 
REMARK   12  A    between atoms: C22_27  and  N1_29 
ROOT
HETATM    1  C19 UNL     1      14.069   0.139  24.633  1.00  0.00     0.073 C 
HETATM    2  C20 UNL     1      14.968   0.789  23.518  1.00  0.00     0.050 C 
ENDROOT
BRANCH   1   3
HETATM    3  C18 UNL     1      14.945   0.039  25.801  1.00  0.00     0.011 C 
BRANCH   3   4
HETATM    4  C17 UNL     1      16.374  -0.358  25.721  1.00  0.00     0.011 C 
BRANCH   4   5
HETATM    5  C16 UNL     1      17.456   0.185  26.476  1.00  0.00    -0.000 C 
HETATM    6  C9  UNL     1      18.219  -0.930  27.349  1.00  0.00     0.007 C 
HETATM    7  C10 UNL     1      19.540  -0.138  27.521  1.00  0.00     0.025 C 
HETATM    8  C11 UNL     1      17.604  -1.045  28.665  1.00  0.00    -0.002 C 
HETATM    9  C12 UNL     1      16.246  -1.682  28.770  1.00  0.00     0.011 C 
HETATM   10  C13 UNL     1      17.514   0.236  29.456  1.00  0.00     0.013 C 
HETATM   11  C14 UNL     1      16.864   1.336  28.660  1.00  0.00     0.084 C 
HETATM   12  C15 UNL     1      17.466   1.377  27.279  1.00  0.00     0.156 C 
HETATM   13  O2  UNL     1      17.939   2.478  26.952  1.00  0.00    -0.293 OA
BRANCH   6  14
HETATM   14  C8  UNL     1      18.411  -2.108  26.491  1.00  0.00    -0.013 C 
HETATM   15  C7  UNL     1      19.224  -3.254  26.781  1.00  0.00     0.007 C 
BRANCH  15  16
HETATM   16  C5  UNL     1      19.180  -4.226  27.851  1.00  0.00     0.072 C 
HETATM   17  C6  UNL     1      19.871  -3.517  29.080  1.00  0.00     0.050 C 
BRANCH  16  18
HETATM   18  C4  UNL     1      19.895  -5.500  27.708  1.00  0.00     0.045 C 
BRANCH  18  19
HETATM   19  C2  UNL     1      19.210  -6.690  27.171  1.00  0.00    -0.020 C 
HETATM   20  C1  UNL     1      19.265  -7.027  25.742  1.00  0.00     0.009 C 
HETATM   21  C3  UNL     1      19.521  -7.959  27.966  1.00  0.00     0.009 C 
ENDBRANCH  18  19
ENDBRANCH  16  18
BRANCH  16  22
HETATM   22  O1  UNL     1      17.914  -4.473  28.381  1.00  0.00    -0.386 OA
ATOM     23  H1  UNL     1      17.260  -4.298  27.714  1.00  0.00     0.211 HD
ENDBRANCH  16  22
ENDBRANCH  15  16
ENDBRANCH   6  14
ENDBRANCH   4   5
ENDBRANCH   3   4
ENDBRANCH   1   3
BRANCH   1  24
HETATM   24  O3  UNL     1      13.570  -0.993  24.056  1.00  0.00    -0.386 OA
ATOM     25  H3  UNL     1      13.274  -0.975  23.153  1.00  0.00     0.211 HD
ENDBRANCH   1  24
BRANCH   1  26
HETATM   26  C21 UNL     1      12.962   1.173  24.746  1.00  0.00     0.063 C 
BRANCH  26  27
HETATM   27  C22 UNL     1      11.613   0.888  24.282  1.00  0.00     0.085 C 
HETATM   28  C23 UNL     1      11.011   1.637  23.169  1.00  0.00     0.029 C 
BRANCH  27  29
HETATM   29  N1  UNL     1      10.659   0.789  25.428  1.00  0.00    -0.189 NA
HETATM   30  C24 UNL     1      10.108  -0.514  25.418  1.00  0.00     0.127 C 
HETATM   31  C25 UNL     1      11.051  -1.241  26.364  1.00  0.00     0.090 C 
HETATM   32  C26 UNL     1      11.328  -0.156  27.345  1.00  0.00     0.221 C 
HETATM   33  O4  UNL     1      12.586  -0.420  27.895  1.00  0.00    -0.198 OA
HETATM   34  C34 UNL     1      10.276   0.014  28.401  1.00  0.00     0.053 C 
HETATM   35  O6  UNL     1      11.325   0.981  26.568  1.00  0.00    -0.260 OA
HETATM   36  O5  UNL     1      12.502  -1.595  28.481  1.00  0.00    -0.227 OA
HETATM   37  C27 UNL     1      12.307  -1.374  29.843  1.00  0.00     0.097 C 
HETATM   38  C28 UNL     1      13.163  -2.400  30.578  1.00  0.00     0.050 C 
HETATM   39  C29 UNL     1      12.743   0.011  30.231  1.00  0.00     0.046 C 
HETATM   40  C32 UNL     1      10.890  -1.563  30.267  1.00  0.00     0.024 C 
HETATM   41  C30 UNL     1      11.436   0.684  30.539  1.00  0.00    -0.011 C 
HETATM   42  C31 UNL     1      10.715  -0.438  31.299  1.00  0.00     0.012 C 
HETATM   43  C35 UNL     1      10.674   1.115  29.327  1.00  0.00     0.015 C 
HETATM   44  C33 UNL     1       9.900  -1.209  29.150  1.00  0.00     0.018 C 
ENDBRANCH  27  29
ENDBRANCH  26  27
ENDBRANCH   1  26
TORSDOF 12
ENDMDL
MODEL 2
REMARK VINA RESULT: -8.439009305      2.855      8.960
REMARK  12 active torsions:
REMARK  status: ('A' for Active; 'I' for Inactive)
REMARK    1  A    between atoms: C2_2  and  C4_4 
REMARK    2  A    between atoms: C4_4  and  C5_5 
REMARK    3  A    between atoms: C5_5  and  O1_7 
REMARK    4  A    between atoms: C5_5  and  C7_9 
REMARK    5  A    between atoms: C8_10  and  C9_11 
REMARK    6  A    between atoms: C16_19  and  C17_20 
REMARK    7  A    between atoms: C17_20  and  C18_21 
REMARK    8  A    between atoms: C18_21  and  C19_22 
REMARK    9  A    between atoms: C19_22  and  O3_24 
REMARK   10  A    between atoms: C19_22  and  C21_26 
REMARK   11  A    between atoms: C21_26  and  C22_27 
REMARK   12  A    between atoms: C22_27  and  N1_29 
ROOT
HETATM    1  C19 UNL     1      14.148  -0.667  29.031  1.00  0.00     0.073 C 
HETATM    2  C20 UNL     1      13.795   0.576  29.927  1.00  0.00     0.050 C 
ENDROOT
BRANCH   1   3
HETATM    3  C18 UNL     1      14.084  -0.163  27.658  1.00  0.00     0.011 C 
BRANCH   3   4
HETATM    4  C17 UNL     1      13.146   0.902  27.220  1.00  0.00     0.011 C 
BRANCH   4   5
HETATM    5  C16 UNL     1      12.737   1.185  25.883  1.00  0.00    -0.000 C 
HETATM    6  C9  UNL     1      11.171   0.905  25.646  1.00  0.00     0.007 C 
HETATM    7  C10 UNL     1      11.024   1.806  24.394  1.00  0.00     0.025 C 
HETATM    8  C11 UNL     1      10.966  -0.473  25.218  1.00  0.00    -0.002 C 
HETATM    9  C12 UNL     1      11.160  -1.573  26.225  1.00  0.00     0.011 C 
HETATM   10  C13 UNL     1      11.743  -0.899  23.997  1.00  0.00     0.013 C 
HETATM   11  C14 UNL     1      13.210  -0.599  24.140  1.00  0.00     0.084 C 
HETATM   12  C15 UNL     1      13.387   0.805  24.659  1.00  0.00     0.156 C 
HETATM   13  O2  UNL     1      14.099   1.534  23.950  1.00  0.00    -0.293 OA
BRANCH   6  14
HETATM   14  C8  UNL     1      10.443   1.464  26.794  1.00  0.00    -0.013 C 
HETATM   15  C7  UNL     1       9.439   2.488  26.753  1.00  0.00     0.007 C 
BRANCH  15  16
HETATM   16  C5  UNL     1       8.153   2.558  26.095  1.00  0.00     0.072 C 
HETATM   17  C6  UNL     1       7.172   3.167  27.172  1.00  0.00     0.050 C 
BRANCH  16  18
HETATM   18  C4  UNL     1       7.495   1.325  25.649  1.00  0.00     0.045 C 
BRANCH  18  19
HETATM   19  C2  UNL     1       7.127   1.140  24.233  1.00  0.00    -0.020 C 
HETATM   20  C1  UNL     1       7.783   0.125  23.397  1.00  0.00     0.009 C 
HETATM   21  C3  UNL     1       5.616   1.013  24.027  1.00  0.00     0.009 C 
ENDBRANCH  18  19
ENDBRANCH  16  18
BRANCH  16  22
HETATM   22  O1  UNL     1       8.050   3.518  25.088  1.00  0.00    -0.386 OA
ATOM     23  H1  UNL     1       8.463   3.185  24.300  1.00  0.00     0.211 HD
ENDBRANCH  16  22
ENDBRANCH  15  16
ENDBRANCH   6  14
ENDBRANCH   4   5
ENDBRANCH   3   4
ENDBRANCH   1   3
BRANCH   1  24
HETATM   24  O3  UNL     1      13.284  -1.642  29.439  1.00  0.00    -0.386 OA
ATOM     25  H3  UNL     1      12.794  -1.534  30.246  1.00  0.00     0.211 HD
ENDBRANCH   1  24
BRANCH   1  26
HETATM   26  C21 UNL     1      15.544  -0.994  29.532  1.00  0.00     0.063 C 
BRANCH  26  27
HETATM   27  C22 UNL     1      16.573  -1.488  28.630  1.00  0.00     0.085 C 
HETATM   28  C23 UNL     1      17.016  -2.889  28.665  1.00  0.00     0.029 C 
BRANCH  27  29
HETATM   29  N1  UNL     1      17.748  -0.564  28.596  1.00  0.00    -0.189 NA
HETATM   30  C24 UNL     1      18.127  -0.399  27.242  1.00  0.00     0.127 C 
HETATM   31  C25 UNL     1      17.350   0.853  26.867  1.00  0.00     0.090 C 
HETATM   32  C26 UNL     1      17.433   1.608  28.147  1.00  0.00     0.221 C 
HETATM   33  O4  UNL     1      16.314   2.444  28.196  1.00  0.00    -0.198 OA
HETATM   34  C34 UNL     1      18.712   2.367  28.342  1.00  0.00     0.053 C 
HETATM   35  O6  UNL     1      17.388   0.617  29.103  1.00  0.00    -0.260 OA
HETATM   36  O5  UNL     1      16.395   3.243  27.154  1.00  0.00    -0.227 OA
HETATM   37  C27 UNL     1      16.922   4.457  27.593  1.00  0.00     0.097 C 
HETATM   38  C28 UNL     1      16.146   5.555  26.874  1.00  0.00     0.050 C 
HETATM   39  C29 UNL     1      16.750   4.612  29.078  1.00  0.00     0.046 C 
HETATM   40  C32 UNL     1      18.367   4.617  27.262  1.00  0.00     0.024 C 
HETATM   41  C30 UNL     1      18.162   4.496  29.578  1.00  0.00    -0.011 C 
HETATM   42  C31 UNL     1      18.904   5.322  28.518  1.00  0.00     0.012 C 
HETATM   43  C35 UNL     1      18.669   3.091  29.646  1.00  0.00     0.015 C 
HETATM   44  C33 UNL     1      19.107   3.273  27.236  1.00  0.00     0.018 C 
ENDBRANCH  27  29
ENDBRANCH  26  27
ENDBRANCH   1  26
TORSDOF 12
ENDMDL
MODEL 3
REMARK VINA RESULT: -8.372742272      3.944      8.980
REMARK  12 active torsions:
REMARK  status: ('A' for Active; 'I' for Inactive)
REMARK    1  A    between atoms: C2_2  and  C4_4 
REMARK    2  A    between atoms: C4_4  and  C5_5 
REMARK    3  A    between atoms: C5_5  and  O1_7 
REMARK    4  A    between atoms: C5_5  and  C7_9 
REMARK    5  A    between atoms: C8_10  and  C9_11 
REMARK    6  A    between atoms: C16_19  and  C17_20 
REMARK    7  A    between atoms: C17_20  and  C18_21 
REMARK    8  A    between atoms: C18_21  and  C19_22 
REMARK    9  A    between atoms: C19_22  and  O3_24 
REMARK   10  A    between atoms: C19_22  and  C21_26 
REMARK   11  A    between atoms: C21_26  and  C22_27 
REMARK   12  A    between atoms: C22_27  and  N1_29 
ROOT
HETATM    1  C19 UNL     1      15.768   0.743  26.766  1.00  0.00     0.073 C 
HETATM    2  C20 UNL     1      16.159  -0.303  25.660  1.00  0.00     0.050 C 
ENDROOT
BRANCH   1   3
HETATM    3  C18 UNL     1      14.510   0.241  27.321  1.00  0.00     0.011 C 
BRANCH   3   4
HETATM    4  C17 UNL     1      13.187   0.851  27.035  1.00  0.00     0.011 C 
BRANCH   4   5
HETATM    5  C16 UNL     1      12.623   1.107  25.750  1.00  0.00    -0.000 C 
HETATM    6  C9  UNL     1      11.046   0.790  25.695  1.00  0.00     0.007 C 
HETATM    7  C10 UNL     1      10.738   1.671  24.458  1.00  0.00     0.025 C 
HETATM    8  C11 UNL     1      10.826  -0.597  25.309  1.00  0.00    -0.002 C 
HETATM    9  C12 UNL     1      11.157  -1.679  26.300  1.00  0.00     0.011 C 
HETATM   10  C13 UNL     1      11.469  -1.023  24.012  1.00  0.00     0.013 C 
HETATM   11  C14 UNL     1      12.936  -0.691  23.984  1.00  0.00     0.084 C 
HETATM   12  C15 UNL     1      13.138   0.724  24.465  1.00  0.00     0.156 C 
HETATM   13  O2  UNL     1      13.749   1.458  23.671  1.00  0.00    -0.293 OA
BRANCH   6  14
HETATM   14  C8  UNL     1      10.441   1.349  26.912  1.00  0.00    -0.013 C 
HETATM   15  C7  UNL     1       9.562   2.481  26.987  1.00  0.00     0.007 C 
BRANCH  15  16
HETATM   16  C5  UNL     1       8.264   2.739  26.403  1.00  0.00     0.072 C 
HETATM   17  C6  UNL     1       7.440   3.467  27.536  1.00  0.00     0.050 C 
BRANCH  16  18
HETATM   18  C4  UNL     1       7.415   1.617  25.989  1.00  0.00     0.045 C 
BRANCH  18  19
HETATM   19  C2  UNL     1       6.959   1.495  24.592  1.00  0.00    -0.020 C 
HETATM   20  C1  UNL     1       7.445   0.417  23.719  1.00  0.00     0.009 C 
HETATM   21  C3  UNL     1       5.437   1.556  24.459  1.00  0.00     0.009 C 
ENDBRANCH  18  19
ENDBRANCH  16  18
BRANCH  16  22
HETATM   22  O1  UNL     1       8.242   3.717  25.408  1.00  0.00    -0.386 OA
ATOM     23  H1  UNL     1       8.161   4.572  25.816  1.00  0.00     0.211 HD
ENDBRANCH  16  22
ENDBRANCH  15  16
ENDBRANCH   6  14
ENDBRANCH   4   5
ENDBRANCH   3   4
ENDBRANCH   1   3
BRANCH   1  24
HETATM   24  O3  UNL     1      15.797   1.948  26.126  1.00  0.00    -0.386 OA
ATOM     25  H3  UNL     1      15.265   2.087  25.352  1.00  0.00     0.211 HD
ENDBRANCH   1  24
BRANCH   1  26
HETATM   26  C21 UNL     1      16.967   0.640  27.694  1.00  0.00     0.063 C 
BRANCH  26  27
HETATM   27  C22 UNL     1      18.116   1.520  27.544  1.00  0.00     0.085 C 
HETATM   28  C23 UNL     1      19.461   0.987  27.284  1.00  0.00     0.029 C 
BRANCH  27  29
HETATM   29  N1  UNL     1      18.154   2.544  28.632  1.00  0.00    -0.189 NA
HETATM   30  C24 UNL     1      18.879   3.659  28.148  1.00  0.00     0.127 C 
HETATM   31  C25 UNL     1      17.756   4.529  27.605  1.00  0.00     0.090 C 
HETATM   32  C26 UNL     1      16.693   4.240  28.606  1.00  0.00     0.221 C 
HETATM   33  O4  UNL     1      15.468   4.440  27.962  1.00  0.00    -0.198 OA
HETATM   34  C34 UNL     1      16.798   5.034  29.875  1.00  0.00     0.053 C 
HETATM   35  O6  UNL     1      16.907   2.918  28.924  1.00  0.00    -0.260 OA
HETATM   36  O5  UNL     1      15.445   5.698  27.577  1.00  0.00    -0.227 OA
HETATM   37  C27 UNL     1      14.704   6.413  28.517  1.00  0.00     0.097 C 
HETATM   38  C28 UNL     1      13.846   7.402  27.734  1.00  0.00     0.050 C 
HETATM   39  C29 UNL     1      13.814   5.498  29.311  1.00  0.00     0.046 C 
HETATM   40  C32 UNL     1      15.557   7.187  29.464  1.00  0.00     0.024 C 
HETATM   41  C30 UNL     1      14.455   5.527  30.669  1.00  0.00    -0.011 C 
HETATM   42  C31 UNL     1      14.793   7.020  30.787  1.00  0.00     0.012 C 
HETATM   43  C35 UNL     1      15.673   4.669  30.786  1.00  0.00     0.015 C 
HETATM   44  C33 UNL     1      16.907   6.505  29.717  1.00  0.00     0.018 C 
ENDBRANCH  27  29
ENDBRANCH  26  27
ENDBRANCH   1  26
TORSDOF 12
ENDMDL
MODEL 4
REMARK VINA RESULT: -8.315038935      2.745      8.930
REMARK  12 active torsions:
REMARK  status: ('A' for Active; 'I' for Inactive)
REMARK    1  A    between atoms: C2_2  and  C4_4 
REMARK    2  A    between atoms: C4_4  and  C5_5 
REMARK    3  A    between atoms: C5_5  and  O1_7 
REMARK    4  A    between atoms: C5_5  and  C7_9 
REMARK    5  A    between atoms: C8_10  and  C9_11 
REMARK    6  A    between atoms: C16_19  and  C17_20 
REMARK    7  A    between atoms: C17_20  and  C18_21 
REMARK    8  A    between atoms: C18_21  and  C19_22 
REMARK    9  A    between atoms: C19_22  and  O3_24 
REMARK   10  A    between atoms: C19_22  and  C21_26 
REMARK   11  A    between atoms: C21_26  and  C22_27 
REMARK   12  A    between atoms: C22_27  and  N1_29 
ROOT
HETATM    1  C19 UNL     1      11.188  -1.140  29.557  1.00  0.00     0.073 C 
HETATM    2  C20 UNL     1      10.619  -1.907  30.806  1.00  0.00     0.050 C 
ENDROOT
BRANCH   1   3
HETATM    3  C18 UNL     1      10.146  -1.271  28.537  1.00  0.00     0.011 C 
BRANCH   3   4
HETATM    4  C17 UNL     1      10.379  -1.022  27.091  1.00  0.00     0.011 C 
BRANCH   4   5
HETATM    5  C16 UNL     1      10.729   0.220  26.483  1.00  0.00    -0.000 C 
HETATM    6  C9  UNL     1       9.712   0.639  25.309  1.00  0.00     0.007 C 
HETATM    7  C10 UNL     1      10.051   2.151  25.321  1.00  0.00     0.025 C 
HETATM    8  C11 UNL     1      10.166   0.100  24.034  1.00  0.00    -0.002 C 
HETATM    9  C12 UNL     1      10.054  -1.382  23.801  1.00  0.00     0.011 C 
HETATM   10  C13 UNL     1      11.573   0.469  23.634  1.00  0.00     0.013 C 
HETATM   11  C14 UNL     1      12.560   0.156  24.725  1.00  0.00     0.084 C 
HETATM   12  C15 UNL     1      12.026   0.655  26.043  1.00  0.00     0.156 C 
HETATM   13  O2  UNL     1      12.782   1.433  26.648  1.00  0.00    -0.293 OA
BRANCH   6  14
HETATM   14  C8  UNL     1       8.348   0.394  25.799  1.00  0.00    -0.013 C 
HETATM   15  C7  UNL     1       7.164   1.118  25.430  1.00  0.00     0.007 C 
BRANCH  15  16
HETATM   16  C5  UNL     1       6.510   1.319  24.156  1.00  0.00     0.072 C 
HETATM   17  C6  UNL     1       4.967   1.176  24.458  1.00  0.00     0.050 C 
BRANCH  16  18
HETATM   18  C4  UNL     1       6.760   0.386  23.053  1.00  0.00     0.045 C 
BRANCH  18  19
HETATM   19  C2  UNL     1       6.239  -0.993  23.102  1.00  0.00    -0.020 C 
HETATM   20  C1  UNL     1       4.837  -1.295  22.781  1.00  0.00     0.009 C 
HETATM   21  C3  UNL     1       7.120  -1.985  22.340  1.00  0.00     0.009 C 
ENDBRANCH  18  19
ENDBRANCH  16  18
BRANCH  16  22
HETATM   22  O1  UNL     1       6.551   2.624  23.665  1.00  0.00    -0.386 OA
ATOM     23  H1  UNL     1       7.228   3.107  24.125  1.00  0.00     0.211 HD
ENDBRANCH  16  22
ENDBRANCH  15  16
ENDBRANCH   6  14
ENDBRANCH   4   5
ENDBRANCH   3   4
ENDBRANCH   1   3
BRANCH   1  24
HETATM   24  O3  UNL     1      12.420  -1.690  29.347  1.00  0.00    -0.386 OA
ATOM     25  H3  UNL     1      13.102  -1.588  30.000  1.00  0.00     0.211 HD
ENDBRANCH   1  24
BRANCH   1  26
HETATM   26  C21 UNL     1      11.354   0.257  30.130  1.00  0.00     0.063 C 
BRANCH  26  27
HETATM   27  C22 UNL     1      12.105   0.486  31.354  1.00  0.00     0.085 C 
HETATM   28  C23 UNL     1      11.440   0.908  32.595  1.00  0.00     0.029 C 
BRANCH  27  29
HETATM   29  N1  UNL     1      13.315   1.324  31.093  1.00  0.00    -0.189 NA
HETATM   30  C24 UNL     1      14.354   0.852  31.930  1.00  0.00     0.127 C 
HETATM   31  C25 UNL     1      15.052  -0.136  31.008  1.00  0.00     0.090 C 
HETATM   32  C26 UNL     1      14.904   0.570  29.706  1.00  0.00     0.221 C 
HETATM   33  O4  UNL     1      14.920  -0.411  28.710  1.00  0.00    -0.198 OA
HETATM   34  C34 UNL     1      15.925   1.641  29.457  1.00  0.00     0.053 C 
HETATM   35  O6  UNL     1      13.676   1.184  29.816  1.00  0.00    -0.260 OA
HETATM   36  O5  UNL     1      16.081  -1.023  28.803  1.00  0.00    -0.227 OA
HETATM   37  C27 UNL     1      16.922  -0.480  27.832  1.00  0.00     0.097 C 
HETATM   38  C28 UNL     1      17.703  -1.643  27.232  1.00  0.00     0.050 C 
HETATM   39  C29 UNL     1      16.128   0.201  26.752  1.00  0.00     0.046 C 
HETATM   40  C32 UNL     1      17.900   0.498  28.391  1.00  0.00     0.024 C 
HETATM   41  C30 UNL     1      16.443   1.651  26.988  1.00  0.00    -0.011 C 
HETATM   42  C31 UNL     1      17.946   1.566  27.288  1.00  0.00     0.012 C 
HETATM   43  C35 UNL     1      15.682   2.261  28.121  1.00  0.00     0.015 C 
HETATM   44  C33 UNL     1      17.343   1.238  29.614  1.00  0.00     0.018 C 
ENDBRANCH  27  29
ENDBRANCH  26  27
ENDBRANCH   1  26
TORSDOF 12
ENDMDL
MODEL 5
REMARK VINA RESULT: -8.301001778      2.714      9.363
REMARK  12 active torsions:
REMARK  status: ('A' for Active; 'I' for Inactive)
REMARK    1  A    between atoms: C2_2  and  C4_4 
REMARK    2  A    between atoms: C4_4  and  C5_5 
REMARK    3  A    between atoms: C5_5  and  O1_7 
REMARK    4  A    between atoms: C5_5  and  C7_9 
REMARK    5  A    between atoms: C8_10  and  C9_11 
REMARK    6  A    between atoms: C16_19  and  C17_20 
REMARK    7  A    between atoms: C17_20  and  C18_21 
REMARK    8  A    between atoms: C18_21  and  C19_22 
REMARK    9  A    between atoms: C19_22  and  O3_24 
REMARK   10  A    between atoms: C19_22  and  C21_26 
REMARK   11  A    between atoms: C21_26  and  C22_27 
REMARK   12  A    between atoms: C22_27  and  N1_29 
ROOT
HETATM    1  C19 UNL     1      15.388   0.313  28.251  1.00  0.00     0.073 C 
HETATM    2  C20 UNL     1      15.127   1.441  29.315  1.00  0.00     0.050 C 
ENDROOT
BRANCH   1   3
HETATM    3  C18 UNL     1      14.053  -0.082  27.797  1.00  0.00     0.011 C 
BRANCH   3   4
HETATM    4  C17 UNL     1      13.022   0.888  27.345  1.00  0.00     0.011 C 
BRANCH   4   5
HETATM    5  C16 UNL     1      12.625   1.150  26.001  1.00  0.00    -0.000 C 
HETATM    6  C9  UNL     1      11.075   0.807  25.738  1.00  0.00     0.007 C 
HETATM    7  C10 UNL     1      10.914   1.698  24.480  1.00  0.00     0.025 C 
HETATM    8  C11 UNL     1      10.932  -0.578  25.312  1.00  0.00    -0.002 C 
HETATM    9  C12 UNL     1      11.151  -1.667  26.327  1.00  0.00     0.011 C 
HETATM   10  C13 UNL     1      11.745  -0.977  24.106  1.00  0.00     0.013 C 
HETATM   11  C14 UNL     1      13.197  -0.620  24.273  1.00  0.00     0.084 C 
HETATM   12  C15 UNL     1      13.310   0.791  24.789  1.00  0.00     0.156 C 
HETATM   13  O2  UNL     1      14.005   1.545  24.089  1.00  0.00    -0.293 OA
BRANCH   6  14
HETATM   14  C8  UNL     1      10.307   1.341  26.871  1.00  0.00    -0.013 C 
HETATM   15  C7  UNL     1       9.351   2.412  26.828  1.00  0.00     0.007 C 
BRANCH  15  16
HETATM   16  C5  UNL     1       8.110   2.572  26.104  1.00  0.00     0.072 C 
HETATM   17  C6  UNL     1       7.107   3.210  27.143  1.00  0.00     0.050 C 
BRANCH  16  18
HETATM   18  C4  UNL     1       7.408   1.392  25.588  1.00  0.00     0.045 C 
BRANCH  18  19
HETATM   19  C2  UNL     1       7.160   1.236  24.143  1.00  0.00    -0.020 C 
HETATM   20  C1  UNL     1       7.747   0.126  23.380  1.00  0.00     0.009 C 
HETATM   21  C3  UNL     1       5.675   1.319  23.786  1.00  0.00     0.009 C 
ENDBRANCH  18  19
ENDBRANCH  16  18
BRANCH  16  22
HETATM   22  O1  UNL     1       8.117   3.562  25.121  1.00  0.00    -0.386 OA
ATOM     23  H1  UNL     1       8.861   4.136  25.265  1.00  0.00     0.211 HD
ENDBRANCH  16  22
ENDBRANCH  15  16
ENDBRANCH   6  14
ENDBRANCH   4   5
ENDBRANCH   3   4
ENDBRANCH   1   3
BRANCH   1  24
HETATM   24  O3  UNL     1      16.184  -0.590  28.895  1.00  0.00    -0.386 OA
ATOM     25  H3  UNL     1      17.053  -0.336  29.182  1.00  0.00     0.211 HD
ENDBRANCH   1  24
BRANCH   1  26
HETATM   26  C21 UNL     1      16.216   1.071  27.228  1.00  0.00     0.063 C 
BRANCH  26  27
HETATM   27  C22 UNL     1      17.534   1.591  27.559  1.00  0.00     0.085 C 
HETATM   28  C23 UNL     1      17.826   3.030  27.506  1.00  0.00     0.029 C 
BRANCH  27  29
HETATM   29  N1  UNL     1      18.608   0.808  26.874  1.00  0.00    -0.189 NA
HETATM   30  C24 UNL     1      19.838   1.133  27.494  1.00  0.00     0.127 C 
HETATM   31  C25 UNL     1      19.942   0.032  28.539  1.00  0.00     0.090 C 
HETATM   32  C26 UNL     1      19.338  -1.102  27.788  1.00  0.00     0.221 C 
HETATM   33  O4  UNL     1      18.801  -1.976  28.738  1.00  0.00    -0.198 OA
HETATM   34  C34 UNL     1      20.277  -1.799  26.848  1.00  0.00     0.053 C 
HETATM   35  O6  UNL     1      18.363  -0.494  27.027  1.00  0.00    -0.260 OA
HETATM   36  O5  UNL     1      19.803  -2.372  29.493  1.00  0.00    -0.227 OA
HETATM   37  C27 UNL     1      20.205  -3.626  29.037  1.00  0.00     0.097 C 
HETATM   38  C28 UNL     1      20.501  -4.466  30.274  1.00  0.00     0.050 C 
HETATM   39  C29 UNL     1      19.116  -4.282  28.235  1.00  0.00     0.046 C 
HETATM   40  C32 UNL     1      21.442  -3.573  28.205  1.00  0.00     0.024 C 
HETATM   41  C30 UNL     1      19.679  -4.250  26.843  1.00  0.00    -0.011 C 
HETATM   42  C31 UNL     1      21.142  -4.623  27.124  1.00  0.00     0.012 C 
HETATM   43  C35 UNL     1      19.562  -2.921  26.170  1.00  0.00     0.015 C 
HETATM   44  C33 UNL     1      21.563  -2.255  27.430  1.00  0.00     0.018 C 
ENDBRANCH  27  29
ENDBRANCH  26  27
ENDBRANCH   1  26
TORSDOF 12
ENDMDL
