MODEL 1
REMARK VINA RESULT: -8.331029717      0.000      0.000
REMARK  7 active torsions:
REMARK  status: ('A' for Active; 'I' for Inactive)
REMARK    1  A    between atoms: O1_2  and  C2_3 
REMARK    2  A    between atoms: C8_11  and  C9_12 
REMARK    3  A    between atoms: C10_14  and  O3_15 
REMARK    4  A    between atoms: C15_23  and  O5_25 
REMARK    5  A    between atoms: C17_27  and  N3_30 
REMARK    6  A    between atoms: N3_30  and  N4_32 
REMARK    7  A    between atoms: N4_32  and  N5_33 
ROOT
HETATM    1  C2  UNL     1      13.982   9.403  14.726  1.00  0.00     0.096 A 
HETATM    2  C3  UNL     1      14.404   8.299  14.059  1.00  0.00     0.051 A 
HETATM    3  C4  UNL     1      14.162   8.042  12.701  1.00  0.00     0.005 A 
HETATM    4  C5  UNL     1      13.416   9.036  12.025  1.00  0.00    -0.001 A 
HETATM    5  C6  UNL     1      12.998  10.184  12.667  1.00  0.00     0.046 A 
HETATM    6  C7  UNL     1      13.277  10.360  14.039  1.00  0.00     0.081 A 
HETATM    7  N1  UNL     1      12.843  11.549  14.660  1.00  0.00    -0.348 N 
ATOM      8  H1  UNL     1      12.997  11.674  15.661  1.00  0.00     0.166 HD
HETATM    9  C8  UNL     1      12.200  12.575  13.926  1.00  0.00     0.107 C 
HETATM   10  C10 UNL     1      12.049  12.409  12.615  1.00  0.00     0.135 C 
HETATM   11  C11 UNL     1      12.505  11.173  11.995  1.00  0.00     0.165 C 
HETATM   12  F1  UNL     1      12.830  11.339  10.685  1.00  0.00    -0.202 F 
HETATM   13  C12 UNL     1      12.788   8.713  10.890  1.00  0.00    -0.001 C 
HETATM   14  C13 UNL     1      11.944   9.470  10.013  1.00  0.00     0.053 C 
HETATM   15  C14 UNL     1      13.077   7.278  10.473  1.00  0.00     0.194 C 
HETATM   16  O4  UNL     1      12.176   6.643   9.911  1.00  0.00    -0.289 OA
HETATM   17  C15 UNL     1      14.383   6.632  10.715  1.00  0.00     0.164 C 
HETATM   18  C16 UNL     1      14.201   5.158  10.485  1.00  0.00     0.059 C 
HETATM   19  C17 UNL     1      14.768   6.848  12.148  1.00  0.00     0.213 C 
HETATM   20  C18 UNL     1      14.428   5.687  12.972  1.00  0.00     0.102 C 
HETATM   21  N2  UNL     1      14.172   4.755  13.643  1.00  0.00    -0.194 NA
ENDROOT
BRANCH  19  22
HETATM   22  N3  UNL     1      16.226   6.995  12.225  1.00  0.00    -0.220 N 
ATOM     23  H3  UNL     1      16.616   7.931  12.342  1.00  0.00     0.199 HD
BRANCH  22  24
HETATM   24  N4  UNL     1      16.991   6.048  12.156  1.00  0.00    -0.246 NA
BRANCH  24  25
HETATM   25  N5  UNL     1      17.774   5.140  11.870  1.00  0.00    -0.261 N 
ATOM     26  H52 UNL     1      17.028   4.467  12.045  1.00  0.00     0.193 HD
ATOM     27  H51 UNL     1      18.543   4.524  11.606  1.00  0.00     0.193 HD
ENDBRANCH  24  25
ENDBRANCH  22  24
ENDBRANCH  19  22
BRANCH  17  28
HETATM   28  O5  UNL     1      15.399   7.112   9.908  1.00  0.00    -0.378 OA
ATOM     29  H5  UNL     1      16.246   6.721  10.087  1.00  0.00     0.211 HD
ENDBRANCH  17  28
BRANCH   1  30
HETATM   30  O1  UNL     1      14.234   9.613  16.086  1.00  0.00    -0.354 OA
HETATM   31  C1  UNL     1      15.477  10.022  16.585  1.00  0.00     0.210 C 
ENDBRANCH   1  30
BRANCH  10  32
HETATM   32  O3  UNL     1      11.435  13.422  11.872  1.00  0.00    -0.356 OA
ATOM     33  H3  UNL     1      11.829  13.693  11.051  1.00  0.00     0.218 HD
ENDBRANCH  10  32
BRANCH   9  34
HETATM   34  C9  UNL     1      11.723  13.752  14.608  1.00  0.00     0.290 C 
HETATM   35  O2  UNL     1      10.545  14.137  14.459  1.00  0.00    -0.300 OA
ENDBRANCH   9  34
TORSDOF 7
ENDMDL
MODEL 2
REMARK VINA RESULT: -7.902290214      2.310      3.997
REMARK  7 active torsions:
REMARK  status: ('A' for Active; 'I' for Inactive)
REMARK    1  A    between atoms: O1_2  and  C2_3 
REMARK    2  A    between atoms: C8_11  and  C9_12 
REMARK    3  A    between atoms: C10_14  and  O3_15 
REMARK    4  A    between atoms: C15_23  and  O5_25 
REMARK    5  A    between atoms: C17_27  and  N3_30 
REMARK    6  A    between atoms: N3_30  and  N4_32 
REMARK    7  A    between atoms: N4_32  and  N5_33 
ROOT
HETATM    1  C2  UNL     1      12.404  10.592  11.436  1.00  0.00     0.096 A 
HETATM    2  C3  UNL     1      12.919   9.343  11.306  1.00  0.00     0.051 A 
HETATM    3  C4  UNL     1      13.576   8.638  12.327  1.00  0.00     0.005 A 
HETATM    4  C5  UNL     1      13.685   9.325  13.559  1.00  0.00    -0.001 A 
HETATM    5  C6  UNL     1      13.145  10.584  13.731  1.00  0.00     0.046 A 
HETATM    6  C7  UNL     1      12.508  11.227  12.649  1.00  0.00     0.081 A 
HETATM    7  N1  UNL     1      11.959  12.508  12.864  1.00  0.00    -0.348 N 
ATOM      8  H1  UNL     1      11.533  13.006  12.082  1.00  0.00     0.166 HD
HETATM    9  C8  UNL     1      11.985  13.118  14.141  1.00  0.00     0.107 C 
HETATM   10  C10 UNL     1      12.506  12.433  15.155  1.00  0.00     0.135 C 
HETATM   11  C11 UNL     1      13.066  11.112  14.910  1.00  0.00     0.165 C 
HETATM   12  F1  UNL     1      13.024  10.318  16.013  1.00  0.00    -0.202 F 
HETATM   13  C12 UNL     1      14.622   8.942  14.432  1.00  0.00    -0.001 C 
HETATM   14  C13 UNL     1      14.997   9.450  15.719  1.00  0.00     0.053 C 
HETATM   15  C14 UNL     1      15.382   7.718  13.945  1.00  0.00     0.194 C 
HETATM   16  O4  UNL     1      16.583   7.627  14.230  1.00  0.00    -0.289 OA
HETATM   17  C15 UNL     1      14.738   6.651  13.152  1.00  0.00     0.164 C 
HETATM   18  C16 UNL     1      15.835   5.799  12.577  1.00  0.00     0.059 C 
HETATM   19  C17 UNL     1      13.982   7.281  12.021  1.00  0.00     0.213 C 
HETATM   20  C18 UNL     1      14.759   7.259  10.781  1.00  0.00     0.102 C 
HETATM   21  N2  UNL     1      15.368   7.236   9.776  1.00  0.00    -0.194 NA
ENDROOT
BRANCH  19  22
HETATM   22  N3  UNL     1      12.774   6.488  11.764  1.00  0.00    -0.220 N 
ATOM     23  H3  UNL     1      11.965   6.621  12.372  1.00  0.00     0.199 HD
BRANCH  22  24
HETATM   24  N4  UNL     1      12.696   5.678  10.856  1.00  0.00    -0.246 NA
BRANCH  24  25
HETATM   25  N5  UNL     1      12.398   4.885   9.960  1.00  0.00    -0.261 N 
ATOM     26  H52 UNL     1      11.419   4.977  10.230  1.00  0.00     0.193 HD
ATOM     27  H51 UNL     1      12.332   4.226   9.185  1.00  0.00     0.193 HD
ENDBRANCH  24  25
ENDBRANCH  22  24
ENDBRANCH  19  22
BRANCH  17  28
HETATM   28  O5  UNL     1      13.866   5.864  13.883  1.00  0.00    -0.378 OA
ATOM     29  H5  UNL     1      14.270   5.434  14.627  1.00  0.00     0.211 HD
ENDBRANCH  17  28
BRANCH   1  30
HETATM   30  O1  UNL     1      11.768  11.265  10.387  1.00  0.00    -0.354 OA
HETATM   31  C1  UNL     1      11.595  10.714   9.111  1.00  0.00     0.210 C 
ENDBRANCH   1  30
BRANCH  10  32
HETATM   32  O3  UNL     1      12.519  13.013  16.427  1.00  0.00    -0.356 OA
ATOM     33  H3  UNL     1      11.755  12.919  16.984  1.00  0.00     0.218 HD
ENDBRANCH  10  32
BRANCH   9  34
HETATM   34  C9  UNL     1      11.462  14.452  14.308  1.00  0.00     0.290 C 
HETATM   35  O2  UNL     1      10.234  14.663  14.233  1.00  0.00    -0.300 OA
ENDBRANCH   9  34
TORSDOF 7
ENDMDL
MODEL 3
REMARK VINA RESULT: -7.737191515      2.330      3.003
REMARK  7 active torsions:
REMARK  status: ('A' for Active; 'I' for Inactive)
REMARK    1  A    between atoms: O1_2  and  C2_3 
REMARK    2  A    between atoms: C8_11  and  C9_12 
REMARK    3  A    between atoms: C10_14  and  O3_15 
REMARK    4  A    between atoms: C15_23  and  O5_25 
REMARK    5  A    between atoms: C17_27  and  N3_30 
REMARK    6  A    between atoms: N3_30  and  N4_32 
REMARK    7  A    between atoms: N4_32  and  N5_33 
ROOT
HETATM    1  C2  UNL     1      15.179   8.805  14.829  1.00  0.00     0.096 A 
HETATM    2  C3  UNL     1      16.029   7.754  14.707  1.00  0.00     0.051 A 
HETATM    3  C4  UNL     1      16.174   6.971  13.551  1.00  0.00     0.005 A 
HETATM    4  C5  UNL     1      15.348   7.345  12.464  1.00  0.00    -0.001 A 
HETATM    5  C6  UNL     1      14.495   8.428  12.547  1.00  0.00     0.046 A 
HETATM    6  C7  UNL     1      14.404   9.156  13.751  1.00  0.00     0.081 A 
HETATM    7  N1  UNL     1      13.529  10.262  13.797  1.00  0.00    -0.348 N 
ATOM      8  H1  UNL     1      13.418  10.774  14.673  1.00  0.00     0.166 HD
HETATM    9  C8  UNL     1      12.804  10.678  12.655  1.00  0.00     0.107 C 
HETATM   10  C10 UNL     1      12.998  10.022  11.514  1.00  0.00     0.135 C 
HETATM   11  C11 UNL     1      13.906   8.885  11.490  1.00  0.00     0.165 C 
HETATM   12  F1  UNL     1      14.452   8.682  10.262  1.00  0.00    -0.202 F 
HETATM   13  C12 UNL     1      15.101   6.450  11.502  1.00  0.00    -0.001 C 
HETATM   14  C13 UNL     1      14.294   6.514  10.319  1.00  0.00     0.053 C 
HETATM   15  C14 UNL     1      15.864   5.153  11.727  1.00  0.00     0.194 C 
HETATM   16  O4  UNL     1      15.323   4.094  11.387  1.00  0.00    -0.289 OA
HETATM   17  C15 UNL     1      17.211   5.123  12.331  1.00  0.00     0.164 C 
HETATM   18  C16 UNL     1      17.504   3.695  12.699  1.00  0.00     0.059 C 
HETATM   19  C17 UNL     1      17.195   5.944  13.585  1.00  0.00     0.213 C 
HETATM   20  C18 UNL     1      17.020   5.105  14.771  1.00  0.00     0.102 C 
HETATM   21  N2  UNL     1      16.894   4.440  15.733  1.00  0.00    -0.194 NA
ENDROOT
BRANCH  19  22
HETATM   22  N3  UNL     1      18.500   6.601  13.733  1.00  0.00    -0.220 N 
ATOM     23  H3  UNL     1      18.772   7.306  13.048  1.00  0.00     0.199 HD
BRANCH  22  24
HETATM   24  N4  UNL     1      19.272   6.338  14.640  1.00  0.00    -0.246 NA
BRANCH  24  25
HETATM   25  N5  UNL     1      20.128   6.280  15.525  1.00  0.00    -0.261 N 
ATOM     26  H52 UNL     1      19.667   7.057  15.997  1.00  0.00     0.193 HD
ATOM     27  H51 UNL     1      20.906   6.093  16.158  1.00  0.00     0.193 HD
ENDBRANCH  24  25
ENDBRANCH  22  24
ENDBRANCH  19  22
BRANCH  17  28
HETATM   28  O5  UNL     1      18.205   5.607  11.499  1.00  0.00    -0.378 OA
ATOM     29  H5  UNL     1      19.085   5.407  11.797  1.00  0.00     0.211 HD
ENDBRANCH  17  28
BRANCH   1  30
HETATM   30  O1  UNL     1      15.056   9.551  16.007  1.00  0.00    -0.354 OA
HETATM   31  C1  UNL     1      15.951  10.563  16.374  1.00  0.00     0.210 C 
ENDBRANCH   1  30
BRANCH  10  32
HETATM   32  O3  UNL     1      12.304  10.435  10.371  1.00  0.00    -0.356 OA
ATOM     33  H3  UNL     1      12.326   9.884   9.597  1.00  0.00     0.218 HD
ENDBRANCH  10  32
BRANCH   9  34
HETATM   34  C9  UNL     1      11.879  11.780  12.757  1.00  0.00     0.290 C 
HETATM   35  O2  UNL     1      11.952  12.742  11.965  1.00  0.00    -0.300 OA
ENDBRANCH   9  34
TORSDOF 7
ENDMDL
MODEL 4
REMARK VINA RESULT: -7.642520984      1.574      1.937
REMARK  7 active torsions:
REMARK  status: ('A' for Active; 'I' for Inactive)
REMARK    1  A    between atoms: O1_2  and  C2_3 
REMARK    2  A    between atoms: C8_11  and  C9_12 
REMARK    3  A    between atoms: C10_14  and  O3_15 
REMARK    4  A    between atoms: C15_23  and  O5_25 
REMARK    5  A    between atoms: C17_27  and  N3_30 
REMARK    6  A    between atoms: N3_30  and  N4_32 
REMARK    7  A    between atoms: N4_32  and  N5_33 
ROOT
HETATM    1  C2  UNL     1      13.739   9.682  12.982  1.00  0.00     0.096 A 
HETATM    2  C3  UNL     1      14.214   8.427  12.777  1.00  0.00     0.051 A 
HETATM    3  C4  UNL     1      13.941   7.642  11.646  1.00  0.00     0.005 A 
HETATM    4  C5  UNL     1      13.102   8.248  10.682  1.00  0.00    -0.001 A 
HETATM    5  C6  UNL     1      12.627   9.534  10.847  1.00  0.00     0.046 A 
HETATM    6  C7  UNL     1      12.942  10.252  12.020  1.00  0.00     0.081 A 
HETATM    7  N1  UNL     1      12.448  11.566  12.151  1.00  0.00    -0.348 N 
ATOM      8  H1  UNL     1      12.629  12.084  13.011  1.00  0.00     0.166 HD
HETATM    9  C8  UNL     1      11.706  12.183  11.115  1.00  0.00     0.107 C 
HETATM   10  C10 UNL     1      11.519  11.505   9.985  1.00  0.00     0.135 C 
HETATM   11  C11 UNL     1      12.039  10.150   9.873  1.00  0.00     0.165 C 
HETATM   12  F1  UNL     1      12.303   9.801   8.586  1.00  0.00    -0.202 F 
HETATM   13  C12 UNL     1      12.456   7.471   9.806  1.00  0.00    -0.001 C 
HETATM   14  C13 UNL     1      11.529   7.775   8.757  1.00  0.00     0.053 C 
HETATM   15  C14 UNL     1      12.832   6.005   9.968  1.00  0.00     0.194 C 
HETATM   16  O4  UNL     1      11.958   5.154   9.758  1.00  0.00    -0.289 OA
HETATM   17  C15 UNL     1      14.189   5.575  10.363  1.00  0.00     0.164 C 
HETATM   18  C16 UNL     1      14.104   4.124  10.742  1.00  0.00     0.059 C 
HETATM   19  C17 UNL     1      14.610   6.359  11.569  1.00  0.00     0.213 C 
HETATM   20  C18 UNL     1      14.385   5.603  12.802  1.00  0.00     0.102 C 
HETATM   21  N2  UNL     1      14.221   5.001  13.799  1.00  0.00    -0.194 NA
ENDROOT
BRANCH  19  22
HETATM   22  N3  UNL     1      16.056   6.600  11.492  1.00  0.00    -0.220 N 
ATOM     23  H3  UNL     1      16.382   7.511  11.168  1.00  0.00     0.199 HD
BRANCH  22  24
HETATM   24  N4  UNL     1      16.883   5.758  11.797  1.00  0.00    -0.246 NA
BRANCH  24  25
HETATM   25  N5  UNL     1      17.764   4.900  11.888  1.00  0.00    -0.261 N 
ATOM     26  H52 UNL     1      17.107   4.213  11.519  1.00  0.00     0.193 HD
ATOM     27  H51 UNL     1      18.596   4.327  12.028  1.00  0.00     0.193 HD
ENDBRANCH  24  25
ENDBRANCH  22  24
ENDBRANCH  19  22
BRANCH  17  28
HETATM   28  O5  UNL     1      15.137   5.748   9.371  1.00  0.00    -0.378 OA
ATOM     29  H5  UNL     1      15.835   5.104   9.393  1.00  0.00     0.211 HD
ENDBRANCH  17  28
BRANCH   1  30
HETATM   30  O1  UNL     1      14.026  10.426  14.132  1.00  0.00    -0.354 OA
HETATM   31  C1  UNL     1      15.146  10.194  14.940  1.00  0.00     0.210 C 
ENDBRANCH   1  30
BRANCH  10  32
HETATM   32  O3  UNL     1      10.807  12.109   8.944  1.00  0.00    -0.356 OA
ATOM     33  H3  UNL     1       9.921  12.411   9.108  1.00  0.00     0.218 HD
ENDBRANCH  10  32
BRANCH   9  34
HETATM   34  C9  UNL     1      11.172  13.509  11.308  1.00  0.00     0.290 C 
HETATM   35  O2  UNL     1       9.957  13.673  11.543  1.00  0.00    -0.300 OA
ENDBRANCH   9  34
TORSDOF 7
ENDMDL
MODEL 5
REMARK VINA RESULT: -7.500366777      2.362      3.503
REMARK  7 active torsions:
REMARK  status: ('A' for Active; 'I' for Inactive)
REMARK    1  A    between atoms: O1_2  and  C2_3 
REMARK    2  A    between atoms: C8_11  and  C9_12 
REMARK    3  A    between atoms: C10_14  and  O3_15 
REMARK    4  A    between atoms: C15_23  and  O5_25 
REMARK    5  A    between atoms: C17_27  and  N3_30 
REMARK    6  A    between atoms: N3_30  and  N4_32 
REMARK    7  A    between atoms: N4_32  and  N5_33 
ROOT
HETATM    1  C2  UNL     1      15.381   8.532  13.689  1.00  0.00     0.096 A 
HETATM    2  C3  UNL     1      16.098   7.384  13.783  1.00  0.00     0.051 A 
HETATM    3  C4  UNL     1      15.990   6.297  12.901  1.00  0.00     0.005 A 
HETATM    4  C5  UNL     1      15.048   6.461  11.858  1.00  0.00    -0.001 A 
HETATM    5  C6  UNL     1      14.325   7.629  11.718  1.00  0.00     0.046 A 
HETATM    6  C7  UNL     1      14.488   8.670  12.655  1.00  0.00     0.081 A 
HETATM    7  N1  UNL     1      13.740   9.852  12.475  1.00  0.00    -0.348 N 
ATOM      8  H1  UNL     1      13.812  10.598  13.167  1.00  0.00     0.166 HD
HETATM    9  C8  UNL     1      12.892  10.027  11.355  1.00  0.00     0.107 C 
HETATM   10  C10 UNL     1      12.847   9.058  10.443  1.00  0.00     0.135 C 
HETATM   11  C11 UNL     1      13.629   7.848  10.650  1.00  0.00     0.165 C 
HETATM   12  F1  UNL     1      13.960   7.238   9.481  1.00  0.00    -0.202 F 
HETATM   13  C12 UNL     1      14.574   5.375  11.239  1.00  0.00    -0.001 C 
HETATM   14  C13 UNL     1      13.607   5.214  10.194  1.00  0.00     0.053 C 
HETATM   15  C14 UNL     1      15.235   4.102  11.746  1.00  0.00     0.194 C 
HETATM   16  O4  UNL     1      14.550   3.073  11.801  1.00  0.00    -0.289 OA
HETATM   17  C15 UNL     1      16.649   4.059  12.169  1.00  0.00     0.164 C 
HETATM   18  C16 UNL     1      16.856   2.765  12.905  1.00  0.00     0.059 C 
HETATM   19  C17 UNL     1      16.902   5.192  13.117  1.00  0.00     0.213 C 
HETATM   20  C18 UNL     1      16.830   4.749  14.510  1.00  0.00     0.102 C 
HETATM   21  N2  UNL     1      16.789   4.403  15.633  1.00  0.00    -0.194 NA
ENDROOT
BRANCH  19  22
HETATM   22  N3  UNL     1      18.271   5.681  12.910  1.00  0.00    -0.220 N 
ATOM     23  H3  UNL     1      18.402   6.620  12.533  1.00  0.00     0.199 HD
BRANCH  22  24
HETATM   24  N4  UNL     1      19.257   5.013  13.170  1.00  0.00    -0.246 NA
BRANCH  24  25
HETATM   25  N5  UNL     1      20.173   4.195  13.281  1.00  0.00    -0.261 N 
ATOM     26  H52 UNL     1      20.656   4.658  12.511  1.00  0.00     0.193 HD
ATOM     27  H51 UNL     1      20.830   3.448  13.510  1.00  0.00     0.193 HD
ENDBRANCH  24  25
ENDBRANCH  22  24
ENDBRANCH  19  22
BRANCH  17  28
HETATM   28  O5  UNL     1      17.547   4.152  11.120  1.00  0.00    -0.378 OA
ATOM     29  H5  UNL     1      18.443   4.304  11.396  1.00  0.00     0.211 HD
ENDBRANCH  17  28
BRANCH   1  30
HETATM   30  O1  UNL     1      15.510   9.587  14.599  1.00  0.00    -0.354 OA
HETATM   31  C1  UNL     1      14.951   9.568  15.883  1.00  0.00     0.210 C 
ENDBRANCH   1  30
BRANCH  10  32
HETATM   32  O3  UNL     1      12.031   9.225   9.320  1.00  0.00    -0.356 OA
ATOM     33  H3  UNL     1      12.430   9.224   8.457  1.00  0.00     0.218 HD
ENDBRANCH  10  32
BRANCH   9  34
HETATM   34  C9  UNL     1      12.103  11.228  11.234  1.00  0.00     0.290 C 
HETATM   35  O2  UNL     1      12.054  11.846  10.151  1.00  0.00    -0.300 OA
ENDBRANCH   9  34
TORSDOF 7
ENDMDL
