MODEL 1
REMARK VINA RESULT: -9.047511363      0.000      0.000
REMARK  3 active torsions:
REMARK  status: ('A' for Active; 'I' for Inactive)
REMARK    1  A    between atoms: C5_13  and  N5_14 
REMARK    2  A    between atoms: N5_14  and  C6_16 
REMARK    3  A    between atoms: C7_19  and  N7_20 
ROOT
HETATM    1  N1  UNL     1      66.329  30.174   8.303  1.00  0.00    -0.190 NA
HETATM    2  C1  UNL     1      66.441  29.509   9.263  1.00  0.00     0.120 C 
HETATM    3  C2  UNL     1      66.598  28.714  10.439  1.00  0.00     0.147 A 
HETATM    4  N2  UNL     1      67.583  27.826  10.582  1.00  0.00    -0.322 N 
ATOM      5  H2  UNL     1      68.244  27.715   9.814  1.00  0.00     0.169 HD
HETATM    6  C3  UNL     1      67.756  27.070  11.676  1.00  0.00     0.181 A 
HETATM    7 CL1  UNL     1      69.107  25.926  11.761  1.00  0.00    -0.045 Cl
HETATM    8  N3  UNL     1      66.898  27.196  12.702  1.00  0.00    -0.316 N 
ATOM      9  H3  UNL     1      67.009  26.631  13.544  1.00  0.00     0.170 HD
HETATM   10  C4  UNL     1      65.892  28.080  12.600  1.00  0.00     0.153 A 
HETATM   11  N4  UNL     1      64.878  28.434  13.442  1.00  0.00    -0.173 N 
ATOM     12  H4  UNL     1      64.730  28.034  14.368  1.00  0.00     0.186 HD
HETATM   13  C5  UNL     1      64.101  29.380  12.888  1.00  0.00     0.699 A 
HETATM   14  N11 UNL     1      64.622  29.648  11.655  1.00  0.00    -0.184 N 
ATOM     15  H11 UNL     1      64.258  30.323  10.983  1.00  0.00     0.184 HD
HETATM   16  C12 UNL     1      65.703  28.863  11.482  1.00  0.00     0.131 A 
ENDROOT
BRANCH  13  17
HETATM   17  N5  UNL     1      62.964  29.969  13.485  1.00  0.00    -0.020 N 
ATOM     18  H5  UNL     1      62.231  29.333  13.799  1.00  0.00     0.203 HD
BRANCH  17  19
HETATM   19  C6  UNL     1      62.760  31.211  13.671  1.00  0.00     0.726 A 
HETATM   20  N6  UNL     1      63.402  32.202  12.998  1.00  0.00    -0.019 N 
HETATM   21  C7  UNL     1      62.966  33.390  13.411  1.00  0.00     0.710 A 
ATOM     22  H6  UNL     1      64.113  32.057  12.282  1.00  0.00     0.203 HD
HETATM   23  N9  UNL     1      62.046  33.162  14.347  1.00  0.00    -0.117 N 
HETATM   24  N10 UNL     1      61.913  31.838  14.514  1.00  0.00    -0.117 N 
ATOM     25  H9  UNL     1      61.527  33.879  14.856  1.00  0.00     0.206 HD
ATOM     26  H10 UNL     1      61.279  31.381  15.169  1.00  0.00     0.206 HD
BRANCH  21  27
HETATM   27  N7  UNL     1      63.473  34.638  12.882  1.00  0.00    -0.213 N 
HETATM   28  C8  UNL     1      63.050  35.899  13.436  1.00  0.00     0.168 C 
HETATM   29  C9  UNL     1      62.695  36.831  12.303  1.00  0.00     0.252 C 
HETATM   30  N8  UNL     1      63.821  36.946  11.420  1.00  0.00    -0.072 N 
HETATM   31  C10 UNL     1      64.200  35.691  10.836  1.00  0.00     0.252 C 
ATOM     32  H82 UNL     1      63.650  37.647  10.700  1.00  0.00     0.277 HD
ATOM     33  H81 UNL     1      64.612  37.383  11.893  1.00  0.00     0.277 HD
HETATM   34  C11 UNL     1      64.424  34.595  11.811  1.00  0.00     0.168 C 
ENDBRANCH  21  27
ENDBRANCH  17  19
ENDBRANCH  13  17
TORSDOF 3
ENDMDL
MODEL 2
REMARK VINA RESULT: -8.956671238      2.242      3.664
REMARK  3 active torsions:
REMARK  status: ('A' for Active; 'I' for Inactive)
REMARK    1  A    between atoms: C5_13  and  N5_14 
REMARK    2  A    between atoms: N5_14  and  C6_16 
REMARK    3  A    between atoms: C7_19  and  N7_20 
ROOT
HETATM    1  N1  UNL     1      66.531  25.651  15.035  1.00  0.00    -0.190 NA
HETATM    2  C1  UNL     1      66.427  26.344  14.094  1.00  0.00     0.120 C 
HETATM    3  C2  UNL     1      66.290  27.167  12.935  1.00  0.00     0.147 A 
HETATM    4  N2  UNL     1      67.020  26.990  11.834  1.00  0.00    -0.322 N 
ATOM      5  H2  UNL     1      67.705  26.234  11.829  1.00  0.00     0.169 HD
HETATM    6  C3  UNL     1      66.909  27.745  10.732  1.00  0.00     0.181 A 
HETATM    7 CL1  UNL     1      67.928  27.413   9.320  1.00  0.00    -0.045 Cl
HETATM    8  N3  UNL     1      66.016  28.748  10.712  1.00  0.00    -0.316 N 
ATOM      9  H3  UNL     1      65.914  29.336   9.885  1.00  0.00     0.170 HD
HETATM   10  C4  UNL     1      65.258  28.961  11.801  1.00  0.00     0.153 A 
HETATM   11  N4  UNL     1      64.287  29.875  12.092  1.00  0.00    -0.173 N 
ATOM     12  H4  UNL     1      63.965  30.600  11.451  1.00  0.00     0.186 HD
HETATM   13  C5  UNL     1      63.811  29.692  13.335  1.00  0.00     0.699 A 
HETATM   14  N11 UNL     1      64.489  28.633  13.866  1.00  0.00    -0.184 N 
ATOM     15  H11 UNL     1      64.358  28.243  14.799  1.00  0.00     0.184 HD
HETATM   16  C12 UNL     1      65.361  28.192  12.939  1.00  0.00     0.131 A 
ENDROOT
BRANCH  13  17
HETATM   17  N5  UNL     1      62.803  30.463  13.955  1.00  0.00    -0.020 N 
ATOM     18  H5  UNL     1      62.099  29.952  14.487  1.00  0.00     0.203 HD
BRANCH  17  19
HETATM   19  C6  UNL     1      62.683  31.729  13.920  1.00  0.00     0.726 A 
HETATM   20  N6  UNL     1      61.569  32.405  14.307  1.00  0.00    -0.019 N 
HETATM   21  C7  UNL     1      61.754  33.715  14.159  1.00  0.00     0.710 A 
ATOM     22  H6  UNL     1      60.715  31.972  14.660  1.00  0.00     0.203 HD
HETATM   23  N9  UNL     1      62.985  33.880  13.676  1.00  0.00    -0.117 N 
HETATM   24  N10 UNL     1      63.559  32.677  13.526  1.00  0.00    -0.117 N 
ATOM     25  H9  UNL     1      63.420  34.776  13.455  1.00  0.00     0.206 HD
ATOM     26  H10 UNL     1      64.500  32.506  13.172  1.00  0.00     0.206 HD
BRANCH  21  27
HETATM   27  N7  UNL     1      60.737  34.692  14.481  1.00  0.00    -0.213 N 
HETATM   28  C8  UNL     1      61.056  36.096  14.538  1.00  0.00     0.168 C 
HETATM   29  C9  UNL     1      60.458  36.678  15.796  1.00  0.00     0.252 C 
HETATM   30  N8  UNL     1      59.048  36.413  15.811  1.00  0.00    -0.072 N 
HETATM   31  C10 UNL     1      58.745  35.010  15.804  1.00  0.00     0.252 C 
ATOM     32  H82 UNL     1      58.597  36.880  16.597  1.00  0.00     0.277 HD
ATOM     33  H81 UNL     1      58.579  36.891  15.041  1.00  0.00     0.277 HD
HETATM   34  C11 UNL     1      59.399  34.238  14.719  1.00  0.00     0.168 C 
ENDBRANCH  21  27
ENDBRANCH  17  19
ENDBRANCH  13  17
TORSDOF 3
ENDMDL
MODEL 3
REMARK VINA RESULT: -8.879888781      2.979      3.849
REMARK  3 active torsions:
REMARK  status: ('A' for Active; 'I' for Inactive)
REMARK    1  A    between atoms: C5_13  and  N5_14 
REMARK    2  A    between atoms: N5_14  and  C6_16 
REMARK    3  A    between atoms: C7_19  and  N7_20 
ROOT
HETATM    1  N1  UNL     1      69.942  28.654   7.333  1.00  0.00    -0.190 NA
HETATM    2  C1  UNL     1      69.277  28.417   8.270  1.00  0.00     0.120 C 
HETATM    3  C2  UNL     1      68.488  28.137   9.427  1.00  0.00     0.147 A 
HETATM    4  N2  UNL     1      68.760  27.133  10.260  1.00  0.00    -0.322 N 
ATOM      5  H2  UNL     1      69.566  26.544  10.054  1.00  0.00     0.169 HD
HETATM    6  C3  UNL     1      68.038  26.851  11.354  1.00  0.00     0.181 A 
HETATM    7 CL1  UNL     1      68.498  25.493  12.397  1.00  0.00    -0.045 Cl
HETATM    8  N3  UNL     1      66.970  27.610  11.649  1.00  0.00    -0.316 N 
ATOM      9  H3  UNL     1      66.405  27.414  12.475  1.00  0.00     0.170 HD
HETATM   10  C4  UNL     1      66.660  28.634  10.835  1.00  0.00     0.153 A 
HETATM   11  N4  UNL     1      65.664  29.566  10.855  1.00  0.00    -0.173 N 
ATOM     12  H4  UNL     1      64.939  29.623  11.570  1.00  0.00     0.186 HD
HETATM   13  C5  UNL     1      65.765  30.400   9.806  1.00  0.00     0.699 A 
HETATM   14  N11 UNL     1      66.854  30.001   9.087  1.00  0.00    -0.184 N 
ATOM     15  H11 UNL     1      67.199  30.433   8.230  1.00  0.00     0.184 HD
HETATM   16  C12 UNL     1      67.394  28.935   9.709  1.00  0.00     0.131 A 
ENDROOT
BRANCH  13  17
HETATM   17  N5  UNL     1      64.896  31.478   9.521  1.00  0.00    -0.020 N 
ATOM     18  H5  UNL     1      63.911  31.249   9.394  1.00  0.00     0.203 HD
BRANCH  17  19
HETATM   19  C6  UNL     1      65.217  32.703   9.406  1.00  0.00     0.726 A 
HETATM   20  N6  UNL     1      64.326  33.730   9.383  1.00  0.00    -0.019 N 
HETATM   21  C7  UNL     1      64.969  34.889   9.261  1.00  0.00     0.710 A 
ATOM     22  H6  UNL     1      63.314  33.627   9.449  1.00  0.00     0.203 HD
HETATM   23  N9  UNL     1      66.270  34.608   9.205  1.00  0.00    -0.117 N 
HETATM   24  N10 UNL     1      66.432  33.279   9.292  1.00  0.00    -0.117 N 
ATOM     25  H9  UNL     1      67.021  35.292   9.112  1.00  0.00     0.206 HD
ATOM     26  H10 UNL     1      67.324  32.786   9.275  1.00  0.00     0.206 HD
BRANCH  21  27
HETATM   27  N7  UNL     1      64.284  36.163   9.198  1.00  0.00    -0.213 N 
HETATM   28  C8  UNL     1      64.264  36.929   7.978  1.00  0.00     0.168 C 
HETATM   29  C9  UNL     1      64.595  38.366   8.304  1.00  0.00     0.252 C 
HETATM   30  N8  UNL     1      63.673  38.846   9.294  1.00  0.00    -0.072 N 
HETATM   31  C10 UNL     1      63.738  38.105  10.521  1.00  0.00     0.252 C 
ATOM     32  H82 UNL     1      63.805  39.843   9.461  1.00  0.00     0.277 HD
ATOM     33  H81 UNL     1      62.721  38.863   8.927  1.00  0.00     0.277 HD
HETATM   34  C11 UNL     1      63.604  36.636  10.367  1.00  0.00     0.168 C 
ENDBRANCH  21  27
ENDBRANCH  17  19
ENDBRANCH  13  17
TORSDOF 3
ENDMDL
MODEL 4
REMARK VINA RESULT: -8.873243458      2.856      7.456
REMARK  3 active torsions:
REMARK  status: ('A' for Active; 'I' for Inactive)
REMARK    1  A    between atoms: C5_13  and  N5_14 
REMARK    2  A    between atoms: N5_14  and  C6_16 
REMARK    3  A    between atoms: C7_19  and  N7_20 
ROOT
HETATM    1  N1  UNL     1      59.422  33.094  13.939  1.00  0.00    -0.190 NA
HETATM    2  C1  UNL     1      60.546  33.293  13.668  1.00  0.00     0.120 C 
HETATM    3  C2  UNL     1      61.916  33.551  13.360  1.00  0.00     0.147 A 
HETATM    4  N2  UNL     1      62.335  34.712  12.854  1.00  0.00    -0.322 N 
ATOM      5  H2  UNL     1      61.640  35.438  12.680  1.00  0.00     0.169 HD
HETATM    6  C3  UNL     1      63.614  34.981  12.558  1.00  0.00     0.181 A 
HETATM    7 CL1  UNL     1      64.059  36.565  11.896  1.00  0.00    -0.045 Cl
HETATM    8  N3  UNL     1      64.549  34.042  12.775  1.00  0.00    -0.316 N 
ATOM      9  H3  UNL     1      65.529  34.225  12.557  1.00  0.00     0.170 HD
HETATM   10  C4  UNL     1      64.171  32.858  13.285  1.00  0.00     0.153 A 
HETATM   11  N4  UNL     1      64.859  31.725  13.611  1.00  0.00    -0.173 N 
ATOM     12  H4  UNL     1      65.866  31.610  13.503  1.00  0.00     0.186 HD
HETATM   13  C5  UNL     1      64.032  30.782  14.093  1.00  0.00     0.699 A 
HETATM   14  N11 UNL     1      62.775  31.316  14.081  1.00  0.00    -0.184 N 
ATOM     15  H11 UNL     1      61.922  30.848  14.387  1.00  0.00     0.184 HD
HETATM   16  C12 UNL     1      62.860  32.568  13.594  1.00  0.00     0.131 A 
ENDROOT
BRANCH  13  17
HETATM   17  N5  UNL     1      64.412  29.491  14.522  1.00  0.00    -0.020 N 
ATOM     18  H5  UNL     1      64.062  29.190  15.431  1.00  0.00     0.203 HD
BRANCH  17  19
HETATM   19  C6  UNL     1      65.146  28.665  13.891  1.00  0.00     0.726 A 
HETATM   20  N6  UNL     1      65.590  28.850  12.620  1.00  0.00    -0.019 N 
HETATM   21  C7  UNL     1      66.340  27.817  12.243  1.00  0.00     0.710 A 
ATOM     22  H6  UNL     1      65.380  29.661  12.039  1.00  0.00     0.203 HD
HETATM   23  N9  UNL     1      66.376  26.969  13.271  1.00  0.00    -0.117 N 
HETATM   24  N10 UNL     1      65.652  27.476  14.279  1.00  0.00    -0.117 N 
ATOM     25  H9  UNL     1      66.874  26.078  13.287  1.00  0.00     0.206 HD
ATOM     26  H10 UNL     1      65.507  27.036  15.188  1.00  0.00     0.206 HD
BRANCH  21  27
HETATM   27  N7  UNL     1      66.946  27.724  10.933  1.00  0.00    -0.213 N 
HETATM   28  C8  UNL     1      67.964  26.741  10.659  1.00  0.00     0.168 C 
HETATM   29  C9  UNL     1      69.103  27.414   9.932  1.00  0.00     0.252 C 
HETATM   30  N8  UNL     1      68.594  28.051   8.751  1.00  0.00    -0.072 N 
HETATM   31  C10 UNL     1      67.618  29.062   9.041  1.00  0.00     0.252 C 
ATOM     32  H82 UNL     1      69.353  28.428   8.184  1.00  0.00     0.277 HD
ATOM     33  H81 UNL     1      68.223  27.362   8.096  1.00  0.00     0.277 HD
HETATM   34  C11 UNL     1      66.498  28.614   9.904  1.00  0.00     0.168 C 
ENDBRANCH  21  27
ENDBRANCH  17  19
ENDBRANCH  13  17
TORSDOF 3
ENDMDL
MODEL 5
REMARK VINA RESULT: -8.869811124      1.320      2.674
REMARK  3 active torsions:
REMARK  status: ('A' for Active; 'I' for Inactive)
REMARK    1  A    between atoms: C5_13  and  N5_14 
REMARK    2  A    between atoms: N5_14  and  C6_16 
REMARK    3  A    between atoms: C7_19  and  N7_20 
ROOT
HETATM    1  N1  UNL     1      68.281  25.399  13.884  1.00  0.00    -0.190 NA
HETATM    2  C1  UNL     1      67.948  26.154  13.051  1.00  0.00     0.120 C 
HETATM    3  C2  UNL     1      67.534  27.053  12.021  1.00  0.00     0.147 A 
HETATM    4  N2  UNL     1      68.197  27.187  10.872  1.00  0.00    -0.322 N 
ATOM      5  H2  UNL     1      69.034  26.622  10.732  1.00  0.00     0.169 HD
HETATM    6  C3  UNL     1      67.829  28.020   9.888  1.00  0.00     0.181 A 
HETATM    7 CL1  UNL     1      68.783  28.110   8.396  1.00  0.00    -0.045 Cl
HETATM    8  N3  UNL     1      66.731  28.777  10.046  1.00  0.00    -0.316 N 
ATOM      9  H3  UNL     1      66.433  29.419   9.311  1.00  0.00     0.170 HD
HETATM   10  C4  UNL     1      66.033  28.673  11.189  1.00  0.00     0.153 A 
HETATM   11  N4  UNL     1      64.904  29.289  11.647  1.00  0.00    -0.173 N 
ATOM     12  H4  UNL     1      64.376  29.988  11.125  1.00  0.00     0.186 HD
HETATM   13  C5  UNL     1      64.583  28.852  12.876  1.00  0.00     0.699 A 
HETATM   14  N11 UNL     1      65.525  27.928  13.226  1.00  0.00    -0.184 N 
ATOM     15  H11 UNL     1      65.561  27.411  14.104  1.00  0.00     0.184 HD
HETATM   16  C12 UNL     1      66.399  27.821  12.208  1.00  0.00     0.131 A 
ENDROOT
BRANCH  13  17
HETATM   17  N5  UNL     1      63.476  29.282  13.642  1.00  0.00    -0.020 N 
ATOM     18  H5  UNL     1      62.954  28.559  14.137  1.00  0.00     0.203 HD
BRANCH  17  19
HETATM   19  C6  UNL     1      63.064  30.478  13.779  1.00  0.00     0.726 A 
HETATM   20  N6  UNL     1      63.334  31.486  12.908  1.00  0.00    -0.019 N 
HETATM   21  C7  UNL     1      62.759  32.613  13.320  1.00  0.00     0.710 A 
ATOM     22  H6  UNL     1      63.896  31.393  12.061  1.00  0.00     0.203 HD
HETATM   23  N9  UNL     1      62.121  32.330  14.456  1.00  0.00    -0.117 N 
HETATM   24  N10 UNL     1      62.301  31.032  14.744  1.00  0.00    -0.117 N 
ATOM     25  H9  UNL     1      61.583  32.992  15.015  1.00  0.00     0.206 HD
ATOM     26  H10 UNL     1      61.925  30.545  15.557  1.00  0.00     0.206 HD
BRANCH  21  27
HETATM   27  N7  UNL     1      62.877  33.863  12.601  1.00  0.00    -0.213 N 
HETATM   28  C8  UNL     1      63.569  33.925  11.340  1.00  0.00     0.168 C 
HETATM   29  C9  UNL     1      64.502  35.112  11.357  1.00  0.00     0.252 C 
HETATM   30  N8  UNL     1      63.747  36.297  11.651  1.00  0.00    -0.072 N 
HETATM   31  C10 UNL     1      63.103  36.243  12.933  1.00  0.00     0.252 C 
ATOM     32  H82 UNL     1      64.329  37.130  11.570  1.00  0.00     0.277 HD
ATOM     33  H81 UNL     1      63.073  36.493  10.912  1.00  0.00     0.277 HD
HETATM   34  C11 UNL     1      62.270  35.036  13.158  1.00  0.00     0.168 C 
ENDBRANCH  21  27
ENDBRANCH  17  19
ENDBRANCH  13  17
TORSDOF 3
ENDMDL
