MODEL 1
REMARK VINA RESULT: -7.365224955      0.000      0.000
REMARK  5 active torsions:
REMARK  status: ('A' for Active; 'I' for Inactive)
REMARK    1  A    between atoms: C2_3  and  N2_4 
REMARK    2  A    between atoms: C6_13  and  C7_14 
REMARK    3  A    between atoms: C7_14  and  O1_15 
REMARK    4  A    between atoms: C7_14  and  O2_17 
REMARK    5  A    between atoms: N4_19  and  N5_20 
ROOT
HETATM    1  C1  UNL     1      11.103  11.994   9.413  1.00  0.00     0.179 C 
HETATM    2  N1  UNL     1      11.847  11.229  10.431  1.00  0.00    -0.151 N 
HETATM    3  C2  UNL     1      12.354  10.023  10.183  1.00  0.00     0.682 A 
HETATM    4  N3  UNL     1      13.054   9.303  11.081  1.00  0.00    -0.174 N 
ATOM      5  H3  UNL     1      13.426   8.382  10.849  1.00  0.00     0.186 HD
HETATM    6  C3  UNL     1      13.242   9.849  12.295  1.00  0.00     0.166 A 
HETATM    7  C4  UNL     1      12.741  11.097  12.612  1.00  0.00     0.103 A 
HETATM    8  C5  UNL     1      13.086  11.395  13.895  1.00  0.00     0.083 A 
HETATM    9 CL1  UNL     1      12.686  12.879  14.745  1.00  0.00    -0.081 Cl
HETATM   10  C6  UNL     1      13.806  10.332  14.381  1.00  0.00     0.119 A 
HETATM   11  N4  UNL     1      13.883   9.423  13.398  1.00  0.00    -0.177 N 
HETATM   12  C8  UNL     1      12.027  11.787  11.640  1.00  0.00     0.277 A 
HETATM   13  O5  UNL     1      11.560  12.910  11.893  1.00  0.00    -0.266 OA
ENDROOT
BRANCH  10  14
HETATM   14  C7  UNL     1      14.361  10.289  15.764  1.00  0.00     0.309 C 
BRANCH  14  15
HETATM   15  O1  UNL     1      13.869   9.133  16.376  1.00  0.00    -0.366 OA
ATOM     16  H1  UNL     1      13.851   9.294  17.312  1.00  0.00     0.213 HD
ENDBRANCH  14  15
BRANCH  14  17
HETATM   17  O2  UNL     1      15.729  10.400  15.808  1.00  0.00    -0.366 OA
ATOM     18  H2  UNL     1      16.081  10.395  16.690  1.00  0.00     0.213 HD
ENDBRANCH  14  17
ENDBRANCH  10  14
BRANCH  11  19
HETATM   19  N5  UNL     1      14.533   8.184  13.497  1.00  0.00    -0.030 N 
HETATM   20  O3  UNL     1      13.960   7.123  13.154  1.00  0.00    -0.516 OA
HETATM   21  O4  UNL     1      15.815   8.081  13.975  1.00  0.00    -0.516 OA
ENDBRANCH  11  19
BRANCH   3  22
HETATM   22  N2  UNL     1      12.160   9.535   9.006  1.00  0.00    -0.234 N 
ATOM     23  H22 UNL     1      12.859   9.702   8.281  1.00  0.00     0.174 HD
ATOM     24  H21 UNL     1      11.302   9.005   8.857  1.00  0.00     0.174 HD
ENDBRANCH   3  22
TORSDOF 5
ENDMDL
MODEL 2
REMARK VINA RESULT: -7.194537953      2.361      3.504
REMARK  5 active torsions:
REMARK  status: ('A' for Active; 'I' for Inactive)
REMARK    1  A    between atoms: C2_3  and  N2_4 
REMARK    2  A    between atoms: C6_13  and  C7_14 
REMARK    3  A    between atoms: C7_14  and  O1_15 
REMARK    4  A    between atoms: C7_14  and  O2_17 
REMARK    5  A    between atoms: N4_19  and  N5_20 
ROOT
HETATM    1  C1  UNL     1      10.779  13.203  11.380  1.00  0.00     0.179 C 
HETATM    2  N1  UNL     1      11.665  12.457  12.293  1.00  0.00    -0.151 N 
HETATM    3  C2  UNL     1      11.802  12.786  13.576  1.00  0.00     0.682 A 
HETATM    4  N3  UNL     1      12.587  12.119  14.444  1.00  0.00    -0.174 N 
ATOM      5  H3  UNL     1      12.662  12.405  15.420  1.00  0.00     0.186 HD
HETATM    6  C3  UNL     1      13.266  11.060  13.969  1.00  0.00     0.166 A 
HETATM    7  C4  UNL     1      13.165  10.669  12.648  1.00  0.00     0.103 A 
HETATM    8  C5  UNL     1      13.950   9.573  12.455  1.00  0.00     0.083 A 
HETATM    9 CL1  UNL     1      14.141   8.705  10.940  1.00  0.00    -0.081 Cl
HETATM   10  C6  UNL     1      14.542   9.278  13.657  1.00  0.00     0.119 A 
HETATM   11  N4  UNL     1      14.111  10.186  14.545  1.00  0.00    -0.177 N 
HETATM   12  C8  UNL     1      12.338  11.401  11.806  1.00  0.00     0.277 A 
HETATM   13  O5  UNL     1      12.226  11.078  10.611  1.00  0.00    -0.266 OA
ENDROOT
BRANCH  10  14
HETATM   14  C7  UNL     1      15.479   8.133  13.844  1.00  0.00     0.309 C 
BRANCH  14  15
HETATM   15  O1  UNL     1      16.157   8.341  15.048  1.00  0.00    -0.366 OA
ATOM     16  H1  UNL     1      16.978   8.771  14.841  1.00  0.00     0.213 HD
ENDBRANCH  14  15
BRANCH  14  17
HETATM   17  O2  UNL     1      14.868   6.906  13.756  1.00  0.00    -0.366 OA
ATOM     18  H2  UNL     1      15.479   6.179  13.757  1.00  0.00     0.213 HD
ENDBRANCH  14  17
ENDBRANCH  10  14
BRANCH  11  19
HETATM   19  N5  UNL     1      14.491  10.236  15.894  1.00  0.00    -0.030 N 
HETATM   20  O3  UNL     1      15.428  10.975  16.276  1.00  0.00    -0.516 OA
HETATM   21  O4  UNL     1      13.859   9.476  16.847  1.00  0.00    -0.516 OA
ENDBRANCH  11  19
BRANCH   3  22
HETATM   22  N2  UNL     1      11.129  13.802  13.996  1.00  0.00    -0.234 N 
ATOM     23  H22 UNL     1      10.432  13.665  14.727  1.00  0.00     0.174 HD
ATOM     24  H21 UNL     1      11.330  14.704  13.564  1.00  0.00     0.174 HD
ENDBRANCH   3  22
TORSDOF 5
ENDMDL
MODEL 3
REMARK VINA RESULT: -7.055986648      2.122      2.713
REMARK  5 active torsions:
REMARK  status: ('A' for Active; 'I' for Inactive)
REMARK    1  A    between atoms: C2_3  and  N2_4 
REMARK    2  A    between atoms: C6_13  and  C7_14 
REMARK    3  A    between atoms: C7_14  and  O1_15 
REMARK    4  A    between atoms: C7_14  and  O2_17 
REMARK    5  A    between atoms: N4_19  and  N5_20 
ROOT
HETATM    1  C1  UNL     1       9.725  10.940   8.479  1.00  0.00     0.179 C 
HETATM    2  N1  UNL     1      10.638  11.003   9.637  1.00  0.00    -0.151 N 
HETATM    3  C2  UNL     1      11.738  10.258   9.715  1.00  0.00     0.682 A 
HETATM    4  N3  UNL     1      12.604  10.301  10.746  1.00  0.00    -0.174 N 
ATOM      5  H3  UNL     1      13.436   9.712  10.766  1.00  0.00     0.186 HD
HETATM    6  C3  UNL     1      12.325  11.154  11.747  1.00  0.00     0.166 A 
HETATM    7  C4  UNL     1      11.199  11.955  11.723  1.00  0.00     0.103 A 
HETATM    8  C5  UNL     1      11.177  12.714  12.853  1.00  0.00     0.083 A 
HETATM    9 CL1  UNL     1       9.946  13.896  13.268  1.00  0.00    -0.081 Cl
HETATM   10  C6  UNL     1      12.291  12.388  13.585  1.00  0.00     0.119 A 
HETATM   11  N4  UNL     1      12.959  11.452  12.895  1.00  0.00    -0.177 N 
HETATM   12  C8  UNL     1      10.347  11.860  10.630  1.00  0.00     0.277 A 
HETATM   13  O5  UNL     1       9.324  12.563  10.577  1.00  0.00    -0.266 OA
ENDROOT
BRANCH  10  14
HETATM   14  C7  UNL     1      12.616  13.019  14.897  1.00  0.00     0.309 C 
BRANCH  14  15
HETATM   15  O1  UNL     1      11.740  14.094  15.071  1.00  0.00    -0.366 OA
ATOM     16  H1  UNL     1      11.752  14.323  15.992  1.00  0.00     0.213 HD
ENDBRANCH  14  15
BRANCH  14  17
HETATM   17  O2  UNL     1      12.617  12.131  15.945  1.00  0.00    -0.366 OA
ATOM     18  H2  UNL     1      13.485  11.953  16.288  1.00  0.00     0.213 HD
ENDBRANCH  14  17
ENDBRANCH  10  14
BRANCH  11  19
HETATM   19  N5  UNL     1      14.156  10.849  13.309  1.00  0.00    -0.030 N 
HETATM   20  O3  UNL     1      15.137  10.760  12.533  1.00  0.00    -0.516 OA
HETATM   21  O4  UNL     1      14.301  10.329  14.570  1.00  0.00    -0.516 OA
ENDBRANCH  11  19
BRANCH   3  22
HETATM   22  N2  UNL     1      11.976   9.458   8.733  1.00  0.00    -0.234 N 
ATOM     23  H22 UNL     1      12.779   9.641   8.130  1.00  0.00     0.174 HD
ATOM     24  H21 UNL     1      11.336   8.674   8.605  1.00  0.00     0.174 HD
ENDBRANCH   3  22
TORSDOF 5
ENDMDL
MODEL 4
REMARK VINA RESULT: -7.051181956      2.489      4.300
REMARK  5 active torsions:
REMARK  status: ('A' for Active; 'I' for Inactive)
REMARK    1  A    between atoms: C2_3  and  N2_4 
REMARK    2  A    between atoms: C6_13  and  C7_14 
REMARK    3  A    between atoms: C7_14  and  O1_15 
REMARK    4  A    between atoms: C7_14  and  O2_17 
REMARK    5  A    between atoms: N4_19  and  N5_20 
ROOT
HETATM    1  C1  UNL     1      12.337  13.293  14.727  1.00  0.00     0.179 C 
HETATM    2  N1  UNL     1      12.864  12.014  14.213  1.00  0.00    -0.151 N 
HETATM    3  C2  UNL     1      13.573  11.182  14.972  1.00  0.00     0.682 A 
HETATM    4  N3  UNL     1      14.055   9.999  14.543  1.00  0.00    -0.174 N 
ATOM      5  H3  UNL     1      14.594   9.391  15.158  1.00  0.00     0.186 HD
HETATM    6  C3  UNL     1      13.794   9.655  13.269  1.00  0.00     0.166 A 
HETATM    7  C4  UNL     1      13.063  10.476  12.433  1.00  0.00     0.103 A 
HETATM    8  C5  UNL     1      12.951   9.875  11.217  1.00  0.00     0.083 A 
HETATM    9 CL1  UNL     1      12.099  10.528   9.826  1.00  0.00    -0.081 Cl
HETATM   10  C6  UNL     1      13.614   8.675  11.293  1.00  0.00     0.119 A 
HETATM   11  N4  UNL     1      14.106   8.572  12.535  1.00  0.00    -0.177 N 
HETATM   12  C8  UNL     1      12.596  11.683  12.939  1.00  0.00     0.277 A 
HETATM   13  O5  UNL     1      11.937  12.446  12.213  1.00  0.00    -0.266 OA
ENDROOT
BRANCH  10  14
HETATM   14  C7  UNL     1      13.711   7.725  10.147  1.00  0.00     0.309 C 
BRANCH  14  15
HETATM   15  O1  UNL     1      15.065   7.435   9.959  1.00  0.00    -0.366 OA
ATOM     16  H1  UNL     1      15.115   6.623   9.470  1.00  0.00     0.213 HD
ENDBRANCH  14  15
BRANCH  14  17
HETATM   17  O2  UNL     1      12.920   6.612  10.291  1.00  0.00    -0.366 OA
ATOM     18  H2  UNL     1      13.360   5.803  10.058  1.00  0.00     0.213 HD
ENDBRANCH  14  17
ENDBRANCH  10  14
BRANCH  11  19
HETATM   19  N5  UNL     1      14.857   7.489  13.016  1.00  0.00    -0.030 N 
HETATM   20  O3  UNL     1      15.947   7.670  13.608  1.00  0.00    -0.516 OA
HETATM   21  O4  UNL     1      14.435   6.193  12.855  1.00  0.00    -0.516 OA
ENDBRANCH  11  19
BRANCH   3  22
HETATM   22  N2  UNL     1      13.796  11.543  16.189  1.00  0.00    -0.234 N 
ATOM     23  H22 UNL     1      13.049  11.996  16.714  1.00  0.00     0.174 HD
ATOM     24  H21 UNL     1      14.725  11.357  16.566  1.00  0.00     0.174 HD
ENDBRANCH   3  22
TORSDOF 5
ENDMDL
MODEL 5
REMARK VINA RESULT: -7.023134306      2.555      4.203
REMARK  5 active torsions:
REMARK  status: ('A' for Active; 'I' for Inactive)
REMARK    1  A    between atoms: C2_3  and  N2_4 
REMARK    2  A    between atoms: C6_13  and  C7_14 
REMARK    3  A    between atoms: C7_14  and  O1_15 
REMARK    4  A    between atoms: C7_14  and  O2_17 
REMARK    5  A    between atoms: N4_19  and  N5_20 
ROOT
HETATM    1  C1  UNL     1      11.683  13.666  14.326  1.00  0.00     0.179 C 
HETATM    2  N1  UNL     1      11.945  12.602  13.338  1.00  0.00    -0.151 N 
HETATM    3  C2  UNL     1      11.306  12.544  12.172  1.00  0.00     0.682 A 
HETATM    4  N3  UNL     1      11.530  11.599  11.238  1.00  0.00    -0.174 N 
ATOM      5  H3  UNL     1      11.018  11.591  10.357  1.00  0.00     0.186 HD
HETATM    6  C3  UNL     1      12.458  10.667  11.518  1.00  0.00     0.166 A 
HETATM    7  C4  UNL     1      13.154  10.675  12.711  1.00  0.00     0.103 A 
HETATM    8  C5  UNL     1      14.024   9.628  12.717  1.00  0.00     0.083 A 
HETATM    9 CL1  UNL     1      15.137   9.228  14.016  1.00  0.00    -0.081 Cl
HETATM   10  C6  UNL     1      13.872   8.964  11.525  1.00  0.00     0.119 A 
HETATM   11  N4  UNL     1      12.927   9.612  10.829  1.00  0.00    -0.177 N 
HETATM   12  C8  UNL     1      12.874  11.677  13.630  1.00  0.00     0.277 A 
HETATM   13  O5  UNL     1      13.480  11.712  14.714  1.00  0.00    -0.266 OA
ENDROOT
BRANCH  10  14
HETATM   14  C7  UNL     1      14.662   7.752  11.162  1.00  0.00     0.309 C 
BRANCH  14  15
HETATM   15  O1  UNL     1      13.818   6.647  11.301  1.00  0.00    -0.366 OA
ATOM     16  H1  UNL     1      13.249   6.627  10.541  1.00  0.00     0.213 HD
ENDBRANCH  14  15
BRANCH  14  17
HETATM   17  O2  UNL     1      15.262   7.839   9.930  1.00  0.00    -0.366 OA
ATOM     18  H2  UNL     1      16.159   8.149   9.967  1.00  0.00     0.213 HD
ENDBRANCH  14  17
ENDBRANCH  10  14
BRANCH  11  19
HETATM   19  N5  UNL     1      12.473   9.244   9.553  1.00  0.00    -0.030 N 
HETATM   20  O3  UNL     1      12.252  10.106   8.671  1.00  0.00    -0.516 OA
HETATM   21  O4  UNL     1      12.246   7.931   9.222  1.00  0.00    -0.516 OA
ENDBRANCH  11  19
BRANCH   3  22
HETATM   22  N2  UNL     1      10.429  13.459  11.936  1.00  0.00    -0.234 N 
ATOM     23  H22 UNL     1      10.271  13.755  10.973  1.00  0.00     0.174 HD
ATOM     24  H21 UNL     1       9.936  13.849  12.739  1.00  0.00     0.174 HD
ENDBRANCH   3  22
TORSDOF 5
ENDMDL
