MODEL 1
REMARK VINA RESULT: -7.856765153      0.000      0.000
REMARK  4 active torsions:
REMARK  status: ('A' for Active; 'I' for Inactive)
REMARK    1  A    between atoms: N1_2  and  C3_4 
REMARK    2  A    between atoms: C4_7  and  N3_8 
REMARK    3  A    between atoms: C6_14  and  N5_15 
REMARK    4  A    between atoms: N5_15  and  C7_17 
ROOT
HETATM    1  C3  UNL     1      47.132  48.274   8.920  1.00  0.00     0.682 A 
HETATM    2  N2  UNL     1      46.363  48.231   7.795  1.00  0.00    -0.175 N 
ATOM      3  H2  UNL     1      45.653  48.950   7.653  1.00  0.00     0.186 HD
HETATM    4  C4  UNL     1      46.511  47.272   6.868  1.00  0.00     0.145 A 
HETATM    5  C5  UNL     1      47.452  46.280   7.011  1.00  0.00     0.123 A 
HETATM    6  N4  UNL     1      47.641  45.302   6.128  1.00  0.00    -0.335 N 
ATOM      7  H4  UNL     1      47.062  45.272   5.289  1.00  0.00     0.168 HD
HETATM    8  C6  UNL     1      48.573  44.354   6.310  1.00  0.00     0.137 A 
HETATM    9  C8  UNL     1      49.384  44.375   7.464  1.00  0.00     0.139 A 
HETATM   10  N10 UNL     1      49.193  45.355   8.348  1.00  0.00    -0.346 N 
ATOM     11  H10 UNL     1      49.770  45.390   9.190  1.00  0.00     0.167 HD
HETATM   12  C9  UNL     1      48.241  46.312   8.148  1.00  0.00     0.151 A 
HETATM   13  N11 UNL     1      48.044  47.294   9.033  1.00  0.00    -0.174 N 
ATOM     14  H11 UNL     1      48.637  47.300   9.863  1.00  0.00     0.186 HD
ENDROOT
BRANCH   8  15
HETATM   15  N5  UNL     1      48.796  43.287   5.433  1.00  0.00    -0.172 N 
ATOM     16  H5  UNL     1      48.696  42.362   5.848  1.00  0.00     0.186 HD
BRANCH  15  17
HETATM   17  C7  UNL     1      49.099  43.289   4.226  1.00  0.00     0.715 A 
HETATM   18  N6  UNL     1      48.606  42.384   3.315  1.00  0.00    -0.115 N 
HETATM   19  N7  UNL     1      49.126  42.665   2.126  1.00  0.00    -0.213 N 
ATOM     20  H6  UNL     1      47.953  41.627   3.518  1.00  0.00     0.207 HD
HETATM   21  N8  UNL     1      49.912  43.686   2.235  1.00  0.00    -0.213 N 
ATOM     22  H7  UNL     1      48.936  42.155   1.262  1.00  0.00     0.210 HD
HETATM   23  N9  UNL     1      49.915  44.083   3.496  1.00  0.00    -0.115 N 
ATOM     24  H8  UNL     1      50.442  44.113   1.475  1.00  0.00     0.210 HD
ATOM     25  H9  UNL     1      50.452  44.868   3.863  1.00  0.00     0.207 HD
ENDBRANCH  15  17
ENDBRANCH   8  15
BRANCH   4  26
HETATM   26  N3  UNL     1      45.761  47.249   5.799  1.00  0.00    -0.383 N 
ATOM     27  H32 UNL     1      45.821  48.043   5.161  1.00  0.00     0.157 HD
ATOM     28  H31 UNL     1      45.140  46.462   5.612  1.00  0.00     0.157 HD
ENDBRANCH   4  26
BRANCH   1  29
HETATM   29  N1  UNL     1      46.979  49.277   9.905  1.00  0.00    -0.226 N 
HETATM   30  C1  UNL     1      46.258  50.475   9.558  1.00  0.00     0.168 C 
HETATM   31  C2  UNL     1      47.502  49.157  11.243  1.00  0.00     0.168 C 
ENDBRANCH   1  29
TORSDOF 4
ENDMDL
MODEL 2
REMARK VINA RESULT: -7.751814185      3.114      4.265
REMARK  4 active torsions:
REMARK  status: ('A' for Active; 'I' for Inactive)
REMARK    1  A    between atoms: N1_2  and  C3_4 
REMARK    2  A    between atoms: C4_7  and  N3_8 
REMARK    3  A    between atoms: C6_14  and  N5_15 
REMARK    4  A    between atoms: N5_15  and  C7_17 
ROOT
HETATM    1  C3  UNL     1      47.639  46.398   6.367  1.00  0.00     0.682 A 
HETATM    2  N2  UNL     1      48.086  46.057   5.124  1.00  0.00    -0.175 N 
ATOM      3  H2  UNL     1      47.538  46.330   4.309  1.00  0.00     0.186 HD
HETATM    4  C4  UNL     1      49.227  45.374   4.942  1.00  0.00     0.145 A 
HETATM    5  C5  UNL     1      50.003  44.981   6.006  1.00  0.00     0.123 A 
HETATM    6  N4  UNL     1      51.140  44.299   5.886  1.00  0.00    -0.335 N 
ATOM      7  H4  UNL     1      51.469  44.043   4.955  1.00  0.00     0.168 HD
HETATM    8  C6  UNL     1      51.865  43.937   6.955  1.00  0.00     0.137 A 
HETATM    9  C8  UNL     1      51.427  44.278   8.252  1.00  0.00     0.139 A 
HETATM   10  N10 UNL     1      50.288  44.962   8.371  1.00  0.00    -0.346 N 
ATOM     11  H10 UNL     1      49.953  45.221   9.300  1.00  0.00     0.167 HD
HETATM   12  C9  UNL     1      49.562  45.323   7.273  1.00  0.00     0.151 A 
HETATM   13  N11 UNL     1      48.418  46.004   7.388  1.00  0.00    -0.174 N 
ATOM     14  H11 UNL     1      48.111  46.246   8.330  1.00  0.00     0.186 HD
ENDROOT
BRANCH   8  15
HETATM   15  N5  UNL     1      53.049  43.195   6.892  1.00  0.00    -0.172 N 
ATOM     16  H5  UNL     1      53.327  42.756   7.769  1.00  0.00     0.186 HD
BRANCH  15  17
HETATM   17  C7  UNL     1      53.817  42.987   5.936  1.00  0.00     0.715 A 
HETATM   18  N6  UNL     1      54.922  43.760   5.663  1.00  0.00    -0.115 N 
HETATM   19  N7  UNL     1      55.517  43.268   4.581  1.00  0.00    -0.213 N 
ATOM     20  H6  UNL     1      55.231  44.570   6.199  1.00  0.00     0.207 HD
HETATM   21  N8  UNL     1      54.855  42.240   4.161  1.00  0.00    -0.213 N 
ATOM     22  H7  UNL     1      56.362  43.643   4.151  1.00  0.00     0.210 HD
HETATM   23  N9  UNL     1      53.820  42.049   4.962  1.00  0.00    -0.115 N 
ATOM     24  H8  UNL     1      55.091  41.672   3.348  1.00  0.00     0.210 HD
ATOM     25  H9  UNL     1      53.129  41.306   4.860  1.00  0.00     0.207 HD
ENDBRANCH  15  17
ENDBRANCH   8  15
BRANCH   4  26
HETATM   26  N3  UNL     1      49.634  45.056   3.742  1.00  0.00    -0.383 N 
ATOM     27  H32 UNL     1      49.526  45.751   3.005  1.00  0.00     0.157 HD
ATOM     28  H31 UNL     1      50.047  44.142   3.555  1.00  0.00     0.157 HD
ENDBRANCH   4  26
BRANCH   1  29
HETATM   29  N1  UNL     1      46.437  47.113   6.569  1.00  0.00    -0.226 N 
HETATM   30  C1  UNL     1      45.445  47.099   5.524  1.00  0.00     0.168 C 
HETATM   31  C2  UNL     1      46.148  47.849   7.775  1.00  0.00     0.168 C 
ENDBRANCH   1  29
TORSDOF 4
ENDMDL
MODEL 3
REMARK VINA RESULT: -7.728210924      3.170      4.313
REMARK  4 active torsions:
REMARK  status: ('A' for Active; 'I' for Inactive)
REMARK    1  A    between atoms: N1_2  and  C3_4 
REMARK    2  A    between atoms: C4_7  and  N3_8 
REMARK    3  A    between atoms: C6_14  and  N5_15 
REMARK    4  A    between atoms: N5_15  and  C7_17 
ROOT
HETATM    1  C3  UNL     1      47.698  46.339   6.319  1.00  0.00     0.682 A 
HETATM    2  N2  UNL     1      48.134  45.964   5.081  1.00  0.00    -0.175 N 
ATOM      3  H2  UNL     1      47.562  46.186   4.267  1.00  0.00     0.186 HD
HETATM    4  C4  UNL     1      49.294  45.313   4.904  1.00  0.00     0.145 A 
HETATM    5  C5  UNL     1      50.103  44.990   5.967  1.00  0.00     0.123 A 
HETATM    6  N4  UNL     1      51.260  44.342   5.851  1.00  0.00    -0.335 N 
ATOM      7  H4  UNL     1      51.580  44.061   4.924  1.00  0.00     0.168 HD
HETATM    8  C6  UNL     1      52.016  44.048   6.919  1.00  0.00     0.137 A 
HETATM    9  C8  UNL     1      51.592  44.425   8.210  1.00  0.00     0.139 A 
HETATM   10  N10 UNL     1      50.431  45.074   8.325  1.00  0.00    -0.346 N 
ATOM     11  H10 UNL     1      50.105  45.357   9.249  1.00  0.00     0.167 HD
HETATM   12  C9  UNL     1      49.673  45.366   7.228  1.00  0.00     0.151 A 
HETATM   13  N11 UNL     1      48.509  46.012   7.339  1.00  0.00    -0.174 N 
ATOM     14  H11 UNL     1      48.212  46.281   8.277  1.00  0.00     0.186 HD
ENDROOT
BRANCH   8  15
HETATM   15  N5  UNL     1      53.225  43.344   6.861  1.00  0.00    -0.172 N 
ATOM     16  H5  UNL     1      53.515  42.918   7.741  1.00  0.00     0.186 HD
BRANCH  15  17
HETATM   17  C7  UNL     1      54.001  43.157   5.907  1.00  0.00     0.715 A 
HETATM   18  N6  UNL     1      53.860  42.133   5.000  1.00  0.00    -0.115 N 
HETATM   19  N7  UNL     1      54.849  42.221   4.117  1.00  0.00    -0.213 N 
ATOM     20  H6  UNL     1      53.123  41.429   5.004  1.00  0.00     0.207 HD
HETATM   21  N8  UNL     1      55.598  43.232   4.415  1.00  0.00    -0.213 N 
ATOM     22  H7  UNL     1      54.995  41.589   3.329  1.00  0.00     0.210 HD
HETATM   23  N9  UNL     1      55.108  43.815   5.495  1.00  0.00    -0.115 N 
ATOM     24  H8  UNL     1      56.428  43.529   3.903  1.00  0.00     0.210 HD
ATOM     25  H9  UNL     1      55.505  44.638   5.950  1.00  0.00     0.207 HD
ENDBRANCH  15  17
ENDBRANCH   8  15
BRANCH   4  26
HETATM   26  N3  UNL     1      49.690  44.962   3.709  1.00  0.00    -0.383 N 
ATOM     27  H32 UNL     1      49.014  44.499   3.102  1.00  0.00     0.157 HD
ATOM     28  H31 UNL     1      50.643  45.147   3.399  1.00  0.00     0.157 HD
ENDBRANCH   4  26
BRANCH   1  29
HETATM   29  N1  UNL     1      46.476  47.020   6.517  1.00  0.00    -0.226 N 
HETATM   30  C1  UNL     1      46.273  47.720   7.759  1.00  0.00     0.168 C 
HETATM   31  C2  UNL     1      45.423  47.056   5.533  1.00  0.00     0.168 C 
ENDBRANCH   1  29
TORSDOF 4
ENDMDL
MODEL 4
REMARK VINA RESULT: -7.595125975      2.669      3.109
REMARK  4 active torsions:
REMARK  status: ('A' for Active; 'I' for Inactive)
REMARK    1  A    between atoms: N1_2  and  C3_4 
REMARK    2  A    between atoms: C4_7  and  N3_8 
REMARK    3  A    between atoms: C6_14  and  N5_15 
REMARK    4  A    between atoms: N5_15  and  C7_17 
ROOT
HETATM    1  C3  UNL     1      47.160  47.009   7.953  1.00  0.00     0.682 A 
HETATM    2  N2  UNL     1      47.059  46.835   6.604  1.00  0.00    -0.175 N 
ATOM      3  H2  UNL     1      46.275  47.258   6.108  1.00  0.00     0.186 HD
HETATM    4  C4  UNL     1      47.962  46.125   5.910  1.00  0.00     0.145 A 
HETATM    5  C5  UNL     1      49.038  45.534   6.529  1.00  0.00     0.123 A 
HETATM    6  N4  UNL     1      49.960  44.816   5.893  1.00  0.00    -0.335 N 
ATOM      7  H4  UNL     1      49.879  44.686   4.885  1.00  0.00     0.168 HD
HETATM    8  C6  UNL     1      50.993  44.258   6.541  1.00  0.00     0.137 A 
HETATM    9  C8  UNL     1      51.124  44.423   7.936  1.00  0.00     0.139 A 
HETATM   10  N10 UNL     1      50.198  45.143   8.572  1.00  0.00    -0.346 N 
ATOM     11  H10 UNL     1      50.274  45.277   9.581  1.00  0.00     0.167 HD
HETATM   12  C9  UNL     1      49.153  45.705   7.898  1.00  0.00     0.151 A 
HETATM   13  N11 UNL     1      48.221  46.423   8.532  1.00  0.00    -0.174 N 
ATOM     14  H11 UNL     1      48.326  46.537   9.541  1.00  0.00     0.186 HD
ENDROOT
BRANCH   8  15
HETATM   15  N5  UNL     1      51.975  43.470   5.931  1.00  0.00    -0.172 N 
ATOM     16  H5  UNL     1      52.568  43.963   5.264  1.00  0.00     0.186 HD
BRANCH  15  17
HETATM   17  C7  UNL     1      52.238  42.262   6.072  1.00  0.00     0.715 A 
HETATM   18  N6  UNL     1      51.742  41.273   5.256  1.00  0.00    -0.115 N 
HETATM   19  N7  UNL     1      52.215  40.106   5.680  1.00  0.00    -0.213 N 
ATOM     20  H6  UNL     1      51.118  41.411   4.461  1.00  0.00     0.207 HD
HETATM   21  N8  UNL     1      52.974  40.303   6.708  1.00  0.00    -0.213 N 
ATOM     22  H7  UNL     1      52.012  39.199   5.260  1.00  0.00     0.210 HD
HETATM   23  N9  UNL     1      53.005  41.599   6.968  1.00  0.00    -0.115 N 
ATOM     24  H8  UNL     1      53.467  39.579   7.231  1.00  0.00     0.210 HD
ATOM     25  H9  UNL     1      53.527  42.033   7.729  1.00  0.00     0.207 HD
ENDBRANCH  15  17
ENDBRANCH   8  15
BRANCH   4  26
HETATM   26  N3  UNL     1      47.843  45.969   4.618  1.00  0.00    -0.383 N 
ATOM     27  H32 UNL     1      47.074  45.393   4.278  1.00  0.00     0.157 HD
ATOM     28  H31 UNL     1      48.500  46.412   3.975  1.00  0.00     0.157 HD
ENDBRANCH   4  26
BRANCH   1  29
HETATM   29  N1  UNL     1      46.212  47.750   8.694  1.00  0.00    -0.226 N 
HETATM   30  C1  UNL     1      45.566  48.869   8.058  1.00  0.00     0.168 C 
HETATM   31  C2  UNL     1      45.852  47.438  10.055  1.00  0.00     0.168 C 
ENDBRANCH   1  29
TORSDOF 4
ENDMDL
MODEL 5
REMARK VINA RESULT: -7.592458796      1.419      2.592
REMARK  4 active torsions:
REMARK  status: ('A' for Active; 'I' for Inactive)
REMARK    1  A    between atoms: N1_2  and  C3_4 
REMARK    2  A    between atoms: C4_7  and  N3_8 
REMARK    3  A    between atoms: C6_14  and  N5_15 
REMARK    4  A    between atoms: N5_15  and  C7_17 
ROOT
HETATM    1  C3  UNL     1      47.718  47.074   9.260  1.00  0.00     0.682 A 
HETATM    2  N2  UNL     1      48.931  46.469   9.417  1.00  0.00    -0.175 N 
ATOM      3  H2  UNL     1      49.363  46.460  10.341  1.00  0.00     0.186 HD
HETATM    4  C4  UNL     1      49.571  45.885   8.393  1.00  0.00     0.145 A 
HETATM    5  C5  UNL     1      49.032  45.869   7.128  1.00  0.00     0.123 A 
HETATM    6  N4  UNL     1      49.624  45.309   6.075  1.00  0.00    -0.335 N 
ATOM      7  H4  UNL     1      50.532  44.861   6.197  1.00  0.00     0.168 HD
HETATM    8  C6  UNL     1      49.059  45.318   4.859  1.00  0.00     0.137 A 
HETATM    9  C8  UNL     1      47.805  45.934   4.668  1.00  0.00     0.139 A 
HETATM   10  N10 UNL     1      47.213  46.496   5.724  1.00  0.00    -0.346 N 
ATOM     11  H10 UNL     1      46.305  46.946   5.609  1.00  0.00     0.167 HD
HETATM   12  C9  UNL     1      47.801  46.478   6.956  1.00  0.00     0.151 A 
HETATM   13  N11 UNL     1      47.214  47.042   8.015  1.00  0.00    -0.174 N 
ATOM     14  H11 UNL     1      46.307  47.484   7.866  1.00  0.00     0.186 HD
ENDROOT
BRANCH   8  15
HETATM   15  N5  UNL     1      49.646  44.773   3.712  1.00  0.00    -0.172 N 
ATOM     16  H5  UNL     1      50.356  45.359   3.273  1.00  0.00     0.186 HD
BRANCH  15  17
HETATM   17  C7  UNL     1      49.438  43.687   3.142  1.00  0.00     0.715 A 
HETATM   18  N6  UNL     1      49.084  42.534   3.804  1.00  0.00    -0.115 N 
HETATM   19  N7  UNL     1      48.941  41.566   2.906  1.00  0.00    -0.213 N 
ATOM     20  H6  UNL     1      48.954  42.439   4.810  1.00  0.00     0.207 HD
HETATM   21  N8  UNL     1      49.183  42.039   1.727  1.00  0.00    -0.213 N 
ATOM     22  H7  UNL     1      48.680  40.601   3.114  1.00  0.00     0.210 HD
HETATM   23  N9  UNL     1      49.488  43.320   1.841  1.00  0.00    -0.115 N 
ATOM     24  H8  UNL     1      49.145  41.511   0.855  1.00  0.00     0.210 HD
ATOM     25  H9  UNL     1      49.726  43.938   1.065  1.00  0.00     0.207 HD
ENDBRANCH  15  17
ENDBRANCH   8  15
BRANCH   4  26
HETATM   26  N3  UNL     1      50.733  45.314   8.566  1.00  0.00    -0.383 N 
ATOM     27  H32 UNL     1      51.540  45.918   8.724  1.00  0.00     0.157 HD
ATOM     28  H31 UNL     1      50.826  44.299   8.545  1.00  0.00     0.157 HD
ENDBRANCH   4  26
BRANCH   1  29
HETATM   29  N1  UNL     1      47.038  47.697  10.331  1.00  0.00    -0.226 N 
HETATM   30  C1  UNL     1      45.781  47.142  10.763  1.00  0.00     0.168 C 
HETATM   31  C2  UNL     1      47.545  48.858  11.021  1.00  0.00     0.168 C 
ENDBRANCH   1  29
TORSDOF 4
ENDMDL
