MODEL 1
REMARK VINA RESULT: -4.480329616      0.000      0.000
REMARK  4 active torsions:
REMARK  status: ('A' for Active; 'I' for Inactive)
REMARK       I    between atoms: N1_2  and  C2_4 
REMARK    1  A    between atoms: C2_4  and  C3_6 
REMARK    2  A    between atoms: C3_6  and  N2_7 
REMARK    3  A    between atoms: C5_9  and  C6_10 
REMARK    4  A    between atoms: C7_15  and  N5_16 
ROOT
HETATM    1  N2  UNL     1      61.437 -43.244 -12.912  1.00  0.00    -0.169 N 
HETATM    2  C4  UNL     1      60.923 -44.107 -13.798  1.00  0.00     0.129 A 
HETATM    3  C5  UNL     1      61.063 -45.437 -14.085  1.00  0.00     0.145 A 
HETATM    4  N4  UNL     1      60.339 -45.963 -15.117  1.00  0.00    -0.184 N 
ATOM      5  H4  UNL     1      60.437 -46.955 -15.334  1.00  0.00     0.184 HD
HETATM    6  C7  UNL     1      59.501 -45.215 -15.856  1.00  0.00     0.678 A 
HETATM    7  N6  UNL     1      59.340 -43.893 -15.602  1.00  0.00    -0.174 N 
ATOM      8  H6  UNL     1      58.696 -43.353 -16.181  1.00  0.00     0.186 HD
HETATM    9  C8  UNL     1      59.997 -43.274 -14.616  1.00  0.00     0.166 A 
HETATM   10  N7  UNL     1      60.053 -42.019 -14.140  1.00  0.00    -0.174 N 
ATOM     11  H7  UNL     1      59.525 -41.224 -14.499  1.00  0.00     0.186 HD
HETATM   12  C9  UNL     1      60.910 -41.986 -13.121  1.00  0.00     0.680 A 
HETATM   13  N8  UNL     1      61.215 -40.939 -12.420  1.00  0.00    -0.234 N 
ATOM     14  H81 UNL     1      60.825 -40.009 -12.575  1.00  0.00     0.174 HD
ATOM     15  H82 UNL     1      61.872 -40.913 -11.641  1.00  0.00     0.174 HD
ENDROOT
BRANCH   1  16
HETATM   16  C3  UNL     1      62.360 -43.512 -11.850  1.00  0.00     0.250 C 
BRANCH  16  17
HETATM   17  C2  UNL     1      61.662 -43.958 -10.588  1.00  0.00     0.236 C 
HETATM   18  N1  UNL     1      62.012 -45.206 -10.016  1.00  0.00    -0.364 N 
HETATM   19  C1  UNL     1      61.392 -45.696  -8.818  1.00  0.00     0.149 C 
ATOM     20  H1  UNL     1      62.727 -45.774 -10.470  1.00  0.00     0.161 HD
HETATM   21  O1  UNL     1      60.809 -43.200 -10.113  1.00  0.00    -0.272 OA
ENDBRANCH  16  17
ENDBRANCH   1  16
BRANCH   3  22
HETATM   22  C6  UNL     1      61.947 -46.307 -13.371  1.00  0.00     0.284 C 
HETATM   23  N3  UNL     1      63.316 -46.484 -13.669  1.00  0.00    -0.056 NA
HETATM   24  O2  UNL     1      61.452 -46.966 -12.387  1.00  0.00    -0.269 OA
ENDBRANCH   3  22
BRANCH   6  25
HETATM   25  N5  UNL     1      58.822 -45.724 -16.829  1.00  0.00    -0.234 N 
ATOM     26  H52 UNL     1      58.095 -46.400 -16.595  1.00  0.00     0.174 HD
ATOM     27  H51 UNL     1      59.003 -45.463 -17.798  1.00  0.00     0.174 HD
ENDBRANCH   6  25
TORSDOF 4
ENDMDL
MODEL 2
REMARK VINA RESULT: -4.164877792      1.760      4.447
REMARK  4 active torsions:
REMARK  status: ('A' for Active; 'I' for Inactive)
REMARK       I    between atoms: N1_2  and  C2_4 
REMARK    1  A    between atoms: C2_4  and  C3_6 
REMARK    2  A    between atoms: C3_6  and  N2_7 
REMARK    3  A    between atoms: C5_9  and  C6_10 
REMARK    4  A    between atoms: C7_15  and  N5_16 
ROOT
HETATM    1  N2  UNL     1      61.296 -43.736 -13.260  1.00  0.00    -0.169 N 
HETATM    2  C4  UNL     1      61.290 -44.601 -12.238  1.00  0.00     0.129 A 
HETATM    3  C5  UNL     1      61.498 -45.942 -12.070  1.00  0.00     0.145 A 
HETATM    4  N4  UNL     1      61.387 -46.469 -10.814  1.00  0.00    -0.184 N 
ATOM      5  H4  UNL     1      61.544 -47.469 -10.683  1.00  0.00     0.184 HD
HETATM    6  C7  UNL     1      61.080 -45.712  -9.747  1.00  0.00     0.678 A 
HETATM    7  N6  UNL     1      60.865 -44.380  -9.876  1.00  0.00    -0.174 N 
ATOM      8  H6  UNL     1      60.633 -43.834  -9.046  1.00  0.00     0.186 HD
HETATM    9  C8  UNL     1      60.947 -43.759 -11.057  1.00  0.00     0.166 A 
HETATM   10  N7  UNL     1      60.787 -42.498 -11.491  1.00  0.00    -0.174 N 
ATOM     11  H7  UNL     1      60.548 -41.695 -10.909  1.00  0.00     0.186 HD
HETATM   12  C9  UNL     1      60.991 -42.468 -12.806  1.00  0.00     0.680 A 
HETATM   13  N8  UNL     1      60.920 -41.418 -13.562  1.00  0.00    -0.234 N 
ATOM     14  H81 UNL     1      60.695 -40.481 -13.227  1.00  0.00     0.174 HD
ATOM     15  H82 UNL     1      61.076 -41.395 -14.570  1.00  0.00     0.174 HD
ENDROOT
BRANCH   1  16
HETATM   16  C3  UNL     1      61.604 -43.994 -14.635  1.00  0.00     0.250 C 
BRANCH  16  17
HETATM   17  C2  UNL     1      60.371 -44.321 -15.443  1.00  0.00     0.236 C 
HETATM   18  N1  UNL     1      60.226 -45.626 -15.974  1.00  0.00    -0.364 N 
HETATM   19  C1  UNL     1      59.083 -46.010 -16.752  1.00  0.00     0.149 C 
ATOM     20  H1  UNL     1      60.958 -46.315 -15.798  1.00  0.00     0.161 HD
HETATM   21  O1  UNL     1      59.541 -43.419 -15.602  1.00  0.00    -0.272 OA
ENDBRANCH  16  17
ENDBRANCH   1  16
BRANCH   3  22
HETATM   22  C6  UNL     1      61.805 -46.831 -13.148  1.00  0.00     0.284 C 
HETATM   23  N3  UNL     1      63.106 -47.080 -13.640  1.00  0.00    -0.056 NA
HETATM   24  O2  UNL     1      60.822 -47.445 -13.700  1.00  0.00    -0.269 OA
ENDBRANCH   3  22
BRANCH   6  25
HETATM   25  N5  UNL     1      60.979 -46.222  -8.565  1.00  0.00    -0.234 N 
ATOM     26  H52 UNL     1      61.592 -45.854  -7.838  1.00  0.00     0.174 HD
ATOM     27  H51 UNL     1      60.311 -46.966  -8.362  1.00  0.00     0.174 HD
ENDBRANCH   6  25
TORSDOF 4
ENDMDL
MODEL 3
REMARK VINA RESULT: -4.106263543      2.175      5.429
REMARK  4 active torsions:
REMARK  status: ('A' for Active; 'I' for Inactive)
REMARK       I    between atoms: N1_2  and  C2_4 
REMARK    1  A    between atoms: C2_4  and  C3_6 
REMARK    2  A    between atoms: C3_6  and  N2_7 
REMARK    3  A    between atoms: C5_9  and  C6_10 
REMARK    4  A    between atoms: C7_15  and  N5_16 
ROOT
HETATM    1  N2  UNL     1      60.732 -44.324 -14.125  1.00  0.00    -0.169 N 
HETATM    2  C4  UNL     1      61.119 -44.252 -12.845  1.00  0.00     0.129 A 
HETATM    3  C5  UNL     1      60.924 -43.398 -11.796  1.00  0.00     0.145 A 
HETATM    4  N4  UNL     1      61.523 -43.681 -10.601  1.00  0.00    -0.184 N 
ATOM      5  H4  UNL     1      61.379 -43.048  -9.813  1.00  0.00     0.184 HD
HETATM    6  C7  UNL     1      62.295 -44.768 -10.430  1.00  0.00     0.678 A 
HETATM    7  N6  UNL     1      62.512 -45.636 -11.449  1.00  0.00    -0.174 N 
ATOM      8  H6  UNL     1      63.104 -46.451 -11.286  1.00  0.00     0.186 HD
HETATM    9  C8  UNL     1      61.976 -45.457 -12.660  1.00  0.00     0.166 A 
HETATM   10  N7  UNL     1      62.011 -46.114 -13.831  1.00  0.00    -0.174 N 
ATOM     11  H7  UNL     1      62.519 -46.979 -14.013  1.00  0.00     0.186 HD
HETATM   12  C9  UNL     1      61.272 -45.448 -14.718  1.00  0.00     0.680 A 
HETATM   13  N8  UNL     1      61.078 -45.789 -15.953  1.00  0.00    -0.234 N 
ATOM     14  H81 UNL     1      61.478 -46.619 -16.390  1.00  0.00     0.174 HD
ATOM     15  H82 UNL     1      60.513 -45.279 -16.632  1.00  0.00     0.174 HD
ENDROOT
BRANCH   1  16
HETATM   16  C3  UNL     1      59.858 -43.440 -14.836  1.00  0.00     0.250 C 
BRANCH  16  17
HETATM   17  C2  UNL     1      60.618 -42.459 -15.696  1.00  0.00     0.236 C 
HETATM   18  N1  UNL     1      61.830 -41.913 -15.206  1.00  0.00    -0.364 N 
HETATM   19  C1  UNL     1      62.606 -40.975 -15.966  1.00  0.00     0.149 C 
ATOM     20  H1  UNL     1      62.161 -42.196 -14.283  1.00  0.00     0.161 HD
HETATM   21  O1  UNL     1      60.135 -42.178 -16.799  1.00  0.00    -0.272 OA
ENDBRANCH  16  17
ENDBRANCH   1  16
BRANCH   3  22
HETATM   22  C6  UNL     1      60.139 -42.204 -11.888  1.00  0.00     0.284 C 
HETATM   23  N3  UNL     1      60.540 -41.028 -12.559  1.00  0.00    -0.056 NA
HETATM   24  O2  UNL     1      58.987 -42.215 -11.322  1.00  0.00    -0.269 OA
ENDBRANCH   3  22
BRANCH   6  25
HETATM   25  N5  UNL     1      62.856 -45.025  -9.296  1.00  0.00    -0.234 N 
ATOM     26  H52 UNL     1      62.567 -45.873  -8.808  1.00  0.00     0.174 HD
ATOM     27  H51 UNL     1      63.562 -44.406  -8.898  1.00  0.00     0.174 HD
ENDBRANCH   6  25
TORSDOF 4
ENDMDL
MODEL 4
REMARK VINA RESULT: -4.100460276      1.950      4.789
REMARK  4 active torsions:
REMARK  status: ('A' for Active; 'I' for Inactive)
REMARK       I    between atoms: N1_2  and  C2_4 
REMARK    1  A    between atoms: C2_4  and  C3_6 
REMARK    2  A    between atoms: C3_6  and  N2_7 
REMARK    3  A    between atoms: C5_9  and  C6_10 
REMARK    4  A    between atoms: C7_15  and  N5_16 
ROOT
HETATM    1  N2  UNL     1      61.476 -44.653 -12.418  1.00  0.00    -0.169 N 
HETATM    2  C4  UNL     1      61.450 -45.644 -11.518  1.00  0.00     0.129 A 
HETATM    3  C5  UNL     1      61.564 -47.006 -11.537  1.00  0.00     0.145 A 
HETATM    4  N4  UNL     1      61.469 -47.687 -10.356  1.00  0.00    -0.184 N 
ATOM      5  H4  UNL     1      61.555 -48.704 -10.364  1.00  0.00     0.184 HD
HETATM    6  C7  UNL     1      61.265 -47.060  -9.185  1.00  0.00     0.678 A 
HETATM    7  N6  UNL     1      61.145 -45.711  -9.128  1.00  0.00    -0.174 N 
ATOM      8  H6  UNL     1      60.990 -45.266  -8.223  1.00  0.00     0.186 HD
HETATM    9  C8  UNL     1      61.222 -44.945 -10.222  1.00  0.00     0.166 A 
HETATM   10  N7  UNL     1      61.138 -43.629 -10.479  1.00  0.00    -0.174 N 
ATOM     11  H7  UNL     1      60.985 -42.897  -9.786  1.00  0.00     0.186 HD
HETATM   12  C9  UNL     1      61.287 -43.439 -11.788  1.00  0.00     0.680 A 
HETATM   13  N8  UNL     1      61.262 -42.295 -12.397  1.00  0.00    -0.234 N 
ATOM     14  H81 UNL     1      61.122 -41.398 -11.931  1.00  0.00     0.174 HD
ATOM     15  H82 UNL     1      61.376 -42.149 -13.400  1.00  0.00     0.174 HD
ENDROOT
BRANCH   1  16
HETATM   16  C3  UNL     1      61.704 -44.746 -13.829  1.00  0.00     0.250 C 
BRANCH  16  17
HETATM   17  C2  UNL     1      60.420 -44.925 -14.603  1.00  0.00     0.236 C 
HETATM   18  N1  UNL     1      60.331 -45.977 -15.548  1.00  0.00    -0.364 N 
HETATM   19  C1  UNL     1      59.144 -46.209 -16.321  1.00  0.00     0.149 C 
ATOM     20  H1  UNL     1      61.137 -46.588 -15.684  1.00  0.00     0.161 HD
HETATM   21  O1  UNL     1      59.501 -44.133 -14.369  1.00  0.00    -0.272 OA
ENDBRANCH  16  17
ENDBRANCH   1  16
BRANCH   3  22
HETATM   22  C6  UNL     1      61.757 -47.763 -12.736  1.00  0.00     0.284 C 
HETATM   23  N3  UNL     1      60.720 -48.358 -13.488  1.00  0.00    -0.056 NA
HETATM   24  O2  UNL     1      62.963 -47.900 -13.154  1.00  0.00    -0.269 OA
ENDBRANCH   3  22
BRANCH   6  25
HETATM   25  N5  UNL     1      61.177 -47.715  -8.076  1.00  0.00    -0.234 N 
ATOM     26  H52 UNL     1      60.377 -47.519  -7.474  1.00  0.00     0.174 HD
ATOM     27  H51 UNL     1      61.880 -48.404  -7.807  1.00  0.00     0.174 HD
ENDBRANCH   6  25
TORSDOF 4
ENDMDL
MODEL 5
REMARK VINA RESULT: -4.097664475      7.535      9.625
REMARK  4 active torsions:
REMARK  status: ('A' for Active; 'I' for Inactive)
REMARK       I    between atoms: N1_2  and  C2_4 
REMARK    1  A    between atoms: C2_4  and  C3_6 
REMARK    2  A    between atoms: C3_6  and  N2_7 
REMARK    3  A    between atoms: C5_9  and  C6_10 
REMARK    4  A    between atoms: C7_15  and  N5_16 
ROOT
HETATM    1  N2  UNL     1      59.101 -52.696  -9.408  1.00  0.00    -0.169 N 
HETATM    2  C4  UNL     1      60.148 -51.862  -9.461  1.00  0.00     0.129 A 
HETATM    3  C5  UNL     1      61.479 -51.919  -9.153  1.00  0.00     0.145 A 
HETATM    4  N4  UNL     1      62.245 -50.805  -9.351  1.00  0.00    -0.184 N 
ATOM      5  H4  UNL     1      63.239 -50.842  -9.126  1.00  0.00     0.184 HD
HETATM    6  C7  UNL     1      61.729 -49.661  -9.834  1.00  0.00     0.678 A 
HETATM    7  N6  UNL     1      60.413 -49.568 -10.148  1.00  0.00    -0.174 N 
ATOM      8  H6  UNL     1      60.053 -48.685 -10.512  1.00  0.00     0.186 HD
HETATM    9  C8  UNL     1      59.572 -50.596  -9.994  1.00  0.00     0.166 A 
HETATM   10  N7  UNL     1      58.261 -50.802 -10.202  1.00  0.00    -0.174 N 
ATOM     11  H7  UNL     1      57.602 -50.114 -10.565  1.00  0.00     0.186 HD
HETATM   12  C9  UNL     1      57.964 -52.053  -9.855  1.00  0.00     0.680 A 
HETATM   13  N8  UNL     1      56.792 -52.601  -9.920  1.00  0.00    -0.234 N 
ATOM     14  H81 UNL     1      55.952 -52.125 -10.251  1.00  0.00     0.174 HD
ATOM     15  H82 UNL     1      56.564 -53.558  -9.654  1.00  0.00     0.174 HD
ENDROOT
BRANCH   1  16
HETATM   16  C3  UNL     1      59.085 -54.070  -9.005  1.00  0.00     0.250 C 
BRANCH  16  17
HETATM   17  C2  UNL     1      58.645 -54.238  -7.570  1.00  0.00     0.236 C 
HETATM   18  N1  UNL     1      59.627 -54.245  -6.549  1.00  0.00    -0.364 N 
HETATM   19  C1  UNL     1      59.286 -54.400  -5.164  1.00  0.00     0.149 C 
ATOM     20  H1  UNL     1      60.609 -54.137  -6.807  1.00  0.00     0.161 HD
HETATM   21  O1  UNL     1      57.434 -54.363  -7.359  1.00  0.00    -0.272 OA
ENDBRANCH  16  17
ENDBRANCH   1  16
BRANCH   3  22
HETATM   22  C6  UNL     1      62.113 -53.083  -8.612  1.00  0.00     0.284 C 
HETATM   23  N3  UNL     1      62.686 -54.119  -9.382  1.00  0.00    -0.056 NA
HETATM   24  O2  UNL     1      62.162 -53.182  -7.333  1.00  0.00    -0.269 OA
ENDBRANCH   3  22
BRANCH   6  25
HETATM   25  N5  UNL     1      62.463 -48.615 -10.017  1.00  0.00    -0.234 N 
ATOM     26  H52 UNL     1      62.624 -48.006  -9.215  1.00  0.00     0.174 HD
ATOM     27  H51 UNL     1      62.869 -48.402 -10.928  1.00  0.00     0.174 HD
ENDBRANCH   6  25
TORSDOF 4
ENDMDL
