MODEL 1
REMARK VINA RESULT: -7.295291974      0.000      0.000
REMARK  7 active torsions:
REMARK  status: ('A' for Active; 'I' for Inactive)
REMARK    1  A    between atoms: C1_2  and  C2_4 
REMARK    2  A    between atoms: N3_7  and  C3_8 
REMARK    3  A    between atoms: C17_24  and  C18_25 
REMARK    4  A    between atoms: C18_25  and  C19_26 
REMARK       I    between atoms: C19_26  and  N5_28 
REMARK    5  A    between atoms: C23_32  and  N6_33 
REMARK    6  A    between atoms: N6_33  and  C24_35 
REMARK    7  A    between atoms: C24_35  and  C25_36 
ROOT
HETATM    1  C2  UNL     1      14.644  50.986  80.688  1.00  0.00     0.122 A 
HETATM    2  N2  UNL     1      13.400  50.643  80.507  1.00  0.00    -0.292 N 
ATOM      3  H2  UNL     1      13.014  50.413  79.592  1.00  0.00     0.187 HD
HETATM    4  N3  UNL     1      12.668  50.623  81.642  1.00  0.00    -0.279 N 
HETATM    5  C13 UNL     1      13.510  50.978  82.607  1.00  0.00     0.083 A 
HETATM    6  C14 UNL     1      14.778  51.211  82.007  1.00  0.00     0.007 A 
HETATM    7  C15 UNL     1      15.862  51.615  82.957  1.00  0.00     0.063 C 
HETATM    8  C16 UNL     1      15.381  52.723  83.875  1.00  0.00     0.124 C 
HETATM    9  N4  UNL     1      13.963  52.624  84.157  1.00  0.00    -0.391 N 
ATOM     10  H4  UNL     1      13.347  53.399  84.404  1.00  0.00     0.159 HD
HETATM   11  C17 UNL     1      13.560  51.210  84.026  1.00  0.00     0.043 C 
ENDROOT
BRANCH  11  12
HETATM   12  C18 UNL     1      12.604  50.765  85.015  1.00  0.00     0.162 C 
BRANCH  12  13
HETATM   13  C19 UNL     1      11.565  51.810  85.388  1.00  0.00     0.225 C 
HETATM   14  O2  UNL     1      10.850  52.361  84.482  1.00  0.00    -0.273 OA
HETATM   15  N5  UNL     1      11.335  52.218  86.713  1.00  0.00    -0.352 N 
HETATM   16  C20 UNL     1      10.298  53.223  86.870  1.00  0.00     0.126 C 
HETATM   17  C27 UNL     1      12.092  51.665  87.813  1.00  0.00     0.127 C 
HETATM   18  C21 UNL     1       9.880  53.412  88.297  1.00  0.00     0.022 C 
HETATM   19  C22 UNL     1      10.903  54.136  89.136  1.00  0.00     0.026 C 
HETATM   20  C23 UNL     1      11.900  53.190  89.726  1.00  0.00     0.078 C 
HETATM   21  C26 UNL     1      12.823  52.729  88.592  1.00  0.00     0.044 C 
BRANCH  20  22
HETATM   22  N6  UNL     1      12.706  53.718  90.777  1.00  0.00    -0.415 N 
ATOM     23  H6  UNL     1      12.742  53.289  91.702  1.00  0.00     0.153 HD
BRANCH  22  24
HETATM   24  C24 UNL     1      13.459  54.886  90.452  1.00  0.00     0.145 C 
BRANCH  24  25
HETATM   25  C25 UNL     1      14.866  54.675  90.991  1.00  0.00     0.241 C 
HETATM   26  F1  UNL     1      15.765  54.511  89.933  1.00  0.00    -0.254 F 
ENDBRANCH  24  25
ENDBRANCH  22  24
ENDBRANCH  20  22
ENDBRANCH  12  13
ENDBRANCH  11  12
BRANCH   4  27
HETATM   27  C3  UNL     1      11.293  50.258  81.526  1.00  0.00     0.055 C 
HETATM   28  C4  UNL     1      10.425  51.511  81.275  1.00  0.00     0.038 C 
HETATM   29  C5  UNL     1       9.056  51.201  80.817  1.00  0.00    -0.011 C 
HETATM   30  C6  UNL     1       9.071  50.486  79.496  1.00  0.00     0.009 C 
HETATM   31  C10 UNL     1       8.383  50.330  81.857  1.00  0.00     0.009 C 
HETATM   32  C7  UNL     1       9.898  49.232  79.677  1.00  0.00    -0.011 C 
HETATM   33  C8  UNL     1       9.227  48.282  80.680  1.00  0.00     0.009 C 
HETATM   34  C12 UNL     1      11.246  49.497  80.167  1.00  0.00     0.038 C 
HETATM   35  C9  UNL     1       9.190  49.073  81.941  1.00  0.00    -0.011 C 
HETATM   36  C11 UNL     1      10.615  49.418  82.448  1.00  0.00     0.038 C 
ENDBRANCH   4  27
BRANCH   1  37
HETATM   37  C1  UNL     1      15.741  51.117  79.723  1.00  0.00     0.283 C 
HETATM   38  N1  UNL     1      15.991  50.011  78.872  1.00  0.00    -0.056 NA
HETATM   39  O1  UNL     1      16.440  52.130  79.626  1.00  0.00    -0.269 OA
ENDBRANCH   1  37
TORSDOF 7
ENDMDL
MODEL 2
REMARK VINA RESULT: -7.067100650      6.295     13.499
REMARK  7 active torsions:
REMARK  status: ('A' for Active; 'I' for Inactive)
REMARK    1  A    between atoms: C1_2  and  C2_4 
REMARK    2  A    between atoms: N3_7  and  C3_8 
REMARK    3  A    between atoms: C17_24  and  C18_25 
REMARK    4  A    between atoms: C18_25  and  C19_26 
REMARK       I    between atoms: C19_26  and  N5_28 
REMARK    5  A    between atoms: C23_32  and  N6_33 
REMARK    6  A    between atoms: N6_33  and  C24_35 
REMARK    7  A    between atoms: C24_35  and  C25_36 
ROOT
HETATM    1  C2  UNL     1      11.293  54.690  98.183  1.00  0.00     0.122 A 
HETATM    2  N2  UNL     1      12.142  53.711  98.037  1.00  0.00    -0.292 N 
ATOM      3  H2  UNL     1      12.477  53.145  98.816  1.00  0.00     0.187 HD
HETATM    4  N3  UNL     1      12.536  53.515  96.761  1.00  0.00    -0.279 N 
HETATM    5  C13 UNL     1      11.892  54.436  96.050  1.00  0.00     0.083 A 
HETATM    6  C14 UNL     1      11.092  55.192  96.951  1.00  0.00     0.007 A 
HETATM    7  C15 UNL     1      10.281  56.278  96.318  1.00  0.00     0.063 C 
HETATM    8  C16 UNL     1      11.140  57.108  95.382  1.00  0.00     0.124 C 
HETATM    9  N4  UNL     1      12.189  56.324  94.761  1.00  0.00    -0.391 N 
ATOM     10  H4  UNL     1      13.082  56.683  94.422  1.00  0.00     0.159 HD
HETATM   11  C17 UNL     1      11.746  54.917  94.703  1.00  0.00     0.043 C 
ENDROOT
BRANCH  11  12
HETATM   12  C18 UNL     1      12.109  54.225  93.487  1.00  0.00     0.162 C 
BRANCH  12  13
HETATM   13  C19 UNL     1      13.319  54.810  92.777  1.00  0.00     0.225 C 
HETATM   14  O2  UNL     1      14.023  55.716  93.342  1.00  0.00    -0.273 OA
HETATM   15  N5  UNL     1      13.724  54.399  91.496  1.00  0.00    -0.352 N 
HETATM   16  C20 UNL     1      14.907  55.071  90.986  1.00  0.00     0.126 C 
HETATM   17  C27 UNL     1      12.996  53.388  90.764  1.00  0.00     0.127 C 
HETATM   18  C21 UNL     1      15.474  54.408  89.766  1.00  0.00     0.022 C 
HETATM   19  C22 UNL     1      14.647  54.620  88.523  1.00  0.00     0.026 C 
HETATM   20  C23 UNL     1      13.579  53.582  88.388  1.00  0.00     0.078 C 
HETATM   21  C26 UNL     1      12.501  53.894  89.432  1.00  0.00     0.044 C 
BRANCH  20  22
HETATM   22  N6  UNL     1      12.957  53.499  87.108  1.00  0.00    -0.415 N 
ATOM     23  H6  UNL     1      11.977  53.238  86.997  1.00  0.00     0.153 HD
BRANCH  22  24
HETATM   24  C24 UNL     1      13.792  53.804  85.993  1.00  0.00     0.145 C 
BRANCH  24  25
HETATM   25  C25 UNL     1      13.552  52.725  84.946  1.00  0.00     0.241 C 
HETATM   26  F1  UNL     1      14.636  52.662  84.066  1.00  0.00    -0.254 F 
ENDBRANCH  24  25
ENDBRANCH  22  24
ENDBRANCH  20  22
ENDBRANCH  12  13
ENDBRANCH  11  12
BRANCH   4  27
HETATM   27  C3  UNL     1      13.468  52.461  96.519  1.00  0.00     0.055 C 
HETATM   28  C4  UNL     1      14.125  52.011  97.842  1.00  0.00     0.038 C 
HETATM   29  C5  UNL     1      14.841  50.725  97.741  1.00  0.00    -0.011 C 
HETATM   30  C6  UNL     1      13.904  49.604  97.389  1.00  0.00     0.009 C 
HETATM   31  C10 UNL     1      15.907  50.847  96.673  1.00  0.00     0.009 C 
HETATM   32  C7  UNL     1      13.234  49.976  96.085  1.00  0.00    -0.011 C 
HETATM   33  C8  UNL     1      14.266  50.055  94.950  1.00  0.00     0.009 C 
HETATM   34  C12 UNL     1      12.548  51.263  96.136  1.00  0.00     0.038 C 
HETATM   35  C9  UNL     1      15.190  51.135  95.391  1.00  0.00    -0.011 C 
HETATM   36  C11 UNL     1      14.467  52.502  95.511  1.00  0.00     0.038 C 
ENDBRANCH   4  27
BRANCH   1  37
HETATM   37  C1  UNL     1      10.637  55.202  99.389  1.00  0.00     0.283 C 
HETATM   38  N1  UNL     1      11.473  55.629 100.452  1.00  0.00    -0.056 NA
HETATM   39  O1  UNL     1       9.410  55.274  99.515  1.00  0.00    -0.269 OA
ENDBRANCH   1  37
TORSDOF 7
ENDMDL
MODEL 3
REMARK VINA RESULT: -6.966614470      0.770      1.374
REMARK  7 active torsions:
REMARK  status: ('A' for Active; 'I' for Inactive)
REMARK    1  A    between atoms: C1_2  and  C2_4 
REMARK    2  A    between atoms: N3_7  and  C3_8 
REMARK    3  A    between atoms: C17_24  and  C18_25 
REMARK    4  A    between atoms: C18_25  and  C19_26 
REMARK       I    between atoms: C19_26  and  N5_28 
REMARK    5  A    between atoms: C23_32  and  N6_33 
REMARK    6  A    between atoms: N6_33  and  C24_35 
REMARK    7  A    between atoms: C24_35  and  C25_36 
ROOT
HETATM    1  C2  UNL     1      14.837  50.990  81.028  1.00  0.00     0.122 A 
HETATM    2  N2  UNL     1      13.707  50.391  80.776  1.00  0.00    -0.292 N 
ATOM      3  H2  UNL     1      13.460  50.036  79.853  1.00  0.00     0.187 HD
HETATM    4  N3  UNL     1      12.894  50.284  81.849  1.00  0.00    -0.279 N 
HETATM    5  C13 UNL     1      13.557  50.857  82.849  1.00  0.00     0.083 A 
HETATM    6  C14 UNL     1      14.802  51.311  82.335  1.00  0.00     0.007 A 
HETATM    7  C15 UNL     1      15.693  51.979  83.334  1.00  0.00     0.063 C 
HETATM    8  C16 UNL     1      14.919  53.015  84.129  1.00  0.00     0.124 C 
HETATM    9  N4  UNL     1      13.530  52.644  84.306  1.00  0.00    -0.391 N 
ATOM     10  H4  UNL     1      12.752  53.290  84.448  1.00  0.00     0.159 HD
HETATM   11  C17 UNL     1      13.430  51.172  84.246  1.00  0.00     0.043 C 
ENDROOT
BRANCH  11  12
HETATM   12  C18 UNL     1      12.495  50.597  85.188  1.00  0.00     0.162 C 
BRANCH  12  13
HETATM   13  C19 UNL     1      11.384  51.541  85.615  1.00  0.00     0.225 C 
HETATM   14  O2  UNL     1      10.482  51.895  84.781  1.00  0.00    -0.273 OA
HETATM   15  N5  UNL     1      11.285  52.064  86.915  1.00  0.00    -0.352 N 
HETATM   16  C20 UNL     1      10.150  52.945  87.133  1.00  0.00     0.126 C 
HETATM   17  C27 UNL     1      12.255  51.735  87.935  1.00  0.00     0.127 C 
HETATM   18  C21 UNL     1       9.912  53.241  88.584  1.00  0.00     0.022 C 
HETATM   19  C22 UNL     1      10.931  54.175  89.187  1.00  0.00     0.026 C 
HETATM   20  C23 UNL     1      12.121  53.430  89.704  1.00  0.00     0.078 C 
HETATM   21  C26 UNL     1      12.933  52.962  88.491  1.00  0.00     0.044 C 
BRANCH  20  22
HETATM   22  N6  UNL     1      12.983  54.168  90.567  1.00  0.00    -0.415 N 
ATOM     23  H6  UNL     1      13.099  53.931  91.553  1.00  0.00     0.153 HD
BRANCH  22  24
HETATM   24  C24 UNL     1      13.674  55.261  89.964  1.00  0.00     0.145 C 
BRANCH  24  25
HETATM   25  C25 UNL     1      15.096  55.247  90.509  1.00  0.00     0.241 C 
HETATM   26  F1  UNL     1      15.931  54.530  89.647  1.00  0.00    -0.254 F 
ENDBRANCH  24  25
ENDBRANCH  22  24
ENDBRANCH  20  22
ENDBRANCH  12  13
ENDBRANCH  11  12
BRANCH   4  27
HETATM   27  C3  UNL     1      11.635  49.640  81.653  1.00  0.00     0.055 C 
HETATM   28  C4  UNL     1      11.477  49.208  80.178  1.00  0.00     0.038 C 
HETATM   29  C5  UNL     1      10.372  48.255  79.956  1.00  0.00    -0.011 C 
HETATM   30  C6  UNL     1      10.601  46.970  80.700  1.00  0.00     0.009 C 
HETATM   31  C10 UNL     1       9.082  48.891  80.429  1.00  0.00     0.009 C 
HETATM   32  C7  UNL     1      10.749  47.322  82.164  1.00  0.00    -0.011 C 
HETATM   33  C8  UNL     1       9.445  47.918  82.712  1.00  0.00     0.009 C 
HETATM   34  C12 UNL     1      11.808  48.294  82.417  1.00  0.00     0.038 C 
HETATM   35  C9  UNL     1       9.248  49.146  81.894  1.00  0.00    -0.011 C 
HETATM   36  C11 UNL     1      10.396  50.169  82.103  1.00  0.00     0.038 C 
ENDBRANCH   4  27
BRANCH   1  37
HETATM   37  C1  UNL     1      15.968  51.289  80.146  1.00  0.00     0.283 C 
HETATM   38  N1  UNL     1      16.229  50.376  79.093  1.00  0.00    -0.056 NA
HETATM   39  O1  UNL     1      16.689  52.283  80.281  1.00  0.00    -0.269 OA
ENDBRANCH   1  37
TORSDOF 7
ENDMDL
MODEL 4
REMARK VINA RESULT: -6.881211506      6.969     10.419
REMARK  7 active torsions:
REMARK  status: ('A' for Active; 'I' for Inactive)
REMARK    1  A    between atoms: C1_2  and  C2_4 
REMARK    2  A    between atoms: N3_7  and  C3_8 
REMARK    3  A    between atoms: C17_24  and  C18_25 
REMARK    4  A    between atoms: C18_25  and  C19_26 
REMARK       I    between atoms: C19_26  and  N5_28 
REMARK    5  A    between atoms: C23_32  and  N6_33 
REMARK    6  A    between atoms: N6_33  and  C24_35 
REMARK    7  A    between atoms: C24_35  and  C25_36 
ROOT
HETATM    1  C2  UNL     1      13.997  54.425  90.661  1.00  0.00     0.122 A 
HETATM    2  N2  UNL     1      13.674  54.590  91.913  1.00  0.00    -0.292 N 
ATOM      3  H2  UNL     1      14.214  55.169  92.554  1.00  0.00     0.187 HD
HETATM    4  N3  UNL     1      12.559  53.923  92.282  1.00  0.00    -0.279 N 
HETATM    5  C13 UNL     1      12.150  53.292  91.186  1.00  0.00     0.083 A 
HETATM    6  C14 UNL     1      13.063  53.607  90.142  1.00  0.00     0.007 A 
HETATM    7  C15 UNL     1      12.749  52.985  88.818  1.00  0.00     0.063 C 
HETATM    8  C16 UNL     1      12.458  51.504  88.981  1.00  0.00     0.124 C 
HETATM    9  N4  UNL     1      11.840  51.205  90.257  1.00  0.00    -0.391 N 
ATOM     10  H4  UNL     1      11.895  50.314  90.752  1.00  0.00     0.159 HD
HETATM   11  C17 UNL     1      11.118  52.406  90.719  1.00  0.00     0.043 C 
ENDROOT
BRANCH  11  12
HETATM   12  C18 UNL     1       9.849  52.134  91.356  1.00  0.00     0.162 C 
BRANCH  12  13
HETATM   13  C19 UNL     1       8.753  51.698  90.398  1.00  0.00     0.225 C 
HETATM   14  O2  UNL     1       8.757  50.517  89.908  1.00  0.00    -0.273 OA
HETATM   15  N5  UNL     1       7.701  52.543  90.006  1.00  0.00    -0.352 N 
HETATM   16  C20 UNL     1       6.748  51.944  89.087  1.00  0.00     0.126 C 
HETATM   17  C27 UNL     1       7.605  53.900  90.493  1.00  0.00     0.127 C 
HETATM   18  C21 UNL     1       5.500  52.760  88.929  1.00  0.00     0.022 C 
HETATM   19  C22 UNL     1       5.698  54.019  88.122  1.00  0.00     0.026 C 
HETATM   20  C23 UNL     1       6.136  55.160  88.984  1.00  0.00     0.078 C 
HETATM   21  C26 UNL     1       7.598  54.908  89.371  1.00  0.00     0.044 C 
BRANCH  20  22
HETATM   22  N6  UNL     1       6.044  56.454  88.390  1.00  0.00    -0.415 N 
ATOM     23  H6  UNL     1       5.873  56.582  87.392  1.00  0.00     0.153 HD
BRANCH  22  24
HETATM   24  C24 UNL     1       6.206  57.556  89.280  1.00  0.00     0.145 C 
BRANCH  24  25
HETATM   25  C25 UNL     1       7.181  58.522  88.621  1.00  0.00     0.241 C 
HETATM   26  F1  UNL     1       8.491  58.210  88.996  1.00  0.00    -0.254 F 
ENDBRANCH  24  25
ENDBRANCH  22  24
ENDBRANCH  20  22
ENDBRANCH  12  13
ENDBRANCH  11  12
BRANCH   4  27
HETATM   27  C3  UNL     1      12.140  54.052  93.641  1.00  0.00     0.055 C 
HETATM   28  C4  UNL     1      12.839  55.259  94.306  1.00  0.00     0.038 C 
HETATM   29  C5  UNL     1      12.228  55.665  95.586  1.00  0.00    -0.011 C 
HETATM   30  C6  UNL     1      10.808  56.115  95.394  1.00  0.00     0.009 C 
HETATM   31  C10 UNL     1      12.263  54.486  96.535  1.00  0.00     0.009 C 
HETATM   32  C7  UNL     1      10.058  54.966  94.757  1.00  0.00    -0.011 C 
HETATM   33  C8  UNL     1      10.010  53.759  95.705  1.00  0.00     0.009 C 
HETATM   34  C12 UNL     1      10.658  54.511  93.507  1.00  0.00     0.038 C 
HETATM   35  C9  UNL     1      11.444  53.408  95.898  1.00  0.00    -0.011 C 
HETATM   36  C11 UNL     1      12.117  52.978  94.569  1.00  0.00     0.038 C 
ENDBRANCH   4  27
BRANCH   1  37
HETATM   37  C1  UNL     1      15.115  54.977  89.890  1.00  0.00     0.283 C 
HETATM   38  N1  UNL     1      15.171  56.386  89.746  1.00  0.00    -0.056 NA
HETATM   39  O1  UNL     1      15.992  54.278  89.372  1.00  0.00    -0.269 OA
ENDBRANCH   1  37
TORSDOF 7
ENDMDL
MODEL 5
REMARK VINA RESULT: -6.818809891      7.226     10.703
REMARK  7 active torsions:
REMARK  status: ('A' for Active; 'I' for Inactive)
REMARK    1  A    between atoms: C1_2  and  C2_4 
REMARK    2  A    between atoms: N3_7  and  C3_8 
REMARK    3  A    between atoms: C17_24  and  C18_25 
REMARK    4  A    between atoms: C18_25  and  C19_26 
REMARK       I    between atoms: C19_26  and  N5_28 
REMARK    5  A    between atoms: C23_32  and  N6_33 
REMARK    6  A    between atoms: N6_33  and  C24_35 
REMARK    7  A    between atoms: C24_35  and  C25_36 
ROOT
HETATM    1  C2  UNL     1      14.122  53.982  90.918  1.00  0.00     0.122 A 
HETATM    2  N2  UNL     1      14.374  53.281  91.987  1.00  0.00    -0.292 N 
ATOM      3  H2  UNL     1      15.283  53.280  92.449  1.00  0.00     0.187 HD
HETATM    4  N3  UNL     1      13.323  52.557  92.427  1.00  0.00    -0.279 N 
HETATM    5  C13 UNL     1      12.337  52.818  91.574  1.00  0.00     0.083 A 
HETATM    6  C14 UNL     1      12.837  53.730  90.605  1.00  0.00     0.007 A 
HETATM    7  C15 UNL     1      11.850  54.148  89.561  1.00  0.00     0.063 C 
HETATM    8  C16 UNL     1      11.140  52.937  88.984  1.00  0.00     0.124 C 
HETATM    9  N4  UNL     1      10.985  51.877  89.961  1.00  0.00    -0.391 N 
ATOM     10  H4  UNL     1      10.904  50.881  89.753  1.00  0.00     0.159 HD
HETATM   11  C17 UNL     1      10.964  52.482  91.307  1.00  0.00     0.043 C 
ENDROOT
BRANCH  11  12
HETATM   12  C18 UNL     1      10.021  51.878  92.221  1.00  0.00     0.162 C 
BRANCH  12  13
HETATM   13  C19 UNL     1       8.929  52.820  92.700  1.00  0.00     0.225 C 
HETATM   14  O2  UNL     1       7.855  52.962  92.021  1.00  0.00    -0.273 OA
HETATM   15  N5  UNL     1       9.034  53.569  93.884  1.00  0.00    -0.352 N 
HETATM   16  C20 UNL     1       7.885  54.409  94.177  1.00  0.00     0.126 C 
HETATM   17  C27 UNL     1      10.207  53.491  94.724  1.00  0.00     0.127 C 
HETATM   18  C21 UNL     1       7.902  54.955  95.574  1.00  0.00     0.022 C 
HETATM   19  C22 UNL     1       8.927  56.041  95.786  1.00  0.00     0.026 C 
HETATM   20  C23 UNL     1      10.258  55.474  96.168  1.00  0.00     0.078 C 
HETATM   21  C26 UNL     1      10.863  54.836  94.912  1.00  0.00     0.044 C 
BRANCH  20  22
HETATM   22  N6  UNL     1      11.198  56.408  96.696  1.00  0.00    -0.415 N 
ATOM     23  H6  UNL     1      11.145  56.746  97.658  1.00  0.00     0.153 HD
BRANCH  22  24
HETATM   24  C24 UNL     1      12.216  56.838  95.795  1.00  0.00     0.145 C 
BRANCH  24  25
HETATM   25  C25 UNL     1      11.869  58.258  95.372  1.00  0.00     0.241 C 
HETATM   26  F1  UNL     1      12.959  59.104  95.594  1.00  0.00    -0.254 F 
ENDBRANCH  24  25
ENDBRANCH  22  24
ENDBRANCH  20  22
ENDBRANCH  12  13
ENDBRANCH  11  12
BRANCH   4  27
HETATM   27  C3  UNL     1      13.521  51.760  93.594  1.00  0.00     0.055 C 
HETATM   28  C4  UNL     1      14.826  50.942  93.471  1.00  0.00     0.038 C 
HETATM   29  C5  UNL     1      15.278  50.354  94.747  1.00  0.00    -0.011 C 
HETATM   30  C6  UNL     1      15.599  51.419  95.756  1.00  0.00     0.009 C 
HETATM   31  C10 UNL     1      14.181  49.460  95.285  1.00  0.00     0.009 C 
HETATM   32  C7  UNL     1      14.350  52.253  95.937  1.00  0.00    -0.011 C 
HETATM   33  C8  UNL     1      13.218  51.407  96.539  1.00  0.00     0.009 C 
HETATM   34  C12 UNL     1      13.850  52.819  94.688  1.00  0.00     0.038 C 
HETATM   35  C9  UNL     1      12.996  50.343  95.522  1.00  0.00    -0.011 C 
HETATM   36  C11 UNL     1      12.521  50.929  94.167  1.00  0.00     0.038 C 
ENDBRANCH   4  27
BRANCH   1  37
HETATM   37  C1  UNL     1      14.984  54.887  90.152  1.00  0.00     0.283 C 
HETATM   38  N1  UNL     1      14.625  56.259  90.126  1.00  0.00    -0.056 NA
HETATM   39  O1  UNL     1      15.989  54.510  89.541  1.00  0.00    -0.269 OA
ENDBRANCH   1  37
TORSDOF 7
ENDMDL
