MODEL 1
REMARK VINA RESULT: -7.383647349      0.000      0.000
REMARK  10 active torsions:
REMARK  status: ('A' for Active; 'I' for Inactive)
REMARK    1  A    between atoms: N1_1  and  C1_5 
REMARK    2  A    between atoms: C1_5  and  C2_6 
REMARK    3  A    between atoms: C2_6  and  C3_7 
REMARK    4  A    between atoms: C3_7  and  C4_8 
REMARK    5  A    between atoms: C4_8  and  C5_9 
REMARK    6  A    between atoms: C5_9  and  C6_10 
REMARK    7  A    between atoms: C6_10  and  C7_11 
REMARK    8  A    between atoms: C7_11  and  C8_12 
REMARK    9  A    between atoms: C8_12  and  C9_13 
REMARK   10  A    between atoms: C9_13  and  C10_14 
ROOT
HETATM    1  C6  UNL     1      36.128 -48.906 111.116  1.00  0.00     0.000 C 
ENDROOT
BRANCH   1   2
HETATM    2  C5  UNL     1      36.174 -48.411 112.527  1.00  0.00     0.000 C 
BRANCH   2   3
HETATM    3  C4  UNL     1      34.837 -48.397 113.210  1.00  0.00     0.000 C 
BRANCH   3   4
HETATM    4  C3  UNL     1      33.692 -48.477 112.228  1.00  0.00     0.002 C 
BRANCH   4   5
HETATM    5  C2  UNL     1      32.508 -49.085 112.990  1.00  0.00     0.027 C 
BRANCH   5   6
HETATM    6  C1  UNL     1      31.460 -48.006 113.220  1.00  0.00     0.229 C 
BRANCH   6   7
HETATM    7  N1  UNL     1      31.759 -47.288 114.430  1.00  0.00    -0.079 N 
ATOM      8  H13 UNL     1      30.932 -47.151 115.010  1.00  0.00     0.274 HD
ATOM      9  H12 UNL     1      32.306 -47.849 115.083  1.00  0.00     0.274 HD
ATOM     10  H11 UNL     1      32.220 -46.407 114.202  1.00  0.00     0.274 HD
ENDBRANCH   6   7
ENDBRANCH   5   6
ENDBRANCH   4   5
ENDBRANCH   3   4
ENDBRANCH   2   3
ENDBRANCH   1   2
BRANCH   1  11
HETATM   11  C7  UNL     1      37.248 -49.848 110.774  1.00  0.00     0.000 C 
BRANCH  11  12
HETATM   12  C8  UNL     1      38.408 -49.720 111.733  1.00  0.00     0.005 C 
BRANCH  12  13
HETATM   13  C9  UNL     1      39.659 -49.182 111.072  1.00  0.00     0.038 C 
BRANCH  13  14
HETATM   14  C10 UNL     1      40.675 -50.272 111.136  1.00  0.00    -0.058 A 
HETATM   15  C11 UNL     1      41.954 -50.131 110.630  1.00  0.00     0.007 A 
HETATM   16  C12 UNL     1      42.891 -51.135 110.689  1.00  0.00     0.001 A 
HETATM   17  C13 UNL     1      42.586 -52.344 111.264  1.00  0.00     0.000 A 
HETATM   18  C14 UNL     1      41.314 -52.512 111.777  1.00  0.00     0.001 A 
HETATM   19  C15 UNL     1      40.379 -51.493 111.714  1.00  0.00     0.007 A 
ENDBRANCH  13  14
ENDBRANCH  12  13
ENDBRANCH  11  12
ENDBRANCH   1  11
TORSDOF 10
ENDMDL
MODEL 2
REMARK VINA RESULT: -7.332821753      0.709      1.539
REMARK  10 active torsions:
REMARK  status: ('A' for Active; 'I' for Inactive)
REMARK    1  A    between atoms: N1_1  and  C1_5 
REMARK    2  A    between atoms: C1_5  and  C2_6 
REMARK    3  A    between atoms: C2_6  and  C3_7 
REMARK    4  A    between atoms: C3_7  and  C4_8 
REMARK    5  A    between atoms: C4_8  and  C5_9 
REMARK    6  A    between atoms: C5_9  and  C6_10 
REMARK    7  A    between atoms: C6_10  and  C7_11 
REMARK    8  A    between atoms: C7_11  and  C8_12 
REMARK    9  A    between atoms: C8_12  and  C9_13 
REMARK   10  A    between atoms: C9_13  and  C10_14 
ROOT
HETATM    1  C6  UNL     1      36.840 -49.318 110.978  1.00  0.00     0.000 C 
ENDROOT
BRANCH   1   2
HETATM    2  C5  UNL     1      35.587 -48.570 111.308  1.00  0.00     0.000 C 
BRANCH   2   3
HETATM    3  C4  UNL     1      35.322 -48.451 112.781  1.00  0.00     0.000 C 
BRANCH   3   4
HETATM    4  C3  UNL     1      33.968 -47.849 113.073  1.00  0.00     0.002 C 
BRANCH   4   5
HETATM    5  C2  UNL     1      32.939 -48.963 112.844  1.00  0.00     0.027 C 
BRANCH   5   6
HETATM    6  C1  UNL     1      31.628 -48.572 113.512  1.00  0.00     0.229 C 
BRANCH   6   7
HETATM    7  N1  UNL     1      31.821 -47.383 114.298  1.00  0.00    -0.079 N 
ATOM      8  H13 UNL     1      30.937 -46.983 114.613  1.00  0.00     0.274 HD
ATOM      9  H12 UNL     1      32.223 -47.589 115.213  1.00  0.00     0.274 HD
ATOM     10  H11 UNL     1      32.382 -46.711 113.775  1.00  0.00     0.274 HD
ENDBRANCH   6   7
ENDBRANCH   5   6
ENDBRANCH   4   5
ENDBRANCH   3   4
ENDBRANCH   2   3
ENDBRANCH   1   2
BRANCH   1  11
HETATM   11  C7  UNL     1      37.863 -49.289 112.078  1.00  0.00     0.000 C 
BRANCH  11  12
HETATM   12  C8  UNL     1      39.237 -49.677 111.584  1.00  0.00     0.005 C 
BRANCH  12  13
HETATM   13  C9  UNL     1      39.563 -51.133 111.842  1.00  0.00     0.038 C 
BRANCH  13  14
HETATM   14  C10 UNL     1      40.984 -51.328 111.438  1.00  0.00    -0.058 A 
HETATM   15  C11 UNL     1      41.712 -52.453 111.782  1.00  0.00     0.007 A 
HETATM   16  C12 UNL     1      43.023 -52.633 111.410  1.00  0.00     0.001 A 
HETATM   17  C13 UNL     1      43.675 -51.682 110.665  1.00  0.00     0.000 A 
HETATM   18  C14 UNL     1      42.972 -50.548 110.307  1.00  0.00     0.001 A 
HETATM   19  C15 UNL     1      41.652 -50.377 110.687  1.00  0.00     0.007 A 
ENDBRANCH  13  14
ENDBRANCH  12  13
ENDBRANCH  11  12
ENDBRANCH   1  11
TORSDOF 10
ENDMDL
MODEL 3
REMARK VINA RESULT: -7.328473882      0.442      1.256
REMARK  10 active torsions:
REMARK  status: ('A' for Active; 'I' for Inactive)
REMARK    1  A    between atoms: N1_1  and  C1_5 
REMARK    2  A    between atoms: C1_5  and  C2_6 
REMARK    3  A    between atoms: C2_6  and  C3_7 
REMARK    4  A    between atoms: C3_7  and  C4_8 
REMARK    5  A    between atoms: C4_8  and  C5_9 
REMARK    6  A    between atoms: C5_9  and  C6_10 
REMARK    7  A    between atoms: C6_10  and  C7_11 
REMARK    8  A    between atoms: C7_11  and  C8_12 
REMARK    9  A    between atoms: C8_12  and  C9_13 
REMARK   10  A    between atoms: C9_13  and  C10_14 
ROOT
HETATM    1  C6  UNL     1      36.090 -48.794 111.143  1.00  0.00     0.000 C 
ENDROOT
BRANCH   1   2
HETATM    2  C5  UNL     1      36.140 -48.436 112.595  1.00  0.00     0.000 C 
BRANCH   2   3
HETATM    3  C4  UNL     1      34.789 -48.234 113.217  1.00  0.00     0.000 C 
BRANCH   3   4
HETATM    4  C3  UNL     1      33.674 -48.775 112.354  1.00  0.00     0.002 C 
BRANCH   4   5
HETATM    5  C2  UNL     1      32.365 -48.473 113.095  1.00  0.00     0.027 C 
BRANCH   5   6
HETATM    6  C1  UNL     1      32.446 -47.077 113.694  1.00  0.00     0.229 C 
BRANCH   6   7
HETATM    7  N1  UNL     1      31.295 -46.836 114.521  1.00  0.00    -0.079 N 
ATOM      8  H13 UNL     1      31.527 -46.297 115.355  1.00  0.00     0.274 HD
ATOM      9  H12 UNL     1      30.647 -46.174 114.095  1.00  0.00     0.274 HD
ATOM     10  H11 UNL     1      30.843 -47.722 114.749  1.00  0.00     0.274 HD
ENDBRANCH   6   7
ENDBRANCH   5   6
ENDBRANCH   4   5
ENDBRANCH   3   4
ENDBRANCH   2   3
ENDBRANCH   1   2
BRANCH   1  11
HETATM   11  C7  UNL     1      37.160 -49.765 110.728  1.00  0.00     0.000 C 
BRANCH  11  12
HETATM   12  C8  UNL     1      38.313 -49.787 111.704  1.00  0.00     0.005 C 
BRANCH  12  13
HETATM   13  C9  UNL     1      39.580 -49.191 111.128  1.00  0.00     0.038 C 
BRANCH  13  14
HETATM   14  C10 UNL     1      40.611 -50.267 111.165  1.00  0.00    -0.058 A 
HETATM   15  C11 UNL     1      40.372 -51.511 111.720  1.00  0.00     0.007 A 
HETATM   16  C12 UNL     1      41.322 -52.505 111.754  1.00  0.00     0.001 A 
HETATM   17  C13 UNL     1      42.573 -52.295 111.227  1.00  0.00     0.000 A 
HETATM   18  C14 UNL     1      42.838 -51.060 110.667  1.00  0.00     0.001 A 
HETATM   19  C15 UNL     1      41.874 -50.068 110.637  1.00  0.00     0.007 A 
ENDBRANCH  13  14
ENDBRANCH  12  13
ENDBRANCH  11  12
ENDBRANCH   1  11
TORSDOF 10
ENDMDL
MODEL 4
REMARK VINA RESULT: -7.315204866      0.701      1.165
REMARK  10 active torsions:
REMARK  status: ('A' for Active; 'I' for Inactive)
REMARK    1  A    between atoms: N1_1  and  C1_5 
REMARK    2  A    between atoms: C1_5  and  C2_6 
REMARK    3  A    between atoms: C2_6  and  C3_7 
REMARK    4  A    between atoms: C3_7  and  C4_8 
REMARK    5  A    between atoms: C4_8  and  C5_9 
REMARK    6  A    between atoms: C5_9  and  C6_10 
REMARK    7  A    between atoms: C6_10  and  C7_11 
REMARK    8  A    between atoms: C7_11  and  C8_12 
REMARK    9  A    between atoms: C8_12  and  C9_13 
REMARK   10  A    between atoms: C9_13  and  C10_14 
ROOT
HETATM    1  C6  UNL     1      36.844 -49.348 110.996  1.00  0.00     0.000 C 
ENDROOT
BRANCH   1   2
HETATM    2  C5  UNL     1      35.627 -48.527 111.285  1.00  0.00     0.000 C 
BRANCH   2   3
HETATM    3  C4  UNL     1      35.219 -48.533 112.730  1.00  0.00     0.000 C 
BRANCH   3   4
HETATM    4  C3  UNL     1      33.864 -47.903 112.946  1.00  0.00     0.002 C 
BRANCH   4   5
HETATM    5  C2  UNL     1      32.835 -49.033 112.829  1.00  0.00     0.027 C 
BRANCH   5   6
HETATM    6  C1  UNL     1      31.556 -48.614 113.539  1.00  0.00     0.229 C 
BRANCH   6   7
HETATM    7  N1  UNL     1      31.804 -47.442 114.335  1.00  0.00    -0.079 N 
ATOM      8  H13 UNL     1      32.797 -47.312 114.527  1.00  0.00     0.274 HD
ATOM      9  H12 UNL     1      31.641 -46.582 113.812  1.00  0.00     0.274 HD
ATOM     10  H11 UNL     1      31.249 -47.483 115.190  1.00  0.00     0.274 HD
ENDBRANCH   6   7
ENDBRANCH   5   6
ENDBRANCH   4   5
ENDBRANCH   3   4
ENDBRANCH   2   3
ENDBRANCH   1   2
BRANCH   1  11
HETATM   11  C7  UNL     1      37.868 -49.309 112.096  1.00  0.00     0.000 C 
BRANCH  11  12
HETATM   12  C8  UNL     1      39.243 -49.692 111.602  1.00  0.00     0.005 C 
BRANCH  12  13
HETATM   13  C9  UNL     1      39.569 -51.151 111.847  1.00  0.00     0.038 C 
BRANCH  13  14
HETATM   14  C10 UNL     1      40.990 -51.342 111.439  1.00  0.00    -0.058 A 
HETATM   15  C11 UNL     1      41.684 -50.411 110.687  1.00  0.00     0.007 A 
HETATM   16  C12 UNL     1      42.994 -50.587 110.311  1.00  0.00     0.001 A 
HETATM   17  C13 UNL     1      43.680 -51.720 110.675  1.00  0.00     0.000 A 
HETATM   18  C14 UNL     1      43.011 -52.667 111.426  1.00  0.00     0.001 A 
HETATM   19  C15 UNL     1      41.692 -52.478 111.800  1.00  0.00     0.007 A 
ENDBRANCH  13  14
ENDBRANCH  12  13
ENDBRANCH  11  12
ENDBRANCH   1  11
TORSDOF 10
ENDMDL
MODEL 5
REMARK VINA RESULT: -7.217943384      2.182      2.626
REMARK  10 active torsions:
REMARK  status: ('A' for Active; 'I' for Inactive)
REMARK    1  A    between atoms: N1_1  and  C1_5 
REMARK    2  A    between atoms: C1_5  and  C2_6 
REMARK    3  A    between atoms: C2_6  and  C3_7 
REMARK    4  A    between atoms: C3_7  and  C4_8 
REMARK    5  A    between atoms: C4_8  and  C5_9 
REMARK    6  A    between atoms: C5_9  and  C6_10 
REMARK    7  A    between atoms: C6_10  and  C7_11 
REMARK    8  A    between atoms: C7_11  and  C8_12 
REMARK    9  A    between atoms: C8_12  and  C9_13 
REMARK   10  A    between atoms: C9_13  and  C10_14 
ROOT
HETATM    1  C6  UNL     1      37.029 -49.505 110.925  1.00  0.00     0.000 C 
ENDROOT
BRANCH   1   2
HETATM    2  C5  UNL     1      35.829 -48.707 111.328  1.00  0.00     0.000 C 
BRANCH   2   3
HETATM    3  C4  UNL     1      35.748 -48.435 112.802  1.00  0.00     0.000 C 
BRANCH   3   4
HETATM    4  C3  UNL     1      35.184 -47.067 113.103  1.00  0.00     0.002 C 
BRANCH   4   5
HETATM    5  C2  UNL     1      35.670 -46.140 111.982  1.00  0.00     0.027 C 
BRANCH   5   6
HETATM    6  C1  UNL     1      35.426 -44.696 112.393  1.00  0.00     0.229 C 
BRANCH   6   7
HETATM    7  N1  UNL     1      36.632 -43.931 112.220  1.00  0.00    -0.079 N 
ATOM      8  H13 UNL     1      36.454 -42.927 112.224  1.00  0.00     0.274 HD
ATOM      9  H12 UNL     1      37.236 -43.977 113.039  1.00  0.00     0.274 HD
ATOM     10  H11 UNL     1      37.112 -44.233 111.372  1.00  0.00     0.274 HD
ENDBRANCH   6   7
ENDBRANCH   5   6
ENDBRANCH   4   5
ENDBRANCH   3   4
ENDBRANCH   2   3
ENDBRANCH   1   2
BRANCH   1  11
HETATM   11  C7  UNL     1      38.331 -48.797 111.178  1.00  0.00     0.000 C 
BRANCH  11  12
HETATM   12  C8  UNL     1      39.221 -49.571 112.123  1.00  0.00     0.005 C 
BRANCH  12  13
HETATM   13  C9  UNL     1      39.347 -51.032 111.747  1.00  0.00     0.038 C 
BRANCH  13  14
HETATM   14  C10 UNL     1      40.780 -51.262 111.410  1.00  0.00    -0.058 A 
HETATM   15  C11 UNL     1      41.541 -50.341 110.712  1.00  0.00     0.007 A 
HETATM   16  C12 UNL     1      42.863 -50.552 110.401  1.00  0.00     0.001 A 
HETATM   17  C13 UNL     1      43.494 -51.712 110.780  1.00  0.00     0.000 A 
HETATM   18  C14 UNL     1      42.757 -52.649 111.478  1.00  0.00     0.001 A 
HETATM   19  C15 UNL     1      41.427 -52.425 111.787  1.00  0.00     0.007 A 
ENDBRANCH  13  14
ENDBRANCH  12  13
ENDBRANCH  11  12
ENDBRANCH   1  11
TORSDOF 10
ENDMDL
