MODEL 1
REMARK VINA RESULT: -6.324257047      0.000      0.000
REMARK  10 active torsions:
REMARK  status: ('A' for Active; 'I' for Inactive)
REMARK    1  A    between atoms: C2_2  and  C3_3 
REMARK    2  A    between atoms: C6_7  and  C7_8 
REMARK    3  A    between atoms: C7_8  and  O2_9 
REMARK    4  A    between atoms: C10_13  and  C11_14 
REMARK    5  A    between atoms: C11_14  and  C12_15 
REMARK    6  A    between atoms: C12_15  and  C13_16 
REMARK    7  A    between atoms: C12_15  and  C14_19 
REMARK    8  A    between atoms: C13_16  and  O3_17 
REMARK    9  A    between atoms: C14_19  and  C15_20 
REMARK   10  A    between atoms: C15_20  and  O4_21 
ROOT
HETATM    1  C7  UNL     1      -2.401  19.709  -6.663  1.00  0.00     0.195 C 
HETATM    2  C8  UNL     1      -2.851  18.487  -7.394  1.00  0.00     0.056 C 
HETATM    3  C9  UNL     1      -4.365  18.497  -7.666  1.00  0.00     0.036 C 
HETATM    4  C10 UNL     1      -4.804  19.680  -8.390  1.00  0.00     0.132 C 
HETATM    5  O5  UNL     1      -3.892  20.790  -8.260  1.00  0.00    -0.314 OA
HETATM    6  C16 UNL     1      -3.065  20.938  -7.159  1.00  0.00     0.299 C 
HETATM    7  O6  UNL     1      -2.841  22.015  -6.559  1.00  0.00    -0.262 OA
ENDROOT
BRANCH   1   8
HETATM    8  C6  UNL     1      -0.905  19.868  -6.900  1.00  0.00     0.305 C 
HETATM    9  O1  UNL     1      -0.279  20.240  -5.708  1.00  0.00    -0.354 OA
HETATM   10  C5  UNL     1       1.051  19.838  -5.835  1.00  0.00     0.213 C 
HETATM   11  C3  UNL     1       1.027  18.766  -6.894  1.00  0.00     0.099 C 
HETATM   12  C4  UNL     1       1.541  17.493  -6.274  1.00  0.00     0.053 C 
HETATM   13  O7  UNL     1      -0.312  18.667  -7.278  1.00  0.00    -0.341 OA
BRANCH  11  14
HETATM   14  C2  UNL     1       1.870  19.182  -8.032  1.00  0.00     0.002 C 
HETATM   15  C1  UNL     1       2.682  20.222  -7.923  1.00  0.00     0.010 C 
ENDBRANCH  11  14
ENDBRANCH   1   8
BRANCH   1  16
HETATM   16  O2  UNL     1      -2.631  19.641  -5.293  1.00  0.00    -0.375 OA
ATOM     17  H2  UNL     1      -3.314  19.000  -5.129  1.00  0.00     0.211 HD
ENDBRANCH   1  16
BRANCH   4  18
HETATM   18  C11 UNL     1      -6.183  20.183  -8.215  1.00  0.00     0.039 C 
BRANCH  18  19
HETATM   19  C12 UNL     1      -7.102  20.273  -9.365  1.00  0.00     0.013 C 
BRANCH  19  20
HETATM   20  C13 UNL     1      -6.570  19.189 -10.355  1.00  0.00     0.168 C 
BRANCH  20  21
HETATM   21  O3  UNL     1      -6.900  19.731 -11.621  1.00  0.00    -0.400 OA
ATOM     22  H3  UNL     1      -6.080  19.667 -12.099  1.00  0.00     0.209 HD
ENDBRANCH  20  21
ENDBRANCH  19  20
BRANCH  19  23
HETATM   23  C14 UNL     1      -7.234  21.548 -10.097  1.00  0.00     0.033 C 
BRANCH  23  24
HETATM   24  C15 UNL     1      -6.565  22.756  -9.554  1.00  0.00     0.164 C 
BRANCH  24  25
HETATM   25  O4  UNL     1      -5.230  22.914  -9.910  1.00  0.00    -0.401 OA
ATOM     26  H4  UNL     1      -4.597  22.609  -9.270  1.00  0.00     0.209 HD
ENDBRANCH  24  25
ENDBRANCH  23  24
ENDBRANCH  19  23
ENDBRANCH  18  19
ENDBRANCH   4  18
TORSDOF 10
ENDMDL
MODEL 2
REMARK VINA RESULT: -6.257836024      2.017      7.249
REMARK  10 active torsions:
REMARK  status: ('A' for Active; 'I' for Inactive)
REMARK    1  A    between atoms: C2_2  and  C3_3 
REMARK    2  A    between atoms: C6_7  and  C7_8 
REMARK    3  A    between atoms: C7_8  and  O2_9 
REMARK    4  A    between atoms: C10_13  and  C11_14 
REMARK    5  A    between atoms: C11_14  and  C12_15 
REMARK    6  A    between atoms: C12_15  and  C13_16 
REMARK    7  A    between atoms: C12_15  and  C14_19 
REMARK    8  A    between atoms: C13_16  and  O3_17 
REMARK    9  A    between atoms: C14_19  and  C15_20 
REMARK   10  A    between atoms: C15_20  and  O4_21 
ROOT
HETATM    1  C7  UNL     1      -5.710  20.618  -7.616  1.00  0.00     0.195 C 
HETATM    2  C8  UNL     1      -4.509  21.377  -7.156  1.00  0.00     0.056 C 
HETATM    3  C9  UNL     1      -3.462  20.465  -6.496  1.00  0.00     0.036 C 
HETATM    4  C10 UNL     1      -3.039  19.370  -7.355  1.00  0.00     0.132 C 
HETATM    5  O5  UNL     1      -4.000  19.061  -8.387  1.00  0.00    -0.314 OA
HETATM    6  C16 UNL     1      -5.352  19.319  -8.234  1.00  0.00     0.299 C 
HETATM    7  O6  UNL     1      -6.281  18.549  -8.572  1.00  0.00    -0.262 OA
ENDROOT
BRANCH   1   8
HETATM    8  C6  UNL     1      -6.410  21.455  -8.678  1.00  0.00     0.305 C 
HETATM    9  O1  UNL     1      -7.782  21.491  -8.418  1.00  0.00    -0.354 OA
HETATM   10  C5  UNL     1      -8.256  22.649  -9.033  1.00  0.00     0.213 C 
HETATM   11  C3  UNL     1      -7.040  23.527  -9.186  1.00  0.00     0.099 C 
HETATM   12  C4  UNL     1      -7.289  24.798  -8.416  1.00  0.00     0.053 C 
HETATM   13  O7  UNL     1      -5.987  22.781  -8.652  1.00  0.00    -0.341 OA
BRANCH  11  14
HETATM   14  C2  UNL     1      -6.813  23.807 -10.617  1.00  0.00     0.002 C 
HETATM   15  C1  UNL     1      -6.840  25.050 -11.072  1.00  0.00     0.010 C 
ENDBRANCH  11  14
ENDBRANCH   1   8
BRANCH   1  16
HETATM   16  O2  UNL     1      -6.613  20.352  -6.591  1.00  0.00    -0.375 OA
ATOM     17  H2  UNL     1      -7.018  19.507  -6.753  1.00  0.00     0.211 HD
ENDBRANCH   1  16
BRANCH   4  18
HETATM   18  C11 UNL     1      -2.568  18.102  -6.759  1.00  0.00     0.039 C 
BRANCH  18  19
HETATM   19  C12 UNL     1      -1.132  17.876  -6.511  1.00  0.00     0.013 C 
BRANCH  19  20
HETATM   20  C13 UNL     1      -1.097  17.188  -5.110  1.00  0.00     0.168 C 
BRANCH  20  21
HETATM   21  O3  UNL     1      -2.194  16.295  -5.170  1.00  0.00    -0.400 OA
ATOM     22  H3  UNL     1      -1.773  15.442  -5.156  1.00  0.00     0.209 HD
ENDBRANCH  20  21
ENDBRANCH  19  20
BRANCH  19  23
HETATM   23  C14 UNL     1      -0.205  19.026  -6.489  1.00  0.00     0.033 C 
BRANCH  23  24
HETATM   24  C15 UNL     1       0.894  19.076  -7.483  1.00  0.00     0.164 C 
BRANCH  24  25
HETATM   25  O4  UNL     1       0.610  18.509  -8.721  1.00  0.00    -0.401 OA
ATOM     26  H4  UNL     1       0.828  17.589  -8.809  1.00  0.00     0.209 HD
ENDBRANCH  24  25
ENDBRANCH  23  24
ENDBRANCH  19  23
ENDBRANCH  18  19
ENDBRANCH   4  18
TORSDOF 10
ENDMDL
MODEL 3
REMARK VINA RESULT: -6.121660138      2.198      7.496
REMARK  10 active torsions:
REMARK  status: ('A' for Active; 'I' for Inactive)
REMARK    1  A    between atoms: C2_2  and  C3_3 
REMARK    2  A    between atoms: C6_7  and  C7_8 
REMARK    3  A    between atoms: C7_8  and  O2_9 
REMARK    4  A    between atoms: C10_13  and  C11_14 
REMARK    5  A    between atoms: C11_14  and  C12_15 
REMARK    6  A    between atoms: C12_15  and  C13_16 
REMARK    7  A    between atoms: C12_15  and  C14_19 
REMARK    8  A    between atoms: C13_16  and  O3_17 
REMARK    9  A    between atoms: C14_19  and  C15_20 
REMARK   10  A    between atoms: C15_20  and  O4_21 
ROOT
HETATM    1  C7  UNL     1      -5.631  20.548  -7.609  1.00  0.00     0.195 C 
HETATM    2  C8  UNL     1      -4.457  21.341  -7.136  1.00  0.00     0.056 C 
HETATM    3  C9  UNL     1      -3.391  20.457  -6.466  1.00  0.00     0.036 C 
HETATM    4  C10 UNL     1      -2.929  19.376  -7.323  1.00  0.00     0.132 C 
HETATM    5  O5  UNL     1      -3.870  19.042  -8.365  1.00  0.00    -0.314 OA
HETATM    6  C16 UNL     1      -5.230  19.261  -8.225  1.00  0.00     0.299 C 
HETATM    7  O6  UNL     1      -6.133  18.465  -8.573  1.00  0.00    -0.262 OA
ENDROOT
BRANCH   1   8
HETATM    8  C6  UNL     1      -6.344  21.367  -8.677  1.00  0.00     0.305 C 
HETATM    9  O1  UNL     1      -7.721  21.351  -8.438  1.00  0.00    -0.354 OA
HETATM   10  C5  UNL     1      -8.227  22.496  -9.054  1.00  0.00     0.213 C 
HETATM   11  C3  UNL     1      -7.041  23.418  -9.181  1.00  0.00     0.099 C 
HETATM   12  C4  UNL     1      -7.348  24.674  -8.407  1.00  0.00     0.053 C 
HETATM   13  O7  UNL     1      -5.971  22.707  -8.636  1.00  0.00    -0.341 OA
BRANCH  11  14
HETATM   14  C2  UNL     1      -6.802  23.716 -10.606  1.00  0.00     0.002 C 
HETATM   15  C1  UNL     1      -6.801  24.967 -11.042  1.00  0.00     0.010 C 
ENDBRANCH  11  14
ENDBRANCH   1   8
BRANCH   1  16
HETATM   16  O2  UNL     1      -6.536  20.255  -6.593  1.00  0.00    -0.375 OA
ATOM     17  H2  UNL     1      -6.483  20.935  -5.931  1.00  0.00     0.211 HD
ENDBRANCH   1  16
BRANCH   4  18
HETATM   18  C11 UNL     1      -2.427  18.121  -6.724  1.00  0.00     0.039 C 
BRANCH  18  19
HETATM   19  C12 UNL     1      -1.249  18.130  -5.838  1.00  0.00     0.013 C 
BRANCH  19  20
HETATM   20  C13 UNL     1      -0.150  18.849  -6.683  1.00  0.00     0.168 C 
BRANCH  20  21
HETATM   21  O3  UNL     1       0.814  17.831  -6.878  1.00  0.00    -0.400 OA
ATOM     22  H3  UNL     1       1.359  18.186  -7.571  1.00  0.00     0.209 HD
ENDBRANCH  20  21
ENDBRANCH  19  20
BRANCH  19  23
HETATM   23  C14 UNL     1      -0.696  16.853  -5.345  1.00  0.00     0.033 C 
BRANCH  23  24
HETATM   24  C15 UNL     1      -1.601  15.686  -5.214  1.00  0.00     0.164 C 
BRANCH  24  25
HETATM   25  O4  UNL     1      -1.145  14.505  -5.790  1.00  0.00    -0.401 OA
ATOM     26  H4  UNL     1      -0.551  14.611  -6.524  1.00  0.00     0.209 HD
ENDBRANCH  24  25
ENDBRANCH  23  24
ENDBRANCH  19  23
ENDBRANCH  18  19
ENDBRANCH   4  18
TORSDOF 10
ENDMDL
MODEL 4
REMARK VINA RESULT: -5.956110935      1.248      1.899
REMARK  10 active torsions:
REMARK  status: ('A' for Active; 'I' for Inactive)
REMARK    1  A    between atoms: C2_2  and  C3_3 
REMARK    2  A    between atoms: C6_7  and  C7_8 
REMARK    3  A    between atoms: C7_8  and  O2_9 
REMARK    4  A    between atoms: C10_13  and  C11_14 
REMARK    5  A    between atoms: C11_14  and  C12_15 
REMARK    6  A    between atoms: C12_15  and  C13_16 
REMARK    7  A    between atoms: C12_15  and  C14_19 
REMARK    8  A    between atoms: C13_16  and  O3_17 
REMARK    9  A    between atoms: C14_19  and  C15_20 
REMARK   10  A    between atoms: C15_20  and  O4_21 
ROOT
HETATM    1  C7  UNL     1      -1.744  19.544  -6.257  1.00  0.00     0.195 C 
HETATM    2  C8  UNL     1      -2.228  18.546  -7.257  1.00  0.00     0.056 C 
HETATM    3  C9  UNL     1      -3.752  18.608  -7.451  1.00  0.00     0.036 C 
HETATM    4  C10 UNL     1      -4.223  19.933  -7.826  1.00  0.00     0.132 C 
HETATM    5  O5  UNL     1      -3.305  20.982  -7.456  1.00  0.00    -0.314 OA
HETATM    6  C16 UNL     1      -2.429  20.852  -6.391  1.00  0.00     0.299 C 
HETATM    7  O6  UNL     1      -2.177  21.741  -5.545  1.00  0.00    -0.262 OA
ENDROOT
BRANCH   1   8
HETATM    8  C6  UNL     1      -0.260  19.774  -6.511  1.00  0.00     0.305 C 
HETATM    9  O1  UNL     1       0.433  19.745  -5.298  1.00  0.00    -0.354 OA
HETATM   10  C5  UNL     1       1.747  19.409  -5.619  1.00  0.00     0.213 C 
HETATM   11  C3  UNL     1       1.653  18.734  -6.964  1.00  0.00     0.099 C 
HETATM   12  C4  UNL     1       2.179  17.330  -6.814  1.00  0.00     0.053 C 
HETATM   13  O7  UNL     1       0.295  18.760  -7.286  1.00  0.00    -0.341 OA
BRANCH  11  14
HETATM   14  C2  UNL     1       2.441  19.496  -7.951  1.00  0.00     0.002 C 
HETATM   15  C1  UNL     1       3.652  19.090  -8.303  1.00  0.00     0.010 C 
ENDBRANCH  11  14
ENDBRANCH   1   8
BRANCH   1  16
HETATM   16  O2  UNL     1      -1.912  19.124  -4.941  1.00  0.00    -0.375 OA
ATOM     17  H2  UNL     1      -2.449  18.339  -4.937  1.00  0.00     0.211 HD
ENDBRANCH   1  16
BRANCH   4  18
HETATM   18  C11 UNL     1      -5.592  20.359  -7.467  1.00  0.00     0.039 C 
BRANCH  18  19
HETATM   19  C12 UNL     1      -6.431  21.087  -8.437  1.00  0.00     0.013 C 
BRANCH  19  20
HETATM   20  C13 UNL     1      -7.350  21.978  -7.544  1.00  0.00     0.168 C 
BRANCH  20  21
HETATM   21  O3  UNL     1      -8.614  21.854  -8.169  1.00  0.00    -0.400 OA
ATOM     22  H3  UNL     1      -8.698  20.915  -8.293  1.00  0.00     0.209 HD
ENDBRANCH  20  21
ENDBRANCH  19  20
BRANCH  19  23
HETATM   23  C14 UNL     1      -7.285  20.331  -9.376  1.00  0.00     0.033 C 
BRANCH  23  24
HETATM   24  C15 UNL     1      -6.662  19.289 -10.228  1.00  0.00     0.164 C 
BRANCH  24  25
HETATM   25  O4  UNL     1      -6.743  19.508 -11.599  1.00  0.00    -0.401 OA
ATOM     26  H4  UNL     1      -7.175  20.313 -11.860  1.00  0.00     0.209 HD
ENDBRANCH  24  25
ENDBRANCH  23  24
ENDBRANCH  19  23
ENDBRANCH  18  19
ENDBRANCH   4  18
TORSDOF 10
ENDMDL
MODEL 5
REMARK VINA RESULT: -5.947885516      1.971      3.505
REMARK  10 active torsions:
REMARK  status: ('A' for Active; 'I' for Inactive)
REMARK    1  A    between atoms: C2_2  and  C3_3 
REMARK    2  A    between atoms: C6_7  and  C7_8 
REMARK    3  A    between atoms: C7_8  and  O2_9 
REMARK    4  A    between atoms: C10_13  and  C11_14 
REMARK    5  A    between atoms: C11_14  and  C12_15 
REMARK    6  A    between atoms: C12_15  and  C13_16 
REMARK    7  A    between atoms: C12_15  and  C14_19 
REMARK    8  A    between atoms: C13_16  and  O3_17 
REMARK    9  A    between atoms: C14_19  and  C15_20 
REMARK   10  A    between atoms: C15_20  and  O4_21 
ROOT
HETATM    1  C7  UNL     1      -3.808  20.873  -7.220  1.00  0.00     0.195 C 
HETATM    2  C8  UNL     1      -4.116  22.250  -6.731  1.00  0.00     0.056 C 
HETATM    3  C9  UNL     1      -5.407  22.811  -7.352  1.00  0.00     0.036 C 
HETATM    4  C10 UNL     1      -6.562  21.952  -7.135  1.00  0.00     0.132 C 
HETATM    5  O5  UNL     1      -6.201  20.583  -6.859  1.00  0.00    -0.314 OA
HETATM    6  C16 UNL     1      -5.020  20.026  -7.321  1.00  0.00     0.299 C 
HETATM    7  O6  UNL     1      -4.901  18.879  -7.811  1.00  0.00    -0.262 OA
ENDROOT
BRANCH   1   8
HETATM    8  C6  UNL     1      -2.873  20.220  -6.209  1.00  0.00     0.305 C 
HETATM    9  O1  UNL     1      -1.866  19.524  -6.883  1.00  0.00    -0.354 OA
HETATM   10  C5  UNL     1      -0.799  19.440  -5.990  1.00  0.00     0.213 C 
HETATM   11  C3  UNL     1      -1.033  20.558  -5.006  1.00  0.00     0.099 C 
HETATM   12  C4  UNL     1       0.147  21.491  -5.078  1.00  0.00     0.053 C 
HETATM   13  O7  UNL     1      -2.218  21.166  -5.426  1.00  0.00    -0.341 OA
BRANCH  11  14
HETATM   14  C2  UNL     1      -1.185  19.995  -3.650  1.00  0.00     0.002 C 
HETATM   15  C1  UNL     1      -0.718  18.788  -3.367  1.00  0.00     0.010 C 
ENDBRANCH  11  14
ENDBRANCH   1   8
BRANCH   1  16
HETATM   16  O2  UNL     1      -3.193  20.862  -8.468  1.00  0.00    -0.375 OA
ATOM     17  H2  UNL     1      -3.775  21.270  -9.099  1.00  0.00     0.211 HD
ENDBRANCH   1  16
BRANCH   4  18
HETATM   18  C11 UNL     1      -7.678  21.956  -8.104  1.00  0.00     0.039 C 
BRANCH  18  19
HETATM   19  C12 UNL     1      -7.427  22.191  -9.538  1.00  0.00     0.013 C 
BRANCH  19  20
HETATM   20  C13 UNL     1      -8.340  23.410  -9.883  1.00  0.00     0.168 C 
BRANCH  20  21
HETATM   21  O3  UNL     1      -9.133  22.918 -10.947  1.00  0.00    -0.400 OA
ATOM     22  H3  UNL     1      -9.253  22.003 -10.717  1.00  0.00     0.209 HD
ENDBRANCH  20  21
ENDBRANCH  19  20
BRANCH  19  23
HETATM   23  C14 UNL     1      -7.698  21.116 -10.513  1.00  0.00     0.033 C 
BRANCH  23  24
HETATM   24  C15 UNL     1      -6.808  19.929 -10.533  1.00  0.00     0.164 C 
BRANCH  24  25
HETATM   25  O4  UNL     1      -6.621  19.340 -11.779  1.00  0.00    -0.401 OA
ATOM     26  H4  UNL     1      -7.409  19.022 -12.204  1.00  0.00     0.209 HD
ENDBRANCH  24  25
ENDBRANCH  23  24
ENDBRANCH  19  23
ENDBRANCH  18  19
ENDBRANCH   4  18
TORSDOF 10
ENDMDL
