MODEL 1
REMARK VINA RESULT: -6.675483305      0.000      0.000
REMARK  10 active torsions:
REMARK  status: ('A' for Active; 'I' for Inactive)
REMARK    1  A    between atoms: O1_2  and  C2_3 
REMARK    2  A    between atoms: C3_4  and  C4_5 
REMARK       I    between atoms: C4_5  and  N1_7 
REMARK    3  A    between atoms: N1_7  and  C5_9 
REMARK    4  A    between atoms: C5_9  and  C6_10 
REMARK    5  A    between atoms: C6_10  and  C7_11 
REMARK    6  A    between atoms: C7_11  and  C9_13 
REMARK    7  A    between atoms: C9_13  and  O3_14 
REMARK    8  A    between atoms: C9_13  and  N2_16 
REMARK    9  A    between atoms: N2_16  and  N3_18 
REMARK   10  A    between atoms: N3_18  and  N4_19 
ROOT
HETATM    1  C4  UNL     1      -4.342  20.535  -6.968  1.00  0.00     0.249 C 
HETATM    2  O2  UNL     1      -5.533  20.210  -6.740  1.00  0.00    -0.271 OA
HETATM    3  N1  UNL     1      -4.128  21.772  -7.649  1.00  0.00    -0.359 N 
ATOM      4  H1  UNL     1      -3.165  22.048  -7.843  1.00  0.00     0.162 HD
ENDROOT
BRANCH   3   5
HETATM    5  C5  UNL     1      -5.168  22.647  -8.077  1.00  0.00     0.123 C 
BRANCH   5   6
HETATM    6  C6  UNL     1      -5.665  22.453  -9.466  1.00  0.00     0.028 C 
BRANCH   6   7
HETATM    7  C7  UNL     1      -7.132  22.418  -9.665  1.00  0.00     0.034 C 
HETATM    8  C8  UNL     1      -7.752  22.911  -8.345  1.00  0.00     0.014 C 
BRANCH   7   9
HETATM    9  C9  UNL     1      -7.749  21.087  -9.928  1.00  0.00     0.250 C 
BRANCH   9  10
HETATM   10  O3  UNL     1      -7.084  20.568 -11.072  1.00  0.00    -0.374 OA
ATOM     11  H3  UNL     1      -7.274  21.172 -11.780  1.00  0.00     0.212 HD
ENDBRANCH   9  10
BRANCH   9  12
HETATM   12  N2  UNL     1      -7.611  20.130  -8.858  1.00  0.00    -0.223 N 
ATOM     13  H2  UNL     1      -7.903  20.414  -7.923  1.00  0.00     0.200 HD
BRANCH  12  14
HETATM   14  N3  UNL     1      -7.171  19.008  -8.998  1.00  0.00    -0.246 NA
BRANCH  14  15
HETATM   15  N4  UNL     1      -6.468  18.001  -8.904  1.00  0.00    -0.261 N 
ATOM     16  H42 UNL     1      -5.806  18.416  -8.247  1.00  0.00     0.193 HD
ATOM     17  H41 UNL     1      -6.095  17.060  -9.024  1.00  0.00     0.193 HD
ENDBRANCH  14  15
ENDBRANCH  12  14
ENDBRANCH   9  12
ENDBRANCH   7   9
ENDBRANCH   6   7
ENDBRANCH   5   6
ENDBRANCH   3   5
BRANCH   1  18
HETATM   18  C3  UNL     1      -3.264  19.651  -6.535  1.00  0.00     0.248 C 
HETATM   19  C2  UNL     1      -2.231  20.269  -5.649  1.00  0.00     0.193 C 
HETATM   20  C14 UNL     1      -1.078  19.303  -5.838  1.00  0.00     0.212 C 
HETATM   21  C10 UNL     1      -1.360  18.683  -7.179  1.00  0.00     0.296 C 
HETATM   22  O6  UNL     1      -1.137  18.235  -4.958  1.00  0.00    -0.343 OA
HETATM   23  O4  UNL     1      -2.569  19.185  -7.640  1.00  0.00    -0.341 OA
HETATM   24  O5  UNL     1      -1.417  17.330  -6.896  1.00  0.00    -0.323 OA
HETATM   25  C11 UNL     1      -0.623  17.196  -5.760  1.00  0.00     0.160 C 
HETATM   26  C12 UNL     1      -0.833  15.887  -5.057  1.00  0.00     0.078 C 
HETATM   27  C13 UNL     1       0.833  17.431  -6.038  1.00  0.00     0.078 C 
BRANCH  19  28
HETATM   28  O1  UNL     1      -1.891  21.564  -5.935  1.00  0.00    -0.385 OA
HETATM   29  C1  UNL     1      -0.618  21.947  -5.606  1.00  0.00     0.202 C 
ENDBRANCH  19  28
ENDBRANCH   1  18
TORSDOF 10
ENDMDL
MODEL 2
REMARK VINA RESULT: -6.517307434      1.629      2.845
REMARK  10 active torsions:
REMARK  status: ('A' for Active; 'I' for Inactive)
REMARK    1  A    between atoms: O1_2  and  C2_3 
REMARK    2  A    between atoms: C3_4  and  C4_5 
REMARK       I    between atoms: C4_5  and  N1_7 
REMARK    3  A    between atoms: N1_7  and  C5_9 
REMARK    4  A    between atoms: C5_9  and  C6_10 
REMARK    5  A    between atoms: C6_10  and  C7_11 
REMARK    6  A    between atoms: C7_11  and  C9_13 
REMARK    7  A    between atoms: C9_13  and  O3_14 
REMARK    8  A    between atoms: C9_13  and  N2_16 
REMARK    9  A    between atoms: N2_16  and  N3_18 
REMARK   10  A    between atoms: N3_18  and  N4_19 
ROOT
HETATM    1  C4  UNL     1      -3.399  18.803  -7.297  1.00  0.00     0.249 C 
HETATM    2  O2  UNL     1      -4.053  17.867  -7.817  1.00  0.00    -0.271 OA
HETATM    3  N1  UNL     1      -4.140  19.939  -6.849  1.00  0.00    -0.359 N 
ATOM      4  H1  UNL     1      -3.621  20.709  -6.426  1.00  0.00     0.162 HD
ENDROOT
BRANCH   3   5
HETATM    5  C5  UNL     1      -5.556  20.070  -6.954  1.00  0.00     0.123 C 
BRANCH   5   6
HETATM    6  C6  UNL     1      -6.056  21.285  -7.650  1.00  0.00     0.028 C 
BRANCH   6   7
HETATM    7  C7  UNL     1      -5.967  21.307  -9.128  1.00  0.00     0.034 C 
HETATM    8  C8  UNL     1      -6.123  22.782  -9.542  1.00  0.00     0.014 C 
BRANCH   7   9
HETATM    9  C9  UNL     1      -7.016  20.563  -9.881  1.00  0.00     0.250 C 
BRANCH   9  10
HETATM   10  O3  UNL     1      -7.425  21.423 -10.935  1.00  0.00    -0.374 OA
ATOM     11  H3  UNL     1      -7.028  21.075 -11.725  1.00  0.00     0.212 HD
ENDBRANCH   9  10
BRANCH   9  12
HETATM   12  N2  UNL     1      -6.580  19.318 -10.463  1.00  0.00    -0.223 N 
ATOM     13  H2  UNL     1      -6.072  19.356 -11.347  1.00  0.00     0.200 HD
BRANCH  12  14
HETATM   14  N3  UNL     1      -6.778  18.227  -9.970  1.00  0.00    -0.246 NA
BRANCH  14  15
HETATM   15  N4  UNL     1      -6.752  17.258  -9.210  1.00  0.00    -0.261 N 
ATOM     16  H42 UNL     1      -6.140  17.701  -8.524  1.00  0.00     0.193 HD
ATOM     17  H41 UNL     1      -6.913  16.339  -8.799  1.00  0.00     0.193 HD
ENDBRANCH  14  15
ENDBRANCH  12  14
ENDBRANCH   9  12
ENDBRANCH   7   9
ENDBRANCH   6   7
ENDBRANCH   5   6
ENDBRANCH   3   5
BRANCH   1  18
HETATM   18  C3  UNL     1      -1.948  18.685  -7.180  1.00  0.00     0.248 C 
HETATM   19  C2  UNL     1      -1.443  17.386  -6.638  1.00  0.00     0.193 C 
HETATM   20  C14 UNL     1      -0.058  17.791  -6.174  1.00  0.00     0.212 C 
HETATM   21  C10 UNL     1      -0.187  19.272  -5.943  1.00  0.00     0.296 C 
HETATM   22  O6  UNL     1       0.886  17.692  -7.183  1.00  0.00    -0.343 OA
HETATM   23  O4  UNL     1      -1.468  19.656  -6.315  1.00  0.00    -0.341 OA
HETATM   24  O5  UNL     1       0.790  19.807  -6.764  1.00  0.00    -0.323 OA
HETATM   25  C11 UNL     1       1.726  18.782  -6.875  1.00  0.00     0.160 C 
HETATM   26  C12 UNL     1       2.686  18.994  -8.008  1.00  0.00     0.078 C 
HETATM   27  C13 UNL     1       2.457  18.521  -5.590  1.00  0.00     0.078 C 
BRANCH  19  28
HETATM   28  O1  UNL     1      -2.191  16.817  -5.644  1.00  0.00    -0.385 OA
HETATM   29  C1  UNL     1      -1.602  15.799  -4.943  1.00  0.00     0.202 C 
ENDBRANCH  19  28
ENDBRANCH   1  18
TORSDOF 10
ENDMDL
MODEL 3
REMARK VINA RESULT: -6.248592677      1.666      1.953
REMARK  10 active torsions:
REMARK  status: ('A' for Active; 'I' for Inactive)
REMARK    1  A    between atoms: O1_2  and  C2_3 
REMARK    2  A    between atoms: C3_4  and  C4_5 
REMARK       I    between atoms: C4_5  and  N1_7 
REMARK    3  A    between atoms: N1_7  and  C5_9 
REMARK    4  A    between atoms: C5_9  and  C6_10 
REMARK    5  A    between atoms: C6_10  and  C7_11 
REMARK    6  A    between atoms: C7_11  and  C9_13 
REMARK    7  A    between atoms: C9_13  and  O3_14 
REMARK    8  A    between atoms: C9_13  and  N2_16 
REMARK    9  A    between atoms: N2_16  and  N3_18 
REMARK   10  A    between atoms: N3_18  and  N4_19 
ROOT
HETATM    1  C4  UNL     1      -5.506  19.991  -7.188  1.00  0.00     0.249 C 
HETATM    2  O2  UNL     1      -6.142  19.358  -8.067  1.00  0.00    -0.271 OA
HETATM    3  N1  UNL     1      -6.120  21.171  -6.669  1.00  0.00    -0.359 N 
ATOM      4  H1  UNL     1      -5.614  21.697  -5.956  1.00  0.00     0.162 HD
ENDROOT
BRANCH   3   5
HETATM    5  C5  UNL     1      -7.393  21.665  -7.080  1.00  0.00     0.123 C 
BRANCH   5   6
HETATM    6  C6  UNL     1      -7.404  23.008  -7.721  1.00  0.00     0.028 C 
BRANCH   6   7
HETATM    7  C7  UNL     1      -6.165  23.446  -8.404  1.00  0.00     0.034 C 
HETATM    8  C8  UNL     1      -6.290  24.970  -8.576  1.00  0.00     0.014 C 
BRANCH   7   9
HETATM    9  C9  UNL     1      -5.918  22.904  -9.770  1.00  0.00     0.250 C 
BRANCH   9  10
HETATM   10  O3  UNL     1      -4.922  21.902  -9.619  1.00  0.00    -0.374 OA
ATOM     11  H3  UNL     1      -4.755  21.840  -8.686  1.00  0.00     0.212 HD
ENDBRANCH   9  10
BRANCH   9  12
HETATM   12  N2  UNL     1      -7.066  22.303 -10.404  1.00  0.00    -0.223 N 
ATOM     13  H2  UNL     1      -7.841  22.913 -10.664  1.00  0.00     0.200 HD
BRANCH  12  14
HETATM   14  N3  UNL     1      -7.169  21.119 -10.647  1.00  0.00    -0.246 NA
BRANCH  14  15
HETATM   15  N4  UNL     1      -6.904  19.938 -10.875  1.00  0.00    -0.261 N 
ATOM     16  H42 UNL     1      -5.894  20.081 -10.918  1.00  0.00     0.193 HD
ATOM     17  H41 UNL     1      -6.990  18.937 -11.047  1.00  0.00     0.193 HD
ENDBRANCH  14  15
ENDBRANCH  12  14
ENDBRANCH   9  12
ENDBRANCH   7   9
ENDBRANCH   6   7
ENDBRANCH   5   6
ENDBRANCH   3   5
BRANCH   1  18
HETATM   18  C3  UNL     1      -4.202  19.498  -6.755  1.00  0.00     0.248 C 
HETATM   19  C2  UNL     1      -3.191  20.544  -6.413  1.00  0.00     0.193 C 
HETATM   20  C14 UNL     1      -1.906  19.749  -6.534  1.00  0.00     0.212 C 
HETATM   21  C10 UNL     1      -2.275  18.632  -7.471  1.00  0.00     0.296 C 
HETATM   22  O6  UNL     1      -1.575  19.100  -5.356  1.00  0.00    -0.343 OA
HETATM   23  O4  UNL     1      -3.626  18.747  -7.768  1.00  0.00    -0.341 OA
HETATM   24  O5  UNL     1      -1.985  17.495  -6.738  1.00  0.00    -0.323 OA
HETATM   25  C11 UNL     1      -0.995  17.916  -5.854  1.00  0.00     0.160 C 
HETATM   26  C12 UNL     1      -0.787  16.959  -4.718  1.00  0.00     0.078 C 
HETATM   27  C13 UNL     1       0.304  18.227  -6.540  1.00  0.00     0.078 C 
BRANCH  19  28
HETATM   28  O1  UNL     1      -3.198  21.666  -7.197  1.00  0.00    -0.385 OA
HETATM   29  C1  UNL     1      -2.833  22.837  -6.589  1.00  0.00     0.202 C 
ENDBRANCH  19  28
ENDBRANCH   1  18
TORSDOF 10
ENDMDL
MODEL 4
REMARK VINA RESULT: -6.219293740      1.194      1.268
REMARK  10 active torsions:
REMARK  status: ('A' for Active; 'I' for Inactive)
REMARK    1  A    between atoms: O1_2  and  C2_3 
REMARK    2  A    between atoms: C3_4  and  C4_5 
REMARK       I    between atoms: C4_5  and  N1_7 
REMARK    3  A    between atoms: N1_7  and  C5_9 
REMARK    4  A    between atoms: C5_9  and  C6_10 
REMARK    5  A    between atoms: C6_10  and  C7_11 
REMARK    6  A    between atoms: C7_11  and  C9_13 
REMARK    7  A    between atoms: C9_13  and  O3_14 
REMARK    8  A    between atoms: C9_13  and  N2_16 
REMARK    9  A    between atoms: N2_16  and  N3_18 
REMARK   10  A    between atoms: N3_18  and  N4_19 
ROOT
HETATM    1  C4  UNL     1      -4.102  19.533  -7.216  1.00  0.00     0.249 C 
HETATM    2  O2  UNL     1      -4.466  18.968  -8.276  1.00  0.00    -0.271 OA
HETATM    3  N1  UNL     1      -4.935  20.585  -6.725  1.00  0.00    -0.359 N 
ATOM      4  H1  UNL     1      -4.650  21.054  -5.865  1.00  0.00     0.162 HD
ENDROOT
BRANCH   3   5
HETATM    5  C5  UNL     1      -6.136  21.022  -7.355  1.00  0.00     0.123 C 
BRANCH   5   6
HETATM    6  C6  UNL     1      -6.011  22.180  -8.281  1.00  0.00     0.028 C 
BRANCH   6   7
HETATM    7  C7  UNL     1      -6.481  21.992  -9.673  1.00  0.00     0.034 C 
HETATM    8  C8  UNL     1      -7.287  23.256 -10.024  1.00  0.00     0.014 C 
BRANCH   7   9
HETATM    9  C9  UNL     1      -7.396  20.844  -9.929  1.00  0.00     0.250 C 
BRANCH   9  10
HETATM   10  O3  UNL     1      -8.391  21.329 -10.820  1.00  0.00    -0.374 OA
ATOM     11  H3  UNL     1      -8.493  20.659 -11.486  1.00  0.00     0.212 HD
ENDBRANCH   9  10
BRANCH   9  12
HETATM   12  N2  UNL     1      -6.774  19.693 -10.537  1.00  0.00    -0.223 N 
ATOM     13  H2  UNL     1      -6.241  19.836 -11.395  1.00  0.00     0.200 HD
BRANCH  12  14
HETATM   14  N3  UNL     1      -6.843  18.566 -10.093  1.00  0.00    -0.246 NA
BRANCH  14  15
HETATM   15  N4  UNL     1      -6.818  17.600  -9.330  1.00  0.00    -0.261 N 
ATOM     16  H42 UNL     1      -5.989  17.910  -8.821  1.00  0.00     0.193 HD
ATOM     17  H41 UNL     1      -7.045  16.722  -8.863  1.00  0.00     0.193 HD
ENDBRANCH  14  15
ENDBRANCH  12  14
ENDBRANCH   9  12
ENDBRANCH   7   9
ENDBRANCH   6   7
ENDBRANCH   5   6
ENDBRANCH   3   5
BRANCH   1  18
HETATM   18  C3  UNL     1      -2.875  19.095  -6.556  1.00  0.00     0.248 C 
HETATM   19  C2  UNL     1      -2.153  20.139  -5.767  1.00  0.00     0.193 C 
HETATM   20  C14 UNL     1      -0.766  19.531  -5.694  1.00  0.00     0.212 C 
HETATM   21  C10 UNL     1      -0.721  18.622  -6.891  1.00  0.00     0.296 C 
HETATM   22  O6  UNL     1      -0.622  18.673  -4.617  1.00  0.00    -0.343 OA
HETATM   23  O4  UNL     1      -1.965  18.657  -7.506  1.00  0.00    -0.341 OA
HETATM   24  O5  UNL     1      -0.434  17.386  -6.339  1.00  0.00    -0.323 OA
HETATM   25  C11 UNL     1       0.241  17.699  -5.161  1.00  0.00     0.160 C 
HETATM   26  C12 UNL     1       0.324  16.539  -4.215  1.00  0.00     0.078 C 
HETATM   27  C13 UNL     1       1.597  18.293  -5.408  1.00  0.00     0.078 C 
BRANCH  19  28
HETATM   28  O1  UNL     1      -2.154  21.401  -6.295  1.00  0.00    -0.385 OA
HETATM   29  C1  UNL     1      -2.059  22.436  -5.404  1.00  0.00     0.202 C 
ENDBRANCH  19  28
ENDBRANCH   1  18
TORSDOF 10
ENDMDL
MODEL 5
REMARK VINA RESULT: -6.198229923      1.066      1.088
REMARK  10 active torsions:
REMARK  status: ('A' for Active; 'I' for Inactive)
REMARK    1  A    between atoms: O1_2  and  C2_3 
REMARK    2  A    between atoms: C3_4  and  C4_5 
REMARK       I    between atoms: C4_5  and  N1_7 
REMARK    3  A    between atoms: N1_7  and  C5_9 
REMARK    4  A    between atoms: C5_9  and  C6_10 
REMARK    5  A    between atoms: C6_10  and  C7_11 
REMARK    6  A    between atoms: C7_11  and  C9_13 
REMARK    7  A    between atoms: C9_13  and  O3_14 
REMARK    8  A    between atoms: C9_13  and  N2_16 
REMARK    9  A    between atoms: N2_16  and  N3_18 
REMARK   10  A    between atoms: N3_18  and  N4_19 
ROOT
HETATM    1  C4  UNL     1      -3.446  19.837  -7.521  1.00  0.00     0.249 C 
HETATM    2  O2  UNL     1      -4.230  19.195  -8.262  1.00  0.00    -0.271 OA
HETATM    3  N1  UNL     1      -3.524  21.262  -7.576  1.00  0.00    -0.359 N 
ATOM      4  H1  UNL     1      -2.891  21.797  -6.981  1.00  0.00     0.162 HD
ENDROOT
BRANCH   3   5
HETATM    5  C5  UNL     1      -4.427  21.988  -8.407  1.00  0.00     0.123 C 
BRANCH   5   6
HETATM    6  C6  UNL     1      -5.870  21.881  -8.063  1.00  0.00     0.028 C 
BRANCH   6   7
HETATM    7  C7  UNL     1      -6.830  21.771  -9.186  1.00  0.00     0.034 C 
HETATM    8  C8  UNL     1      -8.131  22.436  -8.700  1.00  0.00     0.014 C 
BRANCH   7   9
HETATM    9  C9  UNL     1      -7.215  20.397  -9.615  1.00  0.00     0.250 C 
BRANCH   9  10
HETATM   10  O3  UNL     1      -6.219  19.983 -10.540  1.00  0.00    -0.374 OA
ATOM     11  H3  UNL     1      -5.488  20.578 -10.420  1.00  0.00     0.212 HD
ENDBRANCH   9  10
BRANCH   9  12
HETATM   12  N2  UNL     1      -7.273  19.421  -8.554  1.00  0.00    -0.223 N 
ATOM     13  H2  UNL     1      -7.471  19.754  -7.610  1.00  0.00     0.200 HD
BRANCH  12  14
HETATM   14  N3  UNL     1      -7.103  18.230  -8.711  1.00  0.00    -0.246 NA
BRANCH  14  15
HETATM   15  N4  UNL     1      -6.723  17.146  -9.155  1.00  0.00    -0.261 N 
ATOM     16  H42 UNL     1      -7.449  17.084  -9.869  1.00  0.00     0.193 HD
ATOM     17  H41 UNL     1      -6.198  16.284  -9.301  1.00  0.00     0.193 HD
ENDBRANCH  14  15
ENDBRANCH  12  14
ENDBRANCH   9  12
ENDBRANCH   7   9
ENDBRANCH   6   7
ENDBRANCH   5   6
ENDBRANCH   3   5
BRANCH   1  18
HETATM   18  C3  UNL     1      -2.516  19.109  -6.662  1.00  0.00     0.248 C 
HETATM   19  C2  UNL     1      -1.917  19.893  -5.539  1.00  0.00     0.193 C 
HETATM   20  C14 UNL     1      -0.693  19.055  -5.228  1.00  0.00     0.212 C 
HETATM   21  C10 UNL     1      -0.431  18.329  -6.519  1.00  0.00     0.296 C 
HETATM   22  O6  UNL     1      -0.963  18.041  -4.324  1.00  0.00    -0.343 OA
HETATM   23  O4  UNL     1      -1.440  18.661  -7.412  1.00  0.00    -0.341 OA
HETATM   24  O5  UNL     1      -0.466  16.997  -6.146  1.00  0.00    -0.323 OA
HETATM   25  C11 UNL     1      -0.113  17.022  -4.799  1.00  0.00     0.160 C 
HETATM   26  C12 UNL     1      -0.442  15.741  -4.090  1.00  0.00     0.078 C 
HETATM   27  C13 UNL     1       1.322  17.405  -4.581  1.00  0.00     0.078 C 
BRANCH  19  28
HETATM   28  O1  UNL     1      -1.612  21.198  -5.812  1.00  0.00    -0.385 OA
HETATM   29  C1  UNL     1      -0.590  21.751  -5.088  1.00  0.00     0.202 C 
ENDBRANCH  19  28
ENDBRANCH   1  18
TORSDOF 10
ENDMDL
