MODEL 1
REMARK VINA RESULT: -5.972083095      0.000      0.000
REMARK  4 active torsions:
REMARK  status: ('A' for Active; 'I' for Inactive)
REMARK    1  A    between atoms: C2_2  and  N1_5 
REMARK    2  A    between atoms: N1_5  and  C5_7 
REMARK    3  A    between atoms: C7_14  and  N4_15 
REMARK    4  A    between atoms: C8_18  and  N5_19 
ROOT
HETATM    1  C5  UNL     1     -13.109  -2.574 -38.391  1.00  0.00     0.141 A 
HETATM    2  N2  UNL     1     -14.242  -2.325 -39.064  1.00  0.00    -0.317 N 
ATOM      3  H2  UNL     1     -14.173  -1.854 -39.966  1.00  0.00     0.170 HD
HETATM    4  C6  UNL     1     -15.480  -2.670 -38.608  1.00  0.00     0.179 A 
HETATM    5  S1  UNL     1     -16.821  -2.327 -39.499  1.00  0.00    -0.040 SA
HETATM    6  N3  UNL     1     -15.586  -3.291 -37.421  1.00  0.00    -0.317 N 
ATOM      7  H3  UNL     1     -16.510  -3.551 -37.075  1.00  0.00     0.170 HD
HETATM    8  C7  UNL     1     -14.503  -3.578 -36.683  1.00  0.00     0.138 A 
HETATM    9  C8  UNL     1     -13.262  -3.222 -37.162  1.00  0.00     0.189 A 
ENDROOT
BRANCH   1  10
HETATM   10  N1  UNL     1     -11.823  -2.236 -38.833  1.00  0.00    -0.366 N 
ATOM     11  H1  UNL     1     -11.509  -1.290 -38.617  1.00  0.00     0.162 HD
BRANCH  10  12
HETATM   12  C2  UNL     1     -10.893  -3.063 -39.554  1.00  0.00     0.021 C 
HETATM   13  C1  UNL     1      -9.472  -2.684 -39.193  1.00  0.00     0.037 C 
HETATM   14  C3  UNL     1     -11.018  -2.783 -41.072  1.00  0.00     0.037 C 
HETATM   15  C4  UNL     1     -11.110  -4.534 -39.404  1.00  0.00     0.037 C 
ENDBRANCH  10  12
ENDBRANCH   1  10
BRANCH   9  16
HETATM   16  N5  UNL     1     -12.137  -3.544 -36.352  1.00  0.00    -0.108 N 
HETATM   17  O1  UNL     1     -11.917  -4.752 -36.145  1.00  0.00    -0.531 OA
HETATM   18  O2  UNL     1     -11.321  -2.577 -35.818  1.00  0.00    -0.531 OA
ENDBRANCH   9  16
BRANCH   8  19
HETATM   19  N4  UNL     1     -14.618  -4.166 -35.563  1.00  0.00    -0.383 N 
ATOM     20  H42 UNL     1     -15.437  -4.006 -34.975  1.00  0.00     0.157 HD
ATOM     21  H41 UNL     1     -13.896  -4.806 -35.235  1.00  0.00     0.157 HD
ENDBRANCH   8  19
TORSDOF 4
ENDMDL
MODEL 2
REMARK VINA RESULT: -5.530161554      2.471      3.714
REMARK  4 active torsions:
REMARK  status: ('A' for Active; 'I' for Inactive)
REMARK    1  A    between atoms: C2_2  and  N1_5 
REMARK    2  A    between atoms: N1_5  and  C5_7 
REMARK    3  A    between atoms: C7_14  and  N4_15 
REMARK    4  A    between atoms: C8_18  and  N5_19 
ROOT
HETATM    1  C5  UNL     1     -13.727  -2.307 -38.414  1.00  0.00     0.141 A 
HETATM    2  N2  UNL     1     -14.939  -2.702 -37.998  1.00  0.00    -0.317 N 
ATOM      3  H2  UNL     1     -15.076  -2.867 -37.001  1.00  0.00     0.170 HD
HETATM    4  C6  UNL     1     -15.997  -2.894 -38.836  1.00  0.00     0.179 A 
HETATM    5  S1  UNL     1     -17.453  -3.382 -38.242  1.00  0.00    -0.040 SA
HETATM    6  N3  UNL     1     -15.831  -2.682 -40.153  1.00  0.00    -0.317 N 
ATOM      7  H3  UNL     1     -16.619  -2.825 -40.785  1.00  0.00     0.170 HD
HETATM    8  C7  UNL     1     -14.650  -2.284 -40.654  1.00  0.00     0.138 A 
HETATM    9  C8  UNL     1     -13.595  -2.096 -39.789  1.00  0.00     0.189 A 
ENDROOT
BRANCH   1  10
HETATM   10  N1  UNL     1     -12.622  -2.097 -37.579  1.00  0.00    -0.366 N 
ATOM     11  H1  UNL     1     -12.448  -1.132 -37.299  1.00  0.00     0.162 HD
BRANCH  10  12
HETATM   12  C2  UNL     1     -11.703  -3.080 -37.068  1.00  0.00     0.021 C 
HETATM   13  C1  UNL     1     -12.428  -4.039 -36.147  1.00  0.00     0.037 C 
HETATM   14  C3  UNL     1     -10.642  -2.384 -36.180  1.00  0.00     0.037 C 
HETATM   15  C4  UNL     1     -10.926  -3.818 -38.109  1.00  0.00     0.037 C 
ENDBRANCH  10  12
ENDBRANCH   1  10
BRANCH   9  16
HETATM   16  N5  UNL     1     -12.360  -1.672 -40.356  1.00  0.00    -0.108 N 
HETATM   17  O1  UNL     1     -11.841  -0.646 -39.878  1.00  0.00    -0.531 OA
HETATM   18  O2  UNL     1     -11.756  -2.356 -41.382  1.00  0.00    -0.531 OA
ENDBRANCH   9  16
BRANCH   8  19
HETATM   19  N4  UNL     1     -14.508  -2.087 -41.900  1.00  0.00    -0.383 N 
ATOM     20  H42 UNL     1     -14.497  -2.872 -42.552  1.00  0.00     0.157 HD
ATOM     21  H41 UNL     1     -14.403  -1.142 -42.268  1.00  0.00     0.157 HD
ENDBRANCH   8  19
TORSDOF 4
ENDMDL
MODEL 3
REMARK VINA RESULT: -4.969868849      3.222      4.243
REMARK  4 active torsions:
REMARK  status: ('A' for Active; 'I' for Inactive)
REMARK    1  A    between atoms: C2_2  and  N1_5 
REMARK    2  A    between atoms: N1_5  and  C5_7 
REMARK    3  A    between atoms: C7_14  and  N4_15 
REMARK    4  A    between atoms: C8_18  and  N5_19 
ROOT
HETATM    1  C5  UNL     1     -15.843  -3.050 -38.700  1.00  0.00     0.141 A 
HETATM    2  N2  UNL     1     -16.100  -1.863 -38.130  1.00  0.00    -0.317 N 
ATOM      3  H2  UNL     1     -15.314  -1.243 -37.933  1.00  0.00     0.170 HD
HETATM    4  C6  UNL     1     -17.354  -1.442 -37.801  1.00  0.00     0.179 A 
HETATM    5  S1  UNL     1     -17.581   0.032 -37.103  1.00  0.00    -0.040 SA
HETATM    6  N3  UNL     1     -18.399  -2.248 -38.054  1.00  0.00    -0.317 N 
ATOM      7  H3  UNL     1     -19.339  -1.938 -37.809  1.00  0.00     0.170 HD
HETATM    8  C7  UNL     1     -18.231  -3.453 -38.623  1.00  0.00     0.138 A 
HETATM    9  C8  UNL     1     -16.955  -3.859 -38.947  1.00  0.00     0.189 A 
ENDROOT
BRANCH   1  10
HETATM   10  N1  UNL     1     -14.568  -3.510 -39.053  1.00  0.00    -0.366 N 
ATOM     11  H1  UNL     1     -14.511  -4.057 -39.912  1.00  0.00     0.162 HD
BRANCH  10  12
HETATM   12  C2  UNL     1     -13.330  -3.306 -38.349  1.00  0.00     0.021 C 
HETATM   13  C1  UNL     1     -12.820  -1.901 -38.593  1.00  0.00     0.037 C 
HETATM   14  C3  UNL     1     -12.243  -4.242 -38.930  1.00  0.00     0.037 C 
HETATM   15  C4  UNL     1     -13.377  -3.613 -36.887  1.00  0.00     0.037 C 
ENDBRANCH  10  12
ENDBRANCH   1  10
BRANCH   9  16
HETATM   16  N5  UNL     1     -16.817  -5.141 -39.550  1.00  0.00    -0.108 N 
HETATM   17  O1  UNL     1     -16.593  -5.168 -40.775  1.00  0.00    -0.531 OA
HETATM   18  O2  UNL     1     -16.921  -6.302 -38.827  1.00  0.00    -0.531 OA
ENDBRANCH   9  16
BRANCH   8  19
HETATM   19  N4  UNL     1     -19.227  -4.204 -38.856  1.00  0.00    -0.383 N 
ATOM     20  H42 UNL     1     -20.149  -3.974 -38.484  1.00  0.00     0.157 HD
ATOM     21  H41 UNL     1     -19.122  -5.047 -39.419  1.00  0.00     0.157 HD
ENDBRANCH   8  19
TORSDOF 4
ENDMDL
MODEL 4
REMARK VINA RESULT: -4.933014390      3.288      4.274
REMARK  4 active torsions:
REMARK  status: ('A' for Active; 'I' for Inactive)
REMARK    1  A    between atoms: C2_2  and  N1_5 
REMARK    2  A    between atoms: N1_5  and  C5_7 
REMARK    3  A    between atoms: C7_14  and  N4_15 
REMARK    4  A    between atoms: C8_18  and  N5_19 
ROOT
HETATM    1  C5  UNL     1     -15.775  -3.200 -38.742  1.00  0.00     0.141 A 
HETATM    2  N2  UNL     1     -15.748  -4.412 -39.316  1.00  0.00    -0.317 N 
ATOM      3  H2  UNL     1     -14.840  -4.822 -39.535  1.00  0.00     0.170 HD
HETATM    4  C6  UNL     1     -16.869  -5.125 -39.622  1.00  0.00     0.179 A 
HETATM    5  S1  UNL     1     -16.747  -6.608 -40.328  1.00  0.00    -0.040 SA
HETATM    6  N3  UNL     1     -18.073  -4.598 -39.340  1.00  0.00    -0.317 N 
ATOM      7  H3  UNL     1     -18.915  -5.127 -39.568  1.00  0.00     0.170 HD
HETATM    8  C7  UNL     1     -18.190  -3.391 -38.765  1.00  0.00     0.138 A 
HETATM    9  C8  UNL     1     -17.045  -2.687 -38.464  1.00  0.00     0.189 A 
ENDROOT
BRANCH   1  10
HETATM   10  N1  UNL     1     -14.643  -2.444 -38.413  1.00  0.00    -0.366 N 
ATOM     11  H1  UNL     1     -14.737  -1.823 -37.609  1.00  0.00     0.162 HD
BRANCH  10  12
HETATM   12  C2  UNL     1     -13.363  -2.439 -39.071  1.00  0.00     0.021 C 
HETATM   13  C1  UNL     1     -12.648  -3.751 -38.829  1.00  0.00     0.037 C 
HETATM   14  C3  UNL     1     -12.458  -1.356 -38.434  1.00  0.00     0.037 C 
HETATM   15  C4  UNL     1     -13.407  -2.112 -40.529  1.00  0.00     0.037 C 
ENDBRANCH  10  12
ENDBRANCH   1  10
BRANCH   9  16
HETATM   16  N5  UNL     1     -17.209  -1.412 -37.854  1.00  0.00    -0.108 N 
HETATM   17  O1  UNL     1     -17.080  -1.358 -36.616  1.00  0.00    -0.531 OA
HETATM   18  O2  UNL     1     -17.495  -0.285 -38.583  1.00  0.00    -0.531 OA
ENDBRANCH   9  16
BRANCH   8  19
HETATM   19  N4  UNL     1     -19.334  -2.905 -38.504  1.00  0.00    -0.383 N 
ATOM     20  H42 UNL     1     -19.824  -3.164 -37.647  1.00  0.00     0.157 HD
ATOM     21  H41 UNL     1     -19.780  -2.250 -39.146  1.00  0.00     0.157 HD
ENDBRANCH   8  19
TORSDOF 4
ENDMDL
MODEL 5
REMARK VINA RESULT: -4.842292096      3.186      4.372
REMARK  4 active torsions:
REMARK  status: ('A' for Active; 'I' for Inactive)
REMARK    1  A    between atoms: C2_2  and  N1_5 
REMARK    2  A    between atoms: N1_5  and  C5_7 
REMARK    3  A    between atoms: C7_14  and  N4_15 
REMARK    4  A    between atoms: C8_18  and  N5_19 
ROOT
HETATM    1  C5  UNL     1     -16.133  -2.821 -38.319  1.00  0.00     0.141 A 
HETATM    2  N2  UNL     1     -16.523  -1.600 -37.926  1.00  0.00    -0.317 N 
ATOM      3  H2  UNL     1     -15.822  -0.976 -37.524  1.00  0.00     0.170 HD
HETATM    4  C6  UNL     1     -17.804  -1.147 -38.035  1.00  0.00     0.179 A 
HETATM    5  S1  UNL     1     -18.199   0.368 -37.526  1.00  0.00    -0.040 SA
HETATM    6  N3  UNL     1     -18.738  -1.957 -38.561  1.00  0.00    -0.317 N 
ATOM      7  H3  UNL     1     -19.699  -1.624 -38.644  1.00  0.00     0.170 HD
HETATM    8  C7  UNL     1     -18.433  -3.196 -38.980  1.00  0.00     0.138 A 
HETATM    9  C8  UNL     1     -17.133  -3.633 -38.862  1.00  0.00     0.189 A 
ENDROOT
BRANCH   1  10
HETATM   10  N1  UNL     1     -14.825  -3.314 -38.224  1.00  0.00    -0.366 N 
ATOM     11  H1  UNL     1     -14.676  -4.060 -37.544  1.00  0.00     0.162 HD
BRANCH  10  12
HETATM   12  C2  UNL     1     -13.669  -2.897 -38.971  1.00  0.00     0.021 C 
HETATM   13  C1  UNL     1     -12.648  -4.014 -39.016  1.00  0.00     0.037 C 
HETATM   14  C3  UNL     1     -12.967  -1.732 -38.230  1.00  0.00     0.037 C 
HETATM   15  C4  UNL     1     -13.958  -2.377 -40.342  1.00  0.00     0.037 C 
ENDBRANCH  10  12
ENDBRANCH   1  10
BRANCH   9  16
HETATM   16  N5  UNL     1     -16.848  -4.950 -39.318  1.00  0.00    -0.108 N 
HETATM   17  O1  UNL     1     -16.837  -5.855 -38.463  1.00  0.00    -0.531 OA
HETATM   18  O2  UNL     1     -16.596  -5.226 -40.639  1.00  0.00    -0.531 OA
ENDBRANCH   9  16
BRANCH   8  19
HETATM   19  N4  UNL     1     -19.326  -3.950 -39.476  1.00  0.00    -0.383 N 
ATOM     20  H42 UNL     1     -19.105  -4.910 -39.743  1.00  0.00     0.157 HD
ATOM     21  H41 UNL     1     -20.277  -3.609 -39.614  1.00  0.00     0.157 HD
ENDBRANCH   8  19
TORSDOF 4
ENDMDL
