MODEL 1
REMARK VINA RESULT: -7.476987184      0.000      0.000
REMARK  4 active torsions:
REMARK  status: ('A' for Active; 'I' for Inactive)
REMARK    1  A    between atoms: C2_2  and  C4_4 
REMARK    2  A    between atoms: C2_2  and  C5_6 
REMARK    3  A    between atoms: C7_8  and  C8_9 
REMARK    4  A    between atoms: C13_18  and  O2_19 
ROOT
HETATM    1  C5  UNL     1       4.116   7.337   0.126  1.00  0.00    -0.006 A 
HETATM    2  C6  UNL     1       3.688   6.158  -0.363  1.00  0.00     0.030 A 
HETATM    3  C7  UNL     1       2.799   5.448   0.410  1.00  0.00     0.008 A 
HETATM    4  S1  UNL     1       2.594   6.441   1.774  1.00  0.00    -0.065 SA
HETATM    5  C13 UNL     1       3.627   7.721   1.347  1.00  0.00     0.115 A 
ENDROOT
BRANCH   3   6
HETATM    6  C8  UNL     1       2.186   4.137   0.112  1.00  0.00     0.031 C 
HETATM    7  C9  UNL     1       0.987   4.124  -0.418  1.00  0.00     0.012 C 
HETATM    8  C10 UNL     1       0.088   5.241  -0.793  1.00  0.00     0.064 C 
HETATM    9  C12 UNL     1       0.253   2.898  -0.757  1.00  0.00     0.247 C 
HETATM   10  C11 UNL     1      -0.754   4.613  -1.884  1.00  0.00     0.128 C 
HETATM   11  N1  UNL     1      -0.983   3.278  -1.351  1.00  0.00    -0.357 N 
ATOM     12  H1  UNL     1      -1.844   2.732  -1.393  1.00  0.00     0.162 HD
HETATM   13  O1  UNL     1       0.600   1.689  -0.583  1.00  0.00    -0.268 OA
ENDBRANCH   3   6
BRANCH   1  14
HETATM   14  C2  UNL     1       5.098   8.229  -0.618  1.00  0.00     0.009 C 
HETATM   15  C1  UNL     1       4.318   9.465  -1.020  1.00  0.00     0.022 C 
HETATM   16  C3  UNL     1       6.244   8.564   0.289  1.00  0.00     0.022 C 
BRANCH  14  17
HETATM   17  C4  UNL     1       5.610   7.578  -1.872  1.00  0.00     0.236 C 
HETATM   18  F1  UNL     1       4.844   8.025  -2.911  1.00  0.00    -0.254 F 
ENDBRANCH  14  17
ENDBRANCH   1  14
BRANCH   5  19
HETATM   19  O2  UNL     1       3.913   8.896   2.069  1.00  0.00    -0.353 OA
ATOM     20  H2  UNL     1       4.124   8.981   2.992  1.00  0.00     0.218 HD
ENDBRANCH   5  19
TORSDOF 4
ENDMDL
MODEL 2
REMARK VINA RESULT: -7.476283074      2.838      3.689
REMARK  4 active torsions:
REMARK  status: ('A' for Active; 'I' for Inactive)
REMARK    1  A    between atoms: C2_2  and  C4_4 
REMARK    2  A    between atoms: C2_2  and  C5_6 
REMARK    3  A    between atoms: C7_8  and  C8_9 
REMARK    4  A    between atoms: C13_18  and  O2_19 
ROOT
HETATM    1  C5  UNL     1       4.276   7.217  -0.129  1.00  0.00    -0.006 A 
HETATM    2  C6  UNL     1       3.475   6.255   0.366  1.00  0.00     0.030 A 
HETATM    3  C7  UNL     1       3.312   5.124  -0.400  1.00  0.00     0.008 A 
HETATM    4  S1  UNL     1       4.273   5.440  -1.766  1.00  0.00    -0.065 SA
HETATM    5  C13 UNL     1       4.856   6.980  -1.349  1.00  0.00     0.115 A 
ENDROOT
BRANCH   3   6
HETATM    6  C8  UNL     1       2.491   3.935  -0.094  1.00  0.00     0.031 C 
HETATM    7  C9  UNL     1       3.087   2.893   0.432  1.00  0.00     0.012 C 
HETATM    8  C10 UNL     1       4.507   2.679   0.798  1.00  0.00     0.064 C 
HETATM    9  C12 UNL     1       2.400   1.642   0.778  1.00  0.00     0.247 C 
HETATM   10  C11 UNL     1       4.397   1.637   1.891  1.00  0.00     0.128 C 
HETATM   11  N1  UNL     1       3.355   0.766   1.366  1.00  0.00    -0.357 N 
ATOM     12  H1  UNL     1       3.317  -0.252   1.410  1.00  0.00     0.162 HD
HETATM   13  O1  UNL     1       1.180   1.333   0.613  1.00  0.00    -0.268 OA
ENDBRANCH   3   6
BRANCH   1  14
HETATM   14  C2  UNL     1       4.550   8.520   0.606  1.00  0.00     0.009 C 
HETATM   15  C1  UNL     1       6.011   8.474   1.007  1.00  0.00     0.022 C 
HETATM   16  C3  UNL     1       4.260   9.672  -0.308  1.00  0.00     0.022 C 
BRANCH  14  17
HETATM   17  C4  UNL     1       3.731   8.640   1.860  1.00  0.00     0.236 C 
HETATM   18  F1  UNL     1       4.511   8.231   2.904  1.00  0.00    -0.254 F 
ENDBRANCH  14  17
ENDBRANCH   1  14
BRANCH   5  19
HETATM   19  O2  UNL     1       5.725   7.817  -2.076  1.00  0.00    -0.353 OA
ATOM     20  H2  UNL     1       6.650   7.691  -2.252  1.00  0.00     0.218 HD
ENDBRANCH   5  19
TORSDOF 4
ENDMDL
MODEL 3
REMARK VINA RESULT: -7.452691650      2.139      2.571
REMARK  4 active torsions:
REMARK  status: ('A' for Active; 'I' for Inactive)
REMARK    1  A    between atoms: C2_2  and  C4_4 
REMARK    2  A    between atoms: C2_2  and  C5_6 
REMARK    3  A    between atoms: C7_8  and  C8_9 
REMARK    4  A    between atoms: C13_18  and  O2_19 
ROOT
HETATM    1  C5  UNL     1       4.184   7.143  -0.111  1.00  0.00    -0.006 A 
HETATM    2  C6  UNL     1       3.250   6.315   0.394  1.00  0.00     0.030 A 
HETATM    3  C7  UNL     1       2.997   5.159  -0.308  1.00  0.00     0.008 A 
HETATM    4  S1  UNL     1       4.060   5.270  -1.631  1.00  0.00    -0.065 SA
HETATM    5  C13 UNL     1       4.796   6.759  -1.275  1.00  0.00     0.115 A 
ENDROOT
BRANCH   3   6
HETATM    6  C8  UNL     1       2.027   4.095   0.020  1.00  0.00     0.031 C 
HETATM    7  C9  UNL     1       0.781   4.262  -0.351  1.00  0.00     0.012 C 
HETATM    8  C10 UNL     1       0.134   5.380  -1.078  1.00  0.00     0.064 C 
HETATM    9  C12 UNL     1      -0.292   3.294  -0.085  1.00  0.00     0.247 C 
HETATM   10  C11 UNL     1      -1.044   4.689  -1.731  1.00  0.00     0.128 C 
HETATM   11  N1  UNL     1      -1.487   3.792  -0.673  1.00  0.00    -0.357 N 
ATOM     12  H1  UNL     1      -2.447   3.569  -0.411  1.00  0.00     0.162 HD
HETATM   13  O1  UNL     1      -0.231   2.194   0.546  1.00  0.00    -0.268 OA
ENDBRANCH   3   6
BRANCH   1  14
HETATM   14  C2  UNL     1       4.569   8.455   0.558  1.00  0.00     0.009 C 
HETATM   15  C1  UNL     1       6.021   8.306   0.965  1.00  0.00     0.022 C 
HETATM   16  C3  UNL     1       4.375   9.579  -0.415  1.00  0.00     0.022 C 
BRANCH  14  17
HETATM   17  C4  UNL     1       3.765   8.708   1.801  1.00  0.00     0.236 C 
HETATM   18  F1  UNL     1       4.483   8.233   2.862  1.00  0.00    -0.254 F 
ENDBRANCH  14  17
ENDBRANCH   1  14
BRANCH   5  19
HETATM   19  O2  UNL     1       5.795   7.440  -1.999  1.00  0.00    -0.353 OA
ATOM     20  H2  UNL     1       5.701   7.937  -2.803  1.00  0.00     0.218 HD
ENDBRANCH   5  19
TORSDOF 4
ENDMDL
MODEL 4
REMARK VINA RESULT: -7.434196714      2.042      2.770
REMARK  4 active torsions:
REMARK  status: ('A' for Active; 'I' for Inactive)
REMARK    1  A    between atoms: C2_2  and  C4_4 
REMARK    2  A    between atoms: C2_2  and  C5_6 
REMARK    3  A    between atoms: C7_8  and  C8_9 
REMARK    4  A    between atoms: C13_18  and  O2_19 
ROOT
HETATM    1  C5  UNL     1       4.081   7.155   0.095  1.00  0.00    -0.006 A 
HETATM    2  C6  UNL     1       3.833   5.936  -0.421  1.00  0.00     0.030 A 
HETATM    3  C7  UNL     1       2.959   5.132   0.273  1.00  0.00     0.008 A 
HETATM    4  S1  UNL     1       2.520   6.095   1.603  1.00  0.00    -0.065 SA
HETATM    5  C13 UNL     1       3.440   7.482   1.261  1.00  0.00     0.115 A 
ENDROOT
BRANCH   3   6
HETATM    6  C8  UNL     1       2.525   3.762  -0.068  1.00  0.00     0.031 C 
HETATM    7  C9  UNL     1       3.252   2.761   0.363  1.00  0.00     0.012 C 
HETATM    8  C10 UNL     1       4.493   2.750   1.173  1.00  0.00     0.064 C 
HETATM    9  C12 UNL     1       2.948   1.349   0.093  1.00  0.00     0.247 C 
HETATM   10  C11 UNL     1       4.421   1.393   1.840  1.00  0.00     0.128 C 
HETATM   11  N1  UNL     1       3.924   0.556   0.757  1.00  0.00    -0.357 N 
ATOM     12  H1  UNL     1       4.214  -0.394   0.525  1.00  0.00     0.162 HD
HETATM   13  O1  UNL     1       2.001   0.857  -0.595  1.00  0.00    -0.268 OA
ENDBRANCH   3   6
BRANCH   1  14
HETATM   14  C2  UNL     1       5.024   8.152  -0.563  1.00  0.00     0.009 C 
HETATM   15  C1  UNL     1       4.169   9.341  -0.953  1.00  0.00     0.022 C 
HETATM   16  C3  UNL     1       6.097   8.532   0.412  1.00  0.00     0.022 C 
BRANCH  14  17
HETATM   17  C4  UNL     1       5.641   7.597  -1.816  1.00  0.00     0.236 C 
HETATM   18  F1  UNL     1       4.880   8.013  -2.871  1.00  0.00    -0.254 F 
ENDBRANCH  14  17
ENDBRANCH   1  14
BRANCH   5  19
HETATM   19  O2  UNL     1       3.527   8.681   1.996  1.00  0.00    -0.353 OA
ATOM     20  H2  UNL     1       2.964   9.444   1.942  1.00  0.00     0.218 HD
ENDBRANCH   5  19
TORSDOF 4
ENDMDL
MODEL 5
REMARK VINA RESULT: -7.409954748      2.579      3.319
REMARK  4 active torsions:
REMARK  status: ('A' for Active; 'I' for Inactive)
REMARK    1  A    between atoms: C2_2  and  C4_4 
REMARK    2  A    between atoms: C2_2  and  C5_6 
REMARK    3  A    between atoms: C7_8  and  C8_9 
REMARK    4  A    between atoms: C13_18  and  O2_19 
ROOT
HETATM    1  C5  UNL     1       4.590   7.378  -0.302  1.00  0.00    -0.006 A 
HETATM    2  C6  UNL     1       3.690   6.498   0.176  1.00  0.00     0.030 A 
HETATM    3  C7  UNL     1       3.441   5.383  -0.590  1.00  0.00     0.008 A 
HETATM    4  S1  UNL     1       4.459   5.602  -1.934  1.00  0.00    -0.065 SA
HETATM    5  C13 UNL     1       5.174   7.083  -1.506  1.00  0.00     0.115 A 
ENDROOT
BRANCH   3   6
HETATM    6  C8  UNL     1       2.504   4.278  -0.302  1.00  0.00     0.031 C 
HETATM    7  C9  UNL     1       2.987   3.189   0.245  1.00  0.00     0.012 C 
HETATM    8  C10 UNL     1       4.370   2.847   0.650  1.00  0.00     0.064 C 
HETATM    9  C12 UNL     1       2.177   2.009   0.578  1.00  0.00     0.247 C 
HETATM   10  C11 UNL     1       4.134   1.827   1.744  1.00  0.00     0.128 C 
HETATM   11  N1  UNL     1       3.030   1.053   1.195  1.00  0.00    -0.357 N 
ATOM     12  H1  UNL     1       2.897   0.043   1.243  1.00  0.00     0.162 HD
HETATM   13  O1  UNL     1       0.938   1.814   0.381  1.00  0.00    -0.268 OA
ENDBRANCH   3   6
BRANCH   1  14
HETATM   14  C2  UNL     1       4.967   8.654   0.437  1.00  0.00     0.009 C 
HETATM   15  C1  UNL     1       4.083   8.701   1.667  1.00  0.00     0.022 C 
HETATM   16  C3  UNL     1       6.421   8.603   0.797  1.00  0.00     0.022 C 
BRANCH  14  17
HETATM   17  C4  UNL     1       4.684   9.881  -0.382  1.00  0.00     0.236 C 
HETATM   18  F1  UNL     1       5.849  10.587  -0.486  1.00  0.00    -0.254 F 
ENDBRANCH  14  17
ENDBRANCH   1  14
BRANCH   5  19
HETATM   19  O2  UNL     1       6.135   7.830  -2.214  1.00  0.00    -0.353 OA
ATOM     20  H2  UNL     1       7.056   7.945  -2.010  1.00  0.00     0.218 HD
ENDBRANCH   5  19
TORSDOF 4
ENDMDL
