MODEL 1
REMARK VINA RESULT: -6.683334535      0.000      0.000
REMARK  5 active torsions:
REMARK  status: ('A' for Active; 'I' for Inactive)
REMARK    1  A    between atoms: O1_2  and  C2_3 
REMARK    2  A    between atoms: C5_6  and  N1_7 
REMARK    3  A    between atoms: N1_7  and  C6_10 
REMARK    4  A    between atoms: C6_10  and  C7_11 
REMARK    5  A    between atoms: C7_11  and  C8_12 
ROOT
HETATM    1  N1  UNL     1     -14.131  -2.998 -39.375  1.00  0.00    -0.070 N 
ATOM      2  H11 UNL     1     -13.875  -2.404 -40.164  1.00  0.00     0.277 HD
ATOM      3  H12 UNL     1     -13.756  -3.889 -39.701  1.00  0.00     0.277 HD
ENDROOT
BRANCH   1   4
HETATM    4  C5  UNL     1     -15.572  -3.072 -39.241  1.00  0.00     0.186 C 
HETATM    5  C4  UNL     1     -15.959  -4.493 -39.028  1.00  0.00     0.035 C 
HETATM    6  C3  UNL     1     -17.351  -4.664 -38.504  1.00  0.00     0.034 C 
HETATM    7  C2  UNL     1     -18.139  -3.403 -38.343  1.00  0.00     0.120 C 
HETATM    8  C12 UNL     1     -17.370  -2.292 -37.677  1.00  0.00     0.034 C 
HETATM    9  C11 UNL     1     -15.908  -2.295 -37.991  1.00  0.00     0.035 C 
BRANCH   7  10
HETATM   10  O1  UNL     1     -19.312  -3.548 -37.652  1.00  0.00    -0.391 OA
HETATM   11  C1  UNL     1     -19.749  -2.439 -36.980  1.00  0.00     0.202 C 
ENDBRANCH   7  10
ENDBRANCH   1   4
BRANCH   1  12
HETATM   12  C6  UNL     1     -13.452  -2.571 -38.182  1.00  0.00     0.251 C 
BRANCH  12  13
HETATM   13  C7  UNL     1     -12.461  -3.616 -37.735  1.00  0.00     0.081 A 
HETATM   14  C9  UNL     1     -11.046  -3.550 -38.226  1.00  0.00     0.021 A 
HETATM   15  C10 UNL     1     -11.993  -4.665 -38.643  1.00  0.00     0.021 A 
BRANCH  13  16
HETATM   16  C8  UNL     1     -12.563  -3.955 -36.246  1.00  0.00     0.397 C 
HETATM   17  F1  UNL     1     -11.865  -2.999 -35.561  1.00  0.00    -0.170 F 
HETATM   18  F2  UNL     1     -13.912  -3.835 -35.924  1.00  0.00    -0.170 F 
HETATM   19  F3  UNL     1     -12.179  -5.234 -35.973  1.00  0.00    -0.170 F 
ENDBRANCH  13  16
ENDBRANCH  12  13
ENDBRANCH   1  12
TORSDOF 5
ENDMDL
MODEL 2
REMARK VINA RESULT: -6.642859552      1.352      1.763
REMARK  5 active torsions:
REMARK  status: ('A' for Active; 'I' for Inactive)
REMARK    1  A    between atoms: O1_2  and  C2_3 
REMARK    2  A    between atoms: C5_6  and  N1_7 
REMARK    3  A    between atoms: N1_7  and  C6_10 
REMARK    4  A    between atoms: C6_10  and  C7_11 
REMARK    5  A    between atoms: C7_11  and  C8_12 
ROOT
HETATM    1  N1  UNL     1     -13.808  -2.929 -39.075  1.00  0.00    -0.070 N 
ATOM      2  H11 UNL     1     -13.486  -2.494 -39.940  1.00  0.00     0.277 HD
ATOM      3  H12 UNL     1     -13.398  -3.856 -39.186  1.00  0.00     0.277 HD
ENDROOT
BRANCH   1   4
HETATM    4  C5  UNL     1     -15.255  -3.012 -39.055  1.00  0.00     0.186 C 
HETATM    5  C4  UNL     1     -15.650  -4.442 -38.942  1.00  0.00     0.035 C 
HETATM    6  C3  UNL     1     -17.076  -4.640 -38.534  1.00  0.00     0.034 C 
HETATM    7  C2  UNL     1     -17.881  -3.390 -38.373  1.00  0.00     0.120 C 
HETATM    8  C12 UNL     1     -17.171  -2.312 -37.596  1.00  0.00     0.034 C 
HETATM    9  C11 UNL     1     -15.689  -2.298 -37.798  1.00  0.00     0.035 C 
BRANCH   7  10
HETATM   10  O1  UNL     1     -19.102  -3.571 -37.780  1.00  0.00    -0.391 OA
HETATM   11  C1  UNL     1     -19.626  -2.475 -37.149  1.00  0.00     0.202 C 
ENDBRANCH   7  10
ENDBRANCH   1   4
BRANCH   1  12
HETATM   12  C6  UNL     1     -13.243  -2.261 -37.935  1.00  0.00     0.251 C 
BRANCH  12  13
HETATM   13  C7  UNL     1     -12.172  -3.113 -37.299  1.00  0.00     0.081 A 
HETATM   14  C9  UNL     1     -11.903  -4.485 -37.839  1.00  0.00     0.021 A 
HETATM   15  C10 UNL     1     -12.509  -4.265 -36.462  1.00  0.00     0.021 A 
BRANCH  13  16
HETATM   16  C8  UNL     1     -10.895  -2.338 -36.967  1.00  0.00     0.397 C 
HETATM   17  F1  UNL     1      -9.851  -3.005 -37.547  1.00  0.00    -0.170 F 
HETATM   18  F2  UNL     1     -11.031  -1.101 -37.591  1.00  0.00    -0.170 F 
HETATM   19  F3  UNL     1     -10.749  -2.120 -35.630  1.00  0.00    -0.170 F 
ENDBRANCH  13  16
ENDBRANCH  12  13
ENDBRANCH   1  12
TORSDOF 5
ENDMDL
MODEL 3
REMARK VINA RESULT: -6.618399836      2.671      3.324
REMARK  5 active torsions:
REMARK  status: ('A' for Active; 'I' for Inactive)
REMARK    1  A    between atoms: O1_2  and  C2_3 
REMARK    2  A    between atoms: C5_6  and  N1_7 
REMARK    3  A    between atoms: N1_7  and  C6_10 
REMARK    4  A    between atoms: C6_10  and  C7_11 
REMARK    5  A    between atoms: C7_11  and  C8_12 
ROOT
HETATM    1  N1  UNL     1     -14.060  -3.427 -37.363  1.00  0.00    -0.070 N 
ATOM      2  H11 UNL     1     -13.700  -4.016 -36.613  1.00  0.00     0.277 HD
ATOM      3  H12 UNL     1     -13.816  -2.508 -36.994  1.00  0.00     0.277 HD
ENDROOT
BRANCH   1   4
HETATM    4  C5  UNL     1     -15.499  -3.564 -37.473  1.00  0.00     0.186 C 
HETATM    5  C4  UNL     1     -16.092  -2.218 -37.696  1.00  0.00     0.035 C 
HETATM    6  C3  UNL     1     -17.502  -2.259 -38.197  1.00  0.00     0.034 C 
HETATM    7  C2  UNL     1     -18.101  -3.623 -38.328  1.00  0.00     0.120 C 
HETATM    8  C12 UNL     1     -17.189  -4.620 -38.994  1.00  0.00     0.034 C 
HETATM    9  C11 UNL     1     -15.738  -4.400 -38.707  1.00  0.00     0.035 C 
BRANCH   7  10
HETATM   10  O1  UNL     1     -19.293  -3.660 -39.000  1.00  0.00    -0.391 OA
HETATM   11  C1  UNL     1     -19.610  -4.856 -39.585  1.00  0.00     0.202 C 
ENDBRANCH   7  10
ENDBRANCH   1   4
BRANCH   1  12
HETATM   12  C6  UNL     1     -13.352  -3.682 -38.588  1.00  0.00     0.251 C 
BRANCH  12  13
HETATM   13  C7  UNL     1     -12.631  -2.440 -39.051  1.00  0.00     0.081 A 
HETATM   14  C9  UNL     1     -11.193  -2.240 -38.679  1.00  0.00     0.021 A 
HETATM   15  C10 UNL     1     -12.299  -1.358 -38.123  1.00  0.00     0.021 A 
BRANCH  13  16
HETATM   16  C8  UNL     1     -12.931  -2.067 -40.504  1.00  0.00     0.397 C 
HETATM   17  F1  UNL     1     -12.659  -0.735 -40.648  1.00  0.00    -0.170 F 
HETATM   18  F2  UNL     1     -12.023  -2.790 -41.274  1.00  0.00    -0.170 F 
HETATM   19  F3  UNL     1     -14.188  -2.429 -40.888  1.00  0.00    -0.170 F 
ENDBRANCH  13  16
ENDBRANCH  12  13
ENDBRANCH   1  12
TORSDOF 5
ENDMDL
MODEL 4
REMARK VINA RESULT: -6.563237219      2.177      2.910
REMARK  5 active torsions:
REMARK  status: ('A' for Active; 'I' for Inactive)
REMARK    1  A    between atoms: O1_2  and  C2_3 
REMARK    2  A    between atoms: C5_6  and  N1_7 
REMARK    3  A    between atoms: N1_7  and  C6_10 
REMARK    4  A    between atoms: C6_10  and  C7_11 
REMARK    5  A    between atoms: C7_11  and  C8_12 
ROOT
HETATM    1  N1  UNL     1     -13.987  -3.120 -37.664  1.00  0.00    -0.070 N 
ATOM      2  H11 UNL     1     -13.589  -3.393 -36.765  1.00  0.00     0.277 HD
ATOM      3  H12 UNL     1     -13.838  -2.112 -37.620  1.00  0.00     0.277 HD
ENDROOT
BRANCH   1   4
HETATM    4  C5  UNL     1     -15.404  -3.423 -37.706  1.00  0.00     0.186 C 
HETATM    5  C4  UNL     1     -16.164  -2.144 -37.761  1.00  0.00     0.035 C 
HETATM    6  C3  UNL     1     -17.590  -2.311 -38.185  1.00  0.00     0.034 C 
HETATM    7  C2  UNL     1     -18.033  -3.720 -38.417  1.00  0.00     0.120 C 
HETATM    8  C12 UNL     1     -17.058  -4.533 -39.229  1.00  0.00     0.034 C 
HETATM    9  C11 UNL     1     -15.627  -4.164 -39.002  1.00  0.00     0.035 C 
BRANCH   7  10
HETATM   10  O1  UNL     1     -19.255  -3.841 -39.022  1.00  0.00    -0.391 OA
HETATM   11  C1  UNL     1     -19.489  -5.029 -39.662  1.00  0.00     0.202 C 
ENDBRANCH   7  10
ENDBRANCH   1   4
BRANCH   1  12
HETATM   12  C6  UNL     1     -13.232  -3.695 -38.743  1.00  0.00     0.251 C 
BRANCH  12  13
HETATM   13  C7  UNL     1     -12.251  -2.692 -39.296  1.00  0.00     0.081 A 
HETATM   14  C9  UNL     1     -12.322  -1.264 -38.846  1.00  0.00     0.021 A 
HETATM   15  C10 UNL     1     -12.660  -1.678 -40.270  1.00  0.00     0.021 A 
BRANCH  13  16
HETATM   16  C8  UNL     1     -10.818  -3.224 -39.378  1.00  0.00     0.397 C 
HETATM   17  F1  UNL     1     -10.041  -2.426 -38.585  1.00  0.00    -0.170 F 
HETATM   18  F2  UNL     1     -10.856  -4.499 -38.821  1.00  0.00    -0.170 F 
HETATM   19  F3  UNL     1     -10.376  -3.339 -40.662  1.00  0.00    -0.170 F 
ENDBRANCH  13  16
ENDBRANCH  12  13
ENDBRANCH   1  12
TORSDOF 5
ENDMDL
MODEL 5
REMARK VINA RESULT: -6.519617206      1.719      2.419
REMARK  5 active torsions:
REMARK  status: ('A' for Active; 'I' for Inactive)
REMARK    1  A    between atoms: O1_2  and  C2_3 
REMARK    2  A    between atoms: C5_6  and  N1_7 
REMARK    3  A    between atoms: N1_7  and  C6_10 
REMARK    4  A    between atoms: C6_10  and  C7_11 
REMARK    5  A    between atoms: C7_11  and  C8_12 
ROOT
HETATM    1  N1  UNL     1     -13.459  -4.017 -38.613  1.00  0.00    -0.070 N 
ATOM      2  H11 UNL     1     -13.102  -3.640 -39.491  1.00  0.00     0.277 HD
ATOM      3  H12 UNL     1     -13.283  -5.010 -38.767  1.00  0.00     0.277 HD
ENDROOT
BRANCH   1   4
HETATM    4  C5  UNL     1     -14.881  -3.765 -38.492  1.00  0.00     0.186 C 
HETATM    5  C4  UNL     1     -15.147  -3.160 -37.159  1.00  0.00     0.035 C 
HETATM    6  C3  UNL     1     -16.493  -2.511 -37.053  1.00  0.00     0.034 C 
HETATM    7  C2  UNL     1     -17.364  -2.632 -38.262  1.00  0.00     0.120 C 
HETATM    8  C12 UNL     1     -16.648  -2.337 -39.554  1.00  0.00     0.034 C 
HETATM    9  C11 UNL     1     -15.209  -2.743 -39.554  1.00  0.00     0.035 C 
BRANCH   7  10
HETATM   10  O1  UNL     1     -18.485  -1.845 -38.238  1.00  0.00    -0.391 OA
HETATM   11  C1  UNL     1     -18.284  -0.533 -37.901  1.00  0.00     0.202 C 
ENDBRANCH   7  10
ENDBRANCH   1   4
BRANCH   1  12
HETATM   12  C6  UNL     1     -12.682  -3.533 -37.504  1.00  0.00     0.251 C 
BRANCH  12  13
HETATM   13  C7  UNL     1     -11.636  -2.555 -37.978  1.00  0.00     0.081 A 
HETATM   14  C9  UNL     1     -12.059  -1.321 -38.715  1.00  0.00     0.021 A 
HETATM   15  C10 UNL     1     -11.283  -2.439 -39.394  1.00  0.00     0.021 A 
BRANCH  13  16
HETATM   16  C8  UNL     1     -10.538  -2.289 -36.945  1.00  0.00     0.397 C 
HETATM   17  F1  UNL     1      -9.396  -2.887 -37.400  1.00  0.00    -0.170 F 
HETATM   18  F2  UNL     1     -10.347  -0.911 -36.946  1.00  0.00    -0.170 F 
HETATM   19  F3  UNL     1     -10.904  -2.662 -35.686  1.00  0.00    -0.170 F 
ENDBRANCH  13  16
ENDBRANCH  12  13
ENDBRANCH   1  12
TORSDOF 5
ENDMDL
