MODEL 1
REMARK VINA RESULT: -6.375473514      0.000      0.000
REMARK  8 active torsions:
REMARK  status: ('A' for Active; 'I' for Inactive)
REMARK    1  A    between atoms: C2_2  and  O1_3 
REMARK    2  A    between atoms: O1_3  and  C3_4 
REMARK    3  A    between atoms: C3_4  and  C4_5 
REMARK    4  A    between atoms: N1_9  and  C7_10 
REMARK    5  A    between atoms: C7_10  and  N2_12 
REMARK    6  A    between atoms: N2_12  and  C8_14 
REMARK    7  A    between atoms: C8_14  and  C9_15 
REMARK    8  A    between atoms: C9_15  and  C10_16 
ROOT
HETATM    1  C7  UNL     1      -3.622   3.832  13.920  1.00  0.00     0.170 C 
HETATM    2  S2  UNL     1      -4.074   5.380  14.494  1.00  0.00    -0.041 SA
ENDROOT
BRANCH   1   3
HETATM    3  N1  UNL     1      -3.030   3.827  12.647  1.00  0.00    -0.342 N 
HETATM    4  C4  UNL     1      -3.508   3.448  11.333  1.00  0.00     0.120 C 
HETATM    5  C5  UNL     1      -3.728   4.822  10.663  1.00  0.00     0.103 C 
HETATM    6  S1  UNL     1      -2.040   5.484  11.044  1.00  0.00    -0.147 SA
HETATM    7  C6  UNL     1      -1.639   4.235  12.360  1.00  0.00     0.200 C 
BRANCH   4   8
HETATM    8  C3  UNL     1      -4.641   2.596  11.116  1.00  0.00     0.193 C 
BRANCH   8   9
HETATM    9  O1  UNL     1      -4.448   1.460  10.359  1.00  0.00    -0.389 OA
BRANCH   9  10
HETATM   10  C2  UNL     1      -4.804   0.273  10.926  1.00  0.00     0.163 C 
HETATM   11  C1  UNL     1      -4.284  -0.057  12.272  1.00  0.00     0.033 C 
ENDBRANCH   9  10
ENDBRANCH   8   9
ENDBRANCH   4   8
ENDBRANCH   1   3
BRANCH   1  12
HETATM   12  N2  UNL     1      -3.898   2.840  14.844  1.00  0.00    -0.367 N 
ATOM     13  H2  UNL     1      -3.073   2.601  15.394  1.00  0.00     0.161 HD
BRANCH  12  14
HETATM   14  C8  UNL     1      -5.022   2.070  15.228  1.00  0.00     0.122 C 
BRANCH  14  15
HETATM   15  C9  UNL     1      -5.110   1.727  16.694  1.00  0.00     0.028 C 
BRANCH  15  16
HETATM   16  C10 UNL     1      -6.400   2.162  17.315  1.00  0.00    -0.050 C 
HETATM   17  C11 UNL     1      -6.264   2.201  18.839  1.00  0.00     0.014 C 
HETATM   18  C12 UNL     1      -6.906   3.473  16.801  1.00  0.00     0.014 C 
HETATM   19  C13 UNL     1      -7.442   1.107  17.006  1.00  0.00     0.014 C 
ENDBRANCH  15  16
ENDBRANCH  14  15
ENDBRANCH  12  14
ENDBRANCH   1  12
TORSDOF 8
ENDMDL
MODEL 2
REMARK VINA RESULT: -6.369479212      0.052      1.001
REMARK  8 active torsions:
REMARK  status: ('A' for Active; 'I' for Inactive)
REMARK    1  A    between atoms: C2_2  and  O1_3 
REMARK    2  A    between atoms: O1_3  and  C3_4 
REMARK    3  A    between atoms: C3_4  and  C4_5 
REMARK    4  A    between atoms: N1_9  and  C7_10 
REMARK    5  A    between atoms: C7_10  and  N2_12 
REMARK    6  A    between atoms: N2_12  and  C8_14 
REMARK    7  A    between atoms: C8_14  and  C9_15 
REMARK    8  A    between atoms: C9_15  and  C10_16 
ROOT
HETATM    1  C7  UNL     1      -3.599   3.842  13.891  1.00  0.00     0.170 C 
HETATM    2  S2  UNL     1      -4.004   5.389  14.502  1.00  0.00    -0.041 SA
ENDROOT
BRANCH   1   3
HETATM    3  N1  UNL     1      -3.031   3.847  12.607  1.00  0.00    -0.342 N 
HETATM    4  C4  UNL     1      -3.528   3.464  11.301  1.00  0.00     0.120 C 
HETATM    5  C5  UNL     1      -3.780   4.836  10.639  1.00  0.00     0.103 C 
HETATM    6  S1  UNL     1      -2.094   5.521  10.990  1.00  0.00    -0.147 SA
HETATM    7  C6  UNL     1      -1.652   4.275  12.296  1.00  0.00     0.200 C 
BRANCH   4   8
HETATM    8  C3  UNL     1      -4.653   2.596  11.104  1.00  0.00     0.193 C 
BRANCH   8   9
HETATM    9  O1  UNL     1      -4.452   1.452  10.363  1.00  0.00    -0.389 OA
BRANCH   9  10
HETATM   10  C2  UNL     1      -4.811   0.272  10.941  1.00  0.00     0.163 C 
HETATM   11  C1  UNL     1      -4.289  -0.048  12.290  1.00  0.00     0.033 C 
ENDBRANCH   9  10
ENDBRANCH   8   9
ENDBRANCH   4   8
ENDBRANCH   1   3
BRANCH   1  12
HETATM   12  N2  UNL     1      -3.881   2.839  14.801  1.00  0.00    -0.367 N 
ATOM     13  H2  UNL     1      -3.045   2.541  15.302  1.00  0.00     0.161 HD
BRANCH  12  14
HETATM   14  C8  UNL     1      -5.025   2.117  15.221  1.00  0.00     0.122 C 
BRANCH  14  15
HETATM   15  C9  UNL     1      -5.096   1.804  16.695  1.00  0.00     0.028 C 
BRANCH  15  16
HETATM   16  C10 UNL     1      -6.435   2.112  17.289  1.00  0.00    -0.050 C 
HETATM   17  C11 UNL     1      -6.911   3.491  16.826  1.00  0.00     0.014 C 
HETATM   18  C12 UNL     1      -7.475   1.076  17.002  1.00  0.00     0.014 C 
HETATM   19  C13 UNL     1      -6.266   2.200  18.791  1.00  0.00     0.014 C 
ENDBRANCH  15  16
ENDBRANCH  14  15
ENDBRANCH  12  14
ENDBRANCH   1  12
TORSDOF 8
ENDMDL
MODEL 3
REMARK VINA RESULT: -5.892832166      2.561      3.789
REMARK  8 active torsions:
REMARK  status: ('A' for Active; 'I' for Inactive)
REMARK    1  A    between atoms: C2_2  and  O1_3 
REMARK    2  A    between atoms: O1_3  and  C3_4 
REMARK    3  A    between atoms: C3_4  and  C4_5 
REMARK    4  A    between atoms: N1_9  and  C7_10 
REMARK    5  A    between atoms: C7_10  and  N2_12 
REMARK    6  A    between atoms: N2_12  and  C8_14 
REMARK    7  A    between atoms: C8_14  and  C9_15 
REMARK    8  A    between atoms: C9_15  and  C10_16 
ROOT
HETATM    1  C7  UNL     1      -4.154   2.349  13.044  1.00  0.00     0.170 C 
HETATM    2  S2  UNL     1      -4.436   1.054  11.961  1.00  0.00    -0.041 SA
ENDROOT
BRANCH   1   3
HETATM    3  N1  UNL     1      -3.776   3.555  12.433  1.00  0.00    -0.342 N 
HETATM    4  C4  UNL     1      -2.767   4.549  12.740  1.00  0.00     0.120 C 
HETATM    5  C5  UNL     1      -1.695   4.260  11.666  1.00  0.00     0.103 C 
HETATM    6  S1  UNL     1      -2.860   4.320  10.226  1.00  0.00    -0.147 SA
HETATM    7  C6  UNL     1      -4.412   4.128  11.229  1.00  0.00     0.200 C 
BRANCH   4   8
HETATM    8  C3  UNL     1      -2.159   4.688  14.032  1.00  0.00     0.193 C 
BRANCH   8   9
HETATM    9  O1  UNL     1      -1.605   5.910  14.345  1.00  0.00    -0.389 OA
BRANCH   9  10
HETATM   10  C2  UNL     1      -2.451   6.977  14.396  1.00  0.00     0.163 C 
HETATM   11  C1  UNL     1      -2.026   8.189  15.132  1.00  0.00     0.033 C 
ENDBRANCH   9  10
ENDBRANCH   8   9
ENDBRANCH   4   8
ENDBRANCH   1   3
BRANCH   1  12
HETATM   12  N2  UNL     1      -4.384   1.981  14.357  1.00  0.00    -0.367 N 
ATOM     13  H2  UNL     1      -4.301   0.972  14.484  1.00  0.00     0.161 HD
BRANCH  12  14
HETATM   14  C8  UNL     1      -4.704   2.634  15.573  1.00  0.00     0.122 C 
BRANCH  14  15
HETATM   15  C9  UNL     1      -5.112   1.732  16.711  1.00  0.00     0.028 C 
BRANCH  15  16
HETATM   16  C10 UNL     1      -6.407   2.144  17.340  1.00  0.00    -0.050 C 
HETATM   17  C11 UNL     1      -6.265   2.180  18.863  1.00  0.00     0.014 C 
HETATM   18  C12 UNL     1      -6.937   3.447  16.832  1.00  0.00     0.014 C 
HETATM   19  C13 UNL     1      -7.433   1.072  17.032  1.00  0.00     0.014 C 
ENDBRANCH  15  16
ENDBRANCH  14  15
ENDBRANCH  12  14
ENDBRANCH   1  12
TORSDOF 8
ENDMDL
MODEL 4
REMARK VINA RESULT: -5.875285904      2.316      3.301
REMARK  8 active torsions:
REMARK  status: ('A' for Active; 'I' for Inactive)
REMARK    1  A    between atoms: C2_2  and  O1_3 
REMARK    2  A    between atoms: O1_3  and  C3_4 
REMARK    3  A    between atoms: C3_4  and  C4_5 
REMARK    4  A    between atoms: N1_9  and  C7_10 
REMARK    5  A    between atoms: C7_10  and  N2_12 
REMARK    6  A    between atoms: N2_12  and  C8_14 
REMARK    7  A    between atoms: C8_14  and  C9_15 
REMARK    8  A    between atoms: C9_15  and  C10_16 
ROOT
HETATM    1  C7  UNL     1      -4.131   2.862  13.032  1.00  0.00     0.170 C 
HETATM    2  S2  UNL     1      -4.802   1.993  11.718  1.00  0.00    -0.041 SA
ENDROOT
BRANCH   1   3
HETATM    3  N1  UNL     1      -3.393   3.999  12.669  1.00  0.00    -0.342 N 
HETATM    4  C4  UNL     1      -3.743   5.395  12.495  1.00  0.00     0.120 C 
HETATM    5  C5  UNL     1      -3.141   6.037  13.764  1.00  0.00     0.103 C 
HETATM    6  S1  UNL     1      -1.447   5.318  13.547  1.00  0.00    -0.147 SA
HETATM    7  C6  UNL     1      -1.954   4.002  12.337  1.00  0.00     0.200 C 
BRANCH   4   8
HETATM    8  C3  UNL     1      -5.085   5.856  12.286  1.00  0.00     0.193 C 
BRANCH   8   9
HETATM    9  O1  UNL     1      -5.567   5.849  10.995  1.00  0.00    -0.389 OA
BRANCH   9  10
HETATM   10  C2  UNL     1      -6.153   6.995  10.549  1.00  0.00     0.163 C 
HETATM   11  C1  UNL     1      -7.099   7.704  11.440  1.00  0.00     0.033 C 
ENDBRANCH   9  10
ENDBRANCH   8   9
ENDBRANCH   4   8
ENDBRANCH   1   3
BRANCH   1  12
HETATM   12  N2  UNL     1      -4.468   2.296  14.248  1.00  0.00    -0.367 N 
ATOM     13  H2  UNL     1      -4.690   1.305  14.152  1.00  0.00     0.161 HD
BRANCH  12  14
HETATM   14  C8  UNL     1      -4.586   2.729  15.592  1.00  0.00     0.122 C 
BRANCH  14  15
HETATM   15  C9  UNL     1      -5.100   1.699  16.567  1.00  0.00     0.028 C 
BRANCH  15  16
HETATM   16  C10 UNL     1      -6.373   2.118  17.235  1.00  0.00    -0.050 C 
HETATM   17  C11 UNL     1      -6.200   2.100  18.755  1.00  0.00     0.014 C 
HETATM   18  C12 UNL     1      -6.883   3.449  16.781  1.00  0.00     0.014 C 
HETATM   19  C13 UNL     1      -7.428   1.080  16.913  1.00  0.00     0.014 C 
ENDBRANCH  15  16
ENDBRANCH  14  15
ENDBRANCH  12  14
ENDBRANCH   1  12
TORSDOF 8
ENDMDL
MODEL 5
REMARK VINA RESULT: -5.867808471      2.312      3.446
REMARK  8 active torsions:
REMARK  status: ('A' for Active; 'I' for Inactive)
REMARK    1  A    between atoms: C2_2  and  O1_3 
REMARK    2  A    between atoms: O1_3  and  C3_4 
REMARK    3  A    between atoms: C3_4  and  C4_5 
REMARK    4  A    between atoms: N1_9  and  C7_10 
REMARK    5  A    between atoms: C7_10  and  N2_12 
REMARK    6  A    between atoms: N2_12  and  C8_14 
REMARK    7  A    between atoms: C8_14  and  C9_15 
REMARK    8  A    between atoms: C9_15  and  C10_16 
ROOT
HETATM    1  C7  UNL     1      -4.114   2.833  13.035  1.00  0.00     0.170 C 
HETATM    2  S2  UNL     1      -4.795   1.938  11.743  1.00  0.00    -0.041 SA
ENDROOT
BRANCH   1   3
HETATM    3  N1  UNL     1      -3.385   3.967  12.644  1.00  0.00    -0.342 N 
HETATM    4  C4  UNL     1      -3.742   5.359  12.458  1.00  0.00     0.120 C 
HETATM    5  C5  UNL     1      -3.120   6.020  13.707  1.00  0.00     0.103 C 
HETATM    6  S1  UNL     1      -1.428   5.302  13.471  1.00  0.00    -0.147 SA
HETATM    7  C6  UNL     1      -1.952   3.969  12.287  1.00  0.00     0.200 C 
BRANCH   4   8
HETATM    8  C3  UNL     1      -5.089   5.814  12.266  1.00  0.00     0.193 C 
BRANCH   8   9
HETATM    9  O1  UNL     1      -5.567   5.860  10.974  1.00  0.00    -0.389 OA
BRANCH   9  10
HETATM   10  C2  UNL     1      -6.117   7.037  10.562  1.00  0.00     0.163 C 
HETATM   11  C1  UNL     1      -7.099   7.711  11.442  1.00  0.00     0.033 C 
ENDBRANCH   9  10
ENDBRANCH   8   9
ENDBRANCH   4   8
ENDBRANCH   1   3
BRANCH   1  12
HETATM   12  N2  UNL     1      -4.435   2.286  14.264  1.00  0.00    -0.367 N 
ATOM     13  H2  UNL     1      -4.548   1.275  14.207  1.00  0.00     0.161 HD
BRANCH  12  14
HETATM   14  C8  UNL     1      -4.648   2.761  15.582  1.00  0.00     0.122 C 
BRANCH  14  15
HETATM   15  C9  UNL     1      -5.100   1.727  16.583  1.00  0.00     0.028 C 
BRANCH  15  16
HETATM   16  C10 UNL     1      -6.415   2.067  17.214  1.00  0.00    -0.050 C 
HETATM   17  C11 UNL     1      -6.868   3.459  16.767  1.00  0.00     0.014 C 
HETATM   18  C12 UNL     1      -7.488   1.058  16.953  1.00  0.00     0.014 C 
HETATM   19  C13 UNL     1      -6.203   2.147  18.711  1.00  0.00     0.014 C 
ENDBRANCH  15  16
ENDBRANCH  14  15
ENDBRANCH  12  14
ENDBRANCH   1  12
TORSDOF 8
ENDMDL
