MODEL 1
REMARK VINA RESULT: -6.085665449      0.000      0.000
REMARK  7 active torsions:
REMARK  status: ('A' for Active; 'I' for Inactive)
REMARK    1  A    between atoms: C2_2  and  C3_3 
REMARK    2  A    between atoms: C3_3  and  C4_4 
REMARK    3  A    between atoms: C4_4  and  C5_5 
REMARK    4  A    between atoms: C5_5  and  N1_7 
REMARK    5  A    between atoms: C9_12  and  C10_13 
REMARK    6  A    between atoms: C10_13  and  N2_14 
REMARK    7  A    between atoms: N2_14  and  C11_17 
ROOT
HETATM    1  N1  UNL     1      -3.391   4.018  13.336  1.00  0.00    -0.370 N 
HETATM    2  C6  UNL     1      -4.068   3.494  12.160  1.00  0.00     0.155 C 
HETATM    3  C7  UNL     1      -4.982   2.349  12.549  1.00  0.00     0.136 C 
HETATM    4  C8  UNL     1      -4.197   1.127  12.993  1.00  0.00     0.041 C 
HETATM    5  O1  UNL     1      -5.936   2.716  13.467  1.00  0.00    -0.376 OA
HETATM    6  C9  UNL     1      -5.581   3.646  14.389  1.00  0.00     0.165 C 
HETATM    7  C15 UNL     1      -4.137   3.926  14.574  1.00  0.00     0.157 C 
ENDROOT
BRANCH   6   8
HETATM    8  C10 UNL     1      -6.129   3.321  15.789  1.00  0.00     0.266 C 
BRANCH   8   9
HETATM    9  N2  UNL     1      -5.554   2.081  16.228  1.00  0.00    -0.065 N 
ATOM     10  H22 UNL     1      -5.452   1.429  15.450  1.00  0.00     0.278 HD
ATOM     11  H21 UNL     1      -4.572   2.200  16.474  1.00  0.00     0.278 HD
BRANCH   9  12
HETATM   12  C11 UNL     1      -6.285   1.488  17.303  1.00  0.00     0.115 C 
HETATM   13  C12 UNL     1      -5.781   0.079  17.568  1.00  0.00     0.045 C 
HETATM   14  C13 UNL     1      -7.732   1.326  16.818  1.00  0.00     0.045 C 
HETATM   15  C14 UNL     1      -6.340   2.286  18.562  1.00  0.00     0.045 C 
ENDBRANCH   9  12
ENDBRANCH   8   9
ENDBRANCH   6   8
BRANCH   1  16
HETATM   16  C5  UNL     1      -2.103   4.569  13.279  1.00  0.00     0.075 C 
HETATM   17  S1  UNL     1      -1.097   4.047  12.075  1.00  0.00    -0.066 SA
BRANCH  16  18
HETATM   18  C4  UNL     1      -1.562   5.575  14.197  1.00  0.00     0.069 C 
BRANCH  18  19
HETATM   19  C3  UNL     1      -1.939   6.988  13.909  1.00  0.00     0.006 C 
BRANCH  19  20
HETATM   20  C2  UNL     1      -2.339   7.769  15.129  1.00  0.00    -0.004 C 
HETATM   21  C1  UNL     1      -1.320   8.827  15.485  1.00  0.00     0.005 C 
ENDBRANCH  19  20
ENDBRANCH  18  19
ENDBRANCH  16  18
ENDBRANCH   1  16
TORSDOF 7
ENDMDL
MODEL 2
REMARK VINA RESULT: -6.040894672      2.402      3.365
REMARK  7 active torsions:
REMARK  status: ('A' for Active; 'I' for Inactive)
REMARK    1  A    between atoms: C2_2  and  C3_3 
REMARK    2  A    between atoms: C3_3  and  C4_4 
REMARK    3  A    between atoms: C4_4  and  C5_5 
REMARK    4  A    between atoms: C5_5  and  N1_7 
REMARK    5  A    between atoms: C9_12  and  C10_13 
REMARK    6  A    between atoms: C10_13  and  N2_14 
REMARK    7  A    between atoms: N2_14  and  C11_17 
ROOT
HETATM    1  N1  UNL     1      -3.644   4.383  12.381  1.00  0.00    -0.370 N 
HETATM    2  C6  UNL     1      -2.420   4.558  13.148  1.00  0.00     0.155 C 
HETATM    3  C7  UNL     1      -2.742   4.694  14.624  1.00  0.00     0.136 C 
HETATM    4  C8  UNL     1      -3.457   6.000  14.925  1.00  0.00     0.041 C 
HETATM    5  O1  UNL     1      -3.413   3.607  15.127  1.00  0.00    -0.376 OA
HETATM    6  C9  UNL     1      -4.284   2.979  14.296  1.00  0.00     0.165 C 
HETATM    7  C15 UNL     1      -4.715   3.695  13.071  1.00  0.00     0.157 C 
ENDROOT
BRANCH   6   8
HETATM    8  C10 UNL     1      -5.577   2.557  15.014  1.00  0.00     0.266 C 
BRANCH   8   9
HETATM    9  N2  UNL     1      -5.247   2.159  16.353  1.00  0.00    -0.065 N 
ATOM     10  H22 UNL     1      -4.817   1.234  16.364  1.00  0.00     0.278 HD
ATOM     11  H21 UNL     1      -4.468   2.707  16.717  1.00  0.00     0.278 HD
BRANCH   9  12
HETATM   12  C11 UNL     1      -6.370   2.215  17.235  1.00  0.00     0.115 C 
HETATM   13  C12 UNL     1      -7.399   1.167  16.844  1.00  0.00     0.045 C 
HETATM   14  C13 UNL     1      -7.049   3.571  17.000  1.00  0.00     0.045 C 
HETATM   15  C14 UNL     1      -6.050   2.141  18.690  1.00  0.00     0.045 C 
ENDBRANCH   9  12
ENDBRANCH   8   9
ENDBRANCH   6   8
BRANCH   1  16
HETATM   16  C5  UNL     1      -3.780   4.850  11.067  1.00  0.00     0.075 C 
HETATM   17  S1  UNL     1      -2.679   4.329   9.948  1.00  0.00    -0.066 SA
BRANCH  16  18
HETATM   18  C4  UNL     1      -4.819   5.767  10.589  1.00  0.00     0.069 C 
BRANCH  18  19
HETATM   19  C3  UNL     1      -5.025   6.998  11.405  1.00  0.00     0.006 C 
BRANCH  19  20
HETATM   20  C2  UNL     1      -6.110   7.896  10.882  1.00  0.00    -0.004 C 
HETATM   21  C1  UNL     1      -7.404   7.728  11.646  1.00  0.00     0.005 C 
ENDBRANCH  19  20
ENDBRANCH  18  19
ENDBRANCH  16  18
ENDBRANCH   1  16
TORSDOF 7
ENDMDL
MODEL 3
REMARK VINA RESULT: -5.909349180      2.095      6.296
REMARK  7 active torsions:
REMARK  status: ('A' for Active; 'I' for Inactive)
REMARK    1  A    between atoms: C2_2  and  C3_3 
REMARK    2  A    between atoms: C3_3  and  C4_4 
REMARK    3  A    between atoms: C4_4  and  C5_5 
REMARK    4  A    between atoms: C5_5  and  N1_7 
REMARK    5  A    between atoms: C9_12  and  C10_13 
REMARK    6  A    between atoms: C10_13  and  N2_14 
REMARK    7  A    between atoms: N2_14  and  C11_17 
ROOT
HETATM    1  N1  UNL     1      -4.833   3.007  14.043  1.00  0.00    -0.370 N 
HETATM    2  C6  UNL     1      -4.517   1.616  13.757  1.00  0.00     0.155 C 
HETATM    3  C7  UNL     1      -4.016   1.475  12.333  1.00  0.00     0.136 C 
HETATM    4  C8  UNL     1      -5.119   1.730  11.320  1.00  0.00     0.041 C 
HETATM    5  O1  UNL     1      -2.897   2.231  12.082  1.00  0.00    -0.376 OA
HETATM    6  C9  UNL     1      -2.802   3.425  12.722  1.00  0.00     0.165 C 
HETATM    7  C15 UNL     1      -4.029   3.984  13.338  1.00  0.00     0.157 C 
ENDROOT
BRANCH   6   8
HETATM    8  C10 UNL     1      -2.245   4.532  11.813  1.00  0.00     0.266 C 
BRANCH   8   9
HETATM    9  N2  UNL     1      -1.207   5.226  12.520  1.00  0.00    -0.065 N 
ATOM     10  H22 UNL     1      -1.037   4.800  13.432  1.00  0.00     0.278 HD
ATOM     11  H21 UNL     1      -0.297   5.062  12.090  1.00  0.00     0.278 HD
BRANCH   9  12
HETATM   12  C11 UNL     1      -1.470   6.625  12.648  1.00  0.00     0.115 C 
HETATM   13  C12 UNL     1      -0.209   7.426  12.367  1.00  0.00     0.045 C 
HETATM   14  C13 UNL     1      -1.801   6.879  14.125  1.00  0.00     0.045 C 
HETATM   15  C14 UNL     1      -2.624   7.138  11.855  1.00  0.00     0.045 C 
ENDBRANCH   9  12
ENDBRANCH   8   9
ENDBRANCH   6   8
BRANCH   1  16
HETATM   16  C5  UNL     1      -5.848   3.379  14.934  1.00  0.00     0.075 C 
HETATM   17  S1  UNL     1      -6.257   4.981  15.008  1.00  0.00    -0.066 SA
BRANCH  16  18
HETATM   18  C4  UNL     1      -6.587   2.472  15.816  1.00  0.00     0.069 C 
BRANCH  18  19
HETATM   19  C3  UNL     1      -6.649   2.868  17.252  1.00  0.00     0.006 C 
BRANCH  19  20
HETATM   20  C2  UNL     1      -6.317   1.752  18.203  1.00  0.00    -0.004 C 
HETATM   21  C1  UNL     1      -6.068   0.447  17.481  1.00  0.00     0.005 C 
ENDBRANCH  19  20
ENDBRANCH  18  19
ENDBRANCH  16  18
ENDBRANCH   1  16
TORSDOF 7
ENDMDL
MODEL 4
REMARK VINA RESULT: -5.905169602      2.651      6.682
REMARK  7 active torsions:
REMARK  status: ('A' for Active; 'I' for Inactive)
REMARK    1  A    between atoms: C2_2  and  C3_3 
REMARK    2  A    between atoms: C3_3  and  C4_4 
REMARK    3  A    between atoms: C4_4  and  C5_5 
REMARK    4  A    between atoms: C5_5  and  N1_7 
REMARK    5  A    between atoms: C9_12  and  C10_13 
REMARK    6  A    between atoms: C10_13  and  N2_14 
REMARK    7  A    between atoms: N2_14  and  C11_17 
ROOT
HETATM    1  N1  UNL     1      -4.788   2.880  14.037  1.00  0.00    -0.370 N 
HETATM    2  C6  UNL     1      -4.603   1.467  13.746  1.00  0.00     0.155 C 
HETATM    3  C7  UNL     1      -4.077   1.288  12.335  1.00  0.00     0.136 C 
HETATM    4  C8  UNL     1      -5.119   1.660  11.294  1.00  0.00     0.041 C 
HETATM    5  O1  UNL     1      -2.881   1.931  12.125  1.00  0.00    -0.376 OA
HETATM    6  C9  UNL     1      -2.687   3.104  12.779  1.00  0.00     0.165 C 
HETATM    7  C15 UNL     1      -3.871   3.778  13.366  1.00  0.00     0.157 C 
ENDROOT
BRANCH   6   8
HETATM    8  C10 UNL     1      -1.996   4.157  11.898  1.00  0.00     0.266 C 
BRANCH   8   9
HETATM    9  N2  UNL     1      -0.612   4.229  12.271  1.00  0.00    -0.065 N 
ATOM     10  H22 UNL     1      -0.501   4.674  13.182  1.00  0.00     0.278 HD
ATOM     11  H21 UNL     1      -0.244   3.305  12.493  1.00  0.00     0.278 HD
BRANCH   9  12
HETATM   12  C11 UNL     1       0.190   4.877  11.282  1.00  0.00     0.115 C 
HETATM   13  C12 UNL     1       0.464   6.317  11.686  1.00  0.00     0.045 C 
HETATM   14  C13 UNL     1      -0.661   4.959  10.007  1.00  0.00     0.045 C 
HETATM   15  C14 UNL     1       1.451   4.172  10.913  1.00  0.00     0.045 C 
ENDBRANCH   9  12
ENDBRANCH   8   9
ENDBRANCH   6   8
BRANCH   1  16
HETATM   16  C5  UNL     1      -5.787   3.345  14.903  1.00  0.00     0.075 C 
HETATM   17  S1  UNL     1      -6.081   4.973  14.934  1.00  0.00    -0.066 SA
BRANCH  16  18
HETATM   18  C4  UNL     1      -6.602   2.514  15.793  1.00  0.00     0.069 C 
BRANCH  18  19
HETATM   19  C3  UNL     1      -6.649   2.942  17.220  1.00  0.00     0.006 C 
BRANCH  19  20
HETATM   20  C2  UNL     1      -6.336   1.840  18.193  1.00  0.00    -0.004 C 
HETATM   21  C1  UNL     1      -6.103   0.518  17.497  1.00  0.00     0.005 C 
ENDBRANCH  19  20
ENDBRANCH  18  19
ENDBRANCH  16  18
ENDBRANCH   1  16
TORSDOF 7
ENDMDL
MODEL 5
REMARK VINA RESULT: -5.899268038      2.836      6.499
REMARK  7 active torsions:
REMARK  status: ('A' for Active; 'I' for Inactive)
REMARK    1  A    between atoms: C2_2  and  C3_3 
REMARK    2  A    between atoms: C3_3  and  C4_4 
REMARK    3  A    between atoms: C4_4  and  C5_5 
REMARK    4  A    between atoms: C5_5  and  N1_7 
REMARK    5  A    between atoms: C9_12  and  C10_13 
REMARK    6  A    between atoms: C10_13  and  N2_14 
REMARK    7  A    between atoms: N2_14  and  C11_17 
ROOT
HETATM    1  N1  UNL     1      -4.808   2.933  13.943  1.00  0.00    -0.370 N 
HETATM    2  C6  UNL     1      -4.411   1.542  13.793  1.00  0.00     0.155 C 
HETATM    3  C7  UNL     1      -3.985   1.271  12.364  1.00  0.00     0.136 C 
HETATM    4  C8  UNL     1      -5.160   1.336  11.404  1.00  0.00     0.041 C 
HETATM    5  O1  UNL     1      -2.938   2.063  11.958  1.00  0.00    -0.376 OA
HETATM    6  C9  UNL     1      -2.892   3.325  12.454  1.00  0.00     0.165 C 
HETATM    7  C15 UNL     1      -4.118   3.872  13.083  1.00  0.00     0.157 C 
ENDROOT
BRANCH   6   8
HETATM    8  C10 UNL     1      -2.469   4.354  11.393  1.00  0.00     0.266 C 
BRANCH   8   9
HETATM    9  N2  UNL     1      -3.384   4.276  10.290  1.00  0.00    -0.065 N 
ATOM     10  H22 UNL     1      -3.045   3.629   9.578  1.00  0.00     0.278 HD
ATOM     11  H21 UNL     1      -4.240   3.792  10.558  1.00  0.00     0.278 HD
BRANCH   9  12
HETATM   12  C11 UNL     1      -3.673   5.556   9.724  1.00  0.00     0.115 C 
HETATM   13  C12 UNL     1      -3.602   5.490   8.207  1.00  0.00     0.045 C 
HETATM   14  C13 UNL     1      -2.537   6.495  10.152  1.00  0.00     0.045 C 
HETATM   15  C14 UNL     1      -4.946   6.188  10.177  1.00  0.00     0.045 C 
ENDBRANCH   9  12
ENDBRANCH   8   9
ENDBRANCH   6   8
BRANCH   1  16
HETATM   16  C5  UNL     1      -5.794   3.339  14.853  1.00  0.00     0.075 C 
HETATM   17  S1  UNL     1      -6.137   4.956  14.943  1.00  0.00    -0.066 SA
BRANCH  16  18
HETATM   18  C4  UNL     1      -6.554   2.457  15.741  1.00  0.00     0.069 C 
BRANCH  18  19
HETATM   19  C3  UNL     1      -6.689   2.915  17.153  1.00  0.00     0.006 C 
BRANCH  19  20
HETATM   20  C2  UNL     1      -6.354   1.857  18.167  1.00  0.00    -0.004 C 
HETATM   21  C1  UNL     1      -6.082   0.518  17.521  1.00  0.00     0.005 C 
ENDBRANCH  19  20
ENDBRANCH  18  19
ENDBRANCH  16  18
ENDBRANCH   1  16
TORSDOF 7
ENDMDL
