MODEL 1
REMARK VINA RESULT: -7.106579915      0.000      0.000
REMARK  6 active torsions:
REMARK  status: ('A' for Active; 'I' for Inactive)
REMARK    1  A    between atoms: O1_1  and  C1_3 
REMARK    2  A    between atoms: C1_3  and  C2_4 
REMARK    3  A    between atoms: C2_4  and  C3_5 
REMARK    4  A    between atoms: C3_5  and  C4_6 
REMARK    5  A    between atoms: C4_6  and  C5_7 
REMARK    6  A    between atoms: N1_14  and  C11_15 
ROOT
HETATM    1  C5  UNL     1      -3.840   3.422  12.892  1.00  0.00     0.018 C 
HETATM    2  C6  UNL     1      -2.683   4.282  12.561  1.00  0.00     0.171 C 
HETATM    3  O2  UNL     1      -1.608   3.975  13.365  1.00  0.00    -0.379 OA
HETATM    4  C7  UNL     1      -1.725   4.718  14.502  1.00  0.00     0.179 C 
HETATM    5  C8  UNL     1      -2.647   5.893  14.190  1.00  0.00    -0.008 A 
HETATM    6  C9  UNL     1      -3.965   5.975  14.841  1.00  0.00     0.057 C 
HETATM    7  C10 UNL     1      -5.044   5.124  14.171  1.00  0.00     0.065 C 
HETATM    8  N1  UNL     1      -4.732   3.802  13.910  1.00  0.00    -0.360 N 
HETATM    9  C17 UNL     1      -2.090   6.791  13.177  1.00  0.00     0.020 A 
HETATM   10  C18 UNL     1      -2.972   5.758  12.690  1.00  0.00     0.032 A 
ENDROOT
BRANCH   1  11
HETATM   11  C4  UNL     1      -4.489   2.832  11.678  1.00  0.00     0.055 C 
BRANCH  11  12
HETATM   12  C3  UNL     1      -5.124   1.512  11.717  1.00  0.00     0.008 C 
BRANCH  12  13
HETATM   13  C2  UNL     1      -4.740   0.386  10.868  1.00  0.00     0.026 C 
BRANCH  13  14
HETATM   14  C1  UNL     1      -4.374  -0.773  11.842  1.00  0.00     0.164 C 
BRANCH  14  15
HETATM   15  O1  UNL     1      -4.463  -0.334  13.143  1.00  0.00    -0.401 OA
ATOM     16  H1  UNL     1      -3.908  -0.867  13.701  1.00  0.00     0.209 HD
ENDBRANCH  14  15
ENDBRANCH  13  14
ENDBRANCH  12  13
ENDBRANCH  11  12
ENDBRANCH   1  11
BRANCH   8  17
HETATM   17  C11 UNL     1      -5.293   2.759  14.626  1.00  0.00     0.088 C 
HETATM   18  C12 UNL     1      -4.418   2.245  15.740  1.00  0.00     0.026 C 
HETATM   19  C13 UNL     1      -5.240   1.410  16.718  1.00  0.00     0.002 C 
HETATM   20  C14 UNL     1      -6.107   2.339  17.517  1.00  0.00     0.000 C 
HETATM   21  C15 UNL     1      -6.628   3.453  16.622  1.00  0.00     0.002 C 
HETATM   22  C16 UNL     1      -6.668   2.938  15.191  1.00  0.00     0.026 C 
ENDBRANCH   8  17
TORSDOF 6
ENDMDL
MODEL 2
REMARK VINA RESULT: -6.688184197      1.320      1.495
REMARK  6 active torsions:
REMARK  status: ('A' for Active; 'I' for Inactive)
REMARK    1  A    between atoms: O1_1  and  C1_3 
REMARK    2  A    between atoms: C1_3  and  C2_4 
REMARK    3  A    between atoms: C2_4  and  C3_5 
REMARK    4  A    between atoms: C3_5  and  C4_6 
REMARK    5  A    between atoms: C4_6  and  C5_7 
REMARK    6  A    between atoms: N1_14  and  C11_15 
ROOT
HETATM    1  C5  UNL     1      -4.383   2.788  13.730  1.00  0.00     0.018 C 
HETATM    2  C6  UNL     1      -3.363   3.764  13.290  1.00  0.00     0.171 C 
HETATM    3  O2  UNL     1      -2.351   3.857  14.220  1.00  0.00    -0.379 OA
HETATM    4  C7  UNL     1      -2.727   4.794  15.137  1.00  0.00     0.179 C 
HETATM    5  C8  UNL     1      -3.797   5.667  14.490  1.00  0.00    -0.008 A 
HETATM    6  C9  UNL     1      -5.176   5.630  15.005  1.00  0.00     0.057 C 
HETATM    7  C10 UNL     1      -6.005   4.458  14.479  1.00  0.00     0.065 C 
HETATM    8  N1  UNL     1      -5.440   3.199  14.561  1.00  0.00    -0.360 N 
HETATM    9  C17 UNL     1      -3.292   6.413  13.336  1.00  0.00     0.020 A 
HETATM   10  C18 UNL     1      -3.917   5.147  13.044  1.00  0.00     0.032 A 
ENDROOT
BRANCH   1  11
HETATM   11  C4  UNL     1      -4.774   1.830  12.646  1.00  0.00     0.055 C 
BRANCH  11  12
HETATM   12  C3  UNL     1      -4.263   0.457  12.619  1.00  0.00     0.008 C 
BRANCH  12  13
HETATM   13  C2  UNL     1      -4.443  -0.468  11.503  1.00  0.00     0.026 C 
BRANCH  13  14
HETATM   14  C1  UNL     1      -5.187   0.339  10.398  1.00  0.00     0.164 C 
BRANCH  14  15
HETATM   15  O1  UNL     1      -4.808  -0.115   9.155  1.00  0.00    -0.401 OA
ATOM     16  H1  UNL     1      -4.030  -0.655   9.233  1.00  0.00     0.209 HD
ENDBRANCH  14  15
ENDBRANCH  13  14
ENDBRANCH  12  13
ENDBRANCH  11  12
ENDBRANCH   1  11
BRANCH   8  17
HETATM   17  C11 UNL     1      -5.889   2.248  15.462  1.00  0.00     0.088 C 
HETATM   18  C12 UNL     1      -4.831   1.768  16.420  1.00  0.00     0.026 C 
HETATM   19  C13 UNL     1      -5.474   1.061  17.610  1.00  0.00     0.002 C 
HETATM   20  C14 UNL     1      -6.119   2.098  18.482  1.00  0.00     0.000 C 
HETATM   21  C15 UNL     1      -6.760   3.172  17.615  1.00  0.00     0.002 C 
HETATM   22  C16 UNL     1      -7.112   2.553  16.270  1.00  0.00     0.026 C 
ENDBRANCH   8  17
TORSDOF 6
ENDMDL
MODEL 3
REMARK VINA RESULT: -6.454493970      1.136      1.735
REMARK  6 active torsions:
REMARK  status: ('A' for Active; 'I' for Inactive)
REMARK    1  A    between atoms: O1_1  and  C1_3 
REMARK    2  A    between atoms: C1_3  and  C2_4 
REMARK    3  A    between atoms: C2_4  and  C3_5 
REMARK    4  A    between atoms: C3_5  and  C4_6 
REMARK    5  A    between atoms: C4_6  and  C5_7 
REMARK    6  A    between atoms: N1_14  and  C11_15 
ROOT
HETATM    1  C5  UNL     1      -4.039   3.096  12.894  1.00  0.00     0.018 C 
HETATM    2  C6  UNL     1      -3.020   3.313  11.845  1.00  0.00     0.171 C 
HETATM    3  O2  UNL     1      -1.752   3.237  12.381  1.00  0.00    -0.379 OA
HETATM    4  C7  UNL     1      -1.428   4.482  12.833  1.00  0.00     0.179 C 
HETATM    5  C8  UNL     1      -2.331   5.481  12.117  1.00  0.00    -0.008 A 
HETATM    6  C9  UNL     1      -3.336   6.232  12.887  1.00  0.00     0.057 C 
HETATM    7  C10 UNL     1      -4.628   5.456  13.147  1.00  0.00     0.065 C 
HETATM    8  N1  UNL     1      -4.502   4.179  13.662  1.00  0.00    -0.360 N 
HETATM    9  C17 UNL     1      -2.107   5.507  10.671  1.00  0.00     0.020 A 
HETATM   10  C18 UNL     1      -3.160   4.636  11.131  1.00  0.00     0.032 A 
ENDROOT
BRANCH   1  11
HETATM   11  C4  UNL     1      -5.100   2.123  12.479  1.00  0.00     0.055 C 
BRANCH  11  12
HETATM   12  C3  UNL     1      -5.146   1.577  11.120  1.00  0.00     0.008 C 
BRANCH  12  13
HETATM   13  C2  UNL     1      -4.837   0.190  10.777  1.00  0.00     0.026 C 
BRANCH  13  14
HETATM   14  C1  UNL     1      -4.280  -0.456  12.080  1.00  0.00     0.164 C 
BRANCH  14  15
HETATM   15  O1  UNL     1      -4.015  -1.789  11.863  1.00  0.00    -0.401 OA
ATOM     16  H1  UNL     1      -3.261  -2.055  12.377  1.00  0.00     0.209 HD
ENDBRANCH  14  15
ENDBRANCH  13  14
ENDBRANCH  12  13
ENDBRANCH  11  12
ENDBRANCH   1  11
BRANCH   8  17
HETATM   17  C11 UNL     1      -4.840   3.876  14.970  1.00  0.00     0.088 C 
HETATM   18  C12 UNL     1      -6.299   3.557  15.165  1.00  0.00     0.026 C 
HETATM   19  C13 UNL     1      -6.514   2.848  16.499  1.00  0.00     0.002 C 
HETATM   20  C14 UNL     1      -5.986   1.448  16.380  1.00  0.00     0.000 C 
HETATM   21  C15 UNL     1      -4.708   1.450  15.554  1.00  0.00     0.002 C 
HETATM   22  C16 UNL     1      -4.056   2.818  15.683  1.00  0.00     0.026 C 
ENDBRANCH   8  17
TORSDOF 6
ENDMDL
MODEL 4
REMARK VINA RESULT: -6.306424823      1.461      4.792
REMARK  6 active torsions:
REMARK  status: ('A' for Active; 'I' for Inactive)
REMARK    1  A    between atoms: O1_1  and  C1_3 
REMARK    2  A    between atoms: C1_3  and  C2_4 
REMARK    3  A    between atoms: C2_4  and  C3_5 
REMARK    4  A    between atoms: C3_5  and  C4_6 
REMARK    5  A    between atoms: C4_6  and  C5_7 
REMARK    6  A    between atoms: N1_14  and  C11_15 
ROOT
HETATM    1  C5  UNL     1      -4.820   3.682  13.793  1.00  0.00     0.018 C 
HETATM    2  C6  UNL     1      -4.827   2.299  13.271  1.00  0.00     0.171 C 
HETATM    3  O2  UNL     1      -3.556   1.767  13.295  1.00  0.00    -0.379 OA
HETATM    4  C7  UNL     1      -2.949   2.114  12.125  1.00  0.00     0.179 C 
HETATM    5  C8  UNL     1      -4.045   2.463  11.124  1.00  0.00    -0.008 A 
HETATM    6  C9  UNL     1      -4.180   3.850  10.648  1.00  0.00     0.057 C 
HETATM    7  C10 UNL     1      -4.948   4.764  11.604  1.00  0.00     0.065 C 
HETATM    8  N1  UNL     1      -4.557   4.760  12.930  1.00  0.00    -0.360 N 
HETATM    9  C17 UNL     1      -4.904   1.320  10.809  1.00  0.00     0.020 A 
HETATM   10  C18 UNL     1      -5.367   2.186  11.866  1.00  0.00     0.032 A 
ENDROOT
BRANCH   1  11
HETATM   11  C4  UNL     1      -5.910   3.930  14.791  1.00  0.00     0.055 C 
BRANCH  11  12
HETATM   12  C3  UNL     1      -6.330   2.893  15.737  1.00  0.00     0.008 C 
BRANCH  12  13
HETATM   13  C2  UNL     1      -5.492   2.371  16.814  1.00  0.00     0.026 C 
BRANCH  13  14
HETATM   14  C1  UNL     1      -5.170   0.897  16.425  1.00  0.00     0.164 C 
BRANCH  14  15
HETATM   15  O1  UNL     1      -3.811   0.743  16.269  1.00  0.00    -0.401 OA
ATOM     16  H1  UNL     1      -3.557  -0.139  16.514  1.00  0.00     0.209 HD
ENDBRANCH  14  15
ENDBRANCH  13  14
ENDBRANCH  12  13
ENDBRANCH  11  12
ENDBRANCH   1  11
BRANCH   8  17
HETATM   17  C11 UNL     1      -3.889   5.829  13.503  1.00  0.00     0.088 C 
HETATM   18  C12 UNL     1      -2.641   5.439  14.251  1.00  0.00     0.026 C 
HETATM   19  C13 UNL     1      -1.761   6.662  14.490  1.00  0.00     0.002 C 
HETATM   20  C14 UNL     1      -1.134   7.054  13.184  1.00  0.00     0.000 C 
HETATM   21  C15 UNL     1      -2.138   6.871  12.056  1.00  0.00     0.002 C 
HETATM   22  C16 UNL     1      -3.538   6.999  12.636  1.00  0.00     0.026 C 
ENDBRANCH   8  17
TORSDOF 6
ENDMDL
MODEL 5
REMARK VINA RESULT: -6.305969658      1.692      4.252
REMARK  6 active torsions:
REMARK  status: ('A' for Active; 'I' for Inactive)
REMARK    1  A    between atoms: O1_1  and  C1_3 
REMARK    2  A    between atoms: C1_3  and  C2_4 
REMARK    3  A    between atoms: C2_4  and  C3_5 
REMARK    4  A    between atoms: C3_5  and  C4_6 
REMARK    5  A    between atoms: C4_6  and  C5_7 
REMARK    6  A    between atoms: N1_14  and  C11_15 
ROOT
HETATM    1  C5  UNL     1      -4.902   3.966  13.878  1.00  0.00     0.018 C 
HETATM    2  C6  UNL     1      -4.677   5.427  13.885  1.00  0.00     0.171 C 
HETATM    3  O2  UNL     1      -5.514   6.049  12.985  1.00  0.00    -0.379 OA
HETATM    4  C7  UNL     1      -4.885   6.045  11.775  1.00  0.00     0.179 C 
HETATM    5  C8  UNL     1      -3.395   5.846  12.033  1.00  0.00    -0.008 A 
HETATM    6  C9  UNL     1      -2.740   4.604  11.587  1.00  0.00     0.057 C 
HETATM    7  C10 UNL     1      -2.926   3.426  12.543  1.00  0.00     0.065 C 
HETATM    8  N1  UNL     1      -4.214   3.151  12.962  1.00  0.00    -0.360 N 
HETATM    9  C17 UNL     1      -2.802   6.949  12.791  1.00  0.00     0.020 A 
HETATM   10  C18 UNL     1      -3.254   5.820  13.567  1.00  0.00     0.032 A 
ENDROOT
BRANCH   1  11
HETATM   11  C4  UNL     1      -5.027   3.392  15.256  1.00  0.00     0.055 C 
BRANCH  11  12
HETATM   12  C3  UNL     1      -6.323   2.973  15.796  1.00  0.00     0.008 C 
BRANCH  12  13
HETATM   13  C2  UNL     1      -6.533   2.490  17.159  1.00  0.00     0.026 C 
BRANCH  13  14
HETATM   14  C1  UNL     1      -7.378   1.189  17.023  1.00  0.00     0.164 C 
BRANCH  14  15
HETATM   15  O1  UNL     1      -6.570   0.149  16.625  1.00  0.00    -0.401 OA
ATOM     16  H1  UNL     1      -7.105  -0.585  16.344  1.00  0.00     0.209 HD
ENDBRANCH  14  15
ENDBRANCH  13  14
ENDBRANCH  12  13
ENDBRANCH  11  12
ENDBRANCH   1  11
BRANCH   8  17
HETATM   17  C11 UNL     1      -4.912   2.041  12.517  1.00  0.00     0.088 C 
HETATM   18  C12 UNL     1      -4.648   1.692  11.075  1.00  0.00     0.026 C 
HETATM   19  C13 UNL     1      -5.105   0.266  10.782  1.00  0.00     0.002 C 
HETATM   20  C14 UNL     1      -4.138  -0.682  11.428  1.00  0.00     0.000 C 
HETATM   21  C15 UNL     1      -3.706  -0.132  12.780  1.00  0.00     0.002 C 
HETATM   22  C16 UNL     1      -4.812   0.772  13.305  1.00  0.00     0.026 C 
ENDBRANCH   8  17
TORSDOF 6
ENDMDL
