MODEL 1
REMARK VINA RESULT: -8.995331888      0.000      0.000
REMARK  5 active torsions:
REMARK  status: ('A' for Active; 'I' for Inactive)
REMARK    1  A    between atoms: N3_6  and  C3_7 
REMARK    2  A    between atoms: N5_14  and  C6_15 
REMARK    3  A    between atoms: C6_15  and  C7_16 
REMARK    4  A    between atoms: C7_16  and  C8_18 
REMARK    5  A    between atoms: C14_25  and  C15_26 
ROOT
HETATM    1  N1  UNL     1      -9.114 -17.997  18.302  1.00  0.00    -0.190 NA
HETATM    2  C1  UNL     1      -8.405 -18.479  19.073  1.00  0.00     0.119 C 
HETATM    3  C2  UNL     1      -7.517 -19.088  20.014  1.00  0.00     0.136 A 
HETATM    4  N2  UNL     1      -6.201 -19.340  19.913  1.00  0.00    -0.288 N 
ATOM      5  H2  UNL     1      -5.621 -19.116  19.104  1.00  0.00     0.188 HD
HETATM    6  N3  UNL     1      -5.767 -19.926  21.027  1.00  0.00    -0.295 N 
HETATM    7  C13 UNL     1      -6.819 -20.051  21.853  1.00  0.00     0.121 A 
HETATM    8  C14 UNL     1      -7.950 -19.534  21.255  1.00  0.00     0.002 A 
ENDROOT
BRANCH   8   9
HETATM    9  C15 UNL     1      -9.284 -19.501  21.852  1.00  0.00     0.023 A 
HETATM   10  C16 UNL     1     -10.353 -20.337  21.148  1.00  0.00     0.010 A 
HETATM   11  C17 UNL     1      -9.910 -20.616  22.567  1.00  0.00     0.010 A 
ENDBRANCH   8   9
BRANCH   6  12
HETATM   12  C3  UNL     1      -4.390 -20.367  21.312  1.00  0.00     0.135 C 
HETATM   13  C4  UNL     1      -4.327 -20.767  22.741  1.00  0.00     0.111 C 
HETATM   14  S1  UNL     1      -4.379 -22.572  22.964  1.00  0.00    -0.092 SA
HETATM   15  C5  UNL     1      -3.201 -23.195  21.731  1.00  0.00     0.136 C 
HETATM   16  N4  UNL     1      -2.623 -24.305  21.895  1.00  0.00    -0.380 N 
HETATM   17  N5  UNL     1      -3.010 -22.318  20.622  1.00  0.00    -0.353 N 
ATOM     18  H42 UNL     1      -2.759 -24.932  22.688  1.00  0.00     0.158 HD
ATOM     19  H41 UNL     1      -1.961 -24.655  21.202  1.00  0.00     0.158 HD
HETATM   20  C12 UNL     1      -4.085 -21.417  20.307  1.00  0.00     0.153 C 
BRANCH  17  21
HETATM   21  C6  UNL     1      -1.779 -22.392  19.877  1.00  0.00     0.209 C 
BRANCH  21  22
HETATM   22  C7  UNL     1      -1.025 -21.148  19.780  1.00  0.00     0.184 C 
HETATM   23  O1  UNL     1      -0.480 -20.612  20.771  1.00  0.00    -0.290 OA
BRANCH  22  24
HETATM   24  C8  UNL     1      -0.912 -20.510  18.445  1.00  0.00     0.052 A 
HETATM   25  C9  UNL     1      -1.859 -20.419  17.462  1.00  0.00     0.023 A 
HETATM   26  C10 UNL     1      -1.516 -19.793  16.333  1.00  0.00     0.009 A 
HETATM   27  C11 UNL     1      -0.247 -19.293  16.246  1.00  0.00     0.050 A 
HETATM   28  S2  UNL     1       0.432 -19.713  17.753  1.00  0.00    -0.098 SA
ENDBRANCH  22  24
ENDBRANCH  21  22
ENDBRANCH  17  21
ENDBRANCH   6  12
TORSDOF 5
ENDMDL
MODEL 2
REMARK VINA RESULT: -8.756838182      3.099      6.902
REMARK  5 active torsions:
REMARK  status: ('A' for Active; 'I' for Inactive)
REMARK    1  A    between atoms: N3_6  and  C3_7 
REMARK    2  A    between atoms: N5_14  and  C6_15 
REMARK    3  A    between atoms: C6_15  and  C7_16 
REMARK    4  A    between atoms: C7_16  and  C8_18 
REMARK    5  A    between atoms: C14_25  and  C15_26 
ROOT
HETATM    1  N1  UNL     1      -2.816 -27.061  23.901  1.00  0.00    -0.190 NA
HETATM    2  C1  UNL     1      -3.198 -25.993  23.694  1.00  0.00     0.119 C 
HETATM    3  C2  UNL     1      -3.654 -24.661  23.440  1.00  0.00     0.136 A 
HETATM    4  N2  UNL     1      -3.101 -23.694  22.687  1.00  0.00    -0.288 N 
ATOM      5  H2  UNL     1      -2.230 -23.784  22.163  1.00  0.00     0.188 HD
HETATM    6  N3  UNL     1      -3.859 -22.601  22.729  1.00  0.00    -0.295 N 
HETATM    7  C13 UNL     1      -4.912 -22.870  23.519  1.00  0.00     0.121 A 
HETATM    8  C14 UNL     1      -4.825 -24.164  23.992  1.00  0.00     0.002 A 
ENDROOT
BRANCH   8   9
HETATM    9  C15 UNL     1      -5.790 -24.806  24.884  1.00  0.00     0.023 A 
HETATM   10  C16 UNL     1      -5.397 -24.871  26.359  1.00  0.00     0.010 A 
HETATM   11  C17 UNL     1      -6.609 -24.106  25.876  1.00  0.00     0.010 A 
ENDBRANCH   8   9
BRANCH   6  12
HETATM   12  C3  UNL     1      -3.599 -21.321  22.046  1.00  0.00     0.135 C 
HETATM   13  C4  UNL     1      -2.390 -21.492  21.200  1.00  0.00     0.111 C 
HETATM   14  S1  UNL     1      -2.797 -21.732  19.443  1.00  0.00    -0.092 SA
HETATM   15  C5  UNL     1      -4.039 -20.452  19.107  1.00  0.00     0.136 C 
HETATM   16  N4  UNL     1      -4.202 -20.001  17.939  1.00  0.00    -0.380 N 
HETATM   17  N5  UNL     1      -4.762 -20.033  20.264  1.00  0.00    -0.353 N 
ATOM     18  H42 UNL     1      -3.685 -20.301  17.113  1.00  0.00     0.158 HD
ATOM     19  H41 UNL     1      -4.900 -19.282  17.751  1.00  0.00     0.158 HD
HETATM   20  C12 UNL     1      -4.862 -20.971  21.349  1.00  0.00     0.153 C 
BRANCH  17  21
HETATM   21  C6  UNL     1      -5.358 -18.721  20.278  1.00  0.00     0.209 C 
BRANCH  21  22
HETATM   22  C7  UNL     1      -6.633 -18.600  19.581  1.00  0.00     0.184 C 
HETATM   23  O1  UNL     1      -6.727 -18.115  18.431  1.00  0.00    -0.290 OA
BRANCH  22  24
HETATM   24  C8  UNL     1      -7.852 -19.073  20.281  1.00  0.00     0.052 A 
HETATM   25  C9  UNL     1      -9.095 -19.307  19.760  1.00  0.00     0.023 A 
HETATM   26  C10 UNL     1     -10.044 -19.730  20.600  1.00  0.00     0.009 A 
HETATM   27  C11 UNL     1      -9.700 -19.896  21.913  1.00  0.00     0.050 A 
HETATM   28  S2  UNL     1      -8.054 -19.453  21.935  1.00  0.00    -0.098 SA
ENDBRANCH  22  24
ENDBRANCH  21  22
ENDBRANCH  17  21
ENDBRANCH   6  12
TORSDOF 5
ENDMDL
MODEL 3
REMARK VINA RESULT: -8.695433856      1.973      2.735
REMARK  5 active torsions:
REMARK  status: ('A' for Active; 'I' for Inactive)
REMARK    1  A    between atoms: N3_6  and  C3_7 
REMARK    2  A    between atoms: N5_14  and  C6_15 
REMARK    3  A    between atoms: C6_15  and  C7_16 
REMARK    4  A    between atoms: C7_16  and  C8_18 
REMARK    5  A    between atoms: C14_25  and  C15_26 
ROOT
HETATM    1  N1  UNL     1      -9.585 -22.318  24.558  1.00  0.00    -0.190 NA
HETATM    2  C1  UNL     1      -8.752 -21.865  23.902  1.00  0.00     0.119 C 
HETATM    3  C2  UNL     1      -7.705 -21.304  23.105  1.00  0.00     0.136 A 
HETATM    4  N2  UNL     1      -6.400 -21.623  23.054  1.00  0.00    -0.288 N 
ATOM      5  H2  UNL     1      -5.952 -22.353  23.609  1.00  0.00     0.188 HD
HETATM    6  N3  UNL     1      -5.780 -20.844  22.172  1.00  0.00    -0.295 N 
HETATM    7  C13 UNL     1      -6.698 -20.014  21.649  1.00  0.00     0.121 A 
HETATM    8  C14 UNL     1      -7.933 -20.269  22.210  1.00  0.00     0.002 A 
ENDROOT
BRANCH   8   9
HETATM    9  C15 UNL     1      -9.172 -19.560  21.890  1.00  0.00     0.023 A 
HETATM   10  C16 UNL     1      -9.402 -19.248  20.412  1.00  0.00     0.010 A 
HETATM   11  C17 UNL     1     -10.322 -20.151  21.202  1.00  0.00     0.010 A 
ENDBRANCH   8   9
BRANCH   6  12
HETATM   12  C3  UNL     1      -4.347 -20.870  21.826  1.00  0.00     0.135 C 
HETATM   13  C4  UNL     1      -3.664 -21.780  22.780  1.00  0.00     0.111 C 
HETATM   14  S1  UNL     1      -3.318 -23.415  22.059  1.00  0.00    -0.092 SA
HETATM   15  C5  UNL     1      -2.626 -23.029  20.426  1.00  0.00     0.136 C 
HETATM   16  N4  UNL     1      -1.850 -23.839  19.846  1.00  0.00    -0.380 N 
HETATM   17  N5  UNL     1      -3.035 -21.764  19.911  1.00  0.00    -0.353 N 
ATOM     18  H42 UNL     1      -1.557 -24.744  20.214  1.00  0.00     0.158 HD
ATOM     19  H41 UNL     1      -1.462 -23.623  18.928  1.00  0.00     0.158 HD
HETATM   20  C12 UNL     1      -4.284 -21.235  20.388  1.00  0.00     0.153 C 
BRANCH  17  21
HETATM   21  C6  UNL     1      -2.199 -21.100  18.943  1.00  0.00     0.209 C 
BRANCH  21  22
HETATM   22  C7  UNL     1      -0.852 -20.770  19.393  1.00  0.00     0.184 C 
HETATM   23  O1  UNL     1      -0.617 -20.313  20.535  1.00  0.00    -0.290 OA
BRANCH  22  24
HETATM   24  C8  UNL     1       0.268 -20.990  18.446  1.00  0.00     0.052 A 
HETATM   25  C9  UNL     1       0.932 -22.153  18.169  1.00  0.00     0.023 A 
HETATM   26  C10 UNL     1       1.919 -22.099  17.270  1.00  0.00     0.009 A 
HETATM   27  C11 UNL     1       2.190 -20.887  16.698  1.00  0.00     0.050 A 
HETATM   28  S2  UNL     1       1.051 -19.855  17.436  1.00  0.00    -0.098 SA
ENDBRANCH  22  24
ENDBRANCH  21  22
ENDBRANCH  17  21
ENDBRANCH   6  12
TORSDOF 5
ENDMDL
MODEL 4
REMARK VINA RESULT: -8.564144361      1.662      2.438
REMARK  5 active torsions:
REMARK  status: ('A' for Active; 'I' for Inactive)
REMARK    1  A    between atoms: N3_6  and  C3_7 
REMARK    2  A    between atoms: N5_14  and  C6_15 
REMARK    3  A    between atoms: C6_15  and  C7_16 
REMARK    4  A    between atoms: C7_16  and  C8_18 
REMARK    5  A    between atoms: C14_25  and  C15_26 
ROOT
HETATM    1  N1  UNL     1      -9.248 -22.323  24.316  1.00  0.00    -0.190 NA
HETATM    2  C1  UNL     1      -8.473 -21.829  23.620  1.00  0.00     0.119 C 
HETATM    3  C2  UNL     1      -7.498 -21.217  22.771  1.00  0.00     0.136 A 
HETATM    4  N2  UNL     1      -6.199 -21.517  22.600  1.00  0.00    -0.288 N 
ATOM      5  H2  UNL     1      -5.702 -22.267  23.081  1.00  0.00     0.188 HD
HETATM    6  N3  UNL     1      -5.658 -20.687  21.712  1.00  0.00    -0.295 N 
HETATM    7  C13 UNL     1      -6.622 -19.845  21.306  1.00  0.00     0.121 A 
HETATM    8  C14 UNL     1      -7.806 -20.142  21.949  1.00  0.00     0.002 A 
ENDROOT
BRANCH   8   9
HETATM    9  C15 UNL     1      -9.072 -19.433  21.765  1.00  0.00     0.023 A 
HETATM   10  C16 UNL     1      -9.504 -19.201  20.318  1.00  0.00     0.010 A 
HETATM   11  C17 UNL     1     -10.311 -20.045  21.279  1.00  0.00     0.010 A 
ENDBRANCH   8   9
BRANCH   6  12
HETATM   12  C3  UNL     1      -4.257 -20.679  21.252  1.00  0.00     0.135 C 
HETATM   13  C4  UNL     1      -3.416 -21.234  22.344  1.00  0.00     0.111 C 
HETATM   14  S1  UNL     1      -2.940 -22.965  22.046  1.00  0.00    -0.092 SA
HETATM   15  C5  UNL     1      -2.405 -22.974  20.311  1.00  0.00     0.136 C 
HETATM   16  N4  UNL     1      -1.585 -23.839  19.894  1.00  0.00    -0.380 N 
HETATM   17  N5  UNL     1      -2.985 -21.936  19.524  1.00  0.00    -0.353 N 
ATOM     18  H42 UNL     1      -1.170 -24.581  20.457  1.00  0.00     0.158 HD
ATOM     19  H41 UNL     1      -1.285 -23.844  18.919  1.00  0.00     0.158 HD
HETATM   20  C12 UNL     1      -4.250 -21.411  19.961  1.00  0.00     0.153 C 
BRANCH  17  21
HETATM   21  C6  UNL     1      -2.293 -21.486  18.342  1.00  0.00     0.209 C 
BRANCH  21  22
HETATM   22  C7  UNL     1      -1.213 -20.534  18.567  1.00  0.00     0.184 C 
HETATM   23  O1  UNL     1      -0.740 -20.308  19.704  1.00  0.00    -0.290 OA
BRANCH  22  24
HETATM   24  C8  UNL     1      -0.668 -19.814  17.390  1.00  0.00     0.052 A 
HETATM   25  C9  UNL     1      -1.322 -19.427  16.252  1.00  0.00     0.023 A 
HETATM   26  C10 UNL     1      -0.608 -18.789  15.320  1.00  0.00     0.009 A 
HETATM   27  C11 UNL     1       0.718 -18.573  15.574  1.00  0.00     0.050 A 
HETATM   28  S2  UNL     1       0.929 -19.271  17.115  1.00  0.00    -0.098 SA
ENDBRANCH  22  24
ENDBRANCH  21  22
ENDBRANCH  17  21
ENDBRANCH   6  12
TORSDOF 5
ENDMDL
MODEL 5
REMARK VINA RESULT: -8.502111159      1.383      2.025
REMARK  5 active torsions:
REMARK  status: ('A' for Active; 'I' for Inactive)
REMARK    1  A    between atoms: N3_6  and  C3_7 
REMARK    2  A    between atoms: N5_14  and  C6_15 
REMARK    3  A    between atoms: C6_15  and  C7_16 
REMARK    4  A    between atoms: C7_16  and  C8_18 
REMARK    5  A    between atoms: C14_25  and  C15_26 
ROOT
HETATM    1  N1  UNL     1     -10.645 -21.206  23.006  1.00  0.00    -0.190 NA
HETATM    2  C1  UNL     1      -9.603 -20.939  22.592  1.00  0.00     0.119 C 
HETATM    3  C2  UNL     1      -8.302 -20.608  22.098  1.00  0.00     0.136 A 
HETATM    4  N2  UNL     1      -7.102 -21.111  22.436  1.00  0.00    -0.288 N 
ATOM      5  H2  UNL     1      -6.947 -21.842  23.131  1.00  0.00     0.188 HD
HETATM    6  N3  UNL     1      -6.147 -20.513  21.729  1.00  0.00    -0.295 N 
HETATM    7  C13 UNL     1      -6.741 -19.614  20.926  1.00  0.00     0.121 A 
HETATM    8  C14 UNL     1      -8.107 -19.638  21.125  1.00  0.00     0.002 A 
ENDROOT
BRANCH   8   9
HETATM    9  C15 UNL     1      -9.079 -18.794  20.433  1.00  0.00     0.023 A 
HETATM   10  C16 UNL     1      -8.783 -18.499  18.963  1.00  0.00     0.010 A 
HETATM   11  C17 UNL     1     -10.013 -19.261  19.405  1.00  0.00     0.010 A 
ENDBRANCH   8   9
BRANCH   6  12
HETATM   12  C3  UNL     1      -4.698 -20.773  21.806  1.00  0.00     0.135 C 
HETATM   13  C4  UNL     1      -4.374 -21.136  23.209  1.00  0.00     0.111 C 
HETATM   14  S1  UNL     1      -4.164 -22.929  23.435  1.00  0.00    -0.092 SA
HETATM   15  C5  UNL     1      -3.111 -23.421  22.040  1.00  0.00     0.136 C 
HETATM   16  N4  UNL     1      -2.380 -24.447  22.114  1.00  0.00    -0.380 N 
HETATM   17  N5  UNL     1      -3.200 -22.547  20.916  1.00  0.00    -0.353 N 
ATOM     18  H42 UNL     1      -2.317 -25.072  22.918  1.00  0.00     0.158 HD
ATOM     19  H41 UNL     1      -1.788 -24.723  21.330  1.00  0.00     0.158 HD
HETATM   20  C12 UNL     1      -4.414 -21.793  20.765  1.00  0.00     0.153 C 
BRANCH  17  21
HETATM   21  C6  UNL     1      -2.092 -22.479  19.996  1.00  0.00     0.209 C 
BRANCH  21  22
HETATM   22  C7  UNL     1      -1.406 -21.195  19.928  1.00  0.00     0.184 C 
HETATM   23  O1  UNL     1      -1.009 -20.589  20.949  1.00  0.00    -0.290 OA
BRANCH  22  24
HETATM   24  C8  UNL     1      -1.180 -20.600  18.588  1.00  0.00     0.052 A 
HETATM   25  C9  UNL     1      -2.081 -20.420  17.575  1.00  0.00     0.023 A 
HETATM   26  C10 UNL     1      -1.635 -19.860  16.447  1.00  0.00     0.009 A 
HETATM   27  C11 UNL     1      -0.314 -19.510  16.393  1.00  0.00     0.050 A 
HETATM   28  S2  UNL     1       0.267 -19.977  17.926  1.00  0.00    -0.098 SA
ENDBRANCH  22  24
ENDBRANCH  21  22
ENDBRANCH  17  21
ENDBRANCH   6  12
TORSDOF 5
ENDMDL
