MODEL 1
REMARK VINA RESULT: -8.527429182      0.000      0.000
REMARK  6 active torsions:
REMARK  status: ('A' for Active; 'I' for Inactive)
REMARK    1  A    between atoms: C2_2  and  C3_3 
REMARK    2  A    between atoms: C3_3  and  O1_4 
REMARK    3  A    between atoms: O1_4  and  C4_5 
REMARK       I    between atoms: C4_5  and  N1_7 
REMARK    4  A    between atoms: N1_7  and  C5_9 
REMARK    5  A    between atoms: C7_11  and  C8_12 
REMARK    6  A    between atoms: C14_20  and  N3_21 
ROOT
HETATM    1  C5  UNL     1       1.712  -6.337 -28.608  1.00  0.00     0.155 A 
HETATM    2  C6  UNL     1       2.759  -7.201 -28.790  1.00  0.00     0.071 A 
HETATM    3  C7  UNL     1       2.979  -8.330 -27.983  1.00  0.00     0.010 A 
HETATM    4  C12 UNL     1       2.098  -8.556 -26.984  1.00  0.00     0.107 A 
HETATM    5  C13 UNL     1       2.128  -9.692 -26.116  1.00  0.00     0.104 C 
HETATM    6  N2  UNL     1       2.118 -10.617 -25.426  1.00  0.00    -0.191 NA
HETATM    7  C14 UNL     1       1.042  -7.642 -26.837  1.00  0.00     0.170 A 
HETATM    8  O4  UNL     1       0.895  -6.607 -27.625  1.00  0.00    -0.275 OA
ENDROOT
BRANCH   3   9
HETATM    9  C8  UNL     1       4.107  -9.207 -28.304  1.00  0.00     0.016 A 
HETATM   10  C9  UNL     1       5.016  -9.898 -27.589  1.00  0.00     0.020 A 
HETATM   11  C10 UNL     1       5.983 -10.571 -28.243  1.00  0.00     0.008 A 
HETATM   12  C11 UNL     1       5.988 -10.512 -29.601  1.00  0.00     0.050 A 
HETATM   13  S1  UNL     1       4.654  -9.526 -29.938  1.00  0.00    -0.101 SA
ENDBRANCH   3   9
BRANCH   7  14
HETATM   14  N3  UNL     1       0.114  -7.892 -25.768  1.00  0.00    -0.356 N 
HETATM   15  C15 UNL     1      -0.963  -8.827 -25.861  1.00  0.00     0.151 C 
HETATM   16  C16 UNL     1      -2.199  -8.340 -25.166  1.00  0.00     0.187 C 
HETATM   17  O3  UNL     1      -1.957  -7.591 -24.039  1.00  0.00    -0.388 OA
HETATM   18  C17 UNL     1      -0.683  -7.707 -23.533  1.00  0.00     0.187 C 
HETATM   19  C18 UNL     1       0.294  -7.148 -24.543  1.00  0.00     0.151 C 
ENDBRANCH   7  14
BRANCH   1  20
HETATM   20  N1  UNL     1       1.521  -5.296 -29.362  1.00  0.00    -0.282 N 
HETATM   21  C4  UNL     1       0.965  -4.095 -28.889  1.00  0.00     0.366 C 
HETATM   22  O2  UNL     1       1.647  -3.062 -28.734  1.00  0.00    -0.238 OA
ATOM     23  H1  UNL     1       1.786  -5.354 -30.345  1.00  0.00     0.173 HD
BRANCH  21  24
HETATM   24  O1  UNL     1      -0.380  -4.049 -28.578  1.00  0.00    -0.304 OA
BRANCH  24  25
HETATM   25  C3  UNL     1      -0.954  -3.425 -27.474  1.00  0.00     0.180 C 
BRANCH  25  26
HETATM   26  C2  UNL     1      -1.580  -4.346 -26.472  1.00  0.00     0.022 C 
HETATM   27  C1  UNL     1      -2.623  -5.240 -27.100  1.00  0.00     0.007 C 
ENDBRANCH  25  26
ENDBRANCH  24  25
ENDBRANCH  21  24
ENDBRANCH   1  20
TORSDOF 6
ENDMDL
MODEL 2
REMARK VINA RESULT: -8.486337264      1.399      1.901
REMARK  6 active torsions:
REMARK  status: ('A' for Active; 'I' for Inactive)
REMARK    1  A    between atoms: C2_2  and  C3_3 
REMARK    2  A    between atoms: C3_3  and  O1_4 
REMARK    3  A    between atoms: O1_4  and  C4_5 
REMARK       I    between atoms: C4_5  and  N1_7 
REMARK    4  A    between atoms: N1_7  and  C5_9 
REMARK    5  A    between atoms: C7_11  and  C8_12 
REMARK    6  A    between atoms: C14_20  and  N3_21 
ROOT
HETATM    1  C5  UNL     1       0.169  -6.294 -27.739  1.00  0.00     0.155 A 
HETATM    2  C6  UNL     1       1.312  -6.989 -28.027  1.00  0.00     0.071 A 
HETATM    3  C7  UNL     1       1.731  -8.121 -27.305  1.00  0.00     0.010 A 
HETATM    4  C12 UNL     1       0.948  -8.526 -26.281  1.00  0.00     0.107 A 
HETATM    5  C13 UNL     1       1.184  -9.694 -25.491  1.00  0.00     0.104 C 
HETATM    6  N2  UNL     1       1.340 -10.648 -24.862  1.00  0.00    -0.191 NA
HETATM    7  C14 UNL     1      -0.214  -7.779 -26.025  1.00  0.00     0.170 A 
HETATM    8  O4  UNL     1      -0.546  -6.732 -26.736  1.00  0.00    -0.275 OA
ENDROOT
BRANCH   3   9
HETATM    9  C8  UNL     1       2.949  -8.810 -27.736  1.00  0.00     0.016 A 
HETATM   10  C9  UNL     1       3.823  -9.658 -27.162  1.00  0.00     0.020 A 
HETATM   11  C10 UNL     1       4.903 -10.055 -27.864  1.00  0.00     0.008 A 
HETATM   12  C11 UNL     1       5.051  -9.570 -29.125  1.00  0.00     0.050 A 
HETATM   13  S1  UNL     1       3.692  -8.578 -29.306  1.00  0.00    -0.101 SA
ENDBRANCH   3   9
BRANCH   7  14
HETATM   14  N3  UNL     1      -1.037  -8.218 -24.931  1.00  0.00    -0.356 N 
HETATM   15  C15 UNL     1      -0.801  -7.852 -23.570  1.00  0.00     0.151 C 
HETATM   16  C16 UNL     1      -1.089  -8.977 -22.622  1.00  0.00     0.187 C 
HETATM   17  O3  UNL     1      -2.131  -9.788 -23.006  1.00  0.00    -0.388 OA
HETATM   18  C17 UNL     1      -2.953  -9.252 -23.969  1.00  0.00     0.187 C 
HETATM   19  C18 UNL     1      -2.157  -9.075 -25.244  1.00  0.00     0.151 C 
ENDBRANCH   7  14
BRANCH   1  20
HETATM   20  N1  UNL     1      -0.207  -5.249 -28.414  1.00  0.00    -0.282 N 
HETATM   21  C4  UNL     1      -0.723  -4.089 -27.812  1.00  0.00     0.366 C 
HETATM   22  O2  UNL     1      -0.074  -3.024 -27.753  1.00  0.00    -0.238 OA
ATOM     23  H1  UNL     1      -0.124  -5.272 -29.430  1.00  0.00     0.173 HD
BRANCH  21  24
HETATM   24  O1  UNL     1      -1.989  -4.119 -27.261  1.00  0.00    -0.304 OA
BRANCH  24  25
HETATM   25  C3  UNL     1      -2.335  -3.765 -25.959  1.00  0.00     0.180 C 
BRANCH  25  26
HETATM   26  C2  UNL     1      -3.096  -4.805 -25.195  1.00  0.00     0.022 C 
HETATM   27  C1  UNL     1      -3.794  -5.782 -26.111  1.00  0.00     0.007 C 
ENDBRANCH  25  26
ENDBRANCH  24  25
ENDBRANCH  21  24
ENDBRANCH   1  20
TORSDOF 6
ENDMDL
MODEL 3
REMARK VINA RESULT: -8.456220277      3.261      6.984
REMARK  6 active torsions:
REMARK  status: ('A' for Active; 'I' for Inactive)
REMARK    1  A    between atoms: C2_2  and  C3_3 
REMARK    2  A    between atoms: C3_3  and  O1_4 
REMARK    3  A    between atoms: O1_4  and  C4_5 
REMARK       I    between atoms: C4_5  and  N1_7 
REMARK    4  A    between atoms: N1_7  and  C5_9 
REMARK    5  A    between atoms: C7_11  and  C8_12 
REMARK    6  A    between atoms: C14_20  and  N3_21 
ROOT
HETATM    1  C5  UNL     1       2.557 -10.102 -25.801  1.00  0.00     0.155 A 
HETATM    2  C6  UNL     1       1.977  -8.959 -26.285  1.00  0.00     0.071 A 
HETATM    3  C7  UNL     1       2.326  -8.378 -27.517  1.00  0.00     0.010 A 
HETATM    4  C12 UNL     1       3.282  -8.999 -28.244  1.00  0.00     0.107 A 
HETATM    5  C13 UNL     1       3.706  -8.588 -29.547  1.00  0.00     0.104 C 
HETATM    6  N2  UNL     1       4.039  -8.290 -30.610  1.00  0.00    -0.191 NA
HETATM    7  C14 UNL     1       3.846 -10.166 -27.704  1.00  0.00     0.170 A 
HETATM    8  O4  UNL     1       3.476 -10.654 -26.547  1.00  0.00    -0.275 OA
ENDROOT
BRANCH   3   9
HETATM    9  C8  UNL     1       1.604  -7.181 -27.952  1.00  0.00     0.016 A 
HETATM   10  C9  UNL     1       1.893  -6.116 -28.724  1.00  0.00     0.020 A 
HETATM   11  C10 UNL     1       0.974  -5.140 -28.858  1.00  0.00     0.008 A 
HETATM   12  C11 UNL     1      -0.205  -5.287 -28.198  1.00  0.00     0.050 A 
HETATM   13  S1  UNL     1      -0.011  -6.771 -27.408  1.00  0.00    -0.101 SA
ENDBRANCH   3   9
BRANCH   7  14
HETATM   14  N3  UNL     1       4.864 -10.813 -28.485  1.00  0.00    -0.356 N 
HETATM   15  C15 UNL     1       6.248 -10.464 -28.423  1.00  0.00     0.151 C 
HETATM   16  C16 UNL     1       6.912 -10.532 -29.766  1.00  0.00     0.187 C 
HETATM   17  O3  UNL     1       6.429 -11.524 -30.586  1.00  0.00    -0.388 OA
HETATM   18  C17 UNL     1       5.700 -12.498 -29.944  1.00  0.00     0.187 C 
HETATM   19  C18 UNL     1       4.446 -11.871 -29.376  1.00  0.00     0.151 C 
ENDBRANCH   7  14
BRANCH   1  20
HETATM   20  N1  UNL     1       2.225 -10.628 -24.660  1.00  0.00    -0.282 N 
HETATM   21  C4  UNL     1       1.414 -11.770 -24.547  1.00  0.00     0.366 C 
HETATM   22  O2  UNL     1       1.869 -12.878 -24.199  1.00  0.00    -0.238 OA
ATOM     23  H1  UNL     1       2.570 -10.191 -23.805  1.00  0.00     0.173 HD
BRANCH  21  24
HETATM   24  O1  UNL     1       0.065 -11.672 -24.831  1.00  0.00    -0.304 OA
BRANCH  24  25
HETATM   25  C3  UNL     1      -0.885 -10.963 -24.101  1.00  0.00     0.180 C 
BRANCH  25  26
HETATM   26  C2  UNL     1      -1.355  -9.687 -24.731  1.00  0.00     0.022 C 
HETATM   27  C1  UNL     1      -0.937  -8.475 -23.932  1.00  0.00     0.007 C 
ENDBRANCH  25  26
ENDBRANCH  24  25
ENDBRANCH  21  24
ENDBRANCH   1  20
TORSDOF 6
ENDMDL
MODEL 4
REMARK VINA RESULT: -8.287782679      3.120      4.735
REMARK  6 active torsions:
REMARK  status: ('A' for Active; 'I' for Inactive)
REMARK    1  A    between atoms: C2_2  and  C3_3 
REMARK    2  A    between atoms: C3_3  and  O1_4 
REMARK    3  A    between atoms: O1_4  and  C4_5 
REMARK       I    between atoms: C4_5  and  N1_7 
REMARK    4  A    between atoms: N1_7  and  C5_9 
REMARK    5  A    between atoms: C7_11  and  C8_12 
REMARK    6  A    between atoms: C14_20  and  N3_21 
ROOT
HETATM    1  C5  UNL     1      -2.273  -8.239 -24.550  1.00  0.00     0.155 A 
HETATM    2  C6  UNL     1      -1.226  -7.942 -25.381  1.00  0.00     0.071 A 
HETATM    3  C7  UNL     1      -0.075  -8.742 -25.489  1.00  0.00     0.010 A 
HETATM    4  C12 UNL     1      -0.023  -9.857 -24.727  1.00  0.00     0.107 A 
HETATM    5  C13 UNL     1       1.036 -10.818 -24.765  1.00  0.00     0.104 C 
HETATM    6  N2  UNL     1       1.864 -11.619 -24.803  1.00  0.00    -0.191 NA
HETATM    7  C14 UNL     1      -1.121 -10.117 -23.891  1.00  0.00     0.170 A 
HETATM    8  O4  UNL     1      -2.164  -9.328 -23.837  1.00  0.00    -0.275 OA
ENDROOT
BRANCH   3   9
HETATM    9  C8  UNL     1       0.960  -8.346 -26.447  1.00  0.00     0.016 A 
HETATM   10  C9  UNL     1       2.259  -8.650 -26.633  1.00  0.00     0.020 A 
HETATM   11  C10 UNL     1       2.940  -8.026 -27.614  1.00  0.00     0.008 A 
HETATM   12  C11 UNL     1       2.270  -7.115 -28.367  1.00  0.00     0.050 A 
HETATM   13  S1  UNL     1       0.716  -7.144 -27.699  1.00  0.00    -0.101 SA
ENDBRANCH   3   9
BRANCH   7  14
HETATM   14  N3  UNL     1      -1.052 -11.304 -23.084  1.00  0.00    -0.356 N 
HETATM   15  C15 UNL     1      -1.152 -12.627 -23.615  1.00  0.00     0.151 C 
HETATM   16  C16 UNL     1      -1.917 -13.545 -22.709  1.00  0.00     0.187 C 
HETATM   17  O3  UNL     1      -1.747 -13.291 -21.369  1.00  0.00    -0.388 OA
HETATM   18  C17 UNL     1      -0.659 -12.505 -21.067  1.00  0.00     0.187 C 
HETATM   19  C18 UNL     1      -0.872 -11.130 -21.661  1.00  0.00     0.151 C 
ENDBRANCH   7  14
BRANCH   1  20
HETATM   20  N1  UNL     1      -3.332  -7.490 -24.459  1.00  0.00    -0.282 N 
HETATM   21  C4  UNL     1      -3.482  -6.283 -25.162  1.00  0.00     0.366 C 
HETATM   22  O2  UNL     1      -4.265  -6.166 -26.126  1.00  0.00    -0.238 OA
ATOM     23  H1  UNL     1      -4.090  -7.795 -23.849  1.00  0.00     0.173 HD
BRANCH  21  24
HETATM   24  O1  UNL     1      -2.739  -5.182 -24.780  1.00  0.00    -0.304 OA
BRANCH  24  25
HETATM   25  C3  UNL     1      -2.836  -3.896 -25.304  1.00  0.00     0.180 C 
BRANCH  25  26
HETATM   26  C2  UNL     1      -1.687  -3.468 -26.165  1.00  0.00     0.022 C 
HETATM   27  C1  UNL     1      -1.688  -4.176 -27.500  1.00  0.00     0.007 C 
ENDBRANCH  25  26
ENDBRANCH  24  25
ENDBRANCH  21  24
ENDBRANCH   1  20
TORSDOF 6
ENDMDL
MODEL 5
REMARK VINA RESULT: -8.128195910      3.196      6.924
REMARK  6 active torsions:
REMARK  status: ('A' for Active; 'I' for Inactive)
REMARK    1  A    between atoms: C2_2  and  C3_3 
REMARK    2  A    between atoms: C3_3  and  O1_4 
REMARK    3  A    between atoms: O1_4  and  C4_5 
REMARK       I    between atoms: C4_5  and  N1_7 
REMARK    4  A    between atoms: N1_7  and  C5_9 
REMARK    5  A    between atoms: C7_11  and  C8_12 
REMARK    6  A    between atoms: C14_20  and  N3_21 
ROOT
HETATM    1  C5  UNL     1       2.553  -9.870 -25.907  1.00  0.00     0.155 A 
HETATM    2  C6  UNL     1       1.953  -8.715 -26.334  1.00  0.00     0.071 A 
HETATM    3  C7  UNL     1       2.225  -8.116 -27.577  1.00  0.00     0.010 A 
HETATM    4  C12 UNL     1       3.125  -8.732 -28.375  1.00  0.00     0.107 A 
HETATM    5  C13 UNL     1       3.466  -8.303 -29.696  1.00  0.00     0.104 C 
HETATM    6  N2  UNL     1       3.731  -7.990 -30.774  1.00  0.00    -0.191 NA
HETATM    7  C14 UNL     1       3.712  -9.913 -27.893  1.00  0.00     0.170 A 
HETATM    8  O4  UNL     1       3.415 -10.417 -26.722  1.00  0.00    -0.275 OA
ENDROOT
BRANCH   3   9
HETATM    9  C8  UNL     1       1.487  -6.905 -27.943  1.00  0.00     0.016 A 
HETATM   10  C9  UNL     1       1.734  -5.831 -28.717  1.00  0.00     0.020 A 
HETATM   11  C10 UNL     1       0.818  -4.845 -28.773  1.00  0.00     0.008 A 
HETATM   12  C11 UNL     1      -0.315  -4.991 -28.037  1.00  0.00     0.050 A 
HETATM   13  S1  UNL     1      -0.083  -6.489 -27.285  1.00  0.00    -0.101 SA
ENDBRANCH   3   9
BRANCH   7  14
HETATM   14  N3  UNL     1       4.670 -10.556 -28.750  1.00  0.00    -0.356 N 
HETATM   15  C15 UNL     1       4.319 -11.534 -29.732  1.00  0.00     0.151 C 
HETATM   16  C16 UNL     1       5.340 -12.627 -29.833  1.00  0.00     0.187 C 
HETATM   17  O3  UNL     1       6.635 -12.215 -29.621  1.00  0.00    -0.388 OA
HETATM   18  C17 UNL     1       6.828 -10.856 -29.710  1.00  0.00     0.187 C 
HETATM   19  C18 UNL     1       6.057 -10.182 -28.596  1.00  0.00     0.151 C 
ENDBRANCH   7  14
BRANCH   1  20
HETATM   20  N1  UNL     1       2.292 -10.413 -24.755  1.00  0.00    -0.282 N 
HETATM   21  C4  UNL     1       1.647 -11.653 -24.619  1.00  0.00     0.366 C 
HETATM   22  O2  UNL     1       2.250 -12.680 -24.246  1.00  0.00    -0.238 OA
ATOM     23  H1  UNL     1       2.569  -9.913 -23.910  1.00  0.00     0.173 HD
BRANCH  21  24
HETATM   24  O1  UNL     1       0.299 -11.750 -24.907  1.00  0.00    -0.304 OA
BRANCH  24  25
HETATM   25  C3  UNL     1      -0.742 -11.144 -24.209  1.00  0.00     0.180 C 
BRANCH  25  26
HETATM   26  C2  UNL     1      -1.310  -9.914 -24.848  1.00  0.00     0.022 C 
HETATM   27  C1  UNL     1      -1.026  -8.673 -24.034  1.00  0.00     0.007 C 
ENDBRANCH  25  26
ENDBRANCH  24  25
ENDBRANCH  21  24
ENDBRANCH   1  20
TORSDOF 6
ENDMDL
