MODEL 1
REMARK VINA RESULT: -8.693202133      0.000      0.000
REMARK  6 active torsions:
REMARK  status: ('A' for Active; 'I' for Inactive)
REMARK    1  A    between atoms: C2_2  and  S1_3 
REMARK    2  A    between atoms: C2_2  and  C6_10 
REMARK    3  A    between atoms: S1_3  and  C3_4 
REMARK    4  A    between atoms: C6_10  and  O2_12 
REMARK    5  A    between atoms: O2_12  and  C7_13 
REMARK    6  A    between atoms: C12_19  and  C13_20 
ROOT
HETATM    1  C7  UNL     1      -0.804  -9.375 -24.036  1.00  0.00     0.158 C 
HETATM    2  C8  UNL     1      -0.954  -8.107 -23.235  1.00  0.00     0.201 C 
HETATM    3  O3  UNL     1      -0.899  -7.142 -24.266  1.00  0.00    -0.378 OA
HETATM    4  C9  UNL     1      -1.767  -7.592 -25.243  1.00  0.00     0.063 C 
HETATM    5  C10 UNL     1      -3.127  -7.060 -24.983  1.00  0.00     0.039 C 
HETATM    6  C11 UNL     1      -3.627  -5.978 -25.845  1.00  0.00     0.018 C 
HETATM    7  C12 UNL     1      -2.627  -5.081 -26.492  1.00  0.00     0.087 C 
HETATM    8  C14 UNL     1      -1.265  -5.697 -26.664  1.00  0.00     0.018 C 
HETATM    9  C15 UNL     1      -1.304  -7.193 -26.637  1.00  0.00     0.039 C 
HETATM   10  C16 UNL     1      -1.715  -9.116 -25.207  1.00  0.00     0.073 C 
ENDROOT
BRANCH   1  11
HETATM   11  O2  UNL     1      -1.093 -10.531 -23.335  1.00  0.00    -0.313 OA
BRANCH  11  12
HETATM   12  C6  UNL     1      -0.844 -11.782 -23.877  1.00  0.00     0.273 C 
HETATM   13  O1  UNL     1      -1.608 -12.164 -24.796  1.00  0.00    -0.264 OA
BRANCH  12  14
HETATM   14  C2  UNL     1       0.288 -12.599 -23.357  1.00  0.00     0.150 C 
HETATM   15  C1  UNL     1       1.537 -12.432 -24.180  1.00  0.00     0.032 C 
BRANCH  14  16
HETATM   16  S1  UNL     1      -0.281 -14.321 -23.313  1.00  0.00    -0.090 SA
BRANCH  16  17
HETATM   17  C3  UNL     1      -1.134 -14.601 -21.740  1.00  0.00     0.112 A 
HETATM   18  N1  UNL     1      -0.782 -15.424 -20.762  1.00  0.00    -0.354 N 
HETATM   19  C4  UNL     1      -1.510 -15.502 -19.697  1.00  0.00     0.096 A 
ATOM     20  H1  UNL     1       0.059 -15.993 -20.850  1.00  0.00     0.166 HD
HETATM   21  C5  UNL     1      -2.632 -14.716 -19.628  1.00  0.00     0.069 A 
HETATM   22  S2  UNL     1      -2.564 -13.897 -21.132  1.00  0.00    -0.076 SA
ENDBRANCH  16  17
ENDBRANCH  14  16
ENDBRANCH  12  14
ENDBRANCH  11  12
ENDBRANCH   1  11
BRANCH   7  23
HETATM   23  C13 UNL     1      -2.439  -3.801 -25.771  1.00  0.00     0.177 C 
HETATM   24  O4  UNL     1      -1.608  -2.975 -26.220  1.00  0.00    -0.648 OA
HETATM   25  O5  UNL     1      -3.165  -3.513 -24.620  1.00  0.00    -0.648 OA
ENDBRANCH   7  23
TORSDOF 6
ENDMDL
MODEL 2
REMARK VINA RESULT: -8.579864311      1.064      1.194
REMARK  6 active torsions:
REMARK  status: ('A' for Active; 'I' for Inactive)
REMARK    1  A    between atoms: C2_2  and  S1_3 
REMARK    2  A    between atoms: C2_2  and  C6_10 
REMARK    3  A    between atoms: S1_3  and  C3_4 
REMARK    4  A    between atoms: C6_10  and  O2_12 
REMARK    5  A    between atoms: O2_12  and  C7_13 
REMARK    6  A    between atoms: C12_19  and  C13_20 
ROOT
HETATM    1  C7  UNL     1      -0.728  -9.387 -24.273  1.00  0.00     0.158 C 
HETATM    2  C8  UNL     1      -0.927  -8.173 -23.403  1.00  0.00     0.201 C 
HETATM    3  O3  UNL     1      -0.885  -7.148 -24.375  1.00  0.00    -0.378 OA
HETATM    4  C9  UNL     1      -1.724  -7.565 -25.391  1.00  0.00     0.063 C 
HETATM    5  C10 UNL     1      -3.102  -7.088 -25.124  1.00  0.00     0.039 C 
HETATM    6  C11 UNL     1      -3.621  -5.973 -25.931  1.00  0.00     0.018 C 
HETATM    7  C12 UNL     1      -2.638  -5.011 -26.508  1.00  0.00     0.087 C 
HETATM    8  C14 UNL     1      -1.256  -5.577 -26.692  1.00  0.00     0.018 C 
HETATM    9  C15 UNL     1      -1.252  -7.072 -26.752  1.00  0.00     0.039 C 
HETATM   10  C16 UNL     1      -1.628  -9.087 -25.442  1.00  0.00     0.073 C 
ENDROOT
BRANCH   1  11
HETATM   11  O2  UNL     1      -0.993 -10.590 -23.645  1.00  0.00    -0.313 OA
BRANCH  11  12
HETATM   12  C6  UNL     1      -0.168 -11.690 -23.820  1.00  0.00     0.273 C 
HETATM   13  O1  UNL     1       0.619 -11.660 -24.796  1.00  0.00    -0.264 OA
BRANCH  12  14
HETATM   14  C2  UNL     1      -0.251 -12.832 -22.867  1.00  0.00     0.150 C 
HETATM   15  C1  UNL     1      -1.048 -13.982 -23.423  1.00  0.00     0.032 C 
BRANCH  14  16
HETATM   16  S1  UNL     1      -0.961 -12.186 -21.328  1.00  0.00    -0.090 SA
BRANCH  16  17
HETATM   17  C3  UNL     1      -1.503 -13.587 -20.316  1.00  0.00     0.112 A 
HETATM   18  N1  UNL     1      -0.756 -14.373 -19.553  1.00  0.00    -0.354 N 
HETATM   19  C4  UNL     1      -1.308 -15.336 -18.891  1.00  0.00     0.096 A 
ATOM     20  H1  UNL     1       0.250 -14.218 -19.489  1.00  0.00     0.166 HD
HETATM   21  C5  UNL     1      -2.664 -15.502 -19.012  1.00  0.00     0.069 A 
HETATM   22  S2  UNL     1      -3.066 -14.234 -20.093  1.00  0.00    -0.076 SA
ENDBRANCH  16  17
ENDBRANCH  14  16
ENDBRANCH  12  14
ENDBRANCH  11  12
ENDBRANCH   1  11
BRANCH   7  23
HETATM   23  C13 UNL     1      -2.499  -3.770 -25.711  1.00  0.00     0.177 C 
HETATM   24  O4  UNL     1      -1.676  -2.902 -26.090  1.00  0.00    -0.648 OA
HETATM   25  O5  UNL     1      -3.260  -3.565 -24.565  1.00  0.00    -0.648 OA
ENDBRANCH   7  23
TORSDOF 6
ENDMDL
MODEL 3
REMARK VINA RESULT: -8.549437029      2.189      2.603
REMARK  6 active torsions:
REMARK  status: ('A' for Active; 'I' for Inactive)
REMARK    1  A    between atoms: C2_2  and  S1_3 
REMARK    2  A    between atoms: C2_2  and  C6_10 
REMARK    3  A    between atoms: S1_3  and  C3_4 
REMARK    4  A    between atoms: C6_10  and  O2_12 
REMARK    5  A    between atoms: O2_12  and  C7_13 
REMARK    6  A    between atoms: C12_19  and  C13_20 
ROOT
HETATM    1  C7  UNL     1       0.581  -8.924 -25.945  1.00  0.00     0.158 C 
HETATM    2  C8  UNL     1       0.325  -7.983 -24.796  1.00  0.00     0.201 C 
HETATM    3  O3  UNL     1       0.001  -6.799 -25.497  1.00  0.00    -0.378 OA
HETATM    4  C9  UNL     1      -0.919  -7.177 -26.457  1.00  0.00     0.063 C 
HETATM    5  C10 UNL     1      -2.289  -7.077 -25.898  1.00  0.00     0.039 C 
HETATM    6  C11 UNL     1      -3.142  -5.963 -26.341  1.00  0.00     0.018 C 
HETATM    7  C12 UNL     1      -2.474  -4.714 -26.807  1.00  0.00     0.087 C 
HETATM    8  C14 UNL     1      -1.069  -4.915 -27.307  1.00  0.00     0.018 C 
HETATM    9  C15 UNL     1      -0.802  -6.330 -27.716  1.00  0.00     0.039 C 
HETATM   10  C16 UNL     1      -0.558  -8.599 -26.876  1.00  0.00     0.073 C 
ENDROOT
BRANCH   1  11
HETATM   11  O2  UNL     1       0.659 -10.257 -25.585  1.00  0.00    -0.313 OA
BRANCH  11  12
HETATM   12  C6  UNL     1       1.883 -10.885 -25.417  1.00  0.00     0.273 C 
HETATM   13  O1  UNL     1       2.878 -10.346 -25.958  1.00  0.00    -0.264 OA
BRANCH  12  14
HETATM   14  C2  UNL     1       1.962 -12.143 -24.623  1.00  0.00     0.150 C 
HETATM   15  C1  UNL     1       2.937 -13.128 -25.210  1.00  0.00     0.032 C 
BRANCH  14  16
HETATM   16  S1  UNL     1       0.279 -12.814 -24.527  1.00  0.00    -0.090 SA
BRANCH  16  17
HETATM   17  C3  UNL     1      -0.570 -12.031 -23.133  1.00  0.00     0.112 A 
HETATM   18  N1  UNL     1      -0.454 -10.780 -22.712  1.00  0.00    -0.354 N 
HETATM   19  C4  UNL     1      -1.139 -10.379 -21.693  1.00  0.00     0.096 A 
ATOM     20  H1  UNL     1       0.174 -10.135 -23.192  1.00  0.00     0.166 HD
HETATM   21  C5  UNL     1      -1.969 -11.285 -21.083  1.00  0.00     0.069 A 
HETATM   22  S2  UNL     1      -1.705 -12.683 -22.038  1.00  0.00    -0.076 SA
ENDBRANCH  16  17
ENDBRANCH  14  16
ENDBRANCH  12  14
ENDBRANCH  11  12
ENDBRANCH   1  11
BRANCH   7  23
HETATM   23  C13 UNL     1      -2.420  -3.659 -25.769  1.00  0.00     0.177 C 
HETATM   24  O4  UNL     1      -1.648  -2.685 -25.940  1.00  0.00    -0.648 OA
HETATM   25  O5  UNL     1      -3.206  -3.739 -24.624  1.00  0.00    -0.648 OA
ENDBRANCH   7  23
TORSDOF 6
ENDMDL
MODEL 4
REMARK VINA RESULT: -8.497267201      4.294      8.153
REMARK  6 active torsions:
REMARK  status: ('A' for Active; 'I' for Inactive)
REMARK    1  A    between atoms: C2_2  and  S1_3 
REMARK    2  A    between atoms: C2_2  and  C6_10 
REMARK    3  A    between atoms: S1_3  and  C3_4 
REMARK    4  A    between atoms: C6_10  and  O2_12 
REMARK    5  A    between atoms: O2_12  and  C7_13 
REMARK    6  A    between atoms: C12_19  and  C13_20 
ROOT
HETATM    1  C7  UNL     1      -1.681  -7.710 -25.015  1.00  0.00     0.158 C 
HETATM    2  C8  UNL     1      -2.881  -8.283 -24.306  1.00  0.00     0.201 C 
HETATM    3  O3  UNL     1      -2.438  -9.605 -24.075  1.00  0.00    -0.378 OA
HETATM    4  C9  UNL     1      -1.165  -9.484 -23.549  1.00  0.00     0.063 C 
HETATM    5  C10 UNL     1      -1.246  -9.383 -22.072  1.00  0.00     0.039 C 
HETATM    6  C11 UNL     1      -0.845 -10.550 -21.271  1.00  0.00     0.018 C 
HETATM    7  C12 UNL     1      -0.962 -11.899 -21.896  1.00  0.00     0.087 C 
HETATM    8  C14 UNL     1      -0.919 -11.888 -23.400  1.00  0.00     0.018 C 
HETATM    9  C15 UNL     1      -0.276 -10.654 -23.947  1.00  0.00     0.039 C 
HETATM   10  C16 UNL     1      -0.542  -8.248 -24.190  1.00  0.00     0.073 C 
ENDROOT
BRANCH   1  11
HETATM   11  O2  UNL     1      -1.694  -6.333 -25.137  1.00  0.00    -0.313 OA
BRANCH  11  12
HETATM   12  C6  UNL     1      -1.823  -5.722 -26.375  1.00  0.00     0.273 C 
HETATM   13  O1  UNL     1      -2.949  -5.782 -26.923  1.00  0.00    -0.264 OA
BRANCH  12  14
HETATM   14  C2  UNL     1      -0.647  -5.041 -26.986  1.00  0.00     0.150 C 
HETATM   15  C1  UNL     1      -0.937  -3.606 -27.336  1.00  0.00     0.032 C 
BRANCH  14  16
HETATM   16  S1  UNL     1      -0.167  -6.018 -28.438  1.00  0.00    -0.090 SA
BRANCH  16  17
HETATM   17  C3  UNL     1       1.454  -6.760 -28.116  1.00  0.00     0.112 A 
HETATM   18  N1  UNL     1       2.638  -6.328 -28.524  1.00  0.00    -0.354 N 
HETATM   19  C4  UNL     1       3.705  -6.983 -28.202  1.00  0.00     0.096 A 
ATOM     20  H1  UNL     1       2.708  -5.483 -29.090  1.00  0.00     0.166 HD
HETATM   21  C5  UNL     1       3.558  -8.114 -27.440  1.00  0.00     0.069 A 
HETATM   22  S2  UNL     1       1.857  -8.162 -27.231  1.00  0.00    -0.076 SA
ENDBRANCH  16  17
ENDBRANCH  14  16
ENDBRANCH  12  14
ENDBRANCH  11  12
ENDBRANCH   1  11
BRANCH   7  23
HETATM   23  C13 UNL     1      -2.192 -12.622 -21.499  1.00  0.00     0.177 C 
HETATM   24  O4  UNL     1      -2.436 -13.731 -22.034  1.00  0.00    -0.648 OA
HETATM   25  O5  UNL     1      -3.063 -12.090 -20.554  1.00  0.00    -0.648 OA
ENDBRANCH   7  23
TORSDOF 6
ENDMDL
MODEL 5
REMARK VINA RESULT: -8.482490816      2.815      4.273
REMARK  6 active torsions:
REMARK  status: ('A' for Active; 'I' for Inactive)
REMARK    1  A    between atoms: C2_2  and  S1_3 
REMARK    2  A    between atoms: C2_2  and  C6_10 
REMARK    3  A    between atoms: S1_3  and  C3_4 
REMARK    4  A    between atoms: C6_10  and  O2_12 
REMARK    5  A    between atoms: O2_12  and  C7_13 
REMARK    6  A    between atoms: C12_19  and  C13_20 
ROOT
HETATM    1  C7  UNL     1      -0.792  -8.903 -24.158  1.00  0.00     0.158 C 
HETATM    2  C8  UNL     1      -0.699  -7.484 -23.659  1.00  0.00     0.201 C 
HETATM    3  O3  UNL     1      -0.485  -6.796 -24.876  1.00  0.00    -0.378 OA
HETATM    4  C9  UNL     1      -1.434  -7.288 -25.752  1.00  0.00     0.063 C 
HETATM    5  C10 UNL     1      -2.671  -6.477 -25.652  1.00  0.00     0.039 C 
HETATM    6  C11 UNL     1      -2.980  -5.540 -26.743  1.00  0.00     0.018 C 
HETATM    7  C12 UNL     1      -1.844  -5.002 -27.545  1.00  0.00     0.087 C 
HETATM    8  C14 UNL     1      -0.618  -5.875 -27.541  1.00  0.00     0.018 C 
HETATM    9  C15 UNL     1      -0.927  -7.296 -27.188  1.00  0.00     0.039 C 
HETATM   10  C16 UNL     1      -1.658  -8.750 -25.381  1.00  0.00     0.073 C 
ENDROOT
BRANCH   1  11
HETATM   11  O2  UNL     1      -1.275  -9.805 -23.228  1.00  0.00    -0.313 OA
BRANCH  11  12
HETATM   12  C6  UNL     1      -0.654 -11.026 -23.020  1.00  0.00     0.273 C 
HETATM   13  O1  UNL     1      -0.494 -11.387 -21.830  1.00  0.00    -0.264 OA
BRANCH  12  14
HETATM   14  C2  UNL     1      -0.211 -11.835 -24.190  1.00  0.00     0.150 C 
HETATM   15  C1  UNL     1      -0.915 -13.163 -24.265  1.00  0.00     0.032 C 
BRANCH  14  16
HETATM   16  S1  UNL     1       1.589 -12.019 -24.054  1.00  0.00    -0.090 SA
BRANCH  16  17
HETATM   17  C3  UNL     1       2.364 -11.052 -25.375  1.00  0.00     0.112 A 
HETATM   18  N1  UNL     1       3.274 -11.456 -26.249  1.00  0.00    -0.354 N 
HETATM   19  C4  UNL     1       3.725 -10.631 -27.134  1.00  0.00     0.096 A 
ATOM     20  H1  UNL     1       3.618 -12.416 -26.222  1.00  0.00     0.166 HD
HETATM   21  C5  UNL     1       3.230  -9.351 -27.128  1.00  0.00     0.069 A 
HETATM   22  S2  UNL     1       2.124  -9.422 -25.820  1.00  0.00    -0.076 SA
ENDBRANCH  16  17
ENDBRANCH  14  16
ENDBRANCH  12  14
ENDBRANCH  11  12
ENDBRANCH   1  11
BRANCH   7  23
HETATM   23  C13 UNL     1      -1.418  -3.649 -27.118  1.00  0.00     0.177 C 
HETATM   24  O4  UNL     1      -0.549  -3.050 -27.798  1.00  0.00    -0.648 OA
HETATM   25  O5  UNL     1      -1.963  -3.049 -25.988  1.00  0.00    -0.648 OA
ENDBRANCH   7  23
TORSDOF 6
ENDMDL
