MODEL 1
REMARK VINA RESULT: -6.843125087      0.000      0.000
REMARK  5 active torsions:
REMARK  status: ('A' for Active; 'I' for Inactive)
REMARK    1  A    between atoms: C2_2  and  C4_4 
REMARK    2  A    between atoms: C8_8  and  N1_9 
REMARK    3  A    between atoms: N1_9  and  C9_11 
REMARK    4  A    between atoms: C9_11  and  N2_13 
REMARK    5  A    between atoms: C14_19  and  N3_20 
ROOT
HETATM    1  C4  UNL     1      -1.199   7.620  14.725  1.00  0.00    -0.006 C 
HETATM    2  C5  UNL     1      -2.601   7.672  15.266  1.00  0.00     0.010 C 
HETATM    3  C6  UNL     1      -3.027   6.762  14.135  1.00  0.00    -0.008 C 
HETATM    4  C7  UNL     1      -3.179   5.349  14.655  1.00  0.00     0.032 C 
HETATM    5  C8  UNL     1      -2.964   4.294  13.605  1.00  0.00     0.117 C 
HETATM    6  C14 UNL     1      -2.217   4.842  12.424  1.00  0.00     0.244 C 
HETATM    7  C17 UNL     1      -1.107   5.728  13.000  1.00  0.00     0.043 C 
HETATM    8  C18 UNL     1      -1.728   7.034  13.455  1.00  0.00    -0.004 C 
ENDROOT
BRANCH   5   9
HETATM    9  N1  UNL     1      -4.209   3.673  13.288  1.00  0.00    -0.360 N 
ATOM     10  H1  UNL     1      -4.888   4.160  12.702  1.00  0.00     0.162 HD
BRANCH   9  11
HETATM   11  C9  UNL     1      -4.505   2.378  13.789  1.00  0.00     0.170 C 
HETATM   12  S1  UNL     1      -4.121   1.071  12.895  1.00  0.00    -0.041 SA
BRANCH  11  13
HETATM   13  N2  UNL     1      -5.146   2.213  15.063  1.00  0.00    -0.354 N 
HETATM   14  C10 UNL     1      -4.604   1.227  15.965  1.00  0.00     0.151 C 
HETATM   15  C11 UNL     1      -5.772   0.823  16.874  1.00  0.00     0.187 C 
HETATM   16  O1  UNL     1      -6.104   1.935  17.598  1.00  0.00    -0.388 OA
HETATM   17  C12 UNL     1      -6.582   2.998  16.897  1.00  0.00     0.187 C 
HETATM   18  C13 UNL     1      -6.278   2.995  15.428  1.00  0.00     0.151 C 
ENDBRANCH  11  13
ENDBRANCH   9  11
ENDBRANCH   5   9
BRANCH   6  19
HETATM   19  N3  UNL     1      -1.664   3.762  11.643  1.00  0.00     0.086 N 
HETATM   20  C15 UNL     1      -0.240   3.668  11.685  1.00  0.00     0.310 C 
HETATM   21  C16 UNL     1      -2.234   3.667  10.328  1.00  0.00     0.310 C 
ENDBRANCH   6  19
BRANCH   1  22
HETATM   22  C2  UNL     1      -0.545   8.975  14.595  1.00  0.00    -0.018 C 
HETATM   23  C1  UNL     1      -1.519  10.089  14.368  1.00  0.00     0.010 C 
HETATM   24  C3  UNL     1       0.556   8.973  13.560  1.00  0.00     0.010 C 
ENDBRANCH   1  22
TORSDOF 5
ENDMDL
MODEL 2
REMARK VINA RESULT: -6.780630889      4.145      7.090
REMARK  5 active torsions:
REMARK  status: ('A' for Active; 'I' for Inactive)
REMARK    1  A    between atoms: C2_2  and  C4_4 
REMARK    2  A    between atoms: C8_8  and  N1_9 
REMARK    3  A    between atoms: N1_9  and  C9_11 
REMARK    4  A    between atoms: C9_11  and  N2_13 
REMARK    5  A    between atoms: C14_19  and  N3_20 
ROOT
HETATM    1  C4  UNL     1      -5.503   2.898  14.980  1.00  0.00    -0.006 C 
HETATM    2  C5  UNL     1      -4.337   3.763  15.372  1.00  0.00     0.010 C 
HETATM    3  C6  UNL     1      -3.448   2.877  14.526  1.00  0.00    -0.008 C 
HETATM    4  C7  UNL     1      -3.156   3.566  13.211  1.00  0.00     0.032 C 
HETATM    5  C8  UNL     1      -2.864   2.614  12.084  1.00  0.00     0.117 C 
HETATM    6  C14 UNL     1      -3.365   1.232  12.391  1.00  0.00     0.244 C 
HETATM    7  C17 UNL     1      -4.745   1.416  13.032  1.00  0.00     0.043 C 
HETATM    8  C18 UNL     1      -4.546   1.870  14.466  1.00  0.00    -0.004 C 
ENDROOT
BRANCH   5   9
HETATM    9  N1  UNL     1      -1.480   2.685  11.743  1.00  0.00    -0.360 N 
ATOM     10  H1  UNL     1      -0.794   2.153  12.280  1.00  0.00     0.162 HD
BRANCH   9  11
HETATM   11  C9  UNL     1      -1.056   3.496  10.658  1.00  0.00     0.170 C 
HETATM   12  S1  UNL     1      -2.163   4.052   9.599  1.00  0.00    -0.041 SA
BRANCH  11  13
HETATM   13  N2  UNL     1       0.332   3.817  10.480  1.00  0.00    -0.354 N 
HETATM   14  C10 UNL     1       1.106   4.130  11.656  1.00  0.00     0.151 C 
HETATM   15  C11 UNL     1       2.260   5.010  11.159  1.00  0.00     0.187 C 
HETATM   16  O1  UNL     1       3.022   4.225  10.337  1.00  0.00    -0.388 OA
HETATM   17  C12 UNL     1       2.428   3.782   9.197  1.00  0.00     0.187 C 
HETATM   18  C13 UNL     1       0.929   3.825   9.187  1.00  0.00     0.151 C 
ENDBRANCH  11  13
ENDBRANCH   9  11
ENDBRANCH   5   9
BRANCH   6  19
HETATM   19  N3  UNL     1      -3.458   0.458  11.177  1.00  0.00     0.086 N 
HETATM   20  C15 UNL     1      -4.735   0.504  10.541  1.00  0.00     0.310 C 
HETATM   21  C16 UNL     1      -2.894  -0.857  11.301  1.00  0.00     0.310 C 
ENDBRANCH   6  19
BRANCH   1  22
HETATM   22  C2  UNL     1      -6.360   2.466  16.146  1.00  0.00    -0.018 C 
HETATM   23  C1  UNL     1      -6.975   3.610  16.891  1.00  0.00     0.010 C 
HETATM   24  C3  UNL     1      -5.622   1.526  17.070  1.00  0.00     0.010 C 
ENDBRANCH   1  22
TORSDOF 5
ENDMDL
MODEL 3
REMARK VINA RESULT: -6.730422258      3.551      6.840
REMARK  5 active torsions:
REMARK  status: ('A' for Active; 'I' for Inactive)
REMARK    1  A    between atoms: C2_2  and  C4_4 
REMARK    2  A    between atoms: C8_8  and  N1_9 
REMARK    3  A    between atoms: N1_9  and  C9_11 
REMARK    4  A    between atoms: C9_11  and  N2_13 
REMARK    5  A    between atoms: C14_19  and  N3_20 
ROOT
HETATM    1  C4  UNL     1      -5.461   2.878  14.897  1.00  0.00    -0.006 C 
HETATM    2  C5  UNL     1      -4.301   3.763  15.264  1.00  0.00     0.010 C 
HETATM    3  C6  UNL     1      -3.409   2.868  14.432  1.00  0.00    -0.008 C 
HETATM    4  C7  UNL     1      -3.131   3.532  13.100  1.00  0.00     0.032 C 
HETATM    5  C8  UNL     1      -2.835   2.558  11.993  1.00  0.00     0.117 C 
HETATM    6  C14 UNL     1      -3.321   1.179  12.333  1.00  0.00     0.244 C 
HETATM    7  C17 UNL     1      -4.699   1.362  12.977  1.00  0.00     0.043 C 
HETATM    8  C18 UNL     1      -4.497   1.849  14.400  1.00  0.00    -0.004 C 
ENDROOT
BRANCH   5   9
HETATM    9  N1  UNL     1      -1.454   2.636  11.642  1.00  0.00    -0.360 N 
ATOM     10  H1  UNL     1      -0.805   1.918  11.965  1.00  0.00     0.162 HD
BRANCH   9  11
HETATM   11  C9  UNL     1      -0.983   3.712  10.845  1.00  0.00     0.170 C 
HETATM   12  S1  UNL     1      -1.751   4.069   9.453  1.00  0.00    -0.041 SA
BRANCH  11  13
HETATM   13  N2  UNL     1       0.165   4.475  11.247  1.00  0.00    -0.354 N 
HETATM   14  C10 UNL     1      -0.022   5.490  12.254  1.00  0.00     0.151 C 
HETATM   15  C11 UNL     1       1.104   6.505  12.020  1.00  0.00     0.187 C 
HETATM   16  O1  UNL     1       2.277   5.851  12.279  1.00  0.00    -0.388 OA
HETATM   17  C12 UNL     1       2.590   4.814  11.458  1.00  0.00     0.187 C 
HETATM   18  C13 UNL     1       1.447   4.238  10.676  1.00  0.00     0.151 C 
ENDBRANCH  11  13
ENDBRANCH   9  11
ENDBRANCH   5   9
BRANCH   6  19
HETATM   19  N3  UNL     1      -3.412   0.377  11.136  1.00  0.00     0.086 N 
HETATM   20  C15 UNL     1      -4.697   0.388  10.512  1.00  0.00     0.310 C 
HETATM   21  C16 UNL     1      -2.826  -0.926  11.282  1.00  0.00     0.310 C 
ENDBRANCH   6  19
BRANCH   1  22
HETATM   22  C2  UNL     1      -6.307   2.463  16.077  1.00  0.00    -0.018 C 
HETATM   23  C1  UNL     1      -6.852   3.619  16.857  1.00  0.00     0.010 C 
HETATM   24  C3  UNL     1      -5.588   1.475  16.966  1.00  0.00     0.010 C 
ENDBRANCH   1  22
TORSDOF 5
ENDMDL
MODEL 4
REMARK VINA RESULT: -6.722649601      4.192      6.813
REMARK  5 active torsions:
REMARK  status: ('A' for Active; 'I' for Inactive)
REMARK    1  A    between atoms: C2_2  and  C4_4 
REMARK    2  A    between atoms: C8_8  and  N1_9 
REMARK    3  A    between atoms: N1_9  and  C9_11 
REMARK    4  A    between atoms: C9_11  and  N2_13 
REMARK    5  A    between atoms: C14_19  and  N3_20 
ROOT
HETATM    1  C4  UNL     1      -5.476   2.884  14.909  1.00  0.00    -0.006 C 
HETATM    2  C5  UNL     1      -4.319   3.779  15.260  1.00  0.00     0.010 C 
HETATM    3  C6  UNL     1      -3.425   2.878  14.436  1.00  0.00    -0.008 C 
HETATM    4  C7  UNL     1      -3.156   3.525  13.095  1.00  0.00     0.032 C 
HETATM    5  C8  UNL     1      -2.859   2.538  11.999  1.00  0.00     0.117 C 
HETATM    6  C14 UNL     1      -3.336   1.161  12.359  1.00  0.00     0.244 C 
HETATM    7  C17 UNL     1      -4.713   1.347  13.006  1.00  0.00     0.043 C 
HETATM    8  C18 UNL     1      -4.508   1.853  14.422  1.00  0.00    -0.004 C 
ENDROOT
BRANCH   5   9
HETATM    9  N1  UNL     1      -1.479   2.618  11.643  1.00  0.00    -0.360 N 
ATOM     10  H1  UNL     1      -0.850   1.846  11.863  1.00  0.00     0.162 HD
BRANCH   9  11
HETATM   11  C9  UNL     1      -0.982   3.771  10.982  1.00  0.00     0.170 C 
HETATM   12  S1  UNL     1       0.267   4.589  11.636  1.00  0.00    -0.041 SA
BRANCH  11  13
HETATM   13  N2  UNL     1      -1.575   4.228   9.756  1.00  0.00    -0.354 N 
HETATM   14  C10 UNL     1      -1.063   3.689   8.520  1.00  0.00     0.151 C 
HETATM   15  C11 UNL     1      -1.375   4.748   7.456  1.00  0.00     0.187 C 
HETATM   16  O1  UNL     1      -2.738   4.818   7.365  1.00  0.00    -0.388 OA
HETATM   17  C12 UNL     1      -3.401   5.252   8.469  1.00  0.00     0.187 C 
HETATM   18  C13 UNL     1      -2.635   5.178   9.756  1.00  0.00     0.151 C 
ENDBRANCH  11  13
ENDBRANCH   9  11
ENDBRANCH   5   9
BRANCH   6  19
HETATM   19  N3  UNL     1      -3.428   0.344  11.174  1.00  0.00     0.086 N 
HETATM   20  C15 UNL     1      -4.717   0.333  10.559  1.00  0.00     0.310 C 
HETATM   21  C16 UNL     1      -2.827  -0.951  11.332  1.00  0.00     0.310 C 
ENDBRANCH   6  19
BRANCH   1  22
HETATM   22  C2  UNL     1      -6.316   2.481  16.097  1.00  0.00    -0.018 C 
HETATM   23  C1  UNL     1      -6.860   3.644  16.866  1.00  0.00     0.010 C 
HETATM   24  C3  UNL     1      -5.590   1.505  16.995  1.00  0.00     0.010 C 
ENDBRANCH   1  22
TORSDOF 5
ENDMDL
MODEL 5
REMARK VINA RESULT: -6.712454377      2.448      3.258
REMARK  5 active torsions:
REMARK  status: ('A' for Active; 'I' for Inactive)
REMARK    1  A    between atoms: C2_2  and  C4_4 
REMARK    2  A    between atoms: C8_8  and  N1_9 
REMARK    3  A    between atoms: N1_9  and  C9_11 
REMARK    4  A    between atoms: C9_11  and  N2_13 
REMARK    5  A    between atoms: C14_19  and  N3_20 
ROOT
HETATM    1  C4  UNL     1      -1.117   7.769  14.740  1.00  0.00    -0.006 C 
HETATM    2  C5  UNL     1      -2.488   7.717  15.357  1.00  0.00     0.010 C 
HETATM    3  C6  UNL     1      -2.933   6.856  14.194  1.00  0.00    -0.008 C 
HETATM    4  C7  UNL     1      -2.988   5.409  14.632  1.00  0.00     0.032 C 
HETATM    5  C8  UNL     1      -2.783   4.432  13.507  1.00  0.00     0.117 C 
HETATM    6  C14 UNL     1      -2.129   5.087  12.325  1.00  0.00     0.244 C 
HETATM    7  C17 UNL     1      -1.032   5.991  12.897  1.00  0.00     0.043 C 
HETATM    8  C18 UNL     1      -1.688   7.235  13.466  1.00  0.00    -0.004 C 
ENDROOT
BRANCH   5   9
HETATM    9  N1  UNL     1      -4.013   3.768  13.217  1.00  0.00    -0.360 N 
ATOM     10  H1  UNL     1      -4.833   4.311  12.942  1.00  0.00     0.162 HD
BRANCH   9  11
HETATM   11  C9  UNL     1      -4.098   2.355  13.312  1.00  0.00     0.170 C 
HETATM   12  S1  UNL     1      -4.340   1.667  14.769  1.00  0.00    -0.041 SA
BRANCH  11  13
HETATM   13  N2  UNL     1      -3.960   1.531  12.145  1.00  0.00    -0.354 N 
HETATM   14  C10 UNL     1      -5.041   1.532  11.189  1.00  0.00     0.151 C 
HETATM   15  C11 UNL     1      -4.939   0.186  10.462  1.00  0.00     0.187 C 
HETATM   16  O1  UNL     1      -3.756   0.203   9.774  1.00  0.00    -0.388 OA
HETATM   17  C12 UNL     1      -2.621   0.264  10.519  1.00  0.00     0.187 C 
HETATM   18  C13 UNL     1      -2.795   0.741  11.930  1.00  0.00     0.151 C 
ENDBRANCH  11  13
ENDBRANCH   9  11
ENDBRANCH   5   9
BRANCH   6  19
HETATM   19  N3  UNL     1      -1.571   4.086  11.450  1.00  0.00     0.086 N 
HETATM   20  C15 UNL     1      -0.154   3.936  11.548  1.00  0.00     0.310 C 
HETATM   21  C16 UNL     1      -2.076   4.163  10.107  1.00  0.00     0.310 C 
ENDBRANCH   6  19
BRANCH   1  22
HETATM   22  C2  UNL     1      -0.536   9.160  14.662  1.00  0.00    -0.018 C 
HETATM   23  C1  UNL     1      -1.535  10.203  14.268  1.00  0.00     0.010 C 
HETATM   24  C3  UNL     1       0.698   9.208  13.792  1.00  0.00     0.010 C 
ENDBRANCH   1  22
TORSDOF 5
ENDMDL
