MODEL 1
REMARK VINA RESULT: -6.276981071      0.000      0.000
REMARK  7 active torsions:
REMARK  status: ('A' for Active; 'I' for Inactive)
REMARK    1  A    between atoms: N1_2  and  C2_3 
REMARK    2  A    between atoms: C2_3  and  C3_4 
REMARK    3  A    between atoms: C3_4  and  N2_5 
REMARK    4  A    between atoms: C10_17  and  N3_18 
REMARK       I    between atoms: N3_18  and  C11_20 
REMARK    5  A    between atoms: C11_20  and  C12_22 
REMARK    6  A    between atoms: C13_23  and  C14_24 
REMARK    7  A    between atoms: C15_25  and  C16_26 
ROOT
HETATM    1  C1  UNL     1      -3.674   5.616  14.563  1.00  0.00     0.273 C 
HETATM    2  N1  UNL     1      -4.306   4.710  13.664  1.00  0.00    -0.058 N 
HETATM    3  C8  UNL     1      -3.435   4.560  12.499  1.00  0.00     0.240 C 
HETATM    4  C9  UNL     1      -3.959   5.450  11.420  1.00  0.00     0.055 C 
HETATM    5  C10 UNL     1      -4.910   6.351  12.157  1.00  0.00     0.112 C 
HETATM    6  C17 UNL     1      -5.492   5.437  13.181  1.00  0.00     0.263 C 
ENDROOT
BRANCH   2   7
HETATM    7  C2  UNL     1      -4.704   3.434  14.198  1.00  0.00     0.154 C 
HETATM    8  C4  UNL     1      -5.743   3.610  15.260  1.00  0.00     0.054 C 
HETATM    9  C5  UNL     1      -6.403   2.311  15.659  1.00  0.00     0.111 C 
HETATM   10  S1  UNL     1      -5.122   1.317  16.379  1.00  0.00     0.015 S 
HETATM   11  O1  UNL     1      -5.070  -0.224  15.801  1.00  0.00    -0.258 OA
HETATM   12  C6  UNL     1      -3.630   2.230  16.149  1.00  0.00     0.111 C 
HETATM   13  C7  UNL     1      -3.455   2.797  14.793  1.00  0.00     0.054 C 
BRANCH   7  14
HETATM   14  C3  UNL     1      -5.146   2.537  13.078  1.00  0.00     0.268 C 
BRANCH  14  15
HETATM   15  N2  UNL     1      -4.419   1.330  12.912  1.00  0.00    -0.077 N 
ATOM     16  H23 UNL     1      -3.864   1.378  12.058  1.00  0.00     0.274 HD
ATOM     17  H22 UNL     1      -3.679   1.276  13.612  1.00  0.00     0.274 HD
ATOM     18  H21 UNL     1      -4.964   0.468  12.921  1.00  0.00     0.274 HD
ENDBRANCH  14  15
ENDBRANCH   7  14
ENDBRANCH   2   7
BRANCH   5  19
HETATM   19  N3  UNL     1      -5.892   6.957  11.295  1.00  0.00    -0.351 N 
HETATM   20  C11 UNL     1      -5.647   8.184  10.620  1.00  0.00     0.242 C 
HETATM   21  O2  UNL     1      -4.526   8.729  10.804  1.00  0.00    -0.269 OA
ATOM     22  H3  UNL     1      -6.789   6.491  11.164  1.00  0.00     0.163 HD
BRANCH  20  23
HETATM   23  C12 UNL     1      -6.624   8.813   9.744  1.00  0.00     0.083 C 
HETATM   24  C13 UNL     1      -7.455   8.129   8.982  1.00  0.00     0.070 C 
BRANCH  24  25
HETATM   25  C14 UNL     1      -8.399   8.785   8.137  1.00  0.00    -0.077 C 
HETATM   26  C15 UNL     1      -9.208   9.350   7.438  1.00  0.00    -0.087 C 
BRANCH  26  27
HETATM   27  C16 UNL     1     -10.194  10.054   6.604  1.00  0.00     0.208 C 
HETATM   28 CL1  UNL     1     -11.086  11.273   7.545  1.00  0.00    -0.117 Cl
ENDBRANCH  26  27
ENDBRANCH  24  25
ENDBRANCH  20  23
ENDBRANCH   5  19
TORSDOF 7
ENDMDL
MODEL 2
REMARK VINA RESULT: -6.117538359      5.130      6.997
REMARK  7 active torsions:
REMARK  status: ('A' for Active; 'I' for Inactive)
REMARK    1  A    between atoms: N1_2  and  C2_3 
REMARK    2  A    between atoms: C2_3  and  C3_4 
REMARK    3  A    between atoms: C3_4  and  N2_5 
REMARK    4  A    between atoms: C10_17  and  N3_18 
REMARK       I    between atoms: N3_18  and  C11_20 
REMARK    5  A    between atoms: C11_20  and  C12_22 
REMARK    6  A    between atoms: C13_23  and  C14_24 
REMARK    7  A    between atoms: C15_25  and  C16_26 
ROOT
HETATM    1  C1  UNL     1      -2.523   3.798  12.608  1.00  0.00     0.273 C 
HETATM    2  N1  UNL     1      -3.597   4.300  13.398  1.00  0.00    -0.058 N 
HETATM    3  C8  UNL     1      -4.394   5.186  12.552  1.00  0.00     0.240 C 
HETATM    4  C9  UNL     1      -3.980   6.591  12.845  1.00  0.00     0.055 C 
HETATM    5  C10 UNL     1      -2.691   6.414  13.598  1.00  0.00     0.112 C 
HETATM    6  C17 UNL     1      -2.947   5.176  14.388  1.00  0.00     0.263 C 
ENDROOT
BRANCH   2   7
HETATM    7  C2  UNL     1      -4.416   3.330  14.075  1.00  0.00     0.154 C 
HETATM    8  C4  UNL     1      -5.376   4.008  15.001  1.00  0.00     0.054 C 
HETATM    9  C5  UNL     1      -6.446   3.078  15.524  1.00  0.00     0.111 C 
HETATM   10  S1  UNL     1      -5.597   1.859  16.495  1.00  0.00     0.015 S 
HETATM   11  O1  UNL     1      -6.039   0.310  16.155  1.00  0.00    -0.258 OA
HETATM   12  C6  UNL     1      -3.878   2.190  16.270  1.00  0.00     0.111 C 
HETATM   13  C7  UNL     1      -3.474   2.434  14.867  1.00  0.00     0.054 C 
BRANCH   7  14
HETATM   14  C3  UNL     1      -5.089   2.449  13.062  1.00  0.00     0.268 C 
BRANCH  14  15
HETATM   15  N2  UNL     1      -4.604   1.120  12.961  1.00  0.00    -0.077 N 
ATOM     16  H23 UNL     1      -3.584   1.128  12.935  1.00  0.00     0.274 HD
ATOM     17  H22 UNL     1      -4.763   0.627  13.840  1.00  0.00     0.274 HD
ATOM     18  H21 UNL     1      -4.963   0.564  12.185  1.00  0.00     0.274 HD
ENDBRANCH  14  15
ENDBRANCH   7  14
ENDBRANCH   2   7
BRANCH   5  19
HETATM   19  N3  UNL     1      -2.351   7.558  14.404  1.00  0.00    -0.351 N 
HETATM   20  C11 UNL     1      -1.142   8.281  14.214  1.00  0.00     0.242 C 
HETATM   21  O2  UNL     1      -0.370   7.882  13.302  1.00  0.00    -0.269 OA
ATOM     22  H3  UNL     1      -2.997   7.858  15.134  1.00  0.00     0.163 HD
BRANCH  20  23
HETATM   23  C12 UNL     1      -0.778   9.439  15.017  1.00  0.00     0.083 C 
HETATM   24  C13 UNL     1       0.413  10.004  14.970  1.00  0.00     0.070 C 
BRANCH  24  25
HETATM   25  C14 UNL     1       0.728  11.139  15.775  1.00  0.00    -0.077 C 
HETATM   26  C15 UNL     1       0.988  12.091  16.473  1.00  0.00    -0.087 C 
BRANCH  26  27
HETATM   27  C16 UNL     1       1.306  13.235  17.341  1.00  0.00     0.208 C 
HETATM   28 CL1  UNL     1       1.964  12.698  18.905  1.00  0.00    -0.117 Cl
ENDBRANCH  26  27
ENDBRANCH  24  25
ENDBRANCH  20  23
ENDBRANCH   5  19
TORSDOF 7
ENDMDL
MODEL 3
REMARK VINA RESULT: -6.098778347      5.673      7.600
REMARK  7 active torsions:
REMARK  status: ('A' for Active; 'I' for Inactive)
REMARK    1  A    between atoms: N1_2  and  C2_3 
REMARK    2  A    between atoms: C2_3  and  C3_4 
REMARK    3  A    between atoms: C3_4  and  N2_5 
REMARK    4  A    between atoms: C10_17  and  N3_18 
REMARK       I    between atoms: N3_18  and  C11_20 
REMARK    5  A    between atoms: C11_20  and  C12_22 
REMARK    6  A    between atoms: C13_23  and  C14_24 
REMARK    7  A    between atoms: C15_25  and  C16_26 
ROOT
HETATM    1  C1  UNL     1      -4.402   5.158  12.524  1.00  0.00     0.273 C 
HETATM    2  N1  UNL     1      -3.701   4.283  13.401  1.00  0.00    -0.058 N 
HETATM    3  C8  UNL     1      -2.920   5.108  14.321  1.00  0.00     0.240 C 
HETATM    4  C9  UNL     1      -1.517   5.156  13.811  1.00  0.00     0.055 C 
HETATM    5  C10 UNL     1      -1.650   4.643  12.404  1.00  0.00     0.112 C 
HETATM    6  C17 UNL     1      -2.716   3.609  12.538  1.00  0.00     0.263 C 
ENDROOT
BRANCH   2   7
HETATM    7  C2  UNL     1      -4.483   3.299  14.102  1.00  0.00     0.154 C 
HETATM    8  C4  UNL     1      -5.429   3.960  15.053  1.00  0.00     0.054 C 
HETATM    9  C5  UNL     1      -6.466   3.011  15.608  1.00  0.00     0.111 C 
HETATM   10  S1  UNL     1      -5.568   1.810  16.556  1.00  0.00     0.015 S 
HETATM   11  O1  UNL     1      -5.991   0.252  16.230  1.00  0.00    -0.258 OA
HETATM   12  C6  UNL     1      -3.863   2.172  16.282  1.00  0.00     0.111 C 
HETATM   13  C7  UNL     1      -3.503   2.422  14.868  1.00  0.00     0.054 C 
BRANCH   7  14
HETATM   14  C3  UNL     1      -5.168   2.404  13.109  1.00  0.00     0.268 C 
BRANCH  14  15
HETATM   15  N2  UNL     1      -4.638   1.096  12.969  1.00  0.00    -0.077 N 
ATOM     16  H23 UNL     1      -4.994   0.671  12.112  1.00  0.00     0.274 HD
ATOM     17  H22 UNL     1      -3.643   1.150  12.749  1.00  0.00     0.274 HD
ATOM     18  H21 UNL     1      -4.783   0.461  13.753  1.00  0.00     0.274 HD
ENDBRANCH  14  15
ENDBRANCH   7  14
ENDBRANCH   2   7
BRANCH   5  19
HETATM   19  N3  UNL     1      -0.412   4.136  11.872  1.00  0.00    -0.351 N 
HETATM   20  C11 UNL     1       0.032   4.456  10.560  1.00  0.00     0.242 C 
HETATM   21  O2  UNL     1      -0.705   5.210   9.871  1.00  0.00    -0.269 OA
ATOM     22  H3  UNL     1       0.165   3.529  12.455  1.00  0.00     0.163 HD
BRANCH  20  23
HETATM   23  C12 UNL     1       1.279   3.954  10.003  1.00  0.00     0.083 C 
HETATM   24  C13 UNL     1       1.787   4.389   8.865  1.00  0.00     0.070 C 
BRANCH  24  25
HETATM   25  C14 UNL     1       3.014   3.871   8.354  1.00  0.00    -0.077 C 
HETATM   26  C15 UNL     1       4.043   3.420   7.907  1.00  0.00    -0.087 C 
BRANCH  26  27
HETATM   27  C16 UNL     1       5.284   2.868   7.343  1.00  0.00     0.208 C 
HETATM   28 CL1  UNL     1       5.743   1.350   8.151  1.00  0.00    -0.117 Cl
ENDBRANCH  26  27
ENDBRANCH  24  25
ENDBRANCH  20  23
ENDBRANCH   5  19
TORSDOF 7
ENDMDL
MODEL 4
REMARK VINA RESULT: -6.010039028      2.415      3.130
REMARK  7 active torsions:
REMARK  status: ('A' for Active; 'I' for Inactive)
REMARK    1  A    between atoms: N1_2  and  C2_3 
REMARK    2  A    between atoms: C2_3  and  C3_4 
REMARK    3  A    between atoms: C3_4  and  N2_5 
REMARK    4  A    between atoms: C10_17  and  N3_18 
REMARK       I    between atoms: N3_18  and  C11_20 
REMARK    5  A    between atoms: C11_20  and  C12_22 
REMARK    6  A    between atoms: C13_23  and  C14_24 
REMARK    7  A    between atoms: C15_25  and  C16_26 
ROOT
HETATM    1  C1  UNL     1      -2.444   4.718  12.102  1.00  0.00     0.273 C 
HETATM    2  N1  UNL     1      -3.142   3.855  11.210  1.00  0.00    -0.058 N 
HETATM    3  C8  UNL     1      -2.517   3.978   9.894  1.00  0.00     0.240 C 
HETATM    4  C9  UNL     1      -3.346   4.917   9.081  1.00  0.00     0.055 C 
HETATM    5  C10 UNL     1      -4.220   5.575  10.111  1.00  0.00     0.112 C 
HETATM    6  C17 UNL     1      -4.475   4.466  11.074  1.00  0.00     0.263 C 
ENDROOT
BRANCH   2   7
HETATM    7  C2  UNL     1      -3.279   2.479  11.608  1.00  0.00     0.154 C 
HETATM    8  C4  UNL     1      -2.412   1.599  10.764  1.00  0.00     0.054 C 
HETATM    9  C5  UNL     1      -2.292   0.194  11.308  1.00  0.00     0.111 C 
HETATM   10  S1  UNL     1      -3.924  -0.497  11.230  1.00  0.00     0.015 S 
HETATM   11  O1  UNL     1      -4.403  -1.235  12.622  1.00  0.00    -0.258 OA
HETATM   12  C6  UNL     1      -4.973   0.824  10.711  1.00  0.00     0.111 C 
HETATM   13  C7  UNL     1      -4.742   2.108  11.412  1.00  0.00     0.054 C 
BRANCH   7  14
HETATM   14  C3  UNL     1      -3.001   2.352  13.078  1.00  0.00     0.268 C 
BRANCH  14  15
HETATM   15  N2  UNL     1      -4.061   1.856  13.880  1.00  0.00    -0.077 N 
ATOM     16  H23 UNL     1      -3.747   1.763  14.845  1.00  0.00     0.274 HD
ATOM     17  H22 UNL     1      -4.777   2.575  13.987  1.00  0.00     0.274 HD
ATOM     18  H21 UNL     1      -4.492   0.985  13.573  1.00  0.00     0.274 HD
ENDBRANCH  14  15
ENDBRANCH   7  14
ENDBRANCH   2   7
BRANCH   5  19
HETATM   19  N3  UNL     1      -5.418   6.144   9.550  1.00  0.00    -0.351 N 
HETATM   20  C11 UNL     1      -6.164   7.147  10.227  1.00  0.00     0.242 C 
HETATM   21  O2  UNL     1      -5.734   7.527  11.349  1.00  0.00    -0.269 OA
ATOM     22  H3  UNL     1      -5.741   5.818   8.640  1.00  0.00     0.163 HD
BRANCH  20  23
HETATM   23  C12 UNL     1      -7.377   7.736   9.679  1.00  0.00     0.083 C 
HETATM   24  C13 UNL     1      -7.469   8.173   8.437  1.00  0.00     0.070 C 
BRANCH  24  25
HETATM   25  C14 UNL     1      -8.678   8.744   7.939  1.00  0.00    -0.077 C 
HETATM   26  C15 UNL     1      -9.691   9.244   7.509  1.00  0.00    -0.087 C 
BRANCH  26  27
HETATM   27  C16 UNL     1     -10.911   9.864   6.971  1.00  0.00     0.208 C 
HETATM   28 CL1  UNL     1     -11.139  11.508   7.614  1.00  0.00    -0.117 Cl
ENDBRANCH  26  27
ENDBRANCH  24  25
ENDBRANCH  20  23
ENDBRANCH   5  19
TORSDOF 7
ENDMDL
MODEL 5
REMARK VINA RESULT: -5.986852123      2.291      2.797
REMARK  7 active torsions:
REMARK  status: ('A' for Active; 'I' for Inactive)
REMARK    1  A    between atoms: N1_2  and  C2_3 
REMARK    2  A    between atoms: C2_3  and  C3_4 
REMARK    3  A    between atoms: C3_4  and  N2_5 
REMARK    4  A    between atoms: C10_17  and  N3_18 
REMARK       I    between atoms: N3_18  and  C11_20 
REMARK    5  A    between atoms: C11_20  and  C12_22 
REMARK    6  A    between atoms: C13_23  and  C14_24 
REMARK    7  A    between atoms: C15_25  and  C16_26 
ROOT
HETATM    1  C1  UNL     1      -4.099   4.110  13.462  1.00  0.00     0.273 C 
HETATM    2  N1  UNL     1      -3.728   3.852  12.111  1.00  0.00    -0.058 N 
HETATM    3  C8  UNL     1      -2.515   4.619  11.830  1.00  0.00     0.240 C 
HETATM    4  C9  UNL     1      -2.919   5.867  11.116  1.00  0.00     0.055 C 
HETATM    5  C10 UNL     1      -4.403   5.924  11.347  1.00  0.00     0.112 C 
HETATM    6  C17 UNL     1      -4.791   4.485  11.311  1.00  0.00     0.263 C 
ENDROOT
BRANCH   2   7
HETATM    7  C2  UNL     1      -3.588   2.473  11.725  1.00  0.00     0.154 C 
HETATM    8  C4  UNL     1      -4.797   2.012  10.975  1.00  0.00     0.054 C 
HETATM    9  C5  UNL     1      -4.598   0.673  10.303  1.00  0.00     0.111 C 
HETATM   10  S1  UNL     1      -4.351  -0.497  11.614  1.00  0.00     0.015 S 
HETATM   11  O1  UNL     1      -3.055  -1.487  11.388  1.00  0.00    -0.258 OA
HETATM   12  C6  UNL     1      -4.284   0.461  13.095  1.00  0.00     0.111 C 
HETATM   13  C7  UNL     1      -3.435   1.671  13.010  1.00  0.00     0.054 C 
BRANCH   7  14
HETATM   14  C3  UNL     1      -2.309   2.294  10.959  1.00  0.00     0.268 C 
BRANCH  14  15
HETATM   15  N2  UNL     1      -1.381   1.363  11.489  1.00  0.00    -0.077 N 
ATOM     16  H23 UNL     1      -1.821   0.446  11.567  1.00  0.00     0.274 HD
ATOM     17  H22 UNL     1      -0.659   1.164  10.796  1.00  0.00     0.274 HD
ATOM     18  H21 UNL     1      -0.945   1.612  12.377  1.00  0.00     0.274 HD
ENDBRANCH  14  15
ENDBRANCH   7  14
ENDBRANCH   2   7
BRANCH   5  19
HETATM   19  N3  UNL     1      -5.092   6.736  10.377  1.00  0.00    -0.351 N 
HETATM   20  C11 UNL     1      -6.384   7.274  10.627  1.00  0.00     0.242 C 
HETATM   21  O2  UNL     1      -6.911   7.015  11.741  1.00  0.00    -0.269 OA
ATOM     22  H3  UNL     1      -4.638   6.930   9.485  1.00  0.00     0.163 HD
BRANCH  20  23
HETATM   23  C12 UNL     1      -7.097   8.097   9.661  1.00  0.00     0.083 C 
HETATM   24  C13 UNL     1      -8.118   7.656   8.952  1.00  0.00     0.070 C 
BRANCH  24  25
HETATM   25  C14 UNL     1      -8.791   8.496   8.016  1.00  0.00    -0.077 C 
HETATM   26  C15 UNL     1      -9.367   9.219   7.238  1.00  0.00    -0.087 C 
BRANCH  26  27
HETATM   27  C16 UNL     1     -10.069  10.116   6.307  1.00  0.00     0.208 C 
HETATM   28 CL1  UNL     1     -10.997  11.359   7.180  1.00  0.00    -0.117 Cl
ENDBRANCH  26  27
ENDBRANCH  24  25
ENDBRANCH  20  23
ENDBRANCH   5  19
TORSDOF 7
ENDMDL
