MODEL 1
REMARK VINA RESULT: -11.234086647      0.000      0.000
REMARK  12 active torsions:
REMARK  status: ('A' for Active; 'I' for Inactive)
REMARK    1  A    between atoms: N1_1  and  C1_4 
REMARK       I    between atoms: N3_12  and  C5_13 
REMARK    2  A    between atoms: C5_13  and  C6_15 
REMARK    3  A    between atoms: C6_15  and  O4_16 
REMARK    4  A    between atoms: O4_16  and  C7_17 
REMARK    5  A    between atoms: C8_20  and  N5_21 
REMARK    6  A    between atoms: N5_21  and  C9_23 
REMARK    7  A    between atoms: C11_25  and  O5_26 
REMARK    8  A    between atoms: C12_28  and  N6_29 
REMARK    9  A    between atoms: C14_31  and  C15_32 
REMARK   10  A    between atoms: C19_43  and  N9_44 
REMARK   11  A    between atoms: N9_44  and  C20_46 
REMARK   12  A    between atoms: C20_46  and  C21_47 
ROOT
HETATM    1  C7  UNL     1      16.719 -11.587  -8.248  1.00  0.00     0.252 A 
HETATM    2  N4  UNL     1      16.344 -10.383  -8.674  1.00  0.00    -0.154 N 
ATOM      3  H4  UNL     1      17.002  -9.810  -9.202  1.00  0.00     0.188 HD
HETATM    4  C8  UNL     1      15.084  -9.903  -8.414  1.00  0.00     0.696 A 
HETATM    5  N8  UNL     1      14.208 -10.640  -7.724  1.00  0.00    -0.022 N 
ATOM      6  H8  UNL     1      13.273 -10.281  -7.531  1.00  0.00     0.203 HD
HETATM    7  C19 UNL     1      14.576 -11.877  -7.278  1.00  0.00     0.696 A 
HETATM    8  N11 UNL     1      15.814 -12.325  -7.545  1.00  0.00    -0.154 N 
ATOM      9  H11 UNL     1      16.086 -13.249  -7.211  1.00  0.00     0.188 HD
ENDROOT
BRANCH   1  10
HETATM   10  O4  UNL     1      17.959 -12.121  -8.477  1.00  0.00    -0.312 OA
BRANCH  10  11
HETATM   11  C6  UNL     1      18.401 -12.733  -9.646  1.00  0.00     0.282 C 
BRANCH  11  12
HETATM   12  C5  UNL     1      19.118 -11.816 -10.552  1.00  0.00     0.256 C 
HETATM   13  N3  UNL     1      20.401 -12.077 -11.110  1.00  0.00    -0.242 N 
HETATM   14  C4  UNL     1      21.106 -13.192 -10.887  1.00  0.00     0.275 A 
HETATM   15  C22 UNL     1      20.996 -11.168 -11.939  1.00  0.00     0.196 A 
HETATM   16  C3  UNL     1      22.360 -13.423 -11.454  1.00  0.00     0.145 A 
HETATM   17  O2  UNL     1      20.654 -14.088 -10.146  1.00  0.00    -0.266 OA
HETATM   18  C2  UNL     1      23.072 -14.571 -11.216  1.00  0.00     0.279 A 
HETATM   19  C23 UNL     1      22.906 -12.469 -12.281  1.00  0.00     0.143 A 
HETATM   20  N2  UNL     1      24.296 -14.791 -11.773  1.00  0.00    -0.155 N 
HETATM   21  O1  UNL     1      22.568 -15.435 -10.463  1.00  0.00    -0.266 OA
HETATM   22  C1  UNL     1      24.806 -13.841 -12.578  1.00  0.00     0.680 A 
ATOM     23  H2  UNL     1      24.812 -15.650 -11.585  1.00  0.00     0.187 HD
HETATM   24  N13 UNL     1      24.122 -12.699 -12.828  1.00  0.00    -0.176 N 
ATOM     25  H13 UNL     1      24.533 -11.997 -13.444  1.00  0.00     0.186 HD
HETATM   26  N12 UNL     1      22.201 -11.366 -12.497  1.00  0.00    -0.337 N 
ATOM     27  H12 UNL     1      22.586 -10.645 -13.108  1.00  0.00     0.168 HD
HETATM   28  O3  UNL     1      18.559 -10.706 -10.869  1.00  0.00    -0.270 OA
BRANCH  22  29
HETATM   29  N1  UNL     1      25.969 -14.053 -13.106  1.00  0.00    -0.234 N 
ATOM     30  H12 UNL     1      26.377 -14.987 -13.121  1.00  0.00     0.174 HD
ATOM     31  H11 UNL     1      26.464 -13.255 -13.506  1.00  0.00     0.174 HD
ENDBRANCH  22  29
ENDBRANCH  11  12
ENDBRANCH  10  11
ENDBRANCH   1  10
BRANCH   4  32
HETATM   32  N5  UNL     1      14.745  -8.736  -8.832  1.00  0.00    -0.221 N 
ATOM     33  H5  UNL     1      13.750  -8.530  -8.916  1.00  0.00     0.178 HD
BRANCH  32  34
HETATM   34  C9  UNL     1      15.662  -7.718  -9.183  1.00  0.00     0.103 C 
HETATM   35  C10 UNL     1      15.030  -6.335  -9.294  1.00  0.00     0.059 C 
HETATM   36  C11 UNL     1      16.000  -5.570 -10.193  1.00  0.00     0.143 C 
HETATM   37  C12 UNL     1      16.902  -6.621 -10.826  1.00  0.00     0.124 C 
HETATM   38  C18 UNL     1      16.134  -7.891 -10.647  1.00  0.00     0.054 C 
BRANCH  36  39
HETATM   39  O5  UNL     1      16.733  -4.688  -9.392  1.00  0.00    -0.393 OA
ATOM     40  H5  UNL     1      16.232  -3.887  -9.297  1.00  0.00     0.210 HD
ENDBRANCH  36  39
BRANCH  37  41
HETATM   41  N6  UNL     1      17.219  -6.263 -12.169  1.00  0.00    -0.301 N 
HETATM   42  C13 UNL     1      16.654  -6.996 -13.164  1.00  0.00     0.116 A 
HETATM   43  C14 UNL     1      16.932  -6.679 -14.471  1.00  0.00     0.085 A 
HETATM   44  C16 UNL     1      17.779  -5.625 -14.777  1.00  0.00     0.264 A 
HETATM   45  O7  UNL     1      18.050  -5.314 -15.967  1.00  0.00    -0.267 OA
HETATM   46  N7  UNL     1      18.297  -4.952 -13.754  1.00  0.00    -0.275 N 
HETATM   47  C17 UNL     1      18.028  -5.257 -12.455  1.00  0.00     0.329 A 
ATOM     48  H7  UNL     1      18.925  -4.171 -13.951  1.00  0.00     0.173 HD
HETATM   49  O8  UNL     1      18.594  -4.528 -11.609  1.00  0.00    -0.246 OA
BRANCH  43  50
HETATM   50  C15 UNL     1      16.331  -7.458 -15.531  1.00  0.00     0.277 C 
HETATM   51  O6  UNL     1      15.252  -7.091 -16.097  1.00  0.00    -0.301 OA
ENDBRANCH  43  50
ENDBRANCH  37  41
ENDBRANCH  32  34
ENDBRANCH   4  32
BRANCH   7  52
HETATM   52  N9  UNL     1      13.701 -12.550  -6.615  1.00  0.00    -0.217 N 
ATOM     53  H9  UNL     1      12.830 -12.110  -6.315  1.00  0.00     0.178 HD
BRANCH  52  54
HETATM   54  C20 UNL     1      13.968 -13.933  -6.302  1.00  0.00     0.237 C 
BRANCH  54  55
HETATM   55  C21 UNL     1      14.750 -14.041  -5.049  1.00  0.00     0.249 C 
HETATM   56  N10 UNL     1      16.111 -14.417  -5.065  1.00  0.00    -0.061 NA
HETATM   57  O9  UNL     1      14.194 -13.793  -3.960  1.00  0.00    -0.275 OA
ENDBRANCH  54  55
ENDBRANCH  52  54
ENDBRANCH   7  52
TORSDOF 12
ENDMDL
MODEL 2
REMARK VINA RESULT: -11.028636462      2.601     10.212
REMARK  12 active torsions:
REMARK  status: ('A' for Active; 'I' for Inactive)
REMARK    1  A    between atoms: N1_1  and  C1_4 
REMARK       I    between atoms: N3_12  and  C5_13 
REMARK    2  A    between atoms: C5_13  and  C6_15 
REMARK    3  A    between atoms: C6_15  and  O4_16 
REMARK    4  A    between atoms: O4_16  and  C7_17 
REMARK    5  A    between atoms: C8_20  and  N5_21 
REMARK    6  A    between atoms: N5_21  and  C9_23 
REMARK    7  A    between atoms: C11_25  and  O5_26 
REMARK    8  A    between atoms: C12_28  and  N6_29 
REMARK    9  A    between atoms: C14_31  and  C15_32 
REMARK   10  A    between atoms: C19_43  and  N9_44 
REMARK   11  A    between atoms: N9_44  and  C20_46 
REMARK   12  A    between atoms: C20_46  and  C21_47 
ROOT
HETATM    1  C7  UNL     1      20.242  -9.464 -12.389  1.00  0.00     0.252 A 
HETATM    2  N4  UNL     1      19.687 -10.560 -11.878  1.00  0.00    -0.154 N 
ATOM      3  H4  UNL     1      18.679 -10.588 -11.723  1.00  0.00     0.188 HD
HETATM    4  C8  UNL     1      20.452 -11.655 -11.556  1.00  0.00     0.696 A 
HETATM    5  N8  UNL     1      21.774 -11.636 -11.752  1.00  0.00    -0.022 N 
ATOM      6  H8  UNL     1      22.341 -12.450 -11.512  1.00  0.00     0.203 HD
HETATM    7  C19 UNL     1      22.361 -10.520 -12.275  1.00  0.00     0.696 A 
HETATM    8  N11 UNL     1      21.590  -9.462 -12.582  1.00  0.00    -0.154 N 
ATOM      9  H11 UNL     1      22.031  -8.630 -12.972  1.00  0.00     0.188 HD
ENDROOT
BRANCH   1  10
HETATM   10  O4  UNL     1      19.532  -8.343 -12.731  1.00  0.00    -0.312 OA
BRANCH  10  11
HETATM   11  C6  UNL     1      18.629  -7.651 -11.930  1.00  0.00     0.282 C 
BRANCH  11  12
HETATM   12  C5  UNL     1      17.225  -8.052 -12.150  1.00  0.00     0.256 C 
HETATM   13  N3  UNL     1      16.105  -7.431 -11.530  1.00  0.00    -0.242 N 
HETATM   14  C4  UNL     1      16.190  -6.400 -10.681  1.00  0.00     0.275 A 
HETATM   15  C22 UNL     1      14.837  -7.870 -11.787  1.00  0.00     0.196 A 
HETATM   16  C3  UNL     1      15.072  -5.806 -10.094  1.00  0.00     0.145 A 
HETATM   17  O2  UNL     1      17.302  -5.921 -10.379  1.00  0.00    -0.266 OA
HETATM   18  C2  UNL     1      15.176  -4.750  -9.224  1.00  0.00     0.279 A 
HETATM   19  C23 UNL     1      13.822  -6.294 -10.393  1.00  0.00     0.143 A 
HETATM   20  N2  UNL     1      14.079  -4.175  -8.654  1.00  0.00    -0.155 N 
HETATM   21  O1  UNL     1      16.317  -4.311  -8.957  1.00  0.00    -0.266 OA
HETATM   22  C1  UNL     1      12.869  -4.672  -8.965  1.00  0.00     0.680 A 
ATOM     23  H2  UNL     1      14.174  -3.390  -8.010  1.00  0.00     0.187 HD
HETATM   24  N13 UNL     1      12.741  -5.714  -9.820  1.00  0.00    -0.176 N 
ATOM     25  H13 UNL     1      11.810  -6.069 -10.038  1.00  0.00     0.186 HD
HETATM   26  N12 UNL     1      13.745  -7.317 -11.236  1.00  0.00    -0.337 N 
ATOM     27  H12 UNL     1      12.827  -7.694 -11.472  1.00  0.00     0.168 HD
HETATM   28  O3  UNL     1      16.984  -9.024 -12.953  1.00  0.00    -0.270 OA
BRANCH  22  29
HETATM   29  N1  UNL     1      11.829  -4.123  -8.422  1.00  0.00    -0.234 N 
ATOM     30  H12 UNL     1      11.282  -3.424  -8.923  1.00  0.00     0.174 HD
ATOM     31  H11 UNL     1      11.576  -4.410  -7.476  1.00  0.00     0.174 HD
ENDBRANCH  22  29
ENDBRANCH  11  12
ENDBRANCH  10  11
ENDBRANCH   1  10
BRANCH   4  32
HETATM   32  N5  UNL     1      19.895 -12.701 -11.060  1.00  0.00    -0.221 N 
ATOM     33  H5  UNL     1      19.743 -13.498 -11.677  1.00  0.00     0.178 HD
BRANCH  32  34
HETATM   34  C9  UNL     1      19.480 -12.820  -9.714  1.00  0.00     0.103 C 
HETATM   35  C10 UNL     1      19.281 -14.261  -9.258  1.00  0.00     0.059 C 
HETATM   36  C11 UNL     1      18.336 -14.131  -8.065  1.00  0.00     0.143 C 
HETATM   37  C12 UNL     1      17.771 -12.719  -8.129  1.00  0.00     0.124 C 
HETATM   38  C18 UNL     1      18.030 -12.306  -9.543  1.00  0.00     0.054 C 
BRANCH  36  39
HETATM   39  O5  UNL     1      19.079 -14.327  -6.896  1.00  0.00    -0.393 OA
ATOM     40  H5  UNL     1      18.799 -13.684  -6.255  1.00  0.00     0.210 HD
ENDBRANCH  36  39
BRANCH  37  41
HETATM   41  N6  UNL     1      16.407 -12.707  -7.712  1.00  0.00    -0.301 N 
HETATM   42  C13 UNL     1      15.849 -13.895  -7.359  1.00  0.00     0.116 A 
HETATM   43  C14 UNL     1      14.539 -13.923  -6.948  1.00  0.00     0.085 A 
HETATM   44  C16 UNL     1      13.791 -12.758  -6.893  1.00  0.00     0.264 A 
HETATM   45  O7  UNL     1      12.588 -12.757  -6.520  1.00  0.00    -0.267 OA
HETATM   46  N7  UNL     1      14.401 -11.632  -7.253  1.00  0.00    -0.275 N 
HETATM   47  C17 UNL     1      15.699 -11.592  -7.661  1.00  0.00     0.329 A 
ATOM     48  H7  UNL     1      13.873 -10.759  -7.222  1.00  0.00     0.173 HD
HETATM   49  O8  UNL     1      16.126 -10.455  -7.967  1.00  0.00    -0.246 OA
BRANCH  43  50
HETATM   50  C15 UNL     1      13.943 -15.186  -6.572  1.00  0.00     0.277 C 
HETATM   51  O6  UNL     1      13.955 -15.595  -5.367  1.00  0.00    -0.301 OA
ENDBRANCH  43  50
ENDBRANCH  37  41
ENDBRANCH  32  34
ENDBRANCH   4  32
BRANCH   7  52
HETATM   52  N9  UNL     1      23.637 -10.547 -12.444  1.00  0.00    -0.217 N 
ATOM     53  H9  UNL     1      24.139 -11.434 -12.444  1.00  0.00     0.178 HD
BRANCH  52  54
HETATM   54  C20 UNL     1      24.347  -9.304 -12.631  1.00  0.00     0.237 C 
BRANCH  54  55
HETATM   55  C21 UNL     1      25.371  -9.127 -11.576  1.00  0.00     0.249 C 
HETATM   56  N10 UNL     1      26.582  -8.449 -11.836  1.00  0.00    -0.061 NA
HETATM   57  O9  UNL     1      25.157  -9.587 -10.436  1.00  0.00    -0.275 OA
ENDBRANCH  54  55
ENDBRANCH  52  54
ENDBRANCH   7  52
TORSDOF 12
ENDMDL
MODEL 3
REMARK VINA RESULT: -10.875330940      2.005      3.195
REMARK  12 active torsions:
REMARK  status: ('A' for Active; 'I' for Inactive)
REMARK    1  A    between atoms: N1_1  and  C1_4 
REMARK       I    between atoms: N3_12  and  C5_13 
REMARK    2  A    between atoms: C5_13  and  C6_15 
REMARK    3  A    between atoms: C6_15  and  O4_16 
REMARK    4  A    between atoms: O4_16  and  C7_17 
REMARK    5  A    between atoms: C8_20  and  N5_21 
REMARK    6  A    between atoms: N5_21  and  C9_23 
REMARK    7  A    between atoms: C11_25  and  O5_26 
REMARK    8  A    between atoms: C12_28  and  N6_29 
REMARK    9  A    between atoms: C14_31  and  C15_32 
REMARK   10  A    between atoms: C19_43  and  N9_44 
REMARK   11  A    between atoms: N9_44  and  C20_46 
REMARK   12  A    between atoms: C20_46  and  C21_47 
ROOT
HETATM    1  C7  UNL     1      17.165 -11.980  -8.292  1.00  0.00     0.252 A 
HETATM    2  N4  UNL     1      17.448 -10.951  -9.087  1.00  0.00    -0.154 N 
ATOM      3  H4  UNL     1      18.329 -10.939  -9.601  1.00  0.00     0.188 HD
HETATM    4  C8  UNL     1      16.569  -9.904  -9.226  1.00  0.00     0.696 A 
HETATM    5  N8  UNL     1      15.410  -9.902  -8.560  1.00  0.00    -0.022 N 
ATOM      6  H8  UNL     1      14.759  -9.123  -8.664  1.00  0.00     0.203 HD
HETATM    7  C19 UNL     1      15.104 -10.950  -7.740  1.00  0.00     0.696 A 
HETATM    8  N11 UNL     1      15.980 -11.962  -7.622  1.00  0.00    -0.154 N 
ATOM      9  H11 UNL     1      15.748 -12.743  -7.008  1.00  0.00     0.188 HD
ENDROOT
BRANCH   1  10
HETATM   10  O4  UNL     1      17.999 -13.052  -8.115  1.00  0.00    -0.312 OA
BRANCH  10  11
HETATM   11  C6  UNL     1      18.246 -14.077  -9.023  1.00  0.00     0.282 C 
BRANCH  11  12
HETATM   12  C5  UNL     1      19.572 -14.703  -8.853  1.00  0.00     0.256 C 
HETATM   13  N3  UNL     1      20.752 -14.284  -9.528  1.00  0.00    -0.242 N 
HETATM   14  C4  UNL     1      20.804 -13.263 -10.391  1.00  0.00     0.275 A 
HETATM   15  C22 UNL     1      21.939 -14.925  -9.314  1.00  0.00     0.196 A 
HETATM   16  C3  UNL     1      21.979 -12.869 -11.033  1.00  0.00     0.145 A 
HETATM   17  O2  UNL     1      19.775 -12.609 -10.657  1.00  0.00    -0.266 OA
HETATM   18  C2  UNL     1      22.015 -11.820 -11.915  1.00  0.00     0.279 A 
HETATM   19  C23 UNL     1      23.142 -13.556 -10.775  1.00  0.00     0.143 A 
HETATM   20  N2  UNL     1      23.167 -11.442 -12.539  1.00  0.00    -0.155 N 
HETATM   21  O1  UNL     1      20.952 -11.201 -12.144  1.00  0.00    -0.266 OA
HETATM   22  C1  UNL     1      24.290 -12.130 -12.268  1.00  0.00     0.680 A 
ATOM     23  H2  UNL     1      23.177 -10.659 -13.193  1.00  0.00     0.187 HD
HETATM   24  N13 UNL     1      24.279 -13.170 -11.401  1.00  0.00    -0.176 N 
ATOM     25  H13 UNL     1      25.147 -13.673 -11.214  1.00  0.00     0.186 HD
HETATM   26  N12 UNL     1      23.084 -14.568  -9.918  1.00  0.00    -0.337 N 
ATOM     27  H12 UNL     1      23.936 -15.090  -9.712  1.00  0.00     0.168 HD
HETATM   28  O3  UNL     1      19.682 -15.693  -8.044  1.00  0.00    -0.270 OA
BRANCH  22  29
HETATM   29  N1  UNL     1      25.382 -11.768 -12.862  1.00  0.00    -0.234 N 
ATOM     30  H12 UNL     1      25.684 -10.794 -12.858  1.00  0.00     0.174 HD
ATOM     31  H11 UNL     1      25.931 -12.487 -13.334  1.00  0.00     0.174 HD
ENDBRANCH  22  29
ENDBRANCH  11  12
ENDBRANCH  10  11
ENDBRANCH   1  10
BRANCH   4  32
HETATM   32  N5  UNL     1      16.865  -8.918  -9.995  1.00  0.00    -0.221 N 
ATOM     33  H5  UNL     1      16.792  -7.976  -9.612  1.00  0.00     0.178 HD
BRANCH  32  34
HETATM   34  C9  UNL     1      17.285  -9.053 -11.338  1.00  0.00     0.103 C 
HETATM   35  C10 UNL     1      18.764  -8.752 -11.552  1.00  0.00     0.059 C 
HETATM   36  C11 UNL     1      18.847  -8.405 -13.037  1.00  0.00     0.143 C 
HETATM   37  C12 UNL     1      17.413  -8.173 -13.494  1.00  0.00     0.124 C 
HETATM   38  C18 UNL     1      16.676  -7.933 -12.216  1.00  0.00     0.054 C 
BRANCH  36  39
HETATM   39  O5  UNL     1      19.423  -9.490 -13.707  1.00  0.00    -0.393 OA
ATOM     40  H5  UNL     1      20.362  -9.352 -13.742  1.00  0.00     0.210 HD
ENDBRANCH  36  39
BRANCH  37  41
HETATM   41  N6  UNL     1      17.360  -7.120 -14.455  1.00  0.00    -0.301 N 
HETATM   42  C13 UNL     1      18.221  -6.081 -14.297  1.00  0.00     0.116 A 
HETATM   43  C14 UNL     1      18.202  -5.051 -15.204  1.00  0.00     0.085 A 
HETATM   44  C16 UNL     1      17.317  -5.066 -16.271  1.00  0.00     0.264 A 
HETATM   45  O7  UNL     1      17.280  -4.134 -17.117  1.00  0.00    -0.267 OA
HETATM   46  N7  UNL     1      16.503  -6.114 -16.365  1.00  0.00    -0.275 N 
HETATM   47  C17 UNL     1      16.514  -7.141 -15.470  1.00  0.00     0.329 A 
ATOM     48  H7  UNL     1      15.841  -6.149 -17.140  1.00  0.00     0.173 HD
HETATM   49  O8  UNL     1      15.686  -8.052 -15.698  1.00  0.00    -0.246 OA
BRANCH  43  50
HETATM   50  C15 UNL     1      19.118  -3.945 -15.038  1.00  0.00     0.277 C 
HETATM   51  O6  UNL     1      19.229  -3.334 -13.927  1.00  0.00    -0.301 OA
ENDBRANCH  43  50
ENDBRANCH  37  41
ENDBRANCH  32  34
ENDBRANCH   4  32
BRANCH   7  52
HETATM   52  N9  UNL     1      13.978 -10.903  -7.117  1.00  0.00    -0.217 N 
ATOM     53  H9  UNL     1      13.722 -10.079  -6.574  1.00  0.00     0.178 HD
BRANCH  52  54
HETATM   54  C20 UNL     1      13.083 -12.032  -7.198  1.00  0.00     0.237 C 
BRANCH  54  55
HETATM   55  C21 UNL     1      13.664 -13.206  -6.508  1.00  0.00     0.249 C 
HETATM   56  N10 UNL     1      13.919 -14.411  -7.199  1.00  0.00    -0.061 NA
HETATM   57  O9  UNL     1      13.933 -13.127  -5.292  1.00  0.00    -0.275 OA
ENDBRANCH  54  55
ENDBRANCH  52  54
ENDBRANCH   7  52
TORSDOF 12
ENDMDL
MODEL 4
REMARK VINA RESULT: -10.735749648      2.692      6.801
REMARK  12 active torsions:
REMARK  status: ('A' for Active; 'I' for Inactive)
REMARK    1  A    between atoms: N1_1  and  C1_4 
REMARK       I    between atoms: N3_12  and  C5_13 
REMARK    2  A    between atoms: C5_13  and  C6_15 
REMARK    3  A    between atoms: C6_15  and  O4_16 
REMARK    4  A    between atoms: O4_16  and  C7_17 
REMARK    5  A    between atoms: C8_20  and  N5_21 
REMARK    6  A    between atoms: N5_21  and  C9_23 
REMARK    7  A    between atoms: C11_25  and  O5_26 
REMARK    8  A    between atoms: C12_28  and  N6_29 
REMARK    9  A    between atoms: C14_31  and  C15_32 
REMARK   10  A    between atoms: C19_43  and  N9_44 
REMARK   11  A    between atoms: N9_44  and  C20_46 
REMARK   12  A    between atoms: C20_46  and  C21_47 
ROOT
HETATM    1  C7  UNL     1      15.318  -9.156  -8.692  1.00  0.00     0.252 A 
HETATM    2  N4  UNL     1      16.490  -9.699  -9.015  1.00  0.00    -0.154 N 
ATOM      3  H4  UNL     1      17.179  -9.143  -9.522  1.00  0.00     0.188 HD
HETATM    4  C8  UNL     1      16.785 -10.996  -8.674  1.00  0.00     0.696 A 
HETATM    5  N8  UNL     1      15.894 -11.740  -8.009  1.00  0.00    -0.022 N 
ATOM      6  H8  UNL     1      16.115 -12.704  -7.758  1.00  0.00     0.203 HD
HETATM    7  C19 UNL     1      14.687 -11.200  -7.670  1.00  0.00     0.696 A 
HETATM    8  N11 UNL     1      14.423  -9.928  -8.015  1.00  0.00    -0.154 N 
ATOM      9  H11 UNL     1      13.520  -9.527  -7.760  1.00  0.00     0.188 HD
ENDROOT
BRANCH   1  10
HETATM   10  O4  UNL     1      14.968  -7.869  -9.002  1.00  0.00    -0.312 OA
BRANCH  10  11
HETATM   11  C6  UNL     1      15.270  -7.180 -10.172  1.00  0.00     0.282 C 
BRANCH  11  12
HETATM   12  C5  UNL     1      16.390  -6.231 -10.020  1.00  0.00     0.256 C 
HETATM   13  N3  UNL     1      17.117  -5.664 -11.104  1.00  0.00    -0.242 N 
HETATM   14  C4  UNL     1      16.863  -5.915 -12.394  1.00  0.00     0.275 A 
HETATM   15  C22 UNL     1      18.145  -4.795 -10.872  1.00  0.00     0.196 A 
HETATM   16  C3  UNL     1      17.588  -5.337 -13.437  1.00  0.00     0.145 A 
HETATM   17  O2  UNL     1      15.943  -6.694 -12.716  1.00  0.00    -0.266 OA
HETATM   18  C2  UNL     1      17.316  -5.605 -14.754  1.00  0.00     0.279 A 
HETATM   19  C23 UNL     1      18.612  -4.470 -13.138  1.00  0.00     0.143 A 
HETATM   20  N2  UNL     1      18.029  -5.038 -15.768  1.00  0.00    -0.155 N 
HETATM   21  O1  UNL     1      16.382  -6.396 -15.018  1.00  0.00    -0.266 OA
HETATM   22  C1  UNL     1      19.025  -4.193 -15.447  1.00  0.00     0.680 A 
ATOM     23  H2  UNL     1      17.814  -5.248 -16.743  1.00  0.00     0.187 HD
HETATM   24  N13 UNL     1      19.312  -3.913 -14.154  1.00  0.00    -0.176 N 
ATOM     25  H13 UNL     1      20.073  -3.267 -13.940  1.00  0.00     0.186 HD
HETATM   26  N12 UNL     1      18.858  -4.226 -11.857  1.00  0.00    -0.337 N 
ATOM     27  H12 UNL     1      19.613  -3.584 -11.613  1.00  0.00     0.168 HD
HETATM   28  O3  UNL     1      16.743  -5.884  -8.836  1.00  0.00    -0.270 OA
BRANCH  22  29
HETATM   29  N1  UNL     1      19.700  -3.655 -16.413  1.00  0.00    -0.234 N 
ATOM     30  H12 UNL     1      19.745  -4.095 -17.331  1.00  0.00     0.174 HD
ATOM     31  H11 UNL     1      20.185  -2.777 -16.225  1.00  0.00     0.174 HD
ENDBRANCH  22  29
ENDBRANCH  11  12
ENDBRANCH  10  11
ENDBRANCH   1  10
BRANCH   4  32
HETATM   32  N5  UNL     1      17.920 -11.501  -9.000  1.00  0.00    -0.221 N 
ATOM     33  H5  UNL     1      18.489 -11.911  -8.260  1.00  0.00     0.178 HD
BRANCH  32  34
HETATM   34  C9  UNL     1      18.433 -11.526 -10.317  1.00  0.00     0.103 C 
HETATM   35  C10 UNL     1      19.835 -12.115 -10.419  1.00  0.00     0.059 C 
HETATM   36  C11 UNL     1      20.373 -11.535 -11.726  1.00  0.00     0.143 C 
HETATM   37  C12 UNL     1      19.431 -10.398 -12.098  1.00  0.00     0.124 C 
HETATM   38  C18 UNL     1      18.733 -10.090 -10.813  1.00  0.00     0.054 C 
BRANCH  36  39
HETATM   39  O5  UNL     1      20.354 -12.546 -12.693  1.00  0.00    -0.393 OA
ATOM     40  H5  UNL     1      21.145 -12.473 -13.214  1.00  0.00     0.210 HD
ENDBRANCH  36  39
BRANCH  37  41
HETATM   41  N6  UNL     1      20.157  -9.323 -12.691  1.00  0.00    -0.301 N 
HETATM   42  C13 UNL     1      21.448  -9.149 -12.305  1.00  0.00     0.116 A 
HETATM   43  C14 UNL     1      22.180  -8.126 -12.856  1.00  0.00     0.085 A 
HETATM   44  C16 UNL     1      21.614  -7.279 -13.796  1.00  0.00     0.264 A 
HETATM   45  O7  UNL     1      22.263  -6.335 -14.317  1.00  0.00    -0.267 OA
HETATM   46  N7  UNL     1      20.346  -7.508 -14.128  1.00  0.00    -0.275 N 
HETATM   47  C17 UNL     1      19.611  -8.519 -13.587  1.00  0.00     0.329 A 
ATOM     48  H7  UNL     1      19.905  -6.899 -14.817  1.00  0.00     0.173 HD
HETATM   49  O8  UNL     1      18.433  -8.601 -14.004  1.00  0.00    -0.246 OA
BRANCH  43  50
HETATM   50  C15 UNL     1      23.554  -7.939 -12.446  1.00  0.00     0.277 C 
HETATM   51  O6  UNL     1      24.200  -8.855 -11.845  1.00  0.00    -0.301 OA
ENDBRANCH  43  50
ENDBRANCH  37  41
ENDBRANCH  32  34
ENDBRANCH   4  32
BRANCH   7  52
HETATM   52  N9  UNL     1      13.860 -11.954  -7.033  1.00  0.00    -0.217 N 
ATOM     53  H9  UNL     1      13.073 -11.546  -6.529  1.00  0.00     0.178 HD
BRANCH  52  54
HETATM   54  C20 UNL     1      14.063 -13.382  -7.042  1.00  0.00     0.237 C 
BRANCH  54  55
HETATM   55  C21 UNL     1      14.612 -13.837  -5.745  1.00  0.00     0.249 C 
HETATM   56  N10 UNL     1      15.982 -13.690  -5.436  1.00  0.00    -0.061 NA
HETATM   57  O9  UNL     1      13.847 -14.361  -4.909  1.00  0.00    -0.275 OA
ENDBRANCH  54  55
ENDBRANCH  52  54
ENDBRANCH   7  52
TORSDOF 12
ENDMDL
MODEL 5
REMARK VINA RESULT: -10.653670897      5.885     10.740
REMARK  12 active torsions:
REMARK  status: ('A' for Active; 'I' for Inactive)
REMARK    1  A    between atoms: N1_1  and  C1_4 
REMARK       I    between atoms: N3_12  and  C5_13 
REMARK    2  A    between atoms: C5_13  and  C6_15 
REMARK    3  A    between atoms: C6_15  and  O4_16 
REMARK    4  A    between atoms: O4_16  and  C7_17 
REMARK    5  A    between atoms: C8_20  and  N5_21 
REMARK    6  A    between atoms: N5_21  and  C9_23 
REMARK    7  A    between atoms: C11_25  and  O5_26 
REMARK    8  A    between atoms: C12_28  and  N6_29 
REMARK    9  A    between atoms: C14_31  and  C15_32 
REMARK   10  A    between atoms: C19_43  and  N9_44 
REMARK   11  A    between atoms: N9_44  and  C20_46 
REMARK   12  A    between atoms: C20_46  and  C21_47 
ROOT
HETATM    1  C7  UNL     1      18.630  -6.456 -14.387  1.00  0.00     0.252 A 
HETATM    2  N4  UNL     1      19.718  -5.748 -14.094  1.00  0.00    -0.154 N 
ATOM      3  H4  UNL     1      20.448  -6.163 -13.516  1.00  0.00     0.188 HD
HETATM    4  C8  UNL     1      19.872  -4.465 -14.561  1.00  0.00     0.696 A 
HETATM    5  N8  UNL     1      18.926  -3.903 -15.320  1.00  0.00    -0.022 N 
ATOM      6  H8  UNL     1      19.042  -2.950 -15.665  1.00  0.00     0.203 HD
HETATM    7  C19 UNL     1      17.802  -4.615 -15.629  1.00  0.00     0.696 A 
HETATM    8  N11 UNL     1      17.675  -5.868 -15.161  1.00  0.00    -0.154 N 
ATOM      9  H11 UNL     1      16.835  -6.397 -15.394  1.00  0.00     0.188 HD
ENDROOT
BRANCH   1  10
HETATM   10  O4  UNL     1      18.420  -7.738 -13.953  1.00  0.00    -0.312 OA
BRANCH  10  11
HETATM   11  C6  UNL     1      17.978  -8.132 -12.694  1.00  0.00     0.282 C 
BRANCH  11  12
HETATM   12  C5  UNL     1      16.518  -8.332 -12.624  1.00  0.00     0.256 C 
HETATM   13  N3  UNL     1      15.638  -7.559 -11.815  1.00  0.00    -0.242 N 
HETATM   14  C4  UNL     1      16.029  -6.549 -11.030  1.00  0.00     0.275 A 
HETATM   15  C22 UNL     1      14.296  -7.817 -11.807  1.00  0.00     0.196 A 
HETATM   16  C3  UNL     1      15.142  -5.803 -10.254  1.00  0.00     0.145 A 
HETATM   17  O2  UNL     1      17.234  -6.230 -10.965  1.00  0.00    -0.266 OA
HETATM   18  C2  UNL     1      15.558  -4.770  -9.453  1.00  0.00     0.279 A 
HETATM   19  C23 UNL     1      13.802  -6.111 -10.288  1.00  0.00     0.143 A 
HETATM   20  N2  UNL     1      14.686  -4.046  -8.696  1.00  0.00    -0.155 N 
HETATM   21  O1  UNL     1      16.779  -4.495  -9.427  1.00  0.00    -0.266 OA
HETATM   22  C1  UNL     1      13.381  -4.369  -8.750  1.00  0.00     0.680 A 
ATOM     23  H2  UNL     1      15.013  -3.281  -8.107  1.00  0.00     0.187 HD
HETATM   24  N13 UNL     1      12.946  -5.384  -9.533  1.00  0.00    -0.176 N 
ATOM     25  H13 UNL     1      11.950  -5.606  -9.554  1.00  0.00     0.186 HD
HETATM   26  N12 UNL     1      13.421  -7.115 -11.069  1.00  0.00    -0.337 N 
ATOM     27  H12 UNL     1      12.432  -7.360 -11.110  1.00  0.00     0.168 HD
HETATM   28  O3  UNL     1      15.991  -9.262 -13.334  1.00  0.00    -0.270 OA
BRANCH  22  29
HETATM   29  N1  UNL     1      12.555  -3.678  -8.031  1.00  0.00    -0.234 N 
ATOM     30  H12 UNL     1      12.584  -2.659  -8.030  1.00  0.00     0.174 HD
ATOM     31  H11 UNL     1      11.875  -4.186  -7.464  1.00  0.00     0.174 HD
ENDBRANCH  22  29
ENDBRANCH  11  12
ENDBRANCH  10  11
ENDBRANCH   1  10
BRANCH   4  32
HETATM   32  N5  UNL     1      20.929  -3.798 -14.262  1.00  0.00    -0.221 N 
ATOM     33  H5  UNL     1      21.826  -4.156 -14.588  1.00  0.00     0.178 HD
BRANCH  32  34
HETATM   34  C9  UNL     1      20.931  -2.601 -13.510  1.00  0.00     0.103 C 
HETATM   35  C10 UNL     1      22.004  -1.607 -13.941  1.00  0.00     0.059 C 
HETATM   36  C11 UNL     1      22.190  -0.725 -12.708  1.00  0.00     0.143 C 
HETATM   37  C12 UNL     1      21.512  -1.462 -11.560  1.00  0.00     0.124 C 
HETATM   38  C18 UNL     1      21.408  -2.866 -12.062  1.00  0.00     0.054 C 
BRANCH  36  39
HETATM   39  O5  UNL     1      21.573   0.506 -12.954  1.00  0.00    -0.393 OA
ATOM     40  H5  UNL     1      20.777   0.548 -12.438  1.00  0.00     0.210 HD
ENDBRANCH  36  39
BRANCH  37  41
HETATM   41  N6  UNL     1      22.245  -1.281 -10.350  1.00  0.00    -0.301 N 
HETATM   42  C13 UNL     1      23.539  -0.879 -10.453  1.00  0.00     0.116 A 
HETATM   43  C14 UNL     1      24.276  -0.691  -9.309  1.00  0.00     0.085 A 
HETATM   44  C16 UNL     1      23.711  -0.907  -8.062  1.00  0.00     0.264 A 
HETATM   45  O7  UNL     1      24.364  -0.742  -6.999  1.00  0.00    -0.267 OA
HETATM   46  N7  UNL     1      22.440  -1.300  -8.036  1.00  0.00    -0.275 N 
HETATM   47  C17 UNL     1      21.701  -1.489  -9.163  1.00  0.00     0.329 A 
ATOM     48  H7  UNL     1      22.000  -1.467  -7.130  1.00  0.00     0.173 HD
HETATM   49  O8  UNL     1      20.520  -1.860  -8.969  1.00  0.00    -0.246 OA
BRANCH  43  50
HETATM   50  C15 UNL     1      25.652  -0.263  -9.418  1.00  0.00     0.277 C 
HETATM   51  O6  UNL     1      25.976   0.965  -9.336  1.00  0.00    -0.301 OA
ENDBRANCH  43  50
ENDBRANCH  37  41
ENDBRANCH  32  34
ENDBRANCH   4  32
BRANCH   7  52
HETATM   52  N9  UNL     1      16.917  -4.032 -16.360  1.00  0.00    -0.217 N 
ATOM     53  H9  UNL     1      16.443  -3.193 -16.027  1.00  0.00     0.178 HD
BRANCH  52  54
HETATM   54  C20 UNL     1      16.603  -4.583 -17.657  1.00  0.00     0.237 C 
BRANCH  54  55
HETATM   55  C21 UNL     1      15.288  -5.262 -17.629  1.00  0.00     0.249 C 
HETATM   56  N10 UNL     1      15.081  -6.429 -16.861  1.00  0.00    -0.061 NA
HETATM   57  O9  UNL     1      14.345  -4.791 -18.297  1.00  0.00    -0.275 OA
ENDBRANCH  54  55
ENDBRANCH  52  54
ENDBRANCH   7  52
TORSDOF 12
ENDMDL
