MODEL 1
REMARK VINA RESULT: -5.525692807      0.000      0.000
REMARK  5 active torsions:
REMARK  status: ('A' for Active; 'I' for Inactive)
REMARK    1  A    between atoms: C2_2  and  O1_3 
REMARK    2  A    between atoms: O1_3  and  C3_4 
REMARK    3  A    between atoms: C8_11  and  N2_12 
REMARK    4  A    between atoms: N3_14  and  C9_16 
REMARK    5  A    between atoms: N4_19  and  C12_20 
ROOT
HETATM    1  N2  UNL     1      41.149  36.729  86.580  1.00  0.00    -0.295 N 
ATOM      2  H2  UNL     1      40.469  37.420  86.900  1.00  0.00     0.187 HD
HETATM    3  N3  UNL     1      40.772  35.887  85.715  1.00  0.00    -0.293 N 
ATOM      4  H3  UNL     1      41.420  35.180  85.367  1.00  0.00     0.187 HD
ENDROOT
BRANCH   3   5
HETATM    5  C9  UNL     1      39.434  35.937  85.230  1.00  0.00     0.139 A 
HETATM    6  C10 UNL     1      39.145  36.386  83.953  1.00  0.00     0.046 A 
HETATM    7  C11 UNL     1      40.204  36.828  83.043  1.00  0.00     0.071 C 
HETATM    8  N4  UNL     1      37.868  36.423  83.523  1.00  0.00    -0.302 N 
HETATM    9  C14 UNL     1      36.890  36.018  84.357  1.00  0.00     0.329 A 
HETATM   10  O2  UNL     1      35.689  36.058  83.935  1.00  0.00    -0.246 OA
HETATM   11  N5  UNL     1      37.114  35.575  85.600  1.00  0.00    -0.273 N 
HETATM   12  C15 UNL     1      38.391  35.533  86.045  1.00  0.00     0.279 A 
ATOM     13  H5  UNL     1      36.341  35.279  86.196  1.00  0.00     0.173 HD
HETATM   14  O3  UNL     1      38.691  35.130  87.200  1.00  0.00    -0.265 OA
BRANCH   8  15
HETATM   15  C12 UNL     1      37.528  36.887  82.194  1.00  0.00     0.129 C 
HETATM   16  C13 UNL     1      37.500  35.698  81.272  1.00  0.00     0.027 C 
ENDBRANCH   8  15
ENDBRANCH   3   5
BRANCH   1  17
HETATM   17  C8  UNL     1      42.445  36.776  87.131  1.00  0.00     0.107 A 
HETATM   18  C3  UNL     1      43.397  35.798  86.920  1.00  0.00     0.172 A 
HETATM   19  N1  UNL     1      44.511  36.154  87.587  1.00  0.00    -0.338 N 
HETATM   20  C4  UNL     1      44.275  37.341  88.215  1.00  0.00     0.015 A 
ATOM     21  H1  UNL     1      45.383  35.626  87.617  1.00  0.00     0.168 HD
HETATM   22  C5  UNL     1      45.267  38.068  89.059  1.00  0.00     0.069 C 
HETATM   23  C6  UNL     1      42.991  37.766  87.955  1.00  0.00    -0.007 A 
HETATM   24  C7  UNL     1      42.285  38.981  88.410  1.00  0.00     0.052 C 
BRANCH  18  25
HETATM   25  O1  UNL     1      43.239  34.651  86.158  1.00  0.00    -0.334 OA
BRANCH  25  26
HETATM   26  C2  UNL     1      44.052  34.336  85.048  1.00  0.00     0.173 C 
HETATM   27  C1  UNL     1      43.954  35.426  84.021  1.00  0.00     0.034 C 
ENDBRANCH  25  26
ENDBRANCH  18  25
ENDBRANCH   1  17
TORSDOF 5
ENDMDL
MODEL 2
REMARK VINA RESULT: -5.514737705      2.748      6.791
REMARK  5 active torsions:
REMARK  status: ('A' for Active; 'I' for Inactive)
REMARK    1  A    between atoms: C2_2  and  O1_3 
REMARK    2  A    between atoms: O1_3  and  C3_4 
REMARK    3  A    between atoms: C8_11  and  N2_12 
REMARK    4  A    between atoms: N3_14  and  C9_16 
REMARK    5  A    between atoms: N4_19  and  C12_20 
ROOT
HETATM    1  N2  UNL     1      41.458  36.968  86.952  1.00  0.00    -0.295 N 
ATOM      2  H2  UNL     1      41.159  36.191  87.541  1.00  0.00     0.187 HD
HETATM    3  N3  UNL     1      41.946  37.987  87.522  1.00  0.00    -0.293 N 
ATOM      4  H3  UNL     1      42.257  38.787  86.970  1.00  0.00     0.187 HD
ENDROOT
BRANCH   3   5
HETATM    5  C9  UNL     1      42.056  38.006  88.942  1.00  0.00     0.139 A 
HETATM    6  C10 UNL     1      43.276  38.186  89.569  1.00  0.00     0.046 A 
HETATM    7  C11 UNL     1      44.509  38.366  88.800  1.00  0.00     0.071 C 
HETATM    8  N4  UNL     1      43.348  38.198  90.915  1.00  0.00    -0.302 N 
HETATM    9  C14 UNL     1      42.216  38.032  91.627  1.00  0.00     0.329 A 
HETATM   10  O2  UNL     1      42.301  38.047  92.898  1.00  0.00    -0.246 OA
HETATM   11  N5  UNL     1      41.012  37.855  91.072  1.00  0.00    -0.273 N 
HETATM   12  C15 UNL     1      40.924  37.841  89.722  1.00  0.00     0.279 A 
ATOM     13  H5  UNL     1      40.181  37.733  91.652  1.00  0.00     0.173 HD
HETATM   14  O3  UNL     1      39.832  37.680  89.117  1.00  0.00    -0.265 OA
BRANCH   8  15
HETATM   15  C12 UNL     1      44.607  38.383  91.606  1.00  0.00     0.129 C 
HETATM   16  C13 UNL     1      44.787  39.853  91.874  1.00  0.00     0.027 C 
ENDBRANCH   8  15
ENDBRANCH   3   5
BRANCH   1  17
HETATM   17  C8  UNL     1      41.301  36.837  85.558  1.00  0.00     0.107 A 
HETATM   18  C3  UNL     1      42.350  36.589  84.694  1.00  0.00     0.172 A 
HETATM   19  N1  UNL     1      41.852  36.524  83.446  1.00  0.00    -0.338 N 
HETATM   20  C4  UNL     1      40.505  36.727  83.509  1.00  0.00     0.015 A 
ATOM     21  H1  UNL     1      42.390  36.352  82.597  1.00  0.00     0.168 HD
HETATM   22  C5  UNL     1      39.589  36.730  82.332  1.00  0.00     0.069 C 
HETATM   23  C6  UNL     1      40.118  36.927  84.817  1.00  0.00    -0.007 A 
HETATM   24  C7  UNL     1      38.777  37.183  85.379  1.00  0.00     0.052 C 
BRANCH  18  25
HETATM   25  O1  UNL     1      43.682  36.435  85.046  1.00  0.00    -0.334 OA
BRANCH  25  26
HETATM   26  C2  UNL     1      44.249  35.199  85.426  1.00  0.00     0.173 C 
HETATM   27  C1  UNL     1      44.729  35.277  86.846  1.00  0.00     0.034 C 
ENDBRANCH  25  26
ENDBRANCH  18  25
ENDBRANCH   1  17
TORSDOF 5
ENDMDL
MODEL 3
REMARK VINA RESULT: -5.385870308      2.932      6.759
REMARK  5 active torsions:
REMARK  status: ('A' for Active; 'I' for Inactive)
REMARK    1  A    between atoms: C2_2  and  O1_3 
REMARK    2  A    between atoms: O1_3  and  C3_4 
REMARK    3  A    between atoms: C8_11  and  N2_12 
REMARK    4  A    between atoms: N3_14  and  C9_16 
REMARK    5  A    between atoms: N4_19  and  C12_20 
ROOT
HETATM    1  N2  UNL     1      39.703  38.021  82.802  1.00  0.00    -0.295 N 
ATOM      2  H2  UNL     1      39.631  38.501  83.699  1.00  0.00     0.187 HD
HETATM    3  N3  UNL     1      40.320  36.917  82.770  1.00  0.00    -0.293 N 
ATOM      4  H3  UNL     1      40.414  36.404  81.893  1.00  0.00     0.187 HD
ENDROOT
BRANCH   3   5
HETATM    5  C9  UNL     1      40.881  36.398  83.972  1.00  0.00     0.139 A 
HETATM    6  C10 UNL     1      42.232  36.121  84.078  1.00  0.00     0.046 A 
HETATM    7  C11 UNL     1      43.147  36.352  82.957  1.00  0.00     0.071 C 
HETATM    8  N4  UNL     1      42.733  35.630  85.228  1.00  0.00    -0.302 N 
HETATM    9  C14 UNL     1      41.895  35.415  86.261  1.00  0.00     0.329 A 
HETATM   10  O2  UNL     1      42.385  34.950  87.342  1.00  0.00    -0.246 OA
HETATM   11  N5  UNL     1      40.582  35.664  86.214  1.00  0.00    -0.273 N 
HETATM   12  C15 UNL     1      40.065  36.159  85.065  1.00  0.00     0.279 A 
ATOM     13  H5  UNL     1      39.985  35.486  87.022  1.00  0.00     0.173 HD
HETATM   14  O3  UNL     1      38.841  36.422  84.933  1.00  0.00    -0.265 OA
BRANCH   8  15
HETATM   15  C12 UNL     1      44.142  35.328  85.375  1.00  0.00     0.129 C 
HETATM   16  C13 UNL     1      44.355  33.883  85.015  1.00  0.00     0.027 C 
ENDBRANCH   8  15
ENDBRANCH   3   5
BRANCH   1  17
HETATM   17  C8  UNL     1      39.108  38.631  81.679  1.00  0.00     0.107 A 
HETATM   18  C3  UNL     1      38.983  38.009  80.452  1.00  0.00     0.172 A 
HETATM   19  N1  UNL     1      38.376  38.867  79.613  1.00  0.00    -0.338 N 
HETATM   20  C4  UNL     1      38.116  40.022  80.291  1.00  0.00     0.015 A 
ATOM     21  H1  UNL     1      38.148  38.685  78.635  1.00  0.00     0.168 HD
HETATM   22  C5  UNL     1      37.450  41.220  79.705  1.00  0.00     0.069 C 
HETATM   23  C6  UNL     1      38.560  39.915  81.591  1.00  0.00    -0.007 A 
HETATM   24  C7  UNL     1      38.502  40.895  82.694  1.00  0.00     0.052 C 
BRANCH  18  25
HETATM   25  O1  UNL     1      39.406  36.727  80.137  1.00  0.00    -0.334 OA
BRANCH  25  26
HETATM   26  C2  UNL     1      40.241  36.431  79.037  1.00  0.00     0.173 C 
HETATM   27  C1  UNL     1      41.587  37.064  79.237  1.00  0.00     0.034 C 
ENDBRANCH  25  26
ENDBRANCH  18  25
ENDBRANCH   1  17
TORSDOF 5
ENDMDL
MODEL 4
REMARK VINA RESULT: -5.384280844      1.754      2.108
REMARK  5 active torsions:
REMARK  status: ('A' for Active; 'I' for Inactive)
REMARK    1  A    between atoms: C2_2  and  O1_3 
REMARK    2  A    between atoms: O1_3  and  C3_4 
REMARK    3  A    between atoms: C8_11  and  N2_12 
REMARK    4  A    between atoms: N3_14  and  C9_16 
REMARK    5  A    between atoms: N4_19  and  C12_20 
ROOT
HETATM    1  N2  UNL     1      41.869  37.125  88.148  1.00  0.00    -0.295 N 
ATOM      2  H2  UNL     1      41.012  37.261  88.684  1.00  0.00     0.187 HD
HETATM    3  N3  UNL     1      41.783  36.523  87.039  1.00  0.00    -0.293 N 
ATOM      4  H3  UNL     1      42.617  36.366  86.471  1.00  0.00     0.187 HD
ENDROOT
BRANCH   3   5
HETATM    5  C9  UNL     1      40.510  36.067  86.590  1.00  0.00     0.139 A 
HETATM    6  C10 UNL     1      39.827  36.715  85.577  1.00  0.00     0.046 A 
HETATM    7  C11 UNL     1      40.384  37.899  84.919  1.00  0.00     0.071 C 
HETATM    8  N4  UNL     1      38.624  36.260  85.175  1.00  0.00    -0.302 N 
HETATM    9  C14 UNL     1      38.108  35.171  85.778  1.00  0.00     0.329 A 
HETATM   10  O2  UNL     1      36.969  34.753  85.386  1.00  0.00    -0.246 OA
HETATM   11  N5  UNL     1      38.725  34.507  86.762  1.00  0.00    -0.273 N 
HETATM   12  C15 UNL     1      39.934  34.952  87.175  1.00  0.00     0.279 A 
ATOM     13  H5  UNL     1      38.295  33.686  87.189  1.00  0.00     0.173 HD
HETATM   14  O3  UNL     1      40.584  34.388  88.094  1.00  0.00    -0.265 OA
BRANCH   8  15
HETATM   15  C12 UNL     1      37.880  36.913  84.118  1.00  0.00     0.129 C 
HETATM   16  C13 UNL     1      38.236  36.253  82.813  1.00  0.00     0.027 C 
ENDBRANCH   8  15
ENDBRANCH   3   5
BRANCH   1  17
HETATM   17  C8  UNL     1      43.071  37.620  88.692  1.00  0.00     0.107 A 
HETATM   18  C3  UNL     1      44.319  37.320  88.180  1.00  0.00     0.172 A 
HETATM   19  N1  UNL     1      45.238  37.951  88.932  1.00  0.00    -0.338 N 
HETATM   20  C4  UNL     1      44.590  38.645  89.911  1.00  0.00     0.015 A 
ATOM     21  H1  UNL     1      46.248  37.916  88.794  1.00  0.00     0.168 HD
HETATM   22  C5  UNL     1      45.263  39.475  90.951  1.00  0.00     0.069 C 
HETATM   23  C6  UNL     1      43.229  38.464  89.796  1.00  0.00    -0.007 A 
HETATM   24  C7  UNL     1      42.129  39.007  90.618  1.00  0.00     0.052 C 
BRANCH  18  25
HETATM   25  O1  UNL     1      44.582  36.511  87.085  1.00  0.00    -0.334 OA
BRANCH  25  26
HETATM   26  C2  UNL     1      44.988  35.163  87.192  1.00  0.00     0.173 C 
HETATM   27  C1  UNL     1      45.285  34.613  85.828  1.00  0.00     0.034 C 
ENDBRANCH  25  26
ENDBRANCH  18  25
ENDBRANCH   1  17
TORSDOF 5
ENDMDL
MODEL 5
REMARK VINA RESULT: -5.382092014      2.498      6.816
REMARK  5 active torsions:
REMARK  status: ('A' for Active; 'I' for Inactive)
REMARK    1  A    between atoms: C2_2  and  O1_3 
REMARK    2  A    between atoms: O1_3  and  C3_4 
REMARK    3  A    between atoms: C8_11  and  N2_12 
REMARK    4  A    between atoms: N3_14  and  C9_16 
REMARK    5  A    between atoms: N4_19  and  C12_20 
ROOT
HETATM    1  N2  UNL     1      39.723  37.897  83.036  1.00  0.00    -0.295 N 
ATOM      2  H2  UNL     1      39.743  38.417  83.914  1.00  0.00     0.187 HD
HETATM    3  N3  UNL     1      40.333  36.790  82.991  1.00  0.00    -0.293 N 
ATOM      4  H3  UNL     1      40.337  36.238  82.132  1.00  0.00     0.187 HD
ENDROOT
BRANCH   3   5
HETATM    5  C9  UNL     1      41.012  36.321  84.152  1.00  0.00     0.139 A 
HETATM    6  C10 UNL     1      42.367  36.041  84.132  1.00  0.00     0.046 A 
HETATM    7  C11 UNL     1      43.164  36.217  82.915  1.00  0.00     0.071 C 
HETATM    8  N4  UNL     1      42.982  35.598  85.245  1.00  0.00    -0.302 N 
HETATM    9  C14 UNL     1      42.253  35.434  86.367  1.00  0.00     0.329 A 
HETATM   10  O2  UNL     1      42.850  35.015  87.413  1.00  0.00    -0.246 OA
HETATM   11  N5  UNL     1      40.942  35.689  86.442  1.00  0.00    -0.273 N 
HETATM   12  C15 UNL     1      40.312  36.135  85.331  1.00  0.00     0.279 A 
ATOM     13  H5  UNL     1      40.431  35.550  87.314  1.00  0.00     0.173 HD
HETATM   14  O3  UNL     1      39.081  36.400  85.313  1.00  0.00    -0.265 OA
BRANCH   8  15
HETATM   15  C12 UNL     1      44.398  35.295  85.262  1.00  0.00     0.129 C 
HETATM   16  C13 UNL     1      44.571  33.831  84.959  1.00  0.00     0.027 C 
ENDBRANCH   8  15
ENDBRANCH   3   5
BRANCH   1  17
HETATM   17  C8  UNL     1      39.018  38.461  81.954  1.00  0.00     0.107 A 
HETATM   18  C3  UNL     1      38.433  37.709  80.953  1.00  0.00     0.172 A 
HETATM   19  N1  UNL     1      37.849  38.556  80.086  1.00  0.00    -0.338 N 
HETATM   20  C4  UNL     1      38.056  39.831  80.525  1.00  0.00     0.015 A 
ATOM     21  H1  UNL     1      37.338  38.291  79.245  1.00  0.00     0.168 HD
HETATM   22  C5  UNL     1      37.563  41.058  79.836  1.00  0.00     0.069 C 
HETATM   23  C6  UNL     1      38.786  39.815  81.694  1.00  0.00    -0.007 A 
HETATM   24  C7  UNL     1      39.251  40.937  82.534  1.00  0.00     0.052 C 
BRANCH  18  25
HETATM   25  O1  UNL     1      38.444  36.326  80.854  1.00  0.00    -0.334 OA
BRANCH  25  26
HETATM   26  C2  UNL     1      37.303  35.522  81.065  1.00  0.00     0.173 C 
HETATM   27  C1  UNL     1      37.267  35.054  82.491  1.00  0.00     0.034 C 
ENDBRANCH  25  26
ENDBRANCH  18  25
ENDBRANCH   1  17
TORSDOF 5
ENDMDL
