MODEL 1
REMARK VINA RESULT: -6.832653776      0.000      0.000
REMARK  9 active torsions:
REMARK  status: ('A' for Active; 'I' for Inactive)
REMARK    1  A    between atoms: C3_3  and  N1_4 
REMARK    2  A    between atoms: C5_7  and  C6_8 
REMARK    3  A    between atoms: C7_9  and  C8_10 
REMARK    4  A    between atoms: C10_12  and  O2_13 
REMARK    5  A    between atoms: C12_17  and  O4_18 
REMARK    6  A    between atoms: C12_17  and  C13_20 
REMARK    7  A    between atoms: C14_21  and  C15_22 
REMARK    8  A    between atoms: C19_27  and  O6_28 
REMARK    9  A    between atoms: C19_27  and  C20_30 
ROOT
HETATM    1  C1  UNL     1      38.438  35.566  84.968  1.00  0.00     0.014 C 
HETATM    2  C2  UNL     1      39.211  34.906  85.611  1.00  0.00    -0.097 C 
HETATM    3  C3  UNL     1      40.138  34.124  86.407  1.00  0.00     0.224 C 
ENDROOT
BRANCH   3   4
HETATM    4  N1  UNL     1      41.484  34.640  86.429  1.00  0.00    -0.283 N 
HETATM    5  C4  UNL     1      41.936  35.565  87.416  1.00  0.00     0.257 C 
HETATM    6  O1  UNL     1      41.256  35.945  88.434  1.00  0.00    -0.270 OA
HETATM    7  C5  UNL     1      43.285  35.963  87.019  1.00  0.00     0.241 C 
HETATM    8  O5  UNL     1      43.730  34.937  86.233  1.00  0.00    -0.319 OA
HETATM    9  C19 UNL     1      42.621  34.402  85.600  1.00  0.00     0.255 C 
BRANCH   7  10
HETATM   10  C6  UNL     1      44.180  36.239  88.183  1.00  0.00     0.011 C 
HETATM   11  C7  UNL     1      44.216  37.362  88.830  1.00  0.00    -0.023 C 
BRANCH  11  12
HETATM   12  C8  UNL     1      45.100  37.624  89.975  1.00  0.00     0.011 C 
HETATM   13  C9  UNL     1      44.462  37.677  91.314  1.00  0.00     0.043 C 
HETATM   14  C10 UNL     1      44.284  39.102  91.804  1.00  0.00     0.148 C 
HETATM   15  C11 UNL     1      45.659  39.670  92.104  1.00  0.00     0.164 C 
HETATM   16  O3  UNL     1      45.840  40.969  91.666  1.00  0.00    -0.343 OA
HETATM   17  C17 UNL     1      46.627  39.178  91.073  1.00  0.00     0.084 C 
HETATM   18  C12 UNL     1      47.112  40.602  91.214  1.00  0.00     0.187 C 
HETATM   19  C18 UNL     1      45.988  38.837  89.752  1.00  0.00     0.021 C 
BRANCH  14  20
HETATM   20  O2  UNL     1      43.620  39.917  90.920  1.00  0.00    -0.393 OA
ATOM     21  H2  UNL     1      44.135  40.653  90.612  1.00  0.00     0.210 HD
ENDBRANCH  14  20
BRANCH  18  22
HETATM   22  O4  UNL     1      47.390  41.164  89.987  1.00  0.00    -0.362 OA
ATOM     23  H4  UNL     1      47.443  42.111  90.044  1.00  0.00     0.213 HD
ENDBRANCH  18  22
BRANCH  18  24
HETATM   24  C13 UNL     1      48.160  40.724  92.243  1.00  0.00     0.037 C 
HETATM   25  C14 UNL     1      49.358  41.180  91.896  1.00  0.00    -0.026 C 
BRANCH  25  26
HETATM   26  C15 UNL     1      50.425  41.304  92.940  1.00  0.00     0.022 C 
HETATM   27  C16 UNL     1      50.997  42.695  92.933  1.00  0.00     0.009 C 
ENDBRANCH  25  26
ENDBRANCH  18  24
ENDBRANCH  11  12
ENDBRANCH   7  10
BRANCH   9  28
HETATM   28  O6  UNL     1      42.793  32.988  85.579  1.00  0.00    -0.348 OA
ATOM     29  H6  UNL     1      41.923  32.621  85.687  1.00  0.00     0.215 HD
ENDBRANCH   9  28
BRANCH   9  30
HETATM   30  C20 UNL     1      42.528  34.889  84.186  1.00  0.00     0.063 C 
HETATM   31  C21 UNL     1      43.677  34.538  83.305  1.00  0.00     0.017 C 
HETATM   32  C22 UNL     1      42.158  36.349  84.117  1.00  0.00     0.017 C 
ENDBRANCH   9  30
ENDBRANCH   3   4
TORSDOF 9
ENDMDL
MODEL 2
REMARK VINA RESULT: -6.825904673      1.105      1.347
REMARK  9 active torsions:
REMARK  status: ('A' for Active; 'I' for Inactive)
REMARK    1  A    between atoms: C3_3  and  N1_4 
REMARK    2  A    between atoms: C5_7  and  C6_8 
REMARK    3  A    between atoms: C7_9  and  C8_10 
REMARK    4  A    between atoms: C10_12  and  O2_13 
REMARK    5  A    between atoms: C12_17  and  O4_18 
REMARK    6  A    between atoms: C12_17  and  C13_20 
REMARK    7  A    between atoms: C14_21  and  C15_22 
REMARK    8  A    between atoms: C19_27  and  O6_28 
REMARK    9  A    between atoms: C19_27  and  C20_30 
ROOT
HETATM    1  C1  UNL     1      38.935  34.130  89.213  1.00  0.00     0.014 C 
HETATM    2  C2  UNL     1      39.308  34.637  88.188  1.00  0.00    -0.097 C 
HETATM    3  C3  UNL     1      39.761  35.225  86.942  1.00  0.00     0.224 C 
ENDROOT
BRANCH   3   4
HETATM    4  N1  UNL     1      41.177  35.495  86.892  1.00  0.00    -0.283 N 
HETATM    5  C4  UNL     1      41.749  36.689  87.419  1.00  0.00     0.257 C 
HETATM    6  O1  UNL     1      41.110  37.582  88.081  1.00  0.00    -0.270 OA
HETATM    7  C5  UNL     1      43.163  36.666  87.049  1.00  0.00     0.241 C 
HETATM    8  O5  UNL     1      43.445  35.344  86.848  1.00  0.00    -0.319 OA
HETATM    9  C19 UNL     1      42.283  34.747  86.390  1.00  0.00     0.255 C 
BRANCH   7  10
HETATM   10  C6  UNL     1      44.047  37.305  88.069  1.00  0.00     0.011 C 
HETATM   11  C7  UNL     1      44.295  36.805  89.240  1.00  0.00    -0.023 C 
BRANCH  11  12
HETATM   12  C8  UNL     1      45.167  37.440  90.238  1.00  0.00     0.011 C 
HETATM   13  C9  UNL     1      44.603  37.619  91.600  1.00  0.00     0.043 C 
HETATM   14  C10 UNL     1      44.163  39.050  91.850  1.00  0.00     0.148 C 
HETATM   15  C11 UNL     1      45.407  39.916  91.925  1.00  0.00     0.164 C 
HETATM   16  O3  UNL     1      45.296  41.121  91.254  1.00  0.00    -0.343 OA
HETATM   17  C17 UNL     1      46.400  39.435  90.911  1.00  0.00     0.084 C 
HETATM   18  C12 UNL     1      46.590  40.926  90.762  1.00  0.00     0.187 C 
HETATM   19  C18 UNL     1      45.775  38.737  89.731  1.00  0.00     0.021 C 
BRANCH  14  20
HETATM   20  O2  UNL     1      43.301  39.543  90.902  1.00  0.00    -0.393 OA
ATOM     21  H2  UNL     1      42.593  40.067  91.258  1.00  0.00     0.210 HD
ENDBRANCH  14  20
BRANCH  18  22
HETATM   22  O4  UNL     1      46.683  41.291  89.436  1.00  0.00    -0.362 OA
ATOM     23  H4  UNL     1      45.833  41.271  89.010  1.00  0.00     0.213 HD
ENDBRANCH  18  22
BRANCH  18  24
HETATM   24  C13 UNL     1      47.643  41.437  91.656  1.00  0.00     0.037 C 
HETATM   25  C14 UNL     1      48.784  41.872  91.132  1.00  0.00    -0.026 C 
BRANCH  25  26
HETATM   26  C15 UNL     1      49.856  42.391  92.040  1.00  0.00     0.022 C 
HETATM   27  C16 UNL     1      50.317  41.303  92.971  1.00  0.00     0.009 C 
ENDBRANCH  25  26
ENDBRANCH  18  24
ENDBRANCH  11  12
ENDBRANCH   7  10
BRANCH   9  28
HETATM   28  O6  UNL     1      42.196  33.467  87.010  1.00  0.00    -0.348 OA
ATOM     29  H6  UNL     1      42.947  32.977  86.695  1.00  0.00     0.215 HD
ENDBRANCH   9  28
BRANCH   9  30
HETATM   30  C20 UNL     1      42.336  34.551  84.906  1.00  0.00     0.063 C 
HETATM   31  C21 UNL     1      43.667  34.178  84.350  1.00  0.00     0.017 C 
HETATM   32  C22 UNL     1      41.687  35.692  84.163  1.00  0.00     0.017 C 
ENDBRANCH   9  30
ENDBRANCH   3   4
TORSDOF 9
ENDMDL
MODEL 3
REMARK VINA RESULT: -6.614239824      1.406      2.497
REMARK  9 active torsions:
REMARK  status: ('A' for Active; 'I' for Inactive)
REMARK    1  A    between atoms: C3_3  and  N1_4 
REMARK    2  A    between atoms: C5_7  and  C6_8 
REMARK    3  A    between atoms: C7_9  and  C8_10 
REMARK    4  A    between atoms: C10_12  and  O2_13 
REMARK    5  A    between atoms: C12_17  and  O4_18 
REMARK    6  A    between atoms: C12_17  and  C13_20 
REMARK    7  A    between atoms: C14_21  and  C15_22 
REMARK    8  A    between atoms: C19_27  and  O6_28 
REMARK    9  A    between atoms: C19_27  and  C20_30 
ROOT
HETATM    1  C1  UNL     1      43.665  35.308  81.999  1.00  0.00     0.014 C 
HETATM    2  C2  UNL     1      43.075  34.981  82.995  1.00  0.00    -0.097 C 
HETATM    3  C3  UNL     1      42.344  34.598  84.187  1.00  0.00     0.224 C 
ENDROOT
BRANCH   3   4
HETATM    4  N1  UNL     1      42.397  35.566  85.254  1.00  0.00    -0.283 N 
HETATM    5  C4  UNL     1      43.138  35.350  86.452  1.00  0.00     0.257 C 
HETATM    6  O1  UNL     1      43.915  34.352  86.666  1.00  0.00    -0.270 OA
HETATM    7  C5  UNL     1      42.825  36.469  87.338  1.00  0.00     0.241 C 
HETATM    8  O5  UNL     1      42.418  37.469  86.500  1.00  0.00    -0.319 OA
HETATM    9  C19 UNL     1      41.821  36.863  85.407  1.00  0.00     0.255 C 
BRANCH   7  10
HETATM   10  C6  UNL     1      43.973  36.867  88.208  1.00  0.00     0.011 C 
HETATM   11  C7  UNL     1      43.855  37.294  89.427  1.00  0.00    -0.023 C 
BRANCH  11  12
HETATM   12  C8  UNL     1      44.990  37.683  90.276  1.00  0.00     0.011 C 
HETATM   13  C9  UNL     1      44.723  37.813  91.730  1.00  0.00     0.043 C 
HETATM   14  C10 UNL     1      44.591  39.264  92.157  1.00  0.00     0.148 C 
HETATM   15  C11 UNL     1      45.958  39.911  92.044  1.00  0.00     0.164 C 
HETATM   16  O3  UNL     1      45.938  41.179  91.491  1.00  0.00    -0.343 OA
HETATM   17  C17 UNL     1      46.652  39.382  90.826  1.00  0.00     0.084 C 
HETATM   18  C12 UNL     1      47.067  40.832  90.742  1.00  0.00     0.187 C 
HETATM   19  C18 UNL     1      45.711  38.912  89.747  1.00  0.00     0.021 C 
BRANCH  14  20
HETATM   20  O2  UNL     1      43.670  39.977  91.431  1.00  0.00    -0.393 OA
ATOM     21  H2  UNL     1      44.047  40.491  90.726  1.00  0.00     0.210 HD
ENDBRANCH  14  20
BRANCH  18  22
HETATM   22  O4  UNL     1      46.979  41.307  89.451  1.00  0.00    -0.362 OA
ATOM     23  H4  UNL     1      47.650  40.927  88.896  1.00  0.00     0.213 HD
ENDBRANCH  18  22
BRANCH  18  24
HETATM   24  C13 UNL     1      48.338  41.080  91.445  1.00  0.00     0.037 C 
HETATM   25  C14 UNL     1      49.294  41.770  90.833  1.00  0.00    -0.026 C 
BRANCH  25  26
HETATM   26  C15 UNL     1      50.586  42.022  91.546  1.00  0.00     0.022 C 
HETATM   27  C16 UNL     1      50.471  41.610  92.987  1.00  0.00     0.009 C 
ENDBRANCH  25  26
ENDBRANCH  18  24
ENDBRANCH  11  12
ENDBRANCH   7  10
BRANCH   9  28
HETATM   28  O6  UNL     1      42.214  37.598  84.252  1.00  0.00    -0.348 OA
ATOM     29  H6  UNL     1      42.896  38.191  84.545  1.00  0.00     0.215 HD
ENDBRANCH   9  28
BRANCH   9  30
HETATM   30  C20 UNL     1      40.327  36.919  85.519  1.00  0.00     0.063 C 
HETATM   31  C21 UNL     1      39.577  36.742  84.244  1.00  0.00     0.017 C 
HETATM   32  C22 UNL     1      39.866  38.116  86.312  1.00  0.00     0.017 C 
ENDBRANCH   9  30
ENDBRANCH   3   4
TORSDOF 9
ENDMDL
MODEL 4
REMARK VINA RESULT: -6.487000967      1.357      2.522
REMARK  9 active torsions:
REMARK  status: ('A' for Active; 'I' for Inactive)
REMARK    1  A    between atoms: C3_3  and  N1_4 
REMARK    2  A    between atoms: C5_7  and  C6_8 
REMARK    3  A    between atoms: C7_9  and  C8_10 
REMARK    4  A    between atoms: C10_12  and  O2_13 
REMARK    5  A    between atoms: C12_17  and  O4_18 
REMARK    6  A    between atoms: C12_17  and  C13_20 
REMARK    7  A    between atoms: C14_21  and  C15_22 
REMARK    8  A    between atoms: C19_27  and  O6_28 
REMARK    9  A    between atoms: C19_27  and  C20_30 
ROOT
HETATM    1  C1  UNL     1      44.412  34.168  83.629  1.00  0.00     0.014 C 
HETATM    2  C2  UNL     1      43.302  34.537  83.911  1.00  0.00    -0.097 C 
HETATM    3  C3  UNL     1      41.967  35.001  84.235  1.00  0.00     0.224 C 
ENDROOT
BRANCH   3   4
HETATM    4  N1  UNL     1      41.912  35.942  85.325  1.00  0.00    -0.283 N 
HETATM    5  C4  UNL     1      42.248  35.586  86.664  1.00  0.00     0.257 C 
HETATM    6  O1  UNL     1      42.734  34.456  87.025  1.00  0.00    -0.270 OA
HETATM    7  C5  UNL     1      41.926  36.747  87.492  1.00  0.00     0.241 C 
HETATM    8  O5  UNL     1      41.958  37.806  86.627  1.00  0.00    -0.319 OA
HETATM    9  C19 UNL     1      41.573  37.327  85.386  1.00  0.00     0.255 C 
BRANCH   7  10
HETATM   10  C6  UNL     1      42.850  36.913  88.654  1.00  0.00     0.011 C 
HETATM   11  C7  UNL     1      44.058  37.379  88.569  1.00  0.00    -0.023 C 
BRANCH  11  12
HETATM   12  C8  UNL     1      44.960  37.538  89.718  1.00  0.00     0.011 C 
HETATM   13  C9  UNL     1      44.345  37.454  91.067  1.00  0.00     0.043 C 
HETATM   14  C10 UNL     1      44.163  38.823  91.695  1.00  0.00     0.148 C 
HETATM   15  C11 UNL     1      45.538  39.373  92.026  1.00  0.00     0.164 C 
HETATM   16  O3  UNL     1      45.700  40.711  91.714  1.00  0.00    -0.343 OA
HETATM   17  C17 UNL     1      46.492  38.995  90.936  1.00  0.00     0.084 C 
HETATM   18  C12 UNL     1      46.966  40.403  91.207  1.00  0.00     0.187 C 
HETATM   19  C18 UNL     1      45.833  38.777  89.599  1.00  0.00     0.021 C 
BRANCH  14  20
HETATM   20  O2  UNL     1      43.476  39.712  90.907  1.00  0.00    -0.393 OA
ATOM     21  H2  UNL     1      43.304  39.395  90.027  1.00  0.00     0.210 HD
ENDBRANCH  14  20
BRANCH  18  22
HETATM   22  O4  UNL     1      47.218  41.084  90.035  1.00  0.00    -0.362 OA
ATOM     23  H4  UNL     1      47.623  40.520  89.387  1.00  0.00     0.213 HD
ENDBRANCH  18  22
BRANCH  18  24
HETATM   24  C13 UNL     1      48.031  40.436  92.225  1.00  0.00     0.037 C 
HETATM   25  C14 UNL     1      49.146  41.115  91.975  1.00  0.00    -0.026 C 
BRANCH  25  26
HETATM   26  C15 UNL     1      50.229  41.149  93.008  1.00  0.00     0.022 C 
HETATM   27  C16 UNL     1      51.031  42.414  92.876  1.00  0.00     0.009 C 
ENDBRANCH  25  26
ENDBRANCH  18  24
ENDBRANCH  11  12
ENDBRANCH   7  10
BRANCH   9  28
HETATM   28  O6  UNL     1      42.396  37.968  84.416  1.00  0.00    -0.348 OA
ATOM     29  H6  UNL     1      42.114  37.628  83.575  1.00  0.00     0.215 HD
ENDBRANCH   9  28
BRANCH   9  30
HETATM   30  C20 UNL     1      40.144  37.676  85.101  1.00  0.00     0.063 C 
HETATM   31  C21 UNL     1      39.139  36.644  85.480  1.00  0.00     0.017 C 
HETATM   32  C22 UNL     1      39.960  38.189  83.695  1.00  0.00     0.017 C 
ENDBRANCH   9  30
ENDBRANCH   3   4
TORSDOF 9
ENDMDL
MODEL 5
REMARK VINA RESULT: -6.278356038      5.730      6.905
REMARK  9 active torsions:
REMARK  status: ('A' for Active; 'I' for Inactive)
REMARK    1  A    between atoms: C3_3  and  N1_4 
REMARK    2  A    between atoms: C5_7  and  C6_8 
REMARK    3  A    between atoms: C7_9  and  C8_10 
REMARK    4  A    between atoms: C10_12  and  O2_13 
REMARK    5  A    between atoms: C12_17  and  O4_18 
REMARK    6  A    between atoms: C12_17  and  C13_20 
REMARK    7  A    between atoms: C14_21  and  C15_22 
REMARK    8  A    between atoms: C19_27  and  O6_28 
REMARK    9  A    between atoms: C19_27  and  C20_30 
ROOT
HETATM    1  C1  UNL     1      44.958  32.972  85.067  1.00  0.00     0.014 C 
HETATM    2  C2  UNL     1      43.840  33.344  85.310  1.00  0.00    -0.097 C 
HETATM    3  C3  UNL     1      42.485  33.783  85.581  1.00  0.00     0.224 C 
ENDROOT
BRANCH   3   4
HETATM    4  N1  UNL     1      42.177  35.102  85.086  1.00  0.00    -0.283 N 
HETATM    5  C4  UNL     1      42.327  36.275  85.883  1.00  0.00     0.257 C 
HETATM    6  O1  UNL     1      42.845  36.307  87.055  1.00  0.00    -0.270 OA
HETATM    7  C5  UNL     1      41.779  37.379  85.097  1.00  0.00     0.241 C 
HETATM    8  O5  UNL     1      41.854  36.950  83.801  1.00  0.00    -0.319 OA
HETATM    9  C19 UNL     1      41.714  35.573  83.821  1.00  0.00     0.255 C 
BRANCH   7  10
HETATM   10  C6  UNL     1      42.489  38.672  85.328  1.00  0.00     0.011 C 
HETATM   11  C7  UNL     1      42.867  39.479  84.385  1.00  0.00    -0.023 C 
BRANCH  11  12
HETATM   12  C8  UNL     1      43.566  40.750  84.622  1.00  0.00     0.011 C 
HETATM   13  C9  UNL     1      42.720  41.963  84.752  1.00  0.00     0.043 C 
HETATM   14  C10 UNL     1      42.732  42.803  83.487  1.00  0.00     0.148 C 
HETATM   15  C11 UNL     1      44.114  43.414  83.344  1.00  0.00     0.164 C 
HETATM   16  O3  UNL     1      44.615  43.379  82.056  1.00  0.00    -0.343 OA
HETATM   17  C17 UNL     1      45.140  42.413  83.780  1.00  0.00     0.084 C 
HETATM   18  C12 UNL     1      45.853  43.002  82.585  1.00  0.00     0.187 C 
HETATM   19  C18 UNL     1      44.694  40.982  83.630  1.00  0.00     0.021 C 
BRANCH  14  20
HETATM   20  O2  UNL     1      42.405  42.106  82.352  1.00  0.00    -0.393 OA
ATOM     21  H2  UNL     1      41.471  42.060  82.182  1.00  0.00     0.210 HD
ENDBRANCH  14  20
BRANCH  18  22
HETATM   22  O4  UNL     1      46.449  42.021  81.821  1.00  0.00    -0.362 OA
ATOM     23  H4  UNL     1      47.006  41.461  82.350  1.00  0.00     0.213 HD
ENDBRANCH  18  22
BRANCH  18  24
HETATM   24  C13 UNL     1      46.704  44.144  82.964  1.00  0.00     0.037 C 
HETATM   25  C14 UNL     1      47.978  44.156  82.586  1.00  0.00    -0.026 C 
BRANCH  25  26
HETATM   26  C15 UNL     1      48.844  45.316  82.970  1.00  0.00     0.022 C 
HETATM   27  C16 UNL     1      49.125  46.173  81.767  1.00  0.00     0.009 C 
ENDBRANCH  25  26
ENDBRANCH  18  24
ENDBRANCH  11  12
ENDBRANCH   7  10
BRANCH   9  28
HETATM   28  O6  UNL     1      42.621  35.044  82.858  1.00  0.00    -0.348 OA
ATOM     29  H6  UNL     1      43.328  35.677  82.796  1.00  0.00     0.215 HD
ENDBRANCH   9  28
BRANCH   9  30
HETATM   30  C20 UNL     1      40.324  35.174  83.431  1.00  0.00     0.063 C 
HETATM   31  C21 UNL     1      39.756  35.881  82.248  1.00  0.00     0.017 C 
HETATM   32  C22 UNL     1      39.388  35.162  84.614  1.00  0.00     0.017 C 
ENDBRANCH   9  30
ENDBRANCH   3   4
TORSDOF 9
ENDMDL
