MODEL 1
REMARK VINA RESULT: -6.708262871      0.000      0.000
REMARK  3 active torsions:
REMARK  status: ('A' for Active; 'I' for Inactive)
REMARK    1  A    between atoms: C1_2  and  C2_4 
REMARK    2  A    between atoms: C8_10  and  N2_11 
REMARK       I    between atoms: N2_11  and  C9_13 
REMARK    3  A    between atoms: C9_13  and  C10_15 
ROOT
HETATM    1  N2  UNL     1      -8.530  12.913  54.734  1.00  0.00    -0.355 N 
ATOM      2  H2  UNL     1      -8.708  13.906  54.587  1.00  0.00     0.162 HD
HETATM    3  C9  UNL     1      -8.684  12.053  53.620  1.00  0.00     0.233 C 
HETATM    4  O2  UNL     1      -8.459  10.830  53.822  1.00  0.00    -0.272 OA
ENDROOT
BRANCH   1   5
HETATM    5  C8  UNL     1      -8.147  12.506  56.041  1.00  0.00     0.092 C 
HETATM    6  C6  UNL     1      -6.875  11.701  56.089  1.00  0.00     0.010 C 
HETATM    7  C5  UNL     1      -5.644  12.523  55.912  1.00  0.00     0.011 C 
HETATM    8  C7  UNL     1      -6.813  11.042  57.454  1.00  0.00     0.025 C 
HETATM    9  C4  UNL     1      -5.574  13.607  56.982  1.00  0.00    -0.013 C 
HETATM   10  C3  UNL     1      -5.505  12.923  58.308  1.00  0.00     0.023 C 
HETATM   11  C20 UNL     1      -6.794  14.468  56.816  1.00  0.00     0.011 C 
HETATM   12  C2  UNL     1      -6.772  12.116  58.513  1.00  0.00     0.040 C 
HETATM   13  C21 UNL     1      -7.940  13.056  58.432  1.00  0.00     0.025 C 
HETATM   14  C19 UNL     1      -8.029  13.628  57.024  1.00  0.00     0.010 C 
BRANCH  12  15
HETATM   15  C1  UNL     1      -6.791  11.454  59.830  1.00  0.00     0.239 C 
HETATM   16  N1  UNL     1      -7.625  10.318  59.993  1.00  0.00    -0.061 NA
HETATM   17  O1  UNL     1      -6.112  11.836  60.816  1.00  0.00    -0.276 OA
ENDBRANCH  12  15
ENDBRANCH   1   5
BRANCH   3  18
HETATM   18  C10 UNL     1      -9.077  12.493  52.290  1.00  0.00     0.091 C 
HETATM   19  C11 UNL     1     -10.381  13.232  52.243  1.00  0.00     0.138 C 
HETATM   20  N3  UNL     1     -10.681  13.688  50.936  1.00  0.00    -0.419 N 
HETATM   21  C12 UNL     1     -10.355  12.822  49.864  1.00  0.00     0.123 C 
ATOM     22  H3  UNL     1     -11.112  14.598  50.776  1.00  0.00     0.153 HD
HETATM   23  C13 UNL     1      -9.097  12.039  50.023  1.00  0.00     0.038 C 
HETATM   24  C14 UNL     1      -9.163  11.309  51.344  1.00  0.00     0.037 C 
HETATM   25  C15 UNL     1      -7.968  13.027  50.264  1.00  0.00    -0.037 A 
HETATM   26  C16 UNL     1      -7.033  13.663  49.519  1.00  0.00     0.016 A 
HETATM   27  C18 UNL     1      -7.980  13.279  51.604  1.00  0.00     0.009 A 
HETATM   28  C17 UNL     1      -6.180  14.502  50.174  1.00  0.00     0.051 A 
HETATM   29  S1  UNL     1      -6.696  14.386  51.791  1.00  0.00    -0.104 SA
ENDBRANCH   3  18
TORSDOF 3
ENDMDL
MODEL 2
REMARK VINA RESULT: -6.642233684      1.481      2.152
REMARK  3 active torsions:
REMARK  status: ('A' for Active; 'I' for Inactive)
REMARK    1  A    between atoms: C1_2  and  C2_4 
REMARK    2  A    between atoms: C8_10  and  N2_11 
REMARK       I    between atoms: N2_11  and  C9_13 
REMARK    3  A    between atoms: C9_13  and  C10_15 
ROOT
HETATM    1  N2  UNL     1      -8.309  12.886  54.711  1.00  0.00    -0.355 N 
ATOM      2  H2  UNL     1      -8.363  13.893  54.560  1.00  0.00     0.162 HD
HETATM    3  C9  UNL     1      -8.528  12.048  53.590  1.00  0.00     0.233 C 
HETATM    4  O2  UNL     1      -8.456  10.808  53.798  1.00  0.00    -0.272 OA
ENDROOT
BRANCH   1   5
HETATM    5  C8  UNL     1      -8.019  12.439  56.029  1.00  0.00     0.092 C 
HETATM    6  C6  UNL     1      -6.736  11.660  56.149  1.00  0.00     0.010 C 
HETATM    7  C5  UNL     1      -5.515  12.515  56.098  1.00  0.00     0.011 C 
HETATM    8  C7  UNL     1      -6.765  10.954  57.490  1.00  0.00     0.025 C 
HETATM    9  C4  UNL     1      -5.555  13.560  57.208  1.00  0.00    -0.013 C 
HETATM   10  C3  UNL     1      -5.574  12.829  58.511  1.00  0.00     0.023 C 
HETATM   11  C20 UNL     1      -6.779  14.400  56.977  1.00  0.00     0.011 C 
HETATM   12  C2  UNL     1      -6.832  11.988  58.586  1.00  0.00     0.040 C 
HETATM   13  C21 UNL     1      -8.013  12.905  58.447  1.00  0.00     0.025 C 
HETATM   14  C19 UNL     1      -8.006  13.526  57.057  1.00  0.00     0.010 C 
BRANCH  12  15
HETATM   15  C1  UNL     1      -6.938  11.278  59.873  1.00  0.00     0.239 C 
HETATM   16  N1  UNL     1      -6.152  11.746  60.959  1.00  0.00    -0.061 NA
HETATM   17  O1  UNL     1      -7.682  10.284  60.067  1.00  0.00    -0.276 OA
ENDBRANCH  12  15
ENDBRANCH   1   5
BRANCH   3  18
HETATM   18  C10 UNL     1      -8.823  12.528  52.249  1.00  0.00     0.091 C 
HETATM   19  C11 UNL     1      -9.088  11.445  51.249  1.00  0.00     0.138 C 
HETATM   20  N3  UNL     1      -9.429  11.972  49.979  1.00  0.00    -0.419 N 
HETATM   21  C12 UNL     1      -8.728  13.127  49.555  1.00  0.00     0.123 C 
ATOM     22  H3  UNL     1     -10.146  11.539  49.397  1.00  0.00     0.153 HD
HETATM   23  C13 UNL     1      -8.405  14.116  50.622  1.00  0.00     0.038 C 
HETATM   24  C14 UNL     1      -7.684  13.390  51.733  1.00  0.00     0.037 C 
HETATM   25  C15 UNL     1      -9.710  14.509  51.295  1.00  0.00    -0.037 A 
HETATM   26  C16 UNL     1     -10.624  15.500  51.178  1.00  0.00     0.016 A 
HETATM   27  C18 UNL     1      -9.933  13.558  52.246  1.00  0.00     0.009 A 
HETATM   28  C17 UNL     1     -11.695  15.463  52.024  1.00  0.00     0.051 A 
HETATM   29  S1  UNL     1     -11.402  14.066  52.949  1.00  0.00    -0.104 SA
ENDBRANCH   3  18
TORSDOF 3
ENDMDL
MODEL 3
REMARK VINA RESULT: -6.462596437      3.881      6.073
REMARK  3 active torsions:
REMARK  status: ('A' for Active; 'I' for Inactive)
REMARK    1  A    between atoms: C1_2  and  C2_4 
REMARK    2  A    between atoms: C8_10  and  N2_11 
REMARK       I    between atoms: N2_11  and  C9_13 
REMARK    3  A    between atoms: C9_13  and  C10_15 
ROOT
HETATM    1  N2  UNL     1     -11.705  11.928  51.081  1.00  0.00    -0.355 N 
ATOM      2  H2  UNL     1     -11.317  11.729  50.159  1.00  0.00     0.162 HD
HETATM    3  C9  UNL     1     -13.115  11.997  51.191  1.00  0.00     0.233 C 
HETATM    4  O2  UNL     1     -13.574  12.243  52.338  1.00  0.00    -0.272 OA
ENDROOT
BRANCH   1   5
HETATM    5  C8  UNL     1     -10.785  12.113  52.149  1.00  0.00     0.092 C 
HETATM    6  C6  UNL     1      -9.486  11.371  51.981  1.00  0.00     0.010 C 
HETATM    7  C5  UNL     1      -8.566  12.000  50.991  1.00  0.00     0.011 C 
HETATM    8  C7  UNL     1      -8.796  11.363  53.331  1.00  0.00     0.025 C 
HETATM    9  C4  UNL     1      -8.256  13.437  51.397  1.00  0.00    -0.013 C 
HETATM   10  C3  UNL     1      -7.571  13.390  52.724  1.00  0.00     0.023 C 
HETATM   11  C20 UNL     1      -9.563  14.177  51.426  1.00  0.00     0.011 C 
HETATM   12  C2  UNL     1      -8.515  12.786  53.744  1.00  0.00     0.040 C 
HETATM   13  C21 UNL     1      -9.754  13.633  53.789  1.00  0.00     0.025 C 
HETATM   14  C19 UNL     1     -10.472  13.545  52.449  1.00  0.00     0.010 C 
BRANCH  12  15
HETATM   15  C1  UNL     1      -7.917  12.757  55.091  1.00  0.00     0.239 C 
HETATM   16  N1  UNL     1      -6.606  12.229  55.227  1.00  0.00    -0.061 NA
HETATM   17  O1  UNL     1      -8.497  13.173  56.125  1.00  0.00    -0.276 OA
ENDBRANCH  12  15
ENDBRANCH   1   5
BRANCH   3  18
HETATM   18  C10 UNL     1     -14.037  11.803  50.083  1.00  0.00     0.091 C 
HETATM   19  C11 UNL     1     -14.306  13.039  49.279  1.00  0.00     0.138 C 
HETATM   20  N3  UNL     1     -15.159  12.778  48.180  1.00  0.00    -0.419 N 
HETATM   21  C12 UNL     1     -16.222  11.866  48.395  1.00  0.00     0.123 C 
ATOM     22  H3  UNL     1     -15.015  13.225  47.275  1.00  0.00     0.153 HD
HETATM   23  C13 UNL     1     -15.915  10.713  49.289  1.00  0.00     0.038 C 
HETATM   24  C14 UNL     1     -15.362  11.259  50.585  1.00  0.00     0.037 C 
HETATM   25  C15 UNL     1     -14.710   9.991  48.710  1.00  0.00    -0.037 A 
HETATM   26  C16 UNL     1     -14.488   8.932  47.896  1.00  0.00     0.016 A 
HETATM   27  C18 UNL     1     -13.620  10.653  49.191  1.00  0.00     0.009 A 
HETATM   28  C17 UNL     1     -13.188   8.617  47.625  1.00  0.00     0.051 A 
HETATM   29  S1  UNL     1     -12.320   9.789  48.501  1.00  0.00    -0.104 SA
ENDBRANCH   3  18
TORSDOF 3
ENDMDL
MODEL 4
REMARK VINA RESULT: -6.423717023     20.729     22.983
REMARK  3 active torsions:
REMARK  status: ('A' for Active; 'I' for Inactive)
REMARK    1  A    between atoms: C1_2  and  C2_4 
REMARK    2  A    between atoms: C8_10  and  N2_11 
REMARK       I    between atoms: N2_11  and  C9_13 
REMARK    3  A    between atoms: C9_13  and  C10_15 
ROOT
HETATM    1  N2  UNL     1      -8.450  -8.656  50.052  1.00  0.00    -0.355 N 
ATOM      2  H2  UNL     1      -7.819  -9.130  50.699  1.00  0.00     0.162 HD
HETATM    3  C9  UNL     1      -9.670  -8.165  50.577  1.00  0.00     0.233 C 
HETATM    4  O2  UNL     1     -10.434  -7.583  49.762  1.00  0.00    -0.272 OA
ENDROOT
BRANCH   1   5
HETATM    5  C8  UNL     1      -8.030  -8.542  48.699  1.00  0.00     0.092 C 
HETATM    6  C6  UNL     1      -6.916  -7.554  48.479  1.00  0.00     0.010 C 
HETATM    7  C5  UNL     1      -5.582  -8.054  48.920  1.00  0.00     0.011 C 
HETATM    8  C7  UNL     1      -6.849  -7.278  46.990  1.00  0.00     0.025 C 
HETATM    9  C4  UNL     1      -5.236  -9.348  48.191  1.00  0.00    -0.013 C 
HETATM   10  C3  UNL     1      -5.171  -9.037  46.732  1.00  0.00     0.023 C 
HETATM   11  C20 UNL     1      -6.300 -10.349  48.542  1.00  0.00     0.011 C 
HETATM   12  C2  UNL     1      -6.534  -8.564  46.268  1.00  0.00     0.040 C 
HETATM   13  C21 UNL     1      -7.527  -9.652  46.559  1.00  0.00     0.025 C 
HETATM   14  C19 UNL     1      -7.638  -9.840  48.066  1.00  0.00     0.010 C 
BRANCH  12  15
HETATM   15  C1  UNL     1      -6.552  -8.287  44.820  1.00  0.00     0.239 C 
HETATM   16  N1  UNL     1      -7.226  -7.121  44.373  1.00  0.00    -0.061 NA
HETATM   17  O1  UNL     1      -6.005  -9.022  43.959  1.00  0.00    -0.276 OA
ENDBRANCH  12  15
ENDBRANCH   1   5
BRANCH   3  18
HETATM   18  C10 UNL     1     -10.078  -8.293  51.967  1.00  0.00     0.091 C 
HETATM   19  C11 UNL     1     -11.541  -8.558  52.161  1.00  0.00     0.138 C 
HETATM   20  N3  UNL     1     -11.868  -8.735  53.527  1.00  0.00    -0.419 N 
HETATM   21  C12 UNL     1     -11.203  -7.901  54.459  1.00  0.00     0.123 C 
ATOM     22  H3  UNL     1     -12.552  -9.430  53.827  1.00  0.00     0.153 HD
HETATM   23  C13 UNL     1      -9.777  -7.592  54.150  1.00  0.00     0.038 C 
HETATM   24  C14 UNL     1      -9.711  -7.042  52.744  1.00  0.00     0.037 C 
HETATM   25  C15 UNL     1      -9.042  -8.915  54.007  1.00  0.00    -0.037 A 
HETATM   26  C16 UNL     1      -8.302  -9.726  54.799  1.00  0.00     0.016 A 
HETATM   27  C18 UNL     1      -9.237  -9.305  52.716  1.00  0.00     0.009 A 
HETATM   28  C17 UNL     1      -7.812 -10.868  54.236  1.00  0.00     0.051 A 
HETATM   29  S1  UNL     1      -8.388 -10.784  52.637  1.00  0.00    -0.104 SA
ENDBRANCH   3  18
TORSDOF 3
ENDMDL
MODEL 5
REMARK VINA RESULT: -6.404860053      2.641      7.665
REMARK  3 active torsions:
REMARK  status: ('A' for Active; 'I' for Inactive)
REMARK    1  A    between atoms: C1_2  and  C2_4 
REMARK    2  A    between atoms: C8_10  and  N2_11 
REMARK       I    between atoms: N2_11  and  C9_13 
REMARK    3  A    between atoms: C9_13  and  C10_15 
ROOT
HETATM    1  N2  UNL     1      -9.029  13.255  55.389  1.00  0.00    -0.355 N 
ATOM      2  H2  UNL     1      -9.350  14.211  55.544  1.00  0.00     0.162 HD
HETATM    3  C9  UNL     1      -8.164  12.695  56.360  1.00  0.00     0.233 C 
HETATM    4  O2  UNL     1      -7.779  11.514  56.150  1.00  0.00    -0.272 OA
ENDROOT
BRANCH   1   5
HETATM    5  C8  UNL     1      -9.487  12.596  54.215  1.00  0.00     0.092 C 
HETATM    6  C6  UNL     1     -10.676  13.251  53.563  1.00  0.00     0.010 C 
HETATM    7  C5  UNL     1     -10.332  14.493  52.812  1.00  0.00     0.011 C 
HETATM    8  C7  UNL     1     -11.258  12.251  52.584  1.00  0.00     0.025 C 
HETATM    9  C4  UNL     1      -9.293  14.189  51.737  1.00  0.00    -0.013 C 
HETATM   10  C3  UNL     1      -9.903  13.210  50.789  1.00  0.00     0.023 C 
HETATM   11  C20 UNL     1      -8.075  13.661  52.440  1.00  0.00     0.011 C 
HETATM   12  C2  UNL     1     -10.220  11.930  51.537  1.00  0.00     0.040 C 
HETATM   13  C21 UNL     1      -8.942  11.409  52.128  1.00  0.00     0.025 C 
HETATM   14  C19 UNL     1      -8.433  12.392  53.174  1.00  0.00     0.010 C 
BRANCH  12  15
HETATM   15  C1  UNL     1     -10.780  10.900  50.645  1.00  0.00     0.239 C 
HETATM   16  N1  UNL     1     -10.048  10.561  49.476  1.00  0.00    -0.061 NA
HETATM   17  O1  UNL     1     -11.866  10.304  50.856  1.00  0.00    -0.276 OA
ENDBRANCH  12  15
ENDBRANCH   1   5
BRANCH   3  18
HETATM   18  C10 UNL     1      -7.708  13.389  57.554  1.00  0.00     0.091 C 
HETATM   19  C11 UNL     1      -8.630  14.471  58.030  1.00  0.00     0.138 C 
HETATM   20  N3  UNL     1      -8.168  15.069  59.227  1.00  0.00    -0.419 N 
HETATM   21  C12 UNL     1      -6.771  15.271  59.345  1.00  0.00     0.123 C 
ATOM     22  H3  UNL     1      -8.811  15.342  59.970  1.00  0.00     0.153 HD
HETATM   23  C13 UNL     1      -5.911  14.204  58.757  1.00  0.00     0.038 C 
HETATM   24  C14 UNL     1      -6.336  13.996  57.323  1.00  0.00     0.037 C 
HETATM   25  C15 UNL     1      -6.309  12.886  59.400  1.00  0.00    -0.037 A 
HETATM   26  C16 UNL     1      -5.890  12.126  60.439  1.00  0.00     0.016 A 
HETATM   27  C18 UNL     1      -7.369  12.430  58.675  1.00  0.00     0.009 A 
HETATM   28  C17 UNL     1      -6.567  10.964  60.672  1.00  0.00     0.051 A 
HETATM   29  S1  UNL     1      -7.753  10.961  59.453  1.00  0.00    -0.104 SA
ENDBRANCH   3  18
TORSDOF 3
ENDMDL
